MODEL 1
REMARK VINA RESULT:      -7.4      0.000      0.000
REMARK SMILES Cc1ccc(S(C)(=O)=O)cc1C(=O)NCCOCC(=O)OCCOCCOCCOCCOC(=O)c1ccc(-c2c3nc(c(-c4c(F)cc(S(=O)(=O)[O-])cc4F)c4ccc([nH]4)c(-c4c(F)cc(S(=O)(=O)[O-])cc4F)c4nc(c(-c5c(F)cc(S(=O)(=O)[O-])cc5F)c5ccc2[nH]5)C=C4)C=C3)cc1
REMARK SMILES IDX 25 1 24 2 23 3 22 4 21 5 19 6 20 7 18 8 17 9 16 10 15 11
REMARK SMILES IDX 14 12 12 13 13 14 11 16 1 17 2 18 3 19 4 20 10 21 5 22 6 23
REMARK SMILES IDX 7 24 8 25 9 26 26 27 27 28 28 29 29 30 30 31 31 32 32 33
REMARK SMILES IDX 33 34 34 35 35 36 36 37 37 38 101 39 38 40 100 41 39 42
REMARK SMILES IDX 40 43 41 44 94 45 42 46 99 47 93 48 95 49 43 50 98 51 92 52
REMARK SMILES IDX 91 53 44 55 78 56 57 57 77 58 58 59 61 60 76 61 96 62 59 63
REMARK SMILES IDX 60 64 75 66 97 67 62 68 45 69 46 70 55 71 47 72 48 73 54 74
REMARK SMILES IDX 56 75 49 76 50 77 51 78 52 79 53 80 79 81 80 82 89 83 81 84
REMARK SMILES IDX 82 85 88 86 90 87 83 88 84 89 85 90 86 91 87 92 63 93 64 94
REMARK SMILES IDX 73 95 65 96 66 97 72 98 74 99 67 100 68 101 69 102 70 103
REMARK SMILES IDX 71 104
REMARK H PARENT 14 15 95 54 61 65
REMARK Flexibility Score: inf
ROOT
ATOM      1  C   UNL A   1      38.874  28.962  32.253  1.00  0.00     0.188 C 
ENDROOT
BRANCH   1   2
ATOM      2  O   UNL A   1      39.262  28.062  31.250  1.00  0.00    -0.376 OA
BRANCH   2   3
ATOM      3  C   UNL A   1      39.972  28.736  30.267  1.00  0.00     0.202 C 
BRANCH   3   4
ATOM      4  C   UNL A   1      41.197  28.102  29.633  1.00  0.00     0.261 C 
BRANCH   4   5
ATOM      5  O   UNL A   1      40.989  27.667  28.291  1.00  0.00    -0.462 OA
BRANCH   5   6
ATOM      6  C   UNL A   1      41.149  26.341  28.101  1.00  0.00     0.332 C 
ATOM      7  O   UNL A   1      42.139  25.680  28.383  1.00  0.00    -0.250 OA
BRANCH   6   8
ATOM      8  C   UNL A   1      39.873  25.722  27.553  1.00  0.00     0.282 C 
BRANCH   8   9
ATOM      9  O   UNL A   1      39.388  24.477  28.025  1.00  0.00    -0.368 OA
BRANCH   9  10
ATOM     10  C   UNL A   1      39.662  23.346  27.188  1.00  0.00     0.182 C 
BRANCH  10  11
ATOM     11  C   UNL A   1      38.593  23.089  26.085  1.00  0.00     0.144 C 
BRANCH  11  12
ATOM     12  N   UNL A   1      38.297  21.702  25.683  1.00  0.00    -0.350 N 
ATOM     13  C   UNL A   1      37.331  20.911  25.090  1.00  0.00     0.251 C 
ATOM     14  O   UNL A   1      37.780  19.816  24.724  1.00  0.00    -0.269 OA
ATOM     15  H   UNL A   1      39.064  21.135  25.925  1.00  0.00     0.163 HD
BRANCH  13  16
ATOM     16  C   UNL A   1      35.819  21.087  24.923  1.00  0.00     0.044 A 
ATOM     17  C   UNL A   1      35.514  23.586  25.489  1.00  0.00     0.045 C 
ATOM     18  C   UNL A   1      35.014  22.232  25.107  1.00  0.00    -0.038 A 
ATOM     19  C   UNL A   1      33.600  22.131  24.987  1.00  0.00     0.005 A 
ATOM     20  C   UNL A   1      32.951  20.922  24.765  1.00  0.00     0.020 A 
ATOM     21  C   UNL A   1      35.111  19.846  24.738  1.00  0.00     0.034 A 
ATOM     22  C   UNL A   1      33.706  19.766  24.670  1.00  0.00     0.067 A 
BRANCH  22  23
ATOM     23  S   UNL A   1      32.863  18.222  24.375  1.00  0.00     0.175 S 
ATOM     24  C   UNL A   1      34.117  16.983  24.156  1.00  0.00     0.163 C 
ATOM     25  O   UNL A   1      32.164  17.908  25.602  1.00  0.00    -0.224 OA
ATOM     26  O   UNL A   1      32.156  18.321  23.107  1.00  0.00    -0.224 OA
ENDBRANCH  22  23
ENDBRANCH  13  16
ENDBRANCH  11  12
ENDBRANCH  10  11
ENDBRANCH   9  10
ENDBRANCH   8   9
ENDBRANCH   6   8
ENDBRANCH   5   6
ENDBRANCH   4   5
ENDBRANCH   3   4
ENDBRANCH   2   3
ENDBRANCH   1   2
BRANCH   1  27
ATOM     27  C   UNL A   1      37.489  29.581  32.323  1.00  0.00     0.188 C 
BRANCH  27  28
ATOM     28  O   UNL A   1      37.282  30.890  31.779  1.00  0.00    -0.377 OA
BRANCH  28  29
ATOM     29  C   UNL A   1      35.937  31.052  31.261  1.00  0.00     0.188 C 
BRANCH  29  30
ATOM     30  C   UNL A   1      35.127  32.242  31.796  1.00  0.00     0.188 C 
BRANCH  30  31
ATOM     31  O   UNL A   1      35.209  33.286  30.842  1.00  0.00    -0.376 OA
BRANCH  31  32
ATOM     32  C   UNL A   1      34.721  34.555  31.214  1.00  0.00     0.202 C 
BRANCH  32  33
ATOM     33  C   UNL A   1      35.195  34.835  32.627  1.00  0.00     0.261 C 
BRANCH  33  34
ATOM     34  O   UNL A   1      36.556  35.323  32.530  1.00  0.00    -0.460 OA
BRANCH  34  35
ATOM     35  C   UNL A   1      37.426  34.710  33.387  1.00  0.00     0.338 C 
ATOM     36  O   UNL A   1      37.246  34.655  34.592  1.00  0.00    -0.246 OA
BRANCH  35  37
ATOM     37  C   UNL A   1      38.647  34.210  32.669  1.00  0.00     0.060 A 
ATOM     38  C   UNL A   1      39.883  34.150  33.330  1.00  0.00     0.016 A 
ATOM     39  C   UNL A   1      38.626  33.978  31.302  1.00  0.00     0.016 A 
ATOM     40  C   UNL A   1      41.103  34.050  32.613  1.00  0.00     0.010 A 
ATOM     41  C   UNL A   1      39.833  33.892  30.604  1.00  0.00     0.010 A 
ATOM     42  C   UNL A   1      41.098  34.002  31.222  1.00  0.00    -0.014 A 
BRANCH  42  43
ATOM     43  C   UNL A   1      42.276  34.195  30.292  1.00  0.00     0.031 A 
ATOM     44  C   UNL A   1      43.164  32.950  30.072  1.00  0.00     0.074 A 
ATOM     45  C   UNL A   1      42.191  35.258  29.424  1.00  0.00     0.049 A 
ATOM     46  N   UNL A   1      44.123  32.795  29.210  1.00  0.00    -0.248 NA
ATOM     47  C   UNL A   1      42.995  31.710  30.859  1.00  0.00     0.031 C 
ATOM     48  C   UNL A   1      42.363  35.365  27.969  1.00  0.00     0.029 A 
ATOM     49  N   UNL A   1      41.860  36.589  29.704  1.00  0.00    -0.354 N 
ATOM     50  C   UNL A   1      44.330  31.402  29.025  1.00  0.00     0.074 A 
ATOM     51  C   UNL A   1      43.686  30.798  30.161  1.00  0.00     0.031 C 
ATOM     52  C   UNL A   1      42.330  36.615  27.510  1.00  0.00     0.029 A 
ATOM     53  C   UNL A   1      42.358  37.424  28.662  1.00  0.00     0.049 A 
ATOM     54  H   UNL A   1      41.363  36.899  30.495  1.00  0.00     0.167 HD
ATOM     55  C   UNL A   1      44.834  30.903  27.836  1.00  0.00     0.037 A 
ATOM     56  C   UNL A   1      43.415  38.248  28.886  1.00  0.00     0.037 A 
ATOM     57  C   UNL A   1      45.314  31.983  26.937  1.00  0.00     0.049 A 
ATOM     58  C   UNL A   1      44.773  37.679  28.418  1.00  0.00     0.074 A 
ATOM     59  C   UNL A   1      45.383  32.207  25.567  1.00  0.00     0.029 A 
ATOM     60  N   UNL A   1      45.794  33.156  27.501  1.00  0.00    -0.354 N 
ATOM     61  N   UNL A   1      44.980  36.540  27.780  1.00  0.00    -0.248 NA
ATOM     62  C   UNL A   1      46.026  38.388  28.658  1.00  0.00     0.031 C 
ATOM     63  C   UNL A   1      45.863  33.539  25.344  1.00  0.00     0.029 A 
ATOM     64  C   UNL A   1      46.134  34.106  26.575  1.00  0.00     0.049 A 
ATOM     65  H   UNL A   1      45.882  33.292  28.472  1.00  0.00     0.167 HD
ATOM     66  C   UNL A   1      46.337  36.327  27.609  1.00  0.00     0.074 A 
ATOM     67  C   UNL A   1      46.937  37.520  28.188  1.00  0.00     0.031 C 
ATOM     68  C   UNL A   1      46.931  35.219  27.049  1.00  0.00     0.037 A 
BRANCH  55  69
ATOM     69  C   UNL A   1      44.788  29.424  27.316  1.00  0.00     0.058 A 
ATOM     70  C   UNL A   1      45.901  28.567  27.535  1.00  0.00     0.135 A 
ATOM     71  C   UNL A   1      43.784  28.821  26.517  1.00  0.00     0.135 A 
ATOM     72  F   UNL A   1      46.892  28.921  28.364  1.00  0.00    -0.206 F 
ATOM     73  C   UNL A   1      46.057  27.298  26.953  1.00  0.00     0.059 A 
ATOM     74  C   UNL A   1      43.886  27.509  25.981  1.00  0.00     0.059 A 
ATOM     75  F   UNL A   1      42.657  29.473  26.205  1.00  0.00    -0.206 F 
ATOM     76  C   UNL A   1      45.043  26.764  26.177  1.00  0.00     0.060 A 
BRANCH  76  77
ATOM     77  S   UNL A   1      45.240  25.074  25.543  1.00  0.00     0.124 S 
ATOM     78  O   UNL A   1      46.516  25.145  24.839  1.00  0.00    -0.237 OA
ATOM     79  O   UNL A   1      45.249  24.276  26.767  1.00  0.00    -0.237 OA
ATOM     80  O   UNL A   1      44.064  24.880  24.699  1.00  0.00    -0.744 OA
ENDBRANCH  76  77
ENDBRANCH  55  69
BRANCH  56  81
ATOM     81  C   UNL A   1      42.977  39.169  29.992  1.00  0.00     0.058 A 
ATOM     82  C   UNL A   1      43.811  39.072  31.145  1.00  0.00     0.135 A 
ATOM     83  C   UNL A   1      42.556  40.461  29.626  1.00  0.00     0.135 A 
ATOM     84  F   UNL A   1      44.249  37.865  31.548  1.00  0.00    -0.206 F 
ATOM     85  C   UNL A   1      44.460  40.188  31.673  1.00  0.00     0.059 A 
ATOM     86  C   UNL A   1      43.186  41.596  30.162  1.00  0.00     0.059 A 
ATOM     87  F   UNL A   1      41.781  40.621  28.544  1.00  0.00    -0.206 F 
ATOM     88  C   UNL A   1      44.195  41.439  31.119  1.00  0.00     0.060 A 
BRANCH  88  89
ATOM     89  S   UNL A   1      45.387  42.769  31.446  1.00  0.00     0.124 S 
ATOM     90  O   UNL A   1      46.528  42.366  30.636  1.00  0.00    -0.237 OA
ATOM     91  O   UNL A   1      44.650  43.942  30.978  1.00  0.00    -0.237 OA
ATOM     92  O   UNL A   1      45.576  42.694  32.889  1.00  0.00    -0.744 OA
ENDBRANCH  88  89
ENDBRANCH  56  81
BRANCH  68  93
ATOM     93  C   UNL A   1      48.429  34.981  26.995  1.00  0.00     0.058 A 
ATOM     94  C   UNL A   1      49.175  35.099  25.821  1.00  0.00     0.135 A 
ATOM     95  C   UNL A   1      49.151  34.537  28.139  1.00  0.00     0.135 A 
ATOM     96  F   UNL A   1      48.573  35.346  24.647  1.00  0.00    -0.206 F 
ATOM     97  C   UNL A   1      50.563  34.956  25.813  1.00  0.00     0.059 A 
ATOM     98  C   UNL A   1      50.523  34.320  28.138  1.00  0.00     0.059 A 
ATOM     99  F   UNL A   1      48.560  34.320  29.321  1.00  0.00    -0.206 F 
ATOM    100  C   UNL A   1      51.229  34.592  26.982  1.00  0.00     0.060 A 
BRANCH 100 101
ATOM    101  S   UNL A   1      53.024  34.482  26.982  1.00  0.00     0.124 S 
ATOM    102  O   UNL A   1      53.410  35.681  26.246  1.00  0.00    -0.237 OA
ATOM    103  O   UNL A   1      53.310  34.500  28.414  1.00  0.00    -0.237 OA
ATOM    104  O   UNL A   1      53.295  33.219  26.303  1.00  0.00    -0.744 OA
ENDBRANCH 100 101
ENDBRANCH  68  93
ENDBRANCH  42  43
ENDBRANCH  35  37
ENDBRANCH  34  35
ENDBRANCH  33  34
ENDBRANCH  32  33
ENDBRANCH  31  32
ENDBRANCH  30  31
ENDBRANCH  29  30
ENDBRANCH  28  29
ENDBRANCH  27  28
ENDBRANCH   1  27
TORSDOF 29
ENDMDL
MODEL 2
REMARK VINA RESULT:      -7.4      4.887     13.179
REMARK SMILES Cc1ccc(S(C)(=O)=O)cc1C(=O)NCCOCC(=O)OCCOCCOCCOCCOC(=O)c1ccc(-c2c3nc(c(-c4c(F)cc(S(=O)(=O)[O-])cc4F)c4ccc([nH]4)c(-c4c(F)cc(S(=O)(=O)[O-])cc4F)c4nc(c(-c5c(F)cc(S(=O)(=O)[O-])cc5F)c5ccc2[nH]5)C=C4)C=C3)cc1
REMARK SMILES IDX 25 1 24 2 23 3 22 4 21 5 19 6 20 7 18 8 17 9 16 10 15 11
REMARK SMILES IDX 14 12 12 13 13 14 11 16 1 17 2 18 3 19 4 20 10 21 5 22 6 23
REMARK SMILES IDX 7 24 8 25 9 26 26 27 27 28 28 29 29 30 30 31 31 32 32 33
REMARK SMILES IDX 33 34 34 35 35 36 36 37 37 38 101 39 38 40 100 41 39 42
REMARK SMILES IDX 40 43 41 44 94 45 42 46 99 47 93 48 95 49 43 50 98 51 92 52
REMARK SMILES IDX 91 53 44 55 78 56 57 57 77 58 58 59 61 60 76 61 96 62 59 63
REMARK SMILES IDX 60 64 75 66 97 67 62 68 45 69 46 70 55 71 47 72 48 73 54 74
REMARK SMILES IDX 56 75 49 76 50 77 51 78 52 79 53 80 79 81 80 82 89 83 81 84
REMARK SMILES IDX 82 85 88 86 90 87 83 88 84 89 85 90 86 91 87 92 63 93 64 94
REMARK SMILES IDX 73 95 65 96 66 97 72 98 74 99 67 100 68 101 69 102 70 103
REMARK SMILES IDX 71 104
REMARK H PARENT 14 15 95 54 61 65
REMARK Flexibility Score: inf
ROOT
ATOM      1  C   UNL A   1      33.185  35.156  29.366  1.00  0.00     0.188 C 
ENDROOT
BRANCH   1   2
ATOM      2  O   UNL A   1      33.219  36.389  30.033  1.00  0.00    -0.376 OA
BRANCH   2   3
ATOM      3  C   UNL A   1      32.514  36.295  31.224  1.00  0.00     0.202 C 
BRANCH   3   4
ATOM      4  C   UNL A   1      33.240  36.376  32.556  1.00  0.00     0.261 C 
BRANCH   4   5
ATOM      5  O   UNL A   1      34.522  35.749  32.549  1.00  0.00    -0.462 OA
BRANCH   5   6
ATOM      6  C   UNL A   1      34.561  34.549  33.164  1.00  0.00     0.332 C 
ATOM      7  O   UNL A   1      33.884  33.568  32.889  1.00  0.00    -0.250 OA
BRANCH   6   8
ATOM      8  C   UNL A   1      35.649  34.528  34.225  1.00  0.00     0.282 C 
BRANCH   8   9
ATOM      9  O   UNL A   1      35.788  33.445  35.128  1.00  0.00    -0.368 OA
BRANCH   9  10
ATOM     10  C   UNL A   1      37.135  33.067  35.442  1.00  0.00     0.182 C 
BRANCH  10  11
ATOM     11  C   UNL A   1      38.001  34.213  36.041  1.00  0.00     0.144 C 
BRANCH  11  12
ATOM     12  N   UNL A   1      38.324  34.193  37.478  1.00  0.00    -0.350 N 
ATOM     13  C   UNL A   1      39.066  34.838  38.449  1.00  0.00     0.251 C 
ATOM     14  O   UNL A   1      38.691  34.554  39.595  1.00  0.00    -0.269 OA
ATOM     15  H   UNL A   1      37.833  33.451  37.899  1.00  0.00     0.163 HD
BRANCH  13  16
ATOM     16  C   UNL A   1      40.319  35.717  38.370  1.00  0.00     0.044 A 
ATOM     17  C   UNL A   1      41.777  34.404  36.693  1.00  0.00     0.045 C 
ATOM     18  C   UNL A   1      41.507  35.537  37.629  1.00  0.00    -0.038 A 
ATOM     19  C   UNL A   1      42.588  36.447  37.791  1.00  0.00     0.005 A 
ATOM     20  C   UNL A   1      42.562  37.485  38.715  1.00  0.00     0.020 A 
ATOM     21  C   UNL A   1      40.344  36.774  39.348  1.00  0.00     0.034 A 
ATOM     22  C   UNL A   1      41.447  37.633  39.522  1.00  0.00     0.067 A 
BRANCH  22  23
ATOM     23  S   UNL A   1      41.421  38.974  40.697  1.00  0.00     0.175 S 
ATOM     24  C   UNL A   1      39.722  39.234  41.146  1.00  0.00     0.163 C 
ATOM     25  O   UNL A   1      42.104  38.486  41.875  1.00  0.00    -0.224 OA
ATOM     26  O   UNL A   1      41.857  40.186  40.019  1.00  0.00    -0.224 OA
ENDBRANCH  22  23
ENDBRANCH  13  16
ENDBRANCH  11  12
ENDBRANCH  10  11
ENDBRANCH   9  10
ENDBRANCH   8   9
ENDBRANCH   6   8
ENDBRANCH   5   6
ENDBRANCH   4   5
ENDBRANCH   3   4
ENDBRANCH   2   3
ENDBRANCH   1   2
BRANCH   1  27
ATOM     27  C   UNL A   1      34.365  34.200  29.328  1.00  0.00     0.188 C 
BRANCH  27  28
ATOM     28  O   UNL A   1      34.270  33.006  28.543  1.00  0.00    -0.377 OA
BRANCH  28  29
ATOM     29  C   UNL A   1      35.330  32.068  28.858  1.00  0.00     0.188 C 
BRANCH  29  30
ATOM     30  C   UNL A   1      35.465  31.641  30.327  1.00  0.00     0.188 C 
BRANCH  30  31
ATOM     31  O   UNL A   1      36.221  30.444  30.363  1.00  0.00    -0.376 OA
BRANCH  31  32
ATOM     32  C   UNL A   1      37.028  30.210  31.495  1.00  0.00     0.202 C 
BRANCH  32  33
ATOM     33  C   UNL A   1      37.057  31.488  32.312  1.00  0.00     0.261 C 
BRANCH  33  34
ATOM     34  O   UNL A   1      38.446  31.765  32.616  1.00  0.00    -0.460 OA
BRANCH  34  35
ATOM     35  C   UNL A   1      39.247  30.657  32.608  1.00  0.00     0.338 C 
ATOM     36  O   UNL A   1      39.107  29.730  33.387  1.00  0.00    -0.246 OA
BRANCH  35  37
ATOM     37  C   UNL A   1      40.350  30.781  31.596  1.00  0.00     0.060 A 
ATOM     38  C   UNL A   1      40.098  30.531  30.239  1.00  0.00     0.016 A 
ATOM     39  C   UNL A   1      41.668  30.956  31.993  1.00  0.00     0.016 A 
ATOM     40  C   UNL A   1      41.151  30.270  29.325  1.00  0.00     0.010 A 
ATOM     41  C   UNL A   1      42.697  30.686  31.089  1.00  0.00     0.010 A 
ATOM     42  C   UNL A   1      42.473  30.263  29.759  1.00  0.00    -0.014 A 
BRANCH  42  43
ATOM     43  C   UNL A   1      43.680  29.724  29.024  1.00  0.00     0.031 A 
ATOM     44  C   UNL A   1      44.442  30.746  28.151  1.00  0.00     0.074 A 
ATOM     45  C   UNL A   1      44.223  28.564  29.525  1.00  0.00     0.049 A 
ATOM     46  N   UNL A   1      45.587  30.592  27.557  1.00  0.00    -0.248 NA
ATOM     47  C   UNL A   1      43.925  32.108  27.897  1.00  0.00     0.031 C 
ATOM     48  C   UNL A   1      45.594  28.195  29.901  1.00  0.00     0.029 A 
ATOM     49  N   UNL A   1      43.574  27.372  29.867  1.00  0.00    -0.354 N 
ATOM     50  C   UNL A   1      46.122  31.881  27.289  1.00  0.00     0.074 A 
ATOM     51  C   UNL A   1      44.991  32.763  27.414  1.00  0.00     0.031 C 
ATOM     52  C   UNL A   1      45.739  26.911  30.225  1.00  0.00     0.029 A 
ATOM     53  C   UNL A   1      44.520  26.307  29.867  1.00  0.00     0.049 A 
ATOM     54  H   UNL A   1      42.615  27.284  30.075  1.00  0.00     0.167 HD
ATOM     55  C   UNL A   1      47.487  32.087  27.199  1.00  0.00     0.037 A 
ATOM     56  C   UNL A   1      44.492  25.362  28.892  1.00  0.00     0.037 A 
ATOM     57  C   UNL A   1      48.244  30.810  27.190  1.00  0.00     0.049 A 
ATOM     58  C   UNL A   1      45.496  25.607  27.743  1.00  0.00     0.074 A 
ATOM     59  C   UNL A   1      49.478  30.357  27.643  1.00  0.00     0.029 A 
ATOM     60  N   UNL A   1      47.638  29.679  26.662  1.00  0.00    -0.354 N 
ATOM     61  N   UNL A   1      46.392  26.575  27.664  1.00  0.00    -0.248 NA
ATOM     62  C   UNL A   1      45.544  24.742  26.568  1.00  0.00     0.031 C 
ATOM     63  C   UNL A   1      49.561  28.945  27.415  1.00  0.00     0.029 A 
ATOM     64  C   UNL A   1      48.400  28.548  26.779  1.00  0.00     0.049 A 
ATOM     65  H   UNL A   1      46.746  29.689  26.244  1.00  0.00     0.167 HD
ATOM     66  C   UNL A   1      47.048  26.522  26.446  1.00  0.00     0.074 A 
ATOM     67  C   UNL A   1      46.463  25.354  25.804  1.00  0.00     0.031 C 
ATOM     68  C   UNL A   1      47.996  27.407  25.984  1.00  0.00     0.037 A 
BRANCH  55  69
ATOM     69  C   UNL A   1      48.263  33.448  27.277  1.00  0.00     0.058 A 
ATOM     70  C   UNL A   1      48.931  33.809  28.479  1.00  0.00     0.135 A 
ATOM     71  C   UNL A   1      48.301  34.477  26.303  1.00  0.00     0.135 A 
ATOM     72  F   UNL A   1      49.100  32.920  29.468  1.00  0.00    -0.206 F 
ATOM     73  C   UNL A   1      49.488  35.073  28.734  1.00  0.00     0.059 A 
ATOM     74  C   UNL A   1      48.926  35.736  26.510  1.00  0.00     0.059 A 
ATOM     75  F   UNL A   1      47.728  34.320  25.102  1.00  0.00    -0.206 F 
ATOM     76  C   UNL A   1      49.490  36.039  27.744  1.00  0.00     0.060 A 
BRANCH  76  77
ATOM     77  S   UNL A   1      50.324  37.617  28.078  1.00  0.00     0.124 S 
ATOM     78  O   UNL A   1      49.939  37.894  29.458  1.00  0.00    -0.237 OA
ATOM     79  O   UNL A   1      51.732  37.278  27.882  1.00  0.00    -0.237 OA
ATOM     80  O   UNL A   1      49.771  38.523  27.076  1.00  0.00    -0.744 OA
ENDBRANCH  76  77
ENDBRANCH  55  69
BRANCH  56  81
ATOM     81  C   UNL A   1      43.135  24.720  28.993  1.00  0.00     0.058 A 
ATOM     82  C   UNL A   1      42.311  25.005  27.864  1.00  0.00     0.135 A 
ATOM     83  C   UNL A   1      43.077  23.409  29.500  1.00  0.00     0.135 A 
ATOM     84  F   UNL A   1      42.320  26.240  27.330  1.00  0.00    -0.206 F 
ATOM     85  C   UNL A   1      41.756  23.986  27.090  1.00  0.00     0.059 A 
ATOM     86  C   UNL A   1      42.506  22.374  28.742  1.00  0.00     0.059 A 
ATOM     87  F   UNL A   1      43.838  23.074  30.552  1.00  0.00    -0.206 F 
ATOM     88  C   UNL A   1      41.928  22.666  27.501  1.00  0.00     0.060 A 
BRANCH  88  89
ATOM     89  S   UNL A   1      41.665  21.363  26.264  1.00  0.00     0.124 S 
ATOM     90  O   UNL A   1      40.230  21.446  26.030  1.00  0.00    -0.237 OA
ATOM     91  O   UNL A   1      42.521  21.823  25.171  1.00  0.00    -0.237 OA
ATOM     92  O   UNL A   1      42.128  20.162  26.947  1.00  0.00    -0.744 OA
ENDBRANCH  88  89
ENDBRANCH  56  81
BRANCH  68  93
ATOM     93  C   UNL A   1      48.596  27.372  24.590  1.00  0.00     0.058 A 
ATOM     94  C   UNL A   1      47.893  27.764  23.449  1.00  0.00     0.135 A 
ATOM     95  C   UNL A   1      49.901  26.852  24.358  1.00  0.00     0.135 A 
ATOM     96  F   UNL A   1      46.599  28.110  23.527  1.00  0.00    -0.206 F 
ATOM     97  C   UNL A   1      48.494  27.800  22.191  1.00  0.00     0.059 A 
ATOM     98  C   UNL A   1      50.495  26.812  23.103  1.00  0.00     0.059 A 
ATOM     99  F   UNL A   1      50.673  26.381  25.347  1.00  0.00    -0.206 F 
ATOM    100  C   UNL A   1      49.803  27.347  22.033  1.00  0.00     0.060 A 
BRANCH 100 101
ATOM    101  S   UNL A   1      50.595  27.466  20.424  1.00  0.00     0.124 S 
ATOM    102  O   UNL A   1      51.877  26.810  20.658  1.00  0.00    -0.237 OA
ATOM    103  O   UNL A   1      49.652  26.729  19.587  1.00  0.00    -0.237 OA
ATOM    104  O   UNL A   1      50.665  28.902  20.176  1.00  0.00    -0.744 OA
ENDBRANCH 100 101
ENDBRANCH  68  93
ENDBRANCH  42  43
ENDBRANCH  35  37
ENDBRANCH  34  35
ENDBRANCH  33  34
ENDBRANCH  32  33
ENDBRANCH  31  32
ENDBRANCH  30  31
ENDBRANCH  29  30
ENDBRANCH  28  29
ENDBRANCH  27  28
ENDBRANCH   1  27
TORSDOF 29
ENDMDL
MODEL 3
REMARK VINA RESULT:      -6.9      5.910     10.349
REMARK SMILES Cc1ccc(S(C)(=O)=O)cc1C(=O)NCCOCC(=O)OCCOCCOCCOCCOC(=O)c1ccc(-c2c3nc(c(-c4c(F)cc(S(=O)(=O)[O-])cc4F)c4ccc([nH]4)c(-c4c(F)cc(S(=O)(=O)[O-])cc4F)c4nc(c(-c5c(F)cc(S(=O)(=O)[O-])cc5F)c5ccc2[nH]5)C=C4)C=C3)cc1
REMARK SMILES IDX 25 1 24 2 23 3 22 4 21 5 19 6 20 7 18 8 17 9 16 10 15 11
REMARK SMILES IDX 14 12 12 13 13 14 11 16 1 17 2 18 3 19 4 20 10 21 5 22 6 23
REMARK SMILES IDX 7 24 8 25 9 26 26 27 27 28 28 29 29 30 30 31 31 32 32 33
REMARK SMILES IDX 33 34 34 35 35 36 36 37 37 38 101 39 38 40 100 41 39 42
REMARK SMILES IDX 40 43 41 44 94 45 42 46 99 47 93 48 95 49 43 50 98 51 92 52
REMARK SMILES IDX 91 53 44 55 78 56 57 57 77 58 58 59 61 60 76 61 96 62 59 63
REMARK SMILES IDX 60 64 75 66 97 67 62 68 45 69 46 70 55 71 47 72 48 73 54 74
REMARK SMILES IDX 56 75 49 76 50 77 51 78 52 79 53 80 79 81 80 82 89 83 81 84
REMARK SMILES IDX 82 85 88 86 90 87 83 88 84 89 85 90 86 91 87 92 63 93 64 94
REMARK SMILES IDX 73 95 65 96 66 97 72 98 74 99 67 100 68 101 69 102 70 103
REMARK SMILES IDX 71 104
REMARK H PARENT 14 15 95 54 61 65
REMARK Flexibility Score: inf
ROOT
ATOM      1  C   UNL A   1      36.942  33.790  32.532  1.00  0.00     0.188 C 
ENDROOT
BRANCH   1   2
ATOM      2  O   UNL A   1      35.920  33.619  31.587  1.00  0.00    -0.376 OA
BRANCH   2   3
ATOM      3  C   UNL A   1      36.099  32.418  30.917  1.00  0.00     0.202 C 
BRANCH   3   4
ATOM      4  C   UNL A   1      37.374  32.157  30.134  1.00  0.00     0.261 C 
BRANCH   4   5
ATOM      5  O   UNL A   1      37.154  31.904  28.748  1.00  0.00    -0.462 OA
BRANCH   5   6
ATOM      6  C   UNL A   1      36.427  30.797  28.490  1.00  0.00     0.332 C 
ATOM      7  O   UNL A   1      36.726  29.647  28.778  1.00  0.00    -0.250 OA
BRANCH   6   8
ATOM      8  C   UNL A   1      35.099  31.168  27.850  1.00  0.00     0.282 C 
BRANCH   8   9
ATOM      9  O   UNL A   1      33.977  30.303  27.909  1.00  0.00    -0.368 OA
BRANCH   9  10
ATOM     10  C   UNL A   1      32.927  30.584  26.974  1.00  0.00     0.182 C 
BRANCH  10  11
ATOM     11  C   UNL A   1      33.150  29.979  25.557  1.00  0.00     0.144 C 
BRANCH  11  12
ATOM     12  N   UNL A   1      33.060  28.519  25.378  1.00  0.00    -0.350 N 
ATOM     13  C   UNL A   1      32.292  27.526  24.800  1.00  0.00     0.251 C 
ATOM     14  O   UNL A   1      32.898  26.449  24.717  1.00  0.00    -0.269 OA
ATOM     15  H   UNL A   1      33.824  28.099  25.836  1.00  0.00     0.163 HD
BRANCH  13  16
ATOM     16  C   UNL A   1      30.821  27.483  24.373  1.00  0.00     0.044 A 
ATOM     17  C   UNL A   1      30.358  24.944  24.339  1.00  0.00     0.045 C 
ATOM     18  C   UNL A   1      29.973  26.376  24.153  1.00  0.00    -0.038 A 
ATOM     19  C   UNL A   1      28.655  26.579  23.660  1.00  0.00     0.005 A 
ATOM     20  C   UNL A   1      28.172  27.834  23.307  1.00  0.00     0.020 A 
ATOM     21  C   UNL A   1      30.304  28.761  23.955  1.00  0.00     0.034 A 
ATOM     22  C   UNL A   1      29.010  28.929  23.425  1.00  0.00     0.067 A 
BRANCH  22  23
ATOM     23  S   UNL A   1      28.376  30.536  22.978  1.00  0.00     0.175 S 
ATOM     24  C   UNL A   1      28.114  30.516  21.221  1.00  0.00     0.163 C 
ATOM     25  O   UNL A   1      27.076  30.640  23.603  1.00  0.00    -0.224 OA
ATOM     26  O   UNL A   1      29.415  31.524  23.228  1.00  0.00    -0.224 OA
ENDBRANCH  22  23
ENDBRANCH  13  16
ENDBRANCH  11  12
ENDBRANCH  10  11
ENDBRANCH   9  10
ENDBRANCH   8   9
ENDBRANCH   6   8
ENDBRANCH   5   6
ENDBRANCH   4   5
ENDBRANCH   3   4
ENDBRANCH   2   3
ENDBRANCH   1   2
BRANCH   1  27
ATOM     27  C   UNL A   1      36.698  34.332  33.930  1.00  0.00     0.188 C 
BRANCH  27  28
ATOM     28  O   UNL A   1      37.813  34.785  34.706  1.00  0.00    -0.377 OA
BRANCH  28  29
ATOM     29  C   UNL A   1      38.719  33.702  35.033  1.00  0.00     0.188 C 
BRANCH  29  30
ATOM     30  C   UNL A   1      40.169  33.840  34.547  1.00  0.00     0.188 C 
BRANCH  30  31
ATOM     31  O   UNL A   1      40.149  34.555  33.324  1.00  0.00    -0.376 OA
BRANCH  31  32
ATOM     32  C   UNL A   1      40.744  33.949  32.199  1.00  0.00     0.202 C 
BRANCH  32  33
ATOM     33  C   UNL A   1      41.075  32.516  32.569  1.00  0.00     0.261 C 
BRANCH  33  34
ATOM     34  O   UNL A   1      41.079  31.750  31.338  1.00  0.00    -0.460 OA
BRANCH  34  35
ATOM     35  C   UNL A   1      40.507  30.514  31.454  1.00  0.00     0.338 C 
ATOM     36  O   UNL A   1      39.483  30.311  32.083  1.00  0.00    -0.246 OA
BRANCH  35  37
ATOM     37  C   UNL A   1      41.344  29.455  30.795  1.00  0.00     0.060 A 
ATOM     38  C   UNL A   1      41.985  28.476  31.568  1.00  0.00     0.016 A 
ATOM     39  C   UNL A   1      41.656  29.529  29.445  1.00  0.00     0.016 A 
ATOM     40  C   UNL A   1      43.060  27.708  31.049  1.00  0.00     0.010 A 
ATOM     41  C   UNL A   1      42.722  28.776  28.947  1.00  0.00     0.010 A 
ATOM     42  C   UNL A   1      43.500  27.907  29.744  1.00  0.00    -0.014 A 
BRANCH  42  43
ATOM     43  C   UNL A   1      44.789  27.415  29.124  1.00  0.00     0.031 A 
ATOM     44  C   UNL A   1      46.039  28.278  29.408  1.00  0.00     0.074 A 
ATOM     45  C   UNL A   1      44.820  26.087  28.770  1.00  0.00     0.049 A 
ATOM     46  N   UNL A   1      47.279  28.000  29.141  1.00  0.00    -0.248 NA
ATOM     47  C   UNL A   1      45.954  29.595  30.077  1.00  0.00     0.031 C 
ATOM     48  C   UNL A   1      45.771  25.007  29.062  1.00  0.00     0.029 A 
ATOM     49  N   UNL A   1      43.881  25.358  28.031  1.00  0.00    -0.354 N 
ATOM     50  C   UNL A   1      48.101  28.805  29.975  1.00  0.00     0.074 A 
ATOM     51  C   UNL A   1      47.221  29.847  30.434  1.00  0.00     0.031 C 
ATOM     52  C   UNL A   1      45.515  23.871  28.416  1.00  0.00     0.029 A 
ATOM     53  C   UNL A   1      44.510  24.200  27.488  1.00  0.00     0.049 A 
ATOM     54  H   UNL A   1      42.937  25.606  27.905  1.00  0.00     0.167 HD
ATOM     55  C   UNL A   1      49.367  28.390  30.351  1.00  0.00     0.037 A 
ATOM     56  C   UNL A   1      44.763  24.115  26.156  1.00  0.00     0.037 A 
ATOM     57  C   UNL A   1      49.797  27.175  29.612  1.00  0.00     0.049 A 
ATOM     58  C   UNL A   1      46.208  24.491  25.759  1.00  0.00     0.074 A 
ATOM     59  C   UNL A   1      50.579  26.055  29.869  1.00  0.00     0.029 A 
ATOM     60  N   UNL A   1      49.307  26.965  28.331  1.00  0.00    -0.354 N 
ATOM     61  N   UNL A   1      47.199  24.805  26.575  1.00  0.00    -0.248 NA
ATOM     62  C   UNL A   1      46.633  24.541  24.364  1.00  0.00     0.031 C 
ATOM     63  C   UNL A   1      50.499  25.172  28.743  1.00  0.00     0.029 A 
ATOM     64  C   UNL A   1      49.711  25.777  27.783  1.00  0.00     0.049 A 
ATOM     65  H   UNL A   1      48.726  27.607  27.863  1.00  0.00     0.167 HD
ATOM     66  C   UNL A   1      48.320  25.170  25.848  1.00  0.00     0.074 A 
ATOM     67  C   UNL A   1      47.895  24.989  24.468  1.00  0.00     0.031 C 
ATOM     68  C   UNL A   1      49.517  25.622  26.356  1.00  0.00     0.037 A 
BRANCH  55  69
ATOM     69  C   UNL A   1      50.253  28.940  31.522  1.00  0.00     0.058 A 
ATOM     70  C   UNL A   1      51.582  29.370  31.257  1.00  0.00     0.135 A 
ATOM     71  C   UNL A   1      49.937  28.965  32.904  1.00  0.00     0.135 A 
ATOM     72  F   UNL A   1      52.018  29.525  29.999  1.00  0.00    -0.206 F 
ATOM     73  C   UNL A   1      52.528  29.694  32.243  1.00  0.00     0.059 A 
ATOM     74  C   UNL A   1      50.854  29.364  33.914  1.00  0.00     0.059 A 
ATOM     75  F   UNL A   1      48.729  28.598  33.349  1.00  0.00    -0.206 F 
ATOM     76  C   UNL A   1      52.161  29.696  33.578  1.00  0.00     0.060 A 
BRANCH  76  77
ATOM     77  S   UNL A   1      53.382  30.235  34.808  1.00  0.00     0.124 S 
ATOM     78  O   UNL A   1      54.251  29.068  34.926  1.00  0.00    -0.237 OA
ATOM     79  O   UNL A   1      53.988  31.398  34.164  1.00  0.00    -0.237 OA
ATOM     80  O   UNL A   1      52.577  30.542  35.986  1.00  0.00    -0.744 OA
ENDBRANCH  76  77
ENDBRANCH  55  69
BRANCH  56  81
ATOM     81  C   UNL A   1      43.420  24.219  25.485  1.00  0.00     0.058 A 
ATOM     82  C   UNL A   1      42.466  23.308  26.029  1.00  0.00     0.135 A 
ATOM     83  C   UNL A   1      42.953  25.509  25.175  1.00  0.00     0.135 A 
ATOM     84  F   UNL A   1      42.849  22.059  26.348  1.00  0.00    -0.206 F 
ATOM     85  C   UNL A   1      41.250  23.750  26.550  1.00  0.00     0.059 A 
ATOM     86  C   UNL A   1      41.723  25.964  25.677  1.00  0.00     0.059 A 
ATOM     87  F   UNL A   1      43.803  26.417  24.673  1.00  0.00    -0.206 F 
ATOM     88  C   UNL A   1      40.924  25.100  26.434  1.00  0.00     0.060 A 
BRANCH  88  89
ATOM     89  S   UNL A   1      39.631  25.745  27.533  1.00  0.00     0.124 S 
ATOM     90  O   UNL A   1      38.471  24.959  27.137  1.00  0.00    -0.237 OA
ATOM     91  O   UNL A   1      40.191  25.445  28.850  1.00  0.00    -0.237 OA
ATOM     92  O   UNL A   1      39.584  27.161  27.190  1.00  0.00    -0.744 OA
ENDBRANCH  88  89
ENDBRANCH  56  81
BRANCH  68  93
ATOM     93  C   UNL A   1      50.674  26.124  25.510  1.00  0.00     0.058 A 
ATOM     94  C   UNL A   1      51.907  25.473  25.447  1.00  0.00     0.135 A 
ATOM     95  C   UNL A   1      50.589  27.350  24.791  1.00  0.00     0.135 A 
ATOM     96  F   UNL A   1      52.158  24.403  26.216  1.00  0.00    -0.206 F 
ATOM     97  C   UNL A   1      52.926  25.909  24.600  1.00  0.00     0.059 A 
ATOM     98  C   UNL A   1      51.616  27.840  23.996  1.00  0.00     0.059 A 
ATOM     99  F   UNL A   1      49.490  28.116  24.805  1.00  0.00    -0.206 F 
ATOM    100  C   UNL A   1      52.761  27.079  23.860  1.00  0.00     0.060 A 
BRANCH 100 101
ATOM    101  S   UNL A   1      54.049  27.593  22.715  1.00  0.00     0.124 S 
ATOM    102  O   UNL A   1      55.251  27.504  23.538  1.00  0.00    -0.237 OA
ATOM    103  O   UNL A   1      53.921  26.582  21.670  1.00  0.00    -0.237 OA
ATOM    104  O   UNL A   1      53.654  28.945  22.333  1.00  0.00    -0.744 OA
ENDBRANCH 100 101
ENDBRANCH  68  93
ENDBRANCH  42  43
ENDBRANCH  35  37
ENDBRANCH  34  35
ENDBRANCH  33  34
ENDBRANCH  32  33
ENDBRANCH  31  32
ENDBRANCH  30  31
ENDBRANCH  29  30
ENDBRANCH  28  29
ENDBRANCH  27  28
ENDBRANCH   1  27
TORSDOF 29
ENDMDL
