MODEL 1
REMARK VINA RESULT:      -9.4      0.000      0.000
REMARK SMILES CCCc1cc(OC(F)(F)F)cc2c1O[C@H](C(F)(F)F)C(C(=O)OCCOCCOCCOCCOC(=O)c1ccc(-c3c4nc(c(-c5c(F)cc(S(=O)(=O)[O-])cc5F)c5ccc([nH]5)c(-c5c(F)cc(S(=O)(=O)[O-])cc5F)c5nc(c(-c6c(F)cc(S(=O)(=O)[O-])cc6F)c6ccc3[nH]6)C=C5)C=C4)cc1)=C2
REMARK SMILES IDX 31 1 30 2 29 3 28 4 27 5 26 6 25 7 24 8 22 9 23 10 21 11
REMARK SMILES IDX 4 12 5 13 14 14 6 15 13 16 15 17 12 18 105 19 16 20 3 21
REMARK SMILES IDX 2 22 1 23 7 24 8 25 9 26 10 27 11 28 17 29 18 30 19 31 20 32
REMARK SMILES IDX 32 33 33 34 34 35 35 36 36 37 37 38 38 39 39 40 40 41 104 42
REMARK SMILES IDX 41 43 103 44 42 45 43 46 44 47 97 48 45 49 102 50 96 51
REMARK SMILES IDX 98 52 46 53 101 54 95 55 94 56 47 58 81 59 60 60 80 61 61 62
REMARK SMILES IDX 64 63 79 64 99 65 62 66 63 67 78 69 100 70 65 71 48 72 49 73
REMARK SMILES IDX 58 74 50 75 51 76 57 77 59 78 52 79 53 80 54 81 55 82 56 83
REMARK SMILES IDX 82 84 83 85 92 86 84 87 85 88 91 89 93 90 86 91 87 92 88 93
REMARK SMILES IDX 89 94 90 95 66 96 67 97 76 98 68 99 69 100 75 101 77 102
REMARK SMILES IDX 70 103 71 104 72 105 73 106 74 107
REMARK H PARENT 98 57 64 68
REMARK Flexibility Score: inf
ROOT
ATOM      1  C   UNL A   1      45.994  39.328  25.886  1.00  0.00     0.188 C 
ENDROOT
BRANCH   1   2
ATOM      2  O   UNL A   1      47.001  39.445  24.887  1.00  0.00    -0.377 OA
BRANCH   2   3
ATOM      3  C   UNL A   1      46.869  40.426  23.876  1.00  0.00     0.188 C 
BRANCH   3   4
ATOM      4  C   UNL A   1      47.239  41.881  24.232  1.00  0.00     0.188 C 
BRANCH   4   5
ATOM      5  O   UNL A   1      47.306  42.740  23.114  1.00  0.00    -0.376 OA
BRANCH   5   6
ATOM      6  C   UNL A   1      48.205  42.475  22.059  1.00  0.00     0.202 C 
BRANCH   6   7
ATOM      7  C   UNL A   1      47.973  42.958  20.617  1.00  0.00     0.261 C 
BRANCH   7   8
ATOM      8  O   UNL A   1      48.348  44.299  20.287  1.00  0.00    -0.460 OA
BRANCH   8   9
ATOM      9  C   UNL A   1      47.694  45.298  20.911  1.00  0.00     0.338 C 
ATOM     10  O   UNL A   1      48.195  46.301  21.395  1.00  0.00    -0.246 OA
BRANCH   9  11
ATOM     11  C   UNL A   1      46.235  45.099  20.798  1.00  0.00     0.087 C 
ATOM     12  C   UNL A   1      42.473  43.413  20.399  1.00  0.00    -0.002 A 
ATOM     13  C   UNL A   1      41.582  43.962  19.468  1.00  0.00     0.054 A 
ATOM     14  C   UNL A   1      43.759  43.954  20.459  1.00  0.00     0.131 A 
ATOM     15  C   UNL A   1      41.995  44.951  18.563  1.00  0.00     0.130 A 
ATOM     16  C   UNL A   1      44.180  44.983  19.597  1.00  0.00     0.021 A 
ATOM     17  O   UNL A   1      44.617  43.411  21.389  1.00  0.00    -0.475 OA
ATOM     18  C   UNL A   1      43.289  45.476  18.645  1.00  0.00     0.058 A 
ATOM     19  C   UNL A   1      45.568  45.434  19.679  1.00  0.00     0.027 C 
ATOM     20  C   UNL A   1      45.535  44.388  21.932  1.00  0.00     0.316 C 
BRANCH  12  21
ATOM     21  C   UNL A   1      42.097  42.311  21.366  1.00  0.00     0.039 C 
BRANCH  21  22
ATOM     22  C   UNL A   1      41.418  42.715  22.675  1.00  0.00     0.001 C 
ATOM     23  C   UNL A   1      41.970  41.975  23.885  1.00  0.00     0.004 C 
ENDBRANCH  21  22
ENDBRANCH  12  21
BRANCH  15  24
ATOM     24  O   UNL A   1      41.220  45.471  17.563  1.00  0.00    -0.406 OA
BRANCH  24  25
ATOM     25  C   UNL A   1      41.780  45.461  16.258  1.00  0.00     0.573 C 
ATOM     26  F   UNL A   1      42.630  44.424  16.084  1.00  0.00    -0.132 F 
ATOM     27  F   UNL A   1      40.808  45.399  15.320  1.00  0.00    -0.132 F 
ATOM     28  F   UNL A   1      42.473  46.604  16.065  1.00  0.00    -0.132 F 
ENDBRANCH  24  25
ENDBRANCH  15  24
BRANCH  20  29
ATOM     29  C   UNL A   1      44.790  45.291  22.946  1.00  0.00     0.430 C 
ATOM     30  F   UNL A   1      44.699  46.568  22.491  1.00  0.00    -0.167 F 
ATOM     31  F   UNL A   1      43.519  44.877  23.151  1.00  0.00    -0.167 F 
ATOM     32  F   UNL A   1      45.387  45.351  24.159  1.00  0.00    -0.167 F 
ENDBRANCH  20  29
ENDBRANCH   9  11
ENDBRANCH   8   9
ENDBRANCH   7   8
ENDBRANCH   6   7
ENDBRANCH   5   6
ENDBRANCH   4   5
ENDBRANCH   3   4
ENDBRANCH   2   3
ENDBRANCH   1   2
BRANCH   1  33
ATOM     33  C   UNL A   1      46.212  39.816  27.340  1.00  0.00     0.188 C 
BRANCH  33  34
ATOM     34  O   UNL A   1      45.042  40.230  28.025  1.00  0.00    -0.376 OA
BRANCH  34  35
ATOM     35  C   UNL A   1      44.586  39.441  29.109  1.00  0.00     0.202 C 
BRANCH  35  36
ATOM     36  C   UNL A   1      44.761  37.922  28.975  1.00  0.00     0.261 C 
BRANCH  36  37
ATOM     37  O   UNL A   1      45.598  37.300  29.960  1.00  0.00    -0.460 OA
BRANCH  37  38
ATOM     38  C   UNL A   1      46.825  36.906  29.558  1.00  0.00     0.338 C 
ATOM     39  O   UNL A   1      47.855  37.561  29.592  1.00  0.00    -0.246 OA
BRANCH  38  40
ATOM     40  C   UNL A   1      46.757  35.463  29.254  1.00  0.00     0.060 A 
ATOM     41  C   UNL A   1      46.407  35.060  27.957  1.00  0.00     0.016 A 
ATOM     42  C   UNL A   1      47.057  34.515  30.234  1.00  0.00     0.016 A 
ATOM     43  C   UNL A   1      46.321  33.703  27.650  1.00  0.00     0.010 A 
ATOM     44  C   UNL A   1      46.945  33.155  29.932  1.00  0.00     0.010 A 
ATOM     45  C   UNL A   1      46.540  32.746  28.648  1.00  0.00    -0.014 A 
BRANCH  45  46
ATOM     46  C   UNL A   1      46.127  31.343  28.402  1.00  0.00     0.031 A 
ATOM     47  C   UNL A   1      44.692  30.971  28.668  1.00  0.00     0.074 A 
ATOM     48  C   UNL A   1      46.986  30.433  27.906  1.00  0.00     0.049 A 
ATOM     49  N   UNL A   1      44.093  29.819  28.525  1.00  0.00    -0.248 NA
ATOM     50  C   UNL A   1      43.815  32.049  29.160  1.00  0.00     0.031 C 
ATOM     51  C   UNL A   1      48.387  30.685  27.577  1.00  0.00     0.029 A 
ATOM     52  N   UNL A   1      46.798  29.109  27.597  1.00  0.00    -0.354 N 
ATOM     53  C   UNL A   1      42.775  30.028  28.915  1.00  0.00     0.074 A 
ATOM     54  C   UNL A   1      42.668  31.409  29.331  1.00  0.00     0.031 C 
ATOM     55  C   UNL A   1      48.938  29.546  27.119  1.00  0.00     0.029 A 
ATOM     56  C   UNL A   1      47.936  28.479  27.151  1.00  0.00     0.049 A 
ATOM     57  H   UNL A   1      45.931  28.653  27.686  1.00  0.00     0.167 HD
ATOM     58  C   UNL A   1      41.743  29.152  28.916  1.00  0.00     0.037 A 
ATOM     59  C   UNL A   1      48.147  27.187  26.828  1.00  0.00     0.037 A 
ATOM     60  C   UNL A   1      41.856  27.780  28.497  1.00  0.00     0.049 A 
ATOM     61  C   UNL A   1      46.996  26.213  26.897  1.00  0.00     0.074 A 
ATOM     62  C   UNL A   1      40.864  26.818  28.435  1.00  0.00     0.029 A 
ATOM     63  N   UNL A   1      43.032  27.171  28.082  1.00  0.00    -0.354 N 
ATOM     64  N   UNL A   1      45.746  26.434  27.229  1.00  0.00    -0.248 NA
ATOM     65  C   UNL A   1      47.282  24.816  26.539  1.00  0.00     0.031 C 
ATOM     66  C   UNL A   1      41.452  25.611  28.042  1.00  0.00     0.029 A 
ATOM     67  C   UNL A   1      42.796  25.837  27.793  1.00  0.00     0.049 A 
ATOM     68  H   UNL A   1      43.903  27.621  28.003  1.00  0.00     0.167 HD
ATOM     69  C   UNL A   1      45.092  25.211  27.095  1.00  0.00     0.074 A 
ATOM     70  C   UNL A   1      46.082  24.260  26.635  1.00  0.00     0.031 C 
ATOM     71  C   UNL A   1      43.792  24.903  27.330  1.00  0.00     0.037 A 
BRANCH  58  72
ATOM     72  C   UNL A   1      40.411  29.639  29.412  1.00  0.00     0.058 A 
ATOM     73  C   UNL A   1      40.167  29.884  30.773  1.00  0.00     0.135 A 
ATOM     74  C   UNL A   1      39.373  29.906  28.504  1.00  0.00     0.135 A 
ATOM     75  F   UNL A   1      41.115  29.624  31.688  1.00  0.00    -0.206 F 
ATOM     76  C   UNL A   1      38.938  30.359  31.218  1.00  0.00     0.059 A 
ATOM     77  C   UNL A   1      38.146  30.411  28.923  1.00  0.00     0.059 A 
ATOM     78  F   UNL A   1      39.549  29.683  27.192  1.00  0.00    -0.206 F 
ATOM     79  C   UNL A   1      37.934  30.625  30.284  1.00  0.00     0.060 A 
BRANCH  79  80
ATOM     80  S   UNL A   1      36.354  31.265  30.875  1.00  0.00     0.124 S 
ATOM     81  O   UNL A   1      35.560  31.259  29.650  1.00  0.00    -0.237 OA
ATOM     82  O   UNL A   1      35.976  30.275  31.880  1.00  0.00    -0.237 OA
ATOM     83  O   UNL A   1      36.694  32.585  31.396  1.00  0.00    -0.744 OA
ENDBRANCH  79  80
ENDBRANCH  58  72
BRANCH  59  84
ATOM     84  C   UNL A   1      49.507  26.728  26.429  1.00  0.00     0.058 A 
ATOM     85  C   UNL A   1      49.938  26.789  25.095  1.00  0.00     0.135 A 
ATOM     86  C   UNL A   1      50.397  26.198  27.377  1.00  0.00     0.135 A 
ATOM     87  F   UNL A   1      49.120  27.273  24.148  1.00  0.00    -0.206 F 
ATOM     88  C   UNL A   1      51.192  26.326  24.711  1.00  0.00     0.059 A 
ATOM     89  C   UNL A   1      51.668  25.758  27.023  1.00  0.00     0.059 A 
ATOM     90  F   UNL A   1      50.040  26.123  28.668  1.00  0.00    -0.206 F 
ATOM     91  C   UNL A   1      52.053  25.816  25.684  1.00  0.00     0.060 A 
BRANCH  91  92
ATOM     92  S   UNL A   1      53.697  25.260  25.183  1.00  0.00     0.124 S 
ATOM     93  O   UNL A   1      54.543  25.904  26.181  1.00  0.00    -0.237 OA
ATOM     94  O   UNL A   1      53.572  23.809  25.291  1.00  0.00    -0.237 OA
ATOM     95  O   UNL A   1      53.824  25.770  23.822  1.00  0.00    -0.744 OA
ENDBRANCH  91  92
ENDBRANCH  59  84
BRANCH  71  96
ATOM     96  C   UNL A   1      43.349  23.488  27.063  1.00  0.00     0.058 A 
ATOM     97  C   UNL A   1      43.103  22.579  28.104  1.00  0.00     0.135 A 
ATOM     98  C   UNL A   1      43.116  23.054  25.747  1.00  0.00     0.135 A 
ATOM     99  F   UNL A   1      43.311  22.939  29.380  1.00  0.00    -0.206 F 
ATOM    100  C   UNL A   1      42.670  21.281  27.848  1.00  0.00     0.059 A 
ATOM    101  C   UNL A   1      42.651  21.771  25.471  1.00  0.00     0.059 A 
ATOM    102  F   UNL A   1      43.323  23.885  24.714  1.00  0.00    -0.206 F 
ATOM    103  C   UNL A   1      42.444  20.887  26.529  1.00  0.00     0.060 A 
BRANCH 103 104
ATOM    104  S   UNL A   1      41.857  19.209  26.214  1.00  0.00     0.124 S 
ATOM    105  O   UNL A   1      42.670  18.823  25.066  1.00  0.00    -0.237 OA
ATOM    106  O   UNL A   1      42.168  18.531  27.469  1.00  0.00    -0.237 OA
ATOM    107  O   UNL A   1      40.434  19.390  25.943  1.00  0.00    -0.744 OA
ENDBRANCH 103 104
ENDBRANCH  71  96
ENDBRANCH  45  46
ENDBRANCH  38  40
ENDBRANCH  37  38
ENDBRANCH  36  37
ENDBRANCH  35  36
ENDBRANCH  34  35
ENDBRANCH  33  34
ENDBRANCH   1  33
TORSDOF 28
ENDMDL
MODEL 2
REMARK VINA RESULT:      -9.2      1.579      2.458
REMARK SMILES CCCc1cc(OC(F)(F)F)cc2c1O[C@H](C(F)(F)F)C(C(=O)OCCOCCOCCOCCOC(=O)c1ccc(-c3c4nc(c(-c5c(F)cc(S(=O)(=O)[O-])cc5F)c5ccc([nH]5)c(-c5c(F)cc(S(=O)(=O)[O-])cc5F)c5nc(c(-c6c(F)cc(S(=O)(=O)[O-])cc6F)c6ccc3[nH]6)C=C5)C=C4)cc1)=C2
REMARK SMILES IDX 31 1 30 2 29 3 28 4 27 5 26 6 25 7 24 8 22 9 23 10 21 11
REMARK SMILES IDX 4 12 5 13 14 14 6 15 13 16 15 17 12 18 105 19 16 20 3 21
REMARK SMILES IDX 2 22 1 23 7 24 8 25 9 26 10 27 11 28 17 29 18 30 19 31 20 32
REMARK SMILES IDX 32 33 33 34 34 35 35 36 36 37 37 38 38 39 39 40 40 41 104 42
REMARK SMILES IDX 41 43 103 44 42 45 43 46 44 47 97 48 45 49 102 50 96 51
REMARK SMILES IDX 98 52 46 53 101 54 95 55 94 56 47 58 81 59 60 60 80 61 61 62
REMARK SMILES IDX 64 63 79 64 99 65 62 66 63 67 78 69 100 70 65 71 48 72 49 73
REMARK SMILES IDX 58 74 50 75 51 76 57 77 59 78 52 79 53 80 54 81 55 82 56 83
REMARK SMILES IDX 82 84 83 85 92 86 84 87 85 88 91 89 93 90 86 91 87 92 88 93
REMARK SMILES IDX 89 94 90 95 66 96 67 97 76 98 68 99 69 100 75 101 77 102
REMARK SMILES IDX 70 103 71 104 72 105 73 106 74 107
REMARK H PARENT 98 57 64 68
REMARK Flexibility Score: inf
ROOT
ATOM      1  C   UNL A   1      45.781  39.610  25.817  1.00  0.00     0.188 C 
ENDROOT
BRANCH   1   2
ATOM      2  O   UNL A   1      46.951  40.008  26.523  1.00  0.00    -0.377 OA
BRANCH   2   3
ATOM      3  C   UNL A   1      46.911  41.161  27.342  1.00  0.00     0.188 C 
BRANCH   3   4
ATOM      4  C   UNL A   1      46.470  42.490  26.693  1.00  0.00     0.188 C 
BRANCH   4   5
ATOM      5  O   UNL A   1      47.371  42.972  25.720  1.00  0.00    -0.376 OA
BRANCH   5   6
ATOM      6  C   UNL A   1      47.149  42.721  24.348  1.00  0.00     0.202 C 
BRANCH   6   7
ATOM      7  C   UNL A   1      46.088  43.466  23.520  1.00  0.00     0.261 C 
BRANCH   7   8
ATOM      8  O   UNL A   1      46.078  44.896  23.566  1.00  0.00    -0.460 OA
BRANCH   8   9
ATOM      9  C   UNL A   1      46.957  45.549  22.782  1.00  0.00     0.338 C 
ATOM     10  O   UNL A   1      48.135  45.756  23.030  1.00  0.00    -0.246 OA
BRANCH   9  11
ATOM     11  C   UNL A   1      46.341  45.858  21.476  1.00  0.00     0.087 C 
ATOM     12  C   UNL A   1      44.145  47.610  18.433  1.00  0.00    -0.002 A 
ATOM     13  C   UNL A   1      43.332  46.798  17.632  1.00  0.00     0.054 A 
ATOM     14  C   UNL A   1      44.815  47.004  19.497  1.00  0.00     0.131 A 
ATOM     15  C   UNL A   1      43.122  45.447  17.945  1.00  0.00     0.130 A 
ATOM     16  C   UNL A   1      44.661  45.640  19.799  1.00  0.00     0.021 A 
ATOM     17  O   UNL A   1      45.621  47.815  20.266  1.00  0.00    -0.475 OA
ATOM     18  C   UNL A   1      43.807  44.865  19.017  1.00  0.00     0.058 A 
ATOM     19  C   UNL A   1      45.341  45.108  20.980  1.00  0.00     0.027 C 
ATOM     20  C   UNL A   1      46.782  47.120  20.774  1.00  0.00     0.316 C 
BRANCH  12  21
ATOM     21  C   UNL A   1      44.370  49.085  18.172  1.00  0.00     0.039 C 
BRANCH  21  22
ATOM     22  C   UNL A   1      43.965  49.634  16.804  1.00  0.00     0.001 C 
ATOM     23  C   UNL A   1      44.662  50.943  16.459  1.00  0.00     0.004 C 
ENDBRANCH  21  22
ENDBRANCH  12  21
BRANCH  15  24
ATOM     24  O   UNL A   1      42.273  44.610  17.276  1.00  0.00    -0.406 OA
BRANCH  24  25
ATOM     25  C   UNL A   1      40.995  44.403  17.861  1.00  0.00     0.573 C 
ATOM     26  F   UNL A   1      40.645  45.423  18.676  1.00  0.00    -0.132 F 
ATOM     27  F   UNL A   1      40.050  44.252  16.906  1.00  0.00    -0.132 F 
ATOM     28  F   UNL A   1      41.026  43.272  18.600  1.00  0.00    -0.132 F 
ENDBRANCH  24  25
ENDBRANCH  15  24
BRANCH  20  29
ATOM     29  C   UNL A   1      47.818  46.941  19.636  1.00  0.00     0.430 C 
ATOM     30  F   UNL A   1      47.672  45.736  19.026  1.00  0.00    -0.167 F 
ATOM     31  F   UNL A   1      47.666  47.871  18.666  1.00  0.00    -0.167 F 
ATOM     32  F   UNL A   1      49.102  47.014  20.056  1.00  0.00    -0.167 F 
ENDBRANCH  20  29
ENDBRANCH   9  11
ENDBRANCH   8   9
ENDBRANCH   7   8
ENDBRANCH   6   7
ENDBRANCH   5   6
ENDBRANCH   4   5
ENDBRANCH   3   4
ENDBRANCH   2   3
ENDBRANCH   1   2
BRANCH   1  33
ATOM     33  C   UNL A   1      44.384  39.578  26.484  1.00  0.00     0.188 C 
BRANCH  33  34
ATOM     34  O   UNL A   1      44.142  38.472  27.337  1.00  0.00    -0.376 OA
BRANCH  34  35
ATOM     35  C   UNL A   1      44.040  38.709  28.729  1.00  0.00     0.202 C 
BRANCH  35  36
ATOM     36  C   UNL A   1      45.320  38.514  29.554  1.00  0.00     0.261 C 
BRANCH  36  37
ATOM     37  O   UNL A   1      46.257  37.559  29.037  1.00  0.00    -0.460 OA
BRANCH  37  38
ATOM     38  C   UNL A   1      46.961  36.843  29.940  1.00  0.00     0.338 C 
ATOM     39  O   UNL A   1      47.451  37.253  30.981  1.00  0.00    -0.246 OA
BRANCH  38  40
ATOM     40  C   UNL A   1      46.867  35.421  29.558  1.00  0.00     0.060 A 
ATOM     41  C   UNL A   1      46.320  35.089  28.311  1.00  0.00     0.016 A 
ATOM     42  C   UNL A   1      47.336  34.422  30.415  1.00  0.00     0.016 A 
ATOM     43  C   UNL A   1      46.206  33.752  27.934  1.00  0.00     0.010 A 
ATOM     44  C   UNL A   1      47.197  33.081  30.047  1.00  0.00     0.010 A 
ATOM     45  C   UNL A   1      46.597  32.741  28.821  1.00  0.00    -0.014 A 
BRANCH  45  46
ATOM     46  C   UNL A   1      46.172  31.346  28.553  1.00  0.00     0.031 A 
ATOM     47  C   UNL A   1      44.734  30.982  28.818  1.00  0.00     0.074 A 
ATOM     48  C   UNL A   1      47.021  30.438  28.039  1.00  0.00     0.049 A 
ATOM     49  N   UNL A   1      44.126  29.838  28.659  1.00  0.00    -0.248 NA
ATOM     50  C   UNL A   1      43.869  32.058  29.332  1.00  0.00     0.031 C 
ATOM     51  C   UNL A   1      48.423  30.683  27.708  1.00  0.00     0.029 A 
ATOM     52  N   UNL A   1      46.821  29.120  27.709  1.00  0.00    -0.354 N 
ATOM     53  C   UNL A   1      42.810  30.051  29.058  1.00  0.00     0.074 A 
ATOM     54  C   UNL A   1      42.717  31.426  29.497  1.00  0.00     0.031 C 
ATOM     55  C   UNL A   1      48.962  29.547  27.230  1.00  0.00     0.029 A 
ATOM     56  C   UNL A   1      47.952  28.488  27.248  1.00  0.00     0.049 A 
ATOM     57  H   UNL A   1      45.950  28.670  27.793  1.00  0.00     0.167 HD
ATOM     58  C   UNL A   1      41.772  29.184  29.049  1.00  0.00     0.037 A 
ATOM     59  C   UNL A   1      48.151  27.200  26.903  1.00  0.00     0.037 A 
ATOM     60  C   UNL A   1      41.871  27.818  28.607  1.00  0.00     0.049 A 
ATOM     61  C   UNL A   1      46.992  26.235  26.961  1.00  0.00     0.074 A 
ATOM     62  C   UNL A   1      40.871  26.865  28.533  1.00  0.00     0.029 A 
ATOM     63  N   UNL A   1      43.040  27.206  28.177  1.00  0.00    -0.354 N 
ATOM     64  N   UNL A   1      45.745  26.460  27.301  1.00  0.00    -0.248 NA
ATOM     65  C   UNL A   1      47.265  24.842  26.579  1.00  0.00     0.031 C 
ATOM     66  C   UNL A   1      41.447  25.660  28.118  1.00  0.00     0.029 A 
ATOM     67  C   UNL A   1      42.793  25.879  27.868  1.00  0.00     0.049 A 
ATOM     68  H   UNL A   1      43.915  27.650  28.102  1.00  0.00     0.167 HD
ATOM     69  C   UNL A   1      45.081  25.245  27.150  1.00  0.00     0.074 A 
ATOM     70  C   UNL A   1      46.061  24.294  26.671  1.00  0.00     0.031 C 
ATOM     71  C   UNL A   1      43.779  24.944  27.385  1.00  0.00     0.037 A 
BRANCH  58  72
ATOM     72  C   UNL A   1      40.445  29.674  29.558  1.00  0.00     0.058 A 
ATOM     73  C   UNL A   1      40.205  29.885  30.925  1.00  0.00     0.135 A 
ATOM     74  C   UNL A   1      39.410  29.977  28.657  1.00  0.00     0.135 A 
ATOM     75  F   UNL A   1      41.150  29.590  31.832  1.00  0.00    -0.206 F 
ATOM     76  C   UNL A   1      38.982  30.364  31.382  1.00  0.00     0.059 A 
ATOM     77  C   UNL A   1      38.190  30.485  29.090  1.00  0.00     0.059 A 
ATOM     78  F   UNL A   1      39.584  29.786  27.340  1.00  0.00    -0.206 F 
ATOM     79  C   UNL A   1      37.981  30.666  30.456  1.00  0.00     0.060 A 
BRANCH  79  80
ATOM     80  S   UNL A   1      36.409  31.310  31.065  1.00  0.00     0.124 S 
ATOM     81  O   UNL A   1      35.615  31.347  29.840  1.00  0.00    -0.237 OA
ATOM     82  O   UNL A   1      36.018  30.298  32.042  1.00  0.00    -0.237 OA
ATOM     83  O   UNL A   1      36.765  32.610  31.622  1.00  0.00    -0.744 OA
ENDBRANCH  79  80
ENDBRANCH  58  72
BRANCH  59  84
ATOM     84  C   UNL A   1      49.505  26.736  26.491  1.00  0.00     0.058 A 
ATOM     85  C   UNL A   1      49.928  26.808  25.156  1.00  0.00     0.135 A 
ATOM     86  C   UNL A   1      50.398  26.191  27.428  1.00  0.00     0.135 A 
ATOM     87  F   UNL A   1      49.108  27.307  24.218  1.00  0.00    -0.206 F 
ATOM     88  C   UNL A   1      51.178  26.341  24.759  1.00  0.00     0.059 A 
ATOM     89  C   UNL A   1      51.664  25.747  27.062  1.00  0.00     0.059 A 
ATOM     90  F   UNL A   1      50.048  26.105  28.721  1.00  0.00    -0.206 F 
ATOM     91  C   UNL A   1      52.041  25.815  25.722  1.00  0.00     0.060 A 
BRANCH  91  92
ATOM     92  S   UNL A   1      53.678  25.253  25.206  1.00  0.00     0.124 S 
ATOM     93  O   UNL A   1      54.532  25.864  26.217  1.00  0.00    -0.237 OA
ATOM     94  O   UNL A   1      53.538  23.802  25.279  1.00  0.00    -0.237 OA
ATOM     95  O   UNL A   1      53.809  25.795  23.857  1.00  0.00    -0.744 OA
ENDBRANCH  91  92
ENDBRANCH  59  84
BRANCH  71  96
ATOM     96  C   UNL A   1      43.323  23.537  27.097  1.00  0.00     0.058 A 
ATOM     97  C   UNL A   1      43.098  22.606  28.123  1.00  0.00     0.135 A 
ATOM     98  C   UNL A   1      43.056  23.134  25.778  1.00  0.00     0.135 A 
ATOM     99  F   UNL A   1      43.340  22.936  29.401  1.00  0.00    -0.206 F 
ATOM    100  C   UNL A   1      42.653  21.316  27.848  1.00  0.00     0.059 A 
ATOM    101  C   UNL A   1      42.579  21.860  25.483  1.00  0.00     0.059 A 
ATOM    102  F   UNL A   1      43.241  23.988  24.758  1.00  0.00    -0.206 F 
ATOM    103  C   UNL A   1      42.393  20.953  26.526  1.00  0.00     0.060 A 
BRANCH 103 104
ATOM    104  S   UNL A   1      41.791  19.286  26.187  1.00  0.00     0.124 S 
ATOM    105  O   UNL A   1      42.606  18.905  25.039  1.00  0.00    -0.237 OA
ATOM    106  O   UNL A   1      42.088  18.589  27.436  1.00  0.00    -0.237 OA
ATOM    107  O   UNL A   1      40.371  19.484  25.911  1.00  0.00    -0.744 OA
ENDBRANCH 103 104
ENDBRANCH  71  96
ENDBRANCH  45  46
ENDBRANCH  38  40
ENDBRANCH  37  38
ENDBRANCH  36  37
ENDBRANCH  35  36
ENDBRANCH  34  35
ENDBRANCH  33  34
ENDBRANCH   1  33
TORSDOF 28
ENDMDL
MODEL 3
REMARK VINA RESULT:      -8.4     10.521     14.134
REMARK SMILES CCCc1cc(OC(F)(F)F)cc2c1O[C@H](C(F)(F)F)C(C(=O)OCCOCCOCCOCCOC(=O)c1ccc(-c3c4nc(c(-c5c(F)cc(S(=O)(=O)[O-])cc5F)c5ccc([nH]5)c(-c5c(F)cc(S(=O)(=O)[O-])cc5F)c5nc(c(-c6c(F)cc(S(=O)(=O)[O-])cc6F)c6ccc3[nH]6)C=C5)C=C4)cc1)=C2
REMARK SMILES IDX 31 1 30 2 29 3 28 4 27 5 26 6 25 7 24 8 22 9 23 10 21 11
REMARK SMILES IDX 4 12 5 13 14 14 6 15 13 16 15 17 12 18 105 19 16 20 3 21
REMARK SMILES IDX 2 22 1 23 7 24 8 25 9 26 10 27 11 28 17 29 18 30 19 31 20 32
REMARK SMILES IDX 32 33 33 34 34 35 35 36 36 37 37 38 38 39 39 40 40 41 104 42
REMARK SMILES IDX 41 43 103 44 42 45 43 46 44 47 97 48 45 49 102 50 96 51
REMARK SMILES IDX 98 52 46 53 101 54 95 55 94 56 47 58 81 59 60 60 80 61 61 62
REMARK SMILES IDX 64 63 79 64 99 65 62 66 63 67 78 69 100 70 65 71 48 72 49 73
REMARK SMILES IDX 58 74 50 75 51 76 57 77 59 78 52 79 53 80 54 81 55 82 56 83
REMARK SMILES IDX 82 84 83 85 92 86 84 87 85 88 91 89 93 90 86 91 87 92 88 93
REMARK SMILES IDX 89 94 90 95 66 96 67 97 76 98 68 99 69 100 75 101 77 102
REMARK SMILES IDX 70 103 71 104 72 105 73 106 74 107
REMARK H PARENT 98 57 64 68
REMARK Flexibility Score: inf
ROOT
ATOM      1  C   UNL A   1      34.591  33.581  31.930  1.00  0.00     0.188 C 
ENDROOT
BRANCH   1   2
ATOM      2  O   UNL A   1      33.869  34.798  32.086  1.00  0.00    -0.377 OA
BRANCH   2   3
ATOM      3  C   UNL A   1      33.831  35.727  31.019  1.00  0.00     0.188 C 
BRANCH   3   4
ATOM      4  C   UNL A   1      32.961  35.377  29.792  1.00  0.00     0.188 C 
BRANCH   4   5
ATOM      5  O   UNL A   1      33.182  34.075  29.294  1.00  0.00    -0.376 OA
BRANCH   5   6
ATOM      6  C   UNL A   1      34.059  33.861  28.209  1.00  0.00     0.202 C 
BRANCH   6   7
ATOM      7  C   UNL A   1      34.742  32.509  27.935  1.00  0.00     0.261 C 
BRANCH   7   8
ATOM      8  O   UNL A   1      33.959  31.320  28.073  1.00  0.00    -0.460 OA
BRANCH   8   9
ATOM      9  C   UNL A   1      34.467  30.180  27.565  1.00  0.00     0.338 C 
ATOM     10  O   UNL A   1      35.448  29.579  27.974  1.00  0.00    -0.246 OA
BRANCH   9  11
ATOM     11  C   UNL A   1      33.573  29.649  26.517  1.00  0.00     0.087 C 
ATOM     12  C   UNL A   1      31.990  28.410  22.895  1.00  0.00    -0.002 A 
ATOM     13  C   UNL A   1      30.707  28.840  22.537  1.00  0.00     0.054 A 
ATOM     14  C   UNL A   1      32.527  28.903  24.086  1.00  0.00     0.131 A 
ATOM     15  C   UNL A   1      30.025  29.803  23.294  1.00  0.00     0.130 A 
ATOM     16  C   UNL A   1      31.841  29.831  24.890  1.00  0.00     0.021 A 
ATOM     17  O   UNL A   1      33.785  28.460  24.430  1.00  0.00    -0.475 OA
ATOM     18  C   UNL A   1      30.585  30.280  24.484  1.00  0.00     0.058 A 
ATOM     19  C   UNL A   1      32.513  30.351  26.079  1.00  0.00     0.027 C 
ATOM     20  C   UNL A   1      33.960  28.345  25.860  1.00  0.00     0.316 C 
BRANCH  12  21
ATOM     21  C   UNL A   1      32.793  27.410  22.090  1.00  0.00     0.039 C 
BRANCH  21  22
ATOM     22  C   UNL A   1      32.072  26.157  21.592  1.00  0.00     0.001 C 
ATOM     23  C   UNL A   1      31.504  25.309  22.722  1.00  0.00     0.004 C 
ENDBRANCH  21  22
ENDBRANCH  12  21
BRANCH  15  24
ATOM     24  O   UNL A   1      28.813  30.347  22.965  1.00  0.00    -0.406 OA
BRANCH  24  25
ATOM     25  C   UNL A   1      27.795  29.436  22.578  1.00  0.00     0.573 C 
ATOM     26  F   UNL A   1      27.596  29.443  21.241  1.00  0.00    -0.132 F 
ATOM     27  F   UNL A   1      28.100  28.180  22.975  1.00  0.00    -0.132 F 
ATOM     28  F   UNL A   1      26.635  29.791  23.174  1.00  0.00    -0.132 F 
ENDBRANCH  24  25
ENDBRANCH  15  24
BRANCH  20  29
ATOM     29  C   UNL A   1      33.227  27.080  26.372  1.00  0.00     0.430 C 
ATOM     30  F   UNL A   1      32.219  26.724  25.533  1.00  0.00    -0.167 F 
ATOM     31  F   UNL A   1      34.053  26.011  26.437  1.00  0.00    -0.167 F 
ATOM     32  F   UNL A   1      32.678  27.231  27.599  1.00  0.00    -0.167 F 
ENDBRANCH  20  29
ENDBRANCH   9  11
ENDBRANCH   8   9
ENDBRANCH   7   8
ENDBRANCH   6   7
ENDBRANCH   5   6
ENDBRANCH   4   5
ENDBRANCH   3   4
ENDBRANCH   2   3
ENDBRANCH   1   2
BRANCH   1  33
ATOM     33  C   UNL A   1      36.129  33.505  32.101  1.00  0.00     0.188 C 
BRANCH  33  34
ATOM     34  O   UNL A   1      36.855  33.166  30.931  1.00  0.00    -0.376 OA
BRANCH  34  35
ATOM     35  C   UNL A   1      36.875  31.809  30.526  1.00  0.00     0.202 C 
BRANCH  35  36
ATOM     36  C   UNL A   1      38.215  31.073  30.656  1.00  0.00     0.261 C 
BRANCH  36  37
ATOM     37  O   UNL A   1      38.273  30.055  31.665  1.00  0.00    -0.460 OA
BRANCH  37  38
ATOM     38  C   UNL A   1      38.584  30.453  32.917  1.00  0.00     0.338 C 
ATOM     39  O   UNL A   1      37.858  31.046  33.700  1.00  0.00    -0.246 OA
BRANCH  38  40
ATOM     40  C   UNL A   1      39.894  29.869  33.263  1.00  0.00     0.060 A 
ATOM     41  C   UNL A   1      40.983  30.725  33.476  1.00  0.00     0.016 A 
ATOM     42  C   UNL A   1      40.043  28.486  33.398  1.00  0.00     0.016 A 
ATOM     43  C   UNL A   1      42.234  30.196  33.789  1.00  0.00     0.010 A 
ATOM     44  C   UNL A   1      41.303  27.956  33.685  1.00  0.00     0.010 A 
ATOM     45  C   UNL A   1      42.411  28.808  33.845  1.00  0.00    -0.014 A 
BRANCH  45  46
ATOM     46  C   UNL A   1      43.788  28.259  33.848  1.00  0.00     0.031 A 
ATOM     47  C   UNL A   1      44.494  28.129  35.172  1.00  0.00     0.074 A 
ATOM     48  C   UNL A   1      44.381  27.838  32.715  1.00  0.00     0.049 A 
ATOM     49  N   UNL A   1      45.691  27.676  35.432  1.00  0.00    -0.248 NA
ATOM     50  C   UNL A   1      43.745  28.568  36.361  1.00  0.00     0.031 C 
ATOM     51  C   UNL A   1      43.784  27.882  31.382  1.00  0.00     0.029 A 
ATOM     52  N   UNL A   1      45.624  27.293  32.512  1.00  0.00    -0.354 N 
ATOM     53  C   UNL A   1      45.843  27.781  36.811  1.00  0.00     0.074 A 
ATOM     54  C   UNL A   1      44.628  28.371  37.328  1.00  0.00     0.031 C 
ATOM     55  C   UNL A   1      44.667  27.391  30.494  1.00  0.00     0.029 A 
ATOM     56  C   UNL A   1      45.901  27.027  31.191  1.00  0.00     0.049 A 
ATOM     57  H   UNL A   1      46.257  27.109  33.241  1.00  0.00     0.167 HD
ATOM     58  C   UNL A   1      46.894  27.410  37.577  1.00  0.00     0.037 A 
ATOM     59  C   UNL A   1      47.028  26.564  30.614  1.00  0.00     0.037 A 
ATOM     60  C   UNL A   1      48.099  26.821  37.056  1.00  0.00     0.049 A 
ATOM     61  C   UNL A   1      48.212  26.216  31.483  1.00  0.00     0.074 A 
ATOM     62  C   UNL A   1      49.212  26.385  37.752  1.00  0.00     0.029 A 
ATOM     63  N   UNL A   1      48.354  26.596  35.710  1.00  0.00    -0.354 N 
ATOM     64  N   UNL A   1      48.326  26.283  32.788  1.00  0.00    -0.248 NA
ATOM     65  C   UNL A   1      49.417  25.721  30.801  1.00  0.00     0.031 C 
ATOM     66  C   UNL A   1      50.165  25.954  36.824  1.00  0.00     0.029 A 
ATOM     67  C   UNL A   1      49.621  26.058  35.553  1.00  0.00     0.049 A 
ATOM     68  H   UNL A   1      47.728  26.790  34.977  1.00  0.00     0.167 HD
ATOM     69  C   UNL A   1      49.604  25.815  33.085  1.00  0.00     0.074 A 
ATOM     70  C   UNL A   1      50.216  25.452  31.824  1.00  0.00     0.031 C 
ATOM     71  C   UNL A   1      50.215  25.696  34.290  1.00  0.00     0.037 A 
BRANCH  58  72
ATOM     72  C   UNL A   1      46.804  27.658  39.057  1.00  0.00     0.058 A 
ATOM     73  C   UNL A   1      46.178  26.750  39.927  1.00  0.00     0.135 A 
ATOM     74  C   UNL A   1      47.393  28.803  39.620  1.00  0.00     0.135 A 
ATOM     75  F   UNL A   1      45.579  25.651  39.441  1.00  0.00    -0.206 F 
ATOM     76  C   UNL A   1      46.123  26.977  41.298  1.00  0.00     0.059 A 
ATOM     77  C   UNL A   1      47.376  29.034  40.992  1.00  0.00     0.059 A 
ATOM     78  F   UNL A   1      47.997  29.707  38.834  1.00  0.00    -0.206 F 
ATOM     79  C   UNL A   1      46.731  28.120  41.822  1.00  0.00     0.060 A 
BRANCH  79  80
ATOM     80  S   UNL A   1      46.672  28.386  43.606  1.00  0.00     0.124 S 
ATOM     81  O   UNL A   1      47.775  27.546  44.063  1.00  0.00    -0.237 OA
ATOM     82  O   UNL A   1      46.888  29.826  43.711  1.00  0.00    -0.237 OA
ATOM     83  O   UNL A   1      45.338  27.926  43.975  1.00  0.00    -0.744 OA
ENDBRANCH  79  80
ENDBRANCH  58  72
BRANCH  59  84
ATOM     84  C   UNL A   1      47.105  26.421  29.133  1.00  0.00     0.058 A 
ATOM     85  C   UNL A   1      46.667  25.255  28.487  1.00  0.00     0.135 A 
ATOM     86  C   UNL A   1      47.641  27.445  28.335  1.00  0.00     0.135 A 
ATOM     87  F   UNL A   1      46.160  24.241  29.204  1.00  0.00    -0.206 F 
ATOM     88  C   UNL A   1      46.773  25.101  27.108  1.00  0.00     0.059 A 
ATOM     89  C   UNL A   1      47.728  27.327  26.952  1.00  0.00     0.059 A 
ATOM     90  F   UNL A   1      48.069  28.584  28.900  1.00  0.00    -0.206 F 
ATOM     91  C   UNL A   1      47.301  26.145  26.347  1.00  0.00     0.060 A 
BRANCH  91  92
ATOM     92  S   UNL A   1      47.392  25.954  24.554  1.00  0.00     0.124 S 
ATOM     93  O   UNL A   1      48.829  25.822  24.344  1.00  0.00    -0.237 OA
ATOM     94  O   UNL A   1      46.600  24.747  24.337  1.00  0.00    -0.237 OA
ATOM     95  O   UNL A   1      46.791  27.186  24.054  1.00  0.00    -0.744 OA
ENDBRANCH  91  92
ENDBRANCH  59  84
BRANCH  71  96
ATOM     96  C   UNL A   1      51.607  25.118  34.315  1.00  0.00     0.058 A 
ATOM     97  C   UNL A   1      51.835  23.733  34.284  1.00  0.00     0.135 A 
ATOM     98  C   UNL A   1      52.727  25.965  34.315  1.00  0.00     0.135 A 
ATOM     99  F   UNL A   1      50.801  22.877  34.286  1.00  0.00    -0.206 F 
ATOM    100  C   UNL A   1      53.124  23.209  34.282  1.00  0.00     0.059 A 
ATOM    101  C   UNL A   1      54.025  25.464  34.280  1.00  0.00     0.059 A 
ATOM    102  F   UNL A   1      52.568  27.298  34.332  1.00  0.00    -0.206 F 
ATOM    103  C   UNL A   1      54.213  24.082  34.277  1.00  0.00     0.060 A 
BRANCH 103 104
ATOM    104  S   UNL A   1      55.879  23.388  34.248  1.00  0.00     0.124 S 
ATOM    105  O   UNL A   1      56.672  24.502  34.759  1.00  0.00    -0.237 OA
ATOM    106  O   UNL A   1      55.752  22.238  35.137  1.00  0.00    -0.237 OA
ATOM    107  O   UNL A   1      56.090  23.064  32.840  1.00  0.00    -0.744 OA
ENDBRANCH 103 104
ENDBRANCH  71  96
ENDBRANCH  45  46
ENDBRANCH  38  40
ENDBRANCH  37  38
ENDBRANCH  36  37
ENDBRANCH  35  36
ENDBRANCH  34  35
ENDBRANCH  33  34
ENDBRANCH   1  33
TORSDOF 28
ENDMDL
