MODEL 1
REMARK VINA RESULT:     -10.4      0.000      0.000
REMARK SMILES COc1ccc(/C=C/c2ncc([N+](=O)[O-])cc2C(=O)OCCOCCOCCOCCOC(=O)c2ccc(-c3c4nc(c(-c5c(F)cc(S(=O)(=O)[O-])cc5F)c5ccc([nH]5)c(-c5c(F)cc(S(=O)(=O)[O-])cc5F)c5nc(c(-c6c(F)cc(S(=O)(=O)[O-])cc6F)c6ccc3[nH]6)C=C5)C=C4)cc2)cc1
REMARK SMILES IDX 26 1 25 2 24 3 23 4 22 5 21 6 20 7 18 8 19 9 17 10 9 11
REMARK SMILES IDX 10 12 11 13 16 14 12 15 8 16 7 17 6 18 3 19 4 20 102 21 5 22
REMARK SMILES IDX 101 23 2 24 1 25 13 26 14 27 15 28 27 29 28 30 29 31 30 32
REMARK SMILES IDX 31 33 32 34 33 35 34 36 35 37 36 38 100 39 37 40 99 41 38 42
REMARK SMILES IDX 39 43 40 44 93 45 41 46 98 47 92 48 94 49 42 50 97 51 91 52
REMARK SMILES IDX 90 53 43 55 77 56 56 57 76 58 57 59 60 60 75 61 95 62 58 63
REMARK SMILES IDX 59 64 74 66 96 67 61 68 44 69 45 70 54 71 46 72 47 73 53 74
REMARK SMILES IDX 55 75 48 76 49 77 50 78 51 79 52 80 78 81 79 82 88 83 80 84
REMARK SMILES IDX 81 85 87 86 89 87 82 88 83 89 84 90 85 91 86 92 62 93 63 94
REMARK SMILES IDX 72 95 64 96 65 97 71 98 73 99 66 100 67 101 68 102 69 103
REMARK SMILES IDX 70 104
REMARK H PARENT 94 54 60 65
REMARK Flexibility Score: inf
ROOT
ATOM      1  O   UNL A   1      40.455  20.464  27.255  1.00  0.00    -0.377 OA
ENDROOT
BRANCH   1   2
ATOM      2  C   UNL A   1      39.959  21.261  26.193  1.00  0.00     0.188 C 
BRANCH   2   3
ATOM      3  C   UNL A   1      39.194  22.563  26.490  1.00  0.00     0.188 C 
BRANCH   3   4
ATOM      4  O   UNL A   1      38.185  22.890  25.544  1.00  0.00    -0.376 OA
BRANCH   4   5
ATOM      5  C   UNL A   1      37.560  21.783  24.912  1.00  0.00     0.202 C 
BRANCH   5   6
ATOM      6  C   UNL A   1      36.401  21.225  25.738  1.00  0.00     0.261 C 
BRANCH   6   7
ATOM      7  O   UNL A   1      35.107  21.495  25.170  1.00  0.00    -0.460 OA
BRANCH   7   8
ATOM      8  C   UNL A   1      34.029  20.923  25.762  1.00  0.00     0.340 C 
ATOM      9  O   UNL A   1      33.570  21.181  26.848  1.00  0.00    -0.246 OA
BRANCH   8  10
ATOM     10  C   UNL A   1      33.427  20.006  24.765  1.00  0.00     0.092 A 
ATOM     11  C   UNL A   1      32.541  20.474  23.784  1.00  0.00     0.078 A 
ATOM     12  N   UNL A   1      32.046  19.660  22.809  1.00  0.00    -0.249 NA
ATOM     13  C   UNL A   1      32.441  18.361  22.803  1.00  0.00     0.197 A 
ATOM     14  C   UNL A   1      33.841  18.665  24.724  1.00  0.00     0.105 A 
ATOM     15  C   UNL A   1      33.337  17.838  23.723  1.00  0.00     0.288 A 
BRANCH  11  16
ATOM     16  C   UNL A   1      32.171  21.891  23.641  1.00  0.00     0.030 C 
ATOM     17  C   UNL A   1      32.797  22.713  22.779  1.00  0.00     0.010 C 
BRANCH  17  18
ATOM     18  C   UNL A   1      32.554  24.162  22.729  1.00  0.00    -0.025 A 
ATOM     19  C   UNL A   1      32.154  26.950  22.619  1.00  0.00     0.118 A 
ATOM     20  C   UNL A   1      31.096  26.093  22.922  1.00  0.00     0.047 A 
ATOM     21  C   UNL A   1      33.421  26.418  22.388  1.00  0.00     0.047 A 
ATOM     22  C   UNL A   1      31.290  24.709  22.968  1.00  0.00     0.012 A 
ATOM     23  C   UNL A   1      33.612  25.030  22.423  1.00  0.00     0.012 A 
BRANCH  19  24
ATOM     24  O   UNL A   1      31.856  28.285  22.606  1.00  0.00    -0.497 OA
ATOM     25  C   UNL A   1      31.457  28.817  23.866  1.00  0.00     0.278 C 
ENDBRANCH  19  24
ENDBRANCH  17  18
ENDBRANCH  11  16
BRANCH  15  26
ATOM     26  N   UNL A   1      33.752  16.448  23.615  1.00  0.00     0.064 N 
ATOM     27  O   UNL A   1      34.399  16.121  22.610  1.00  0.00    -0.258 OA
ATOM     28  O   UNL A   1      33.429  15.680  24.530  1.00  0.00    -0.258 OA
ENDBRANCH  15  26
ENDBRANCH   8  10
ENDBRANCH   7   8
ENDBRANCH   6   7
ENDBRANCH   5   6
ENDBRANCH   4   5
ENDBRANCH   3   4
ENDBRANCH   2   3
ENDBRANCH   1   2
BRANCH   1  29
ATOM     29  C   UNL A   1      41.836  20.131  27.283  1.00  0.00     0.188 C 
BRANCH  29  30
ATOM     30  C   UNL A   1      42.600  20.066  25.945  1.00  0.00     0.188 C 
BRANCH  30  31
ATOM     31  O   UNL A   1      43.593  21.078  25.787  1.00  0.00    -0.376 OA
BRANCH  31  32
ATOM     32  C   UNL A   1      43.123  22.361  25.401  1.00  0.00     0.202 C 
BRANCH  32  33
ATOM     33  C   UNL A   1      43.100  23.395  26.532  1.00  0.00     0.261 C 
BRANCH  33  34
ATOM     34  O   UNL A   1      42.394  24.611  26.235  1.00  0.00    -0.460 OA
BRANCH  34  35
ATOM     35  C   UNL A   1      43.102  25.762  26.216  1.00  0.00     0.338 C 
ATOM     36  O   UNL A   1      43.843  26.160  25.336  1.00  0.00    -0.246 OA
BRANCH  35  37
ATOM     37  C   UNL A   1      42.648  26.565  27.370  1.00  0.00     0.060 A 
ATOM     38  C   UNL A   1      43.102  27.884  27.501  1.00  0.00     0.016 A 
ATOM     39  C   UNL A   1      41.722  26.036  28.272  1.00  0.00     0.016 A 
ATOM     40  C   UNL A   1      42.634  28.676  28.550  1.00  0.00     0.010 A 
ATOM     41  C   UNL A   1      41.278  26.820  29.336  1.00  0.00     0.010 A 
ATOM     42  C   UNL A   1      41.751  28.134  29.492  1.00  0.00    -0.014 A 
BRANCH  42  43
ATOM     43  C   UNL A   1      41.481  28.856  30.757  1.00  0.00     0.031 A 
ATOM     44  C   UNL A   1      40.338  29.833  30.774  1.00  0.00     0.074 A 
ATOM     45  C   UNL A   1      42.233  28.661  31.854  1.00  0.00     0.049 A 
ATOM     46  N   UNL A   1      39.940  30.627  31.731  1.00  0.00    -0.248 NA
ATOM     47  C   UNL A   1      39.539  29.925  29.540  1.00  0.00     0.031 C 
ATOM     48  C   UNL A   1      43.346  27.720  31.964  1.00  0.00     0.029 A 
ATOM     49  N   UNL A   1      42.177  29.262  33.086  1.00  0.00    -0.354 N 
ATOM     50  C   UNL A   1      38.847  31.314  31.216  1.00  0.00     0.074 A 
ATOM     51  C   UNL A   1      38.662  30.864  29.854  1.00  0.00     0.031 C 
ATOM     52  C   UNL A   1      43.880  27.820  33.195  1.00  0.00     0.029 A 
ATOM     53  C   UNL A   1      43.166  28.851  33.948  1.00  0.00     0.049 A 
ATOM     54  H   UNL A   1      41.492  29.926  33.331  1.00  0.00     0.167 HD
ATOM     55  C   UNL A   1      38.063  32.230  31.828  1.00  0.00     0.037 A 
ATOM     56  C   UNL A   1      43.471  29.278  35.189  1.00  0.00     0.037 A 
ATOM     57  C   UNL A   1      38.262  32.685  33.178  1.00  0.00     0.049 A 
ATOM     58  C   UNL A   1      42.630  30.359  35.823  1.00  0.00     0.074 A 
ATOM     59  C   UNL A   1      37.517  33.604  33.894  1.00  0.00     0.029 A 
ATOM     60  N   UNL A   1      39.290  32.267  34.008  1.00  0.00    -0.354 N 
ATOM     61  N   UNL A   1      41.578  30.979  35.340  1.00  0.00    -0.248 NA
ATOM     62  C   UNL A   1      43.018  30.802  37.171  1.00  0.00     0.031 C 
ATOM     63  C   UNL A   1      38.124  33.776  35.143  1.00  0.00     0.029 A 
ATOM     64  C   UNL A   1      39.217  32.928  35.222  1.00  0.00     0.049 A 
ATOM     65  H   UNL A   1      39.973  31.597  33.769  1.00  0.00     0.167 HD
ATOM     66  C   UNL A   1      41.165  31.864  36.332  1.00  0.00     0.074 A 
ATOM     67  C   UNL A   1      42.074  31.692  37.447  1.00  0.00     0.031 C 
ATOM     68  C   UNL A   1      40.130  32.739  36.324  1.00  0.00     0.037 A 
BRANCH  55  69
ATOM     69  C   UNL A   1      36.936  32.819  31.027  1.00  0.00     0.058 A 
ATOM     70  C   UNL A   1      35.609  32.391  31.196  1.00  0.00     0.135 A 
ATOM     71  C   UNL A   1      37.184  33.833  30.090  1.00  0.00     0.135 A 
ATOM     72  F   UNL A   1      35.321  31.406  32.062  1.00  0.00    -0.206 F 
ATOM     73  C   UNL A   1      34.571  32.933  30.447  1.00  0.00     0.059 A 
ATOM     74  C   UNL A   1      36.156  34.408  29.348  1.00  0.00     0.059 A 
ATOM     75  F   UNL A   1      38.435  34.272  29.883  1.00  0.00    -0.206 F 
ATOM     76  C   UNL A   1      34.855  33.942  29.525  1.00  0.00     0.060 A 
BRANCH  76  77
ATOM     77  S   UNL A   1      33.495  34.637  28.563  1.00  0.00     0.124 S 
ATOM     78  O   UNL A   1      34.144  35.780  27.926  1.00  0.00    -0.237 OA
ATOM     79  O   UNL A   1      33.145  33.533  27.675  1.00  0.00    -0.237 OA
ATOM     80  O   UNL A   1      32.496  34.966  29.574  1.00  0.00    -0.744 OA
ENDBRANCH  76  77
ENDBRANCH  55  69
BRANCH  56  81
ATOM     81  C   UNL A   1      44.631  28.697  35.917  1.00  0.00     0.058 A 
ATOM     82  C   UNL A   1      44.468  27.617  36.798  1.00  0.00     0.135 A 
ATOM     83  C   UNL A   1      45.926  29.214  35.753  1.00  0.00     0.135 A 
ATOM     84  F   UNL A   1      43.248  27.097  37.002  1.00  0.00    -0.206 F 
ATOM     85  C   UNL A   1      45.543  27.079  37.499  1.00  0.00     0.059 A 
ATOM     86  C   UNL A   1      47.021  28.677  36.424  1.00  0.00     0.059 A 
ATOM     87  F   UNL A   1      46.138  30.244  34.918  1.00  0.00    -0.206 F 
ATOM     88  C   UNL A   1      46.817  27.614  37.302  1.00  0.00     0.060 A 
BRANCH  88  89
ATOM     89  S   UNL A   1      48.213  26.872  38.175  1.00  0.00     0.124 S 
ATOM     90  O   UNL A   1      48.763  25.988  37.154  1.00  0.00    -0.237 OA
ATOM     91  O   UNL A   1      49.021  28.041  38.511  1.00  0.00    -0.237 OA
ATOM     92  O   UNL A   1      47.583  26.209  39.313  1.00  0.00    -0.744 OA
ENDBRANCH  88  89
ENDBRANCH  56  81
BRANCH  68  93
ATOM     93  C   UNL A   1      39.898  33.558  37.564  1.00  0.00     0.058 A 
ATOM     94  C   UNL A   1      40.561  34.777  37.777  1.00  0.00     0.135 A 
ATOM     95  C   UNL A   1      38.952  33.150  38.518  1.00  0.00     0.135 A 
ATOM     96  F   UNL A   1      41.477  35.211  36.898  1.00  0.00    -0.206 F 
ATOM     97  C   UNL A   1      40.309  35.552  38.905  1.00  0.00     0.059 A 
ATOM     98  C   UNL A   1      38.664  33.923  39.640  1.00  0.00     0.059 A 
ATOM     99  F   UNL A   1      38.280  31.999  38.357  1.00  0.00    -0.206 F 
ATOM    100  C   UNL A   1      39.356  35.119  39.829  1.00  0.00     0.060 A 
BRANCH 100 101
ATOM    101  S   UNL A   1      39.012  36.153  41.268  1.00  0.00     0.124 S 
ATOM    102  O   UNL A   1      37.806  35.526  41.799  1.00  0.00    -0.237 OA
ATOM    103  O   UNL A   1      40.219  35.985  42.071  1.00  0.00    -0.237 OA
ATOM    104  O   UNL A   1      38.828  37.483  40.694  1.00  0.00    -0.744 OA
ENDBRANCH 100 101
ENDBRANCH  68  93
ENDBRANCH  42  43
ENDBRANCH  35  37
ENDBRANCH  34  35
ENDBRANCH  33  34
ENDBRANCH  32  33
ENDBRANCH  31  32
ENDBRANCH  30  31
ENDBRANCH  29  30
ENDBRANCH   1  29
TORSDOF 27
ENDMDL
MODEL 2
REMARK VINA RESULT:     -10.0      2.261      9.021
REMARK SMILES COc1ccc(/C=C/c2ncc([N+](=O)[O-])cc2C(=O)OCCOCCOCCOCCOC(=O)c2ccc(-c3c4nc(c(-c5c(F)cc(S(=O)(=O)[O-])cc5F)c5ccc([nH]5)c(-c5c(F)cc(S(=O)(=O)[O-])cc5F)c5nc(c(-c6c(F)cc(S(=O)(=O)[O-])cc6F)c6ccc3[nH]6)C=C5)C=C4)cc2)cc1
REMARK SMILES IDX 26 1 25 2 24 3 23 4 22 5 21 6 20 7 18 8 19 9 17 10 9 11
REMARK SMILES IDX 10 12 11 13 16 14 12 15 8 16 7 17 6 18 3 19 4 20 102 21 5 22
REMARK SMILES IDX 101 23 2 24 1 25 13 26 14 27 15 28 27 29 28 30 29 31 30 32
REMARK SMILES IDX 31 33 32 34 33 35 34 36 35 37 36 38 100 39 37 40 99 41 38 42
REMARK SMILES IDX 39 43 40 44 93 45 41 46 98 47 92 48 94 49 42 50 97 51 91 52
REMARK SMILES IDX 90 53 43 55 77 56 56 57 76 58 57 59 60 60 75 61 95 62 58 63
REMARK SMILES IDX 59 64 74 66 96 67 61 68 44 69 45 70 54 71 46 72 47 73 53 74
REMARK SMILES IDX 55 75 48 76 49 77 50 78 51 79 52 80 78 81 79 82 88 83 80 84
REMARK SMILES IDX 81 85 87 86 89 87 82 88 83 89 84 90 85 91 86 92 62 93 63 94
REMARK SMILES IDX 72 95 64 96 65 97 71 98 73 99 66 100 67 101 68 102 69 103
REMARK SMILES IDX 70 104
REMARK H PARENT 94 54 60 65
REMARK Flexibility Score: inf
ROOT
ATOM      1  O   UNL A   1      37.090  20.787  24.876  1.00  0.00    -0.377 OA
ENDROOT
BRANCH   1   2
ATOM      2  C   UNL A   1      37.393  22.168  24.979  1.00  0.00     0.188 C 
BRANCH   2   3
ATOM      3  C   UNL A   1      36.262  23.211  25.042  1.00  0.00     0.188 C 
BRANCH   3   4
ATOM      4  O   UNL A   1      35.667  23.367  26.323  1.00  0.00    -0.376 OA
BRANCH   4   5
ATOM      5  C   UNL A   1      35.094  22.193  26.877  1.00  0.00     0.202 C 
BRANCH   5   6
ATOM      6  C   UNL A   1      33.673  22.430  27.390  1.00  0.00     0.261 C 
BRANCH   6   7
ATOM      7  O   UNL A   1      33.069  23.630  26.876  1.00  0.00    -0.460 OA
BRANCH   7   8
ATOM      8  C   UNL A   1      31.809  23.538  26.383  1.00  0.00     0.340 C 
ATOM      9  O   UNL A   1      30.819  23.174  26.971  1.00  0.00    -0.246 OA
BRANCH   8  10
ATOM     10  C   UNL A   1      31.841  24.100  25.012  1.00  0.00     0.092 A 
ATOM     11  C   UNL A   1      32.338  23.359  23.930  1.00  0.00     0.078 A 
ATOM     12  N   UNL A   1      32.295  23.829  22.651  1.00  0.00    -0.249 NA
ATOM     13  C   UNL A   1      31.744  25.052  22.441  1.00  0.00     0.197 A 
ATOM     14  C   UNL A   1      31.252  25.351  24.767  1.00  0.00     0.105 A 
ATOM     15  C   UNL A   1      31.206  25.825  23.458  1.00  0.00     0.288 A 
BRANCH  11  16
ATOM     16  C   UNL A   1      32.826  21.976  24.055  1.00  0.00     0.030 C 
ATOM     17  C   UNL A   1      32.109  20.920  23.629  1.00  0.00     0.010 C 
BRANCH  17  18
ATOM     18  C   UNL A   1      32.501  19.526  23.883  1.00  0.00    -0.025 A 
ATOM     19  C   UNL A   1      33.247  16.842  24.305  1.00  0.00     0.118 A 
ATOM     20  C   UNL A   1      33.132  17.722  25.380  1.00  0.00     0.047 A 
ATOM     21  C   UNL A   1      32.970  17.294  23.016  1.00  0.00     0.047 A 
ATOM     22  C   UNL A   1      32.770  19.057  25.173  1.00  0.00     0.012 A 
ATOM     23  C   UNL A   1      32.621  18.635  22.808  1.00  0.00     0.012 A 
BRANCH  19  24
ATOM     24  O   UNL A   1      33.600  15.558  24.620  1.00  0.00    -0.497 OA
ATOM     25  C   UNL A   1      32.689  14.887  25.486  1.00  0.00     0.278 C 
ENDBRANCH  19  24
ENDBRANCH  17  18
ENDBRANCH  11  16
BRANCH  15  26
ATOM     26  N   UNL A   1      30.584  27.101  23.141  1.00  0.00     0.064 N 
ATOM     27  O   UNL A   1      29.929  27.655  24.035  1.00  0.00    -0.258 OA
ATOM     28  O   UNL A   1      30.746  27.551  21.999  1.00  0.00    -0.258 OA
ENDBRANCH  15  26
ENDBRANCH   8  10
ENDBRANCH   7   8
ENDBRANCH   6   7
ENDBRANCH   5   6
ENDBRANCH   4   5
ENDBRANCH   3   4
ENDBRANCH   2   3
ENDBRANCH   1   2
BRANCH   1  29
ATOM     29  C   UNL A   1      38.152  19.844  24.873  1.00  0.00     0.188 C 
BRANCH  29  30
ATOM     30  C   UNL A   1      39.261  19.987  25.934  1.00  0.00     0.188 C 
BRANCH  30  31
ATOM     31  O   UNL A   1      40.445  19.246  25.649  1.00  0.00    -0.376 OA
BRANCH  31  32
ATOM     32  C   UNL A   1      41.570  19.523  26.470  1.00  0.00     0.202 C 
BRANCH  32  33
ATOM     33  C   UNL A   1      42.540  20.559  25.892  1.00  0.00     0.261 C 
BRANCH  33  34
ATOM     34  O   UNL A   1      41.947  21.815  25.527  1.00  0.00    -0.460 OA
BRANCH  34  35
ATOM     35  C   UNL A   1      42.774  22.829  25.189  1.00  0.00     0.338 C 
ATOM     36  O   UNL A   1      43.459  22.921  24.187  1.00  0.00    -0.246 OA
BRANCH  35  37
ATOM     37  C   UNL A   1      42.538  23.918  26.158  1.00  0.00     0.060 A 
ATOM     38  C   UNL A   1      43.081  25.185  25.903  1.00  0.00     0.016 A 
ATOM     39  C   UNL A   1      41.723  23.702  27.271  1.00  0.00     0.016 A 
ATOM     40  C   UNL A   1      42.816  26.240  26.776  1.00  0.00     0.010 A 
ATOM     41  C   UNL A   1      41.483  24.752  28.157  1.00  0.00     0.010 A 
ATOM     42  C   UNL A   1      42.048  26.017  27.926  1.00  0.00    -0.014 A 
BRANCH  42  43
ATOM     43  C   UNL A   1      42.005  27.038  28.998  1.00  0.00     0.031 A 
ATOM     44  C   UNL A   1      43.037  26.950  30.088  1.00  0.00     0.074 A 
ATOM     45  C   UNL A   1      41.074  28.007  29.012  1.00  0.00     0.049 A 
ATOM     46  N   UNL A   1      43.174  27.680  31.162  1.00  0.00    -0.248 NA
ATOM     47  C   UNL A   1      44.050  25.890  29.945  1.00  0.00     0.031 C 
ATOM     48  C   UNL A   1      40.044  28.209  27.995  1.00  0.00     0.029 A 
ATOM     49  N   UNL A   1      40.840  28.999  29.931  1.00  0.00    -0.354 N 
ATOM     50  C   UNL A   1      44.284  27.169  31.822  1.00  0.00     0.074 A 
ATOM     51  C   UNL A   1      44.768  26.049  31.045  1.00  0.00     0.031 C 
ATOM     52  C   UNL A   1      39.276  29.253  28.356  1.00  0.00     0.029 A 
ATOM     53  C   UNL A   1      39.741  29.772  29.641  1.00  0.00     0.049 A 
ATOM     54  H   UNL A   1      41.406  29.143  30.723  1.00  0.00     0.167 HD
ATOM     55  C   UNL A   1      44.856  27.601  32.970  1.00  0.00     0.037 A 
ATOM     56  C   UNL A   1      39.166  30.765  30.349  1.00  0.00     0.037 A 
ATOM     57  C   UNL A   1      44.361  28.705  33.747  1.00  0.00     0.049 A 
ATOM     58  C   UNL A   1      39.774  31.178  31.667  1.00  0.00     0.074 A 
ATOM     59  C   UNL A   1      44.873  29.228  34.921  1.00  0.00     0.029 A 
ATOM     60  N   UNL A   1      43.230  29.445  33.438  1.00  0.00    -0.354 N 
ATOM     61  N   UNL A   1      40.844  30.710  32.267  1.00  0.00    -0.248 NA
ATOM     62  C   UNL A   1      39.096  32.254  32.406  1.00  0.00     0.031 C 
ATOM     63  C   UNL A   1      44.023  30.255  35.346  1.00  0.00     0.029 A 
ATOM     64  C   UNL A   1      43.011  30.404  34.411  1.00  0.00     0.049 A 
ATOM     65  H   UNL A   1      42.665  29.307  32.642  1.00  0.00     0.167 HD
ATOM     66  C   UNL A   1      40.981  31.449  33.438  1.00  0.00     0.074 A 
ATOM     67  C   UNL A   1      39.891  32.403  33.458  1.00  0.00     0.031 C 
ATOM     68  C   UNL A   1      41.921  31.350  34.410  1.00  0.00     0.037 A 
BRANCH  55  69
ATOM     69  C   UNL A   1      46.062  26.854  33.464  1.00  0.00     0.058 A 
ATOM     70  C   UNL A   1      45.947  25.777  34.358  1.00  0.00     0.135 A 
ATOM     71  C   UNL A   1      47.347  27.209  33.026  1.00  0.00     0.135 A 
ATOM     72  F   UNL A   1      44.743  25.412  34.826  1.00  0.00    -0.206 F 
ATOM     73  C   UNL A   1      47.067  25.093  34.818  1.00  0.00     0.059 A 
ATOM     74  C   UNL A   1      48.479  26.522  33.453  1.00  0.00     0.059 A 
ATOM     75  F   UNL A   1      47.513  28.236  32.179  1.00  0.00    -0.206 F 
ATOM     76  C   UNL A   1      48.329  25.473  34.360  1.00  0.00     0.060 A 
BRANCH  76  77
ATOM     77  S   UNL A   1      49.773  24.573  34.964  1.00  0.00     0.124 S 
ATOM     78  O   UNL A   1      50.633  24.578  33.784  1.00  0.00    -0.237 OA
ATOM     79  O   UNL A   1      50.218  25.409  36.075  1.00  0.00    -0.237 OA
ATOM     80  O   UNL A   1      49.230  23.272  35.339  1.00  0.00    -0.744 OA
ENDBRANCH  76  77
ENDBRANCH  55  69
BRANCH  56  81
ATOM     81  C   UNL A   1      37.940  31.435  29.838  1.00  0.00     0.058 A 
ATOM     82  C   UNL A   1      36.692  30.795  29.879  1.00  0.00     0.135 A 
ATOM     83  C   UNL A   1      37.991  32.726  29.289  1.00  0.00     0.135 A 
ATOM     84  F   UNL A   1      36.592  29.554  30.379  1.00  0.00    -0.206 F 
ATOM     85  C   UNL A   1      35.542  31.404  29.386  1.00  0.00     0.059 A 
ATOM     86  C   UNL A   1      36.851  33.367  28.812  1.00  0.00     0.059 A 
ATOM     87  F   UNL A   1      39.159  33.386  29.229  1.00  0.00    -0.206 F 
ATOM     88  C   UNL A   1      35.632  32.692  28.857  1.00  0.00     0.060 A 
BRANCH  88  89
ATOM     89  S   UNL A   1      34.124  33.495  28.269  1.00  0.00     0.124 S 
ATOM     90  O   UNL A   1      33.553  33.996  29.514  1.00  0.00    -0.237 OA
ATOM     91  O   UNL A   1      34.650  34.505  27.356  1.00  0.00    -0.237 OA
ATOM     92  O   UNL A   1      33.391  32.406  27.631  1.00  0.00    -0.744 OA
ENDBRANCH  88  89
ENDBRANCH  56  81
BRANCH  68  93
ATOM     93  C   UNL A   1      41.838  32.313  35.563  1.00  0.00     0.058 A 
ATOM     94  C   UNL A   1      40.955  32.106  36.634  1.00  0.00     0.135 A 
ATOM     95  C   UNL A   1      42.701  33.420  35.627  1.00  0.00     0.135 A 
ATOM     96  F   UNL A   1      40.106  31.067  36.620  1.00  0.00    -0.206 F 
ATOM     97  C   UNL A   1      40.914  32.978  37.719  1.00  0.00     0.059 A 
ATOM     98  C   UNL A   1      42.696  34.287  36.716  1.00  0.00     0.059 A 
ATOM     99  F   UNL A   1      43.575  33.656  34.636  1.00  0.00    -0.206 F 
ATOM    100  C   UNL A   1      41.792  34.063  37.752  1.00  0.00     0.060 A 
BRANCH 100 101
ATOM    101  S   UNL A   1      41.755  35.162  39.184  1.00  0.00     0.124 S 
ATOM    102  O   UNL A   1      40.320  35.309  39.405  1.00  0.00    -0.237 OA
ATOM    103  O   UNL A   1      42.476  34.389  40.191  1.00  0.00    -0.237 OA
ATOM    104  O   UNL A   1      42.443  36.360  38.711  1.00  0.00    -0.744 OA
ENDBRANCH 100 101
ENDBRANCH  68  93
ENDBRANCH  42  43
ENDBRANCH  35  37
ENDBRANCH  34  35
ENDBRANCH  33  34
ENDBRANCH  32  33
ENDBRANCH  31  32
ENDBRANCH  30  31
ENDBRANCH  29  30
ENDBRANCH   1  29
TORSDOF 27
ENDMDL
MODEL 3
REMARK VINA RESULT:      -9.9      1.607      8.796
REMARK SMILES COc1ccc(/C=C/c2ncc([N+](=O)[O-])cc2C(=O)OCCOCCOCCOCCOC(=O)c2ccc(-c3c4nc(c(-c5c(F)cc(S(=O)(=O)[O-])cc5F)c5ccc([nH]5)c(-c5c(F)cc(S(=O)(=O)[O-])cc5F)c5nc(c(-c6c(F)cc(S(=O)(=O)[O-])cc6F)c6ccc3[nH]6)C=C5)C=C4)cc2)cc1
REMARK SMILES IDX 26 1 25 2 24 3 23 4 22 5 21 6 20 7 18 8 19 9 17 10 9 11
REMARK SMILES IDX 10 12 11 13 16 14 12 15 8 16 7 17 6 18 3 19 4 20 102 21 5 22
REMARK SMILES IDX 101 23 2 24 1 25 13 26 14 27 15 28 27 29 28 30 29 31 30 32
REMARK SMILES IDX 31 33 32 34 33 35 34 36 35 37 36 38 100 39 37 40 99 41 38 42
REMARK SMILES IDX 39 43 40 44 93 45 41 46 98 47 92 48 94 49 42 50 97 51 91 52
REMARK SMILES IDX 90 53 43 55 77 56 56 57 76 58 57 59 60 60 75 61 95 62 58 63
REMARK SMILES IDX 59 64 74 66 96 67 61 68 44 69 45 70 54 71 46 72 47 73 53 74
REMARK SMILES IDX 55 75 48 76 49 77 50 78 51 79 52 80 78 81 79 82 88 83 80 84
REMARK SMILES IDX 81 85 87 86 89 87 82 88 83 89 84 90 85 91 86 92 62 93 63 94
REMARK SMILES IDX 72 95 64 96 65 97 71 98 73 99 66 100 67 101 68 102 69 103
REMARK SMILES IDX 70 104
REMARK H PARENT 94 54 60 65
REMARK Flexibility Score: inf
ROOT
ATOM      1  O   UNL A   1      37.011  21.024  24.672  1.00  0.00    -0.377 OA
ENDROOT
BRANCH   1   2
ATOM      2  C   UNL A   1      36.972  22.197  23.877  1.00  0.00     0.188 C 
BRANCH   2   3
ATOM      3  C   UNL A   1      35.883  23.260  24.112  1.00  0.00     0.188 C 
BRANCH   3   4
ATOM      4  O   UNL A   1      36.139  24.145  25.194  1.00  0.00    -0.376 OA
BRANCH   4   5
ATOM      5  C   UNL A   1      36.107  23.555  26.485  1.00  0.00     0.202 C 
BRANCH   5   6
ATOM      6  C   UNL A   1      34.713  23.050  26.855  1.00  0.00     0.261 C 
BRANCH   6   7
ATOM      7  O   UNL A   1      33.703  24.074  26.826  1.00  0.00    -0.460 OA
BRANCH   7   8
ATOM      8  C   UNL A   1      32.408  23.678  26.752  1.00  0.00     0.340 C 
ATOM      9  O   UNL A   1      31.750  23.165  27.624  1.00  0.00    -0.246 OA
BRANCH   8  10
ATOM     10  C   UNL A   1      31.899  24.117  25.431  1.00  0.00     0.092 A 
ATOM     11  C   UNL A   1      31.654  23.198  24.400  1.00  0.00     0.078 A 
ATOM     12  N   UNL A   1      31.106  23.575  23.210  1.00  0.00    -0.249 NA
ATOM     13  C   UNL A   1      30.788  24.885  23.042  1.00  0.00     0.197 A 
ATOM     14  C   UNL A   1      31.539  25.461  25.244  1.00  0.00     0.105 A 
ATOM     15  C   UNL A   1      30.974  25.841  24.028  1.00  0.00     0.288 A 
BRANCH  11  16
ATOM     16  C   UNL A   1      31.843  21.746  24.551  1.00  0.00     0.030 C 
ATOM     17  C   UNL A   1      33.053  21.166  24.451  1.00  0.00     0.010 C 
BRANCH  17  18
ATOM     18  C   UNL A   1      33.248  19.709  24.441  1.00  0.00    -0.025 A 
ATOM     19  C   UNL A   1      33.556  16.908  24.411  1.00  0.00     0.118 A 
ATOM     20  C   UNL A   1      34.655  17.739  24.622  1.00  0.00     0.047 A 
ATOM     21  C   UNL A   1      32.295  17.472  24.232  1.00  0.00     0.047 A 
ATOM     22  C   UNL A   1      34.507  19.130  24.629  1.00  0.00     0.012 A 
ATOM     23  C   UNL A   1      32.149  18.866  24.227  1.00  0.00     0.012 A 
BRANCH  19  24
ATOM     24  O   UNL A   1      33.812  15.564  24.430  1.00  0.00    -0.497 OA
ATOM     25  C   UNL A   1      33.050  14.827  25.382  1.00  0.00     0.278 C 
ENDBRANCH  19  24
ENDBRANCH  17  18
ENDBRANCH  11  16
BRANCH  15  26
ATOM     26  N   UNL A   1      30.557  27.214  23.788  1.00  0.00     0.064 N 
ATOM     27  O   UNL A   1      30.005  27.462  22.707  1.00  0.00    -0.258 OA
ATOM     28  O   UNL A   1      30.783  28.045  24.676  1.00  0.00    -0.258 OA
ENDBRANCH  15  26
ENDBRANCH   8  10
ENDBRANCH   7   8
ENDBRANCH   6   7
ENDBRANCH   5   6
ENDBRANCH   4   5
ENDBRANCH   3   4
ENDBRANCH   2   3
ENDBRANCH   1   2
BRANCH   1  29
ATOM     29  C   UNL A   1      38.271  20.471  25.026  1.00  0.00     0.188 C 
BRANCH  29  30
ATOM     30  C   UNL A   1      39.210  21.303  25.923  1.00  0.00     0.188 C 
BRANCH  30  31
ATOM     31  O   UNL A   1      40.454  20.670  26.216  1.00  0.00    -0.376 OA
BRANCH  31  32
ATOM     32  C   UNL A   1      41.383  21.435  26.970  1.00  0.00     0.202 C 
BRANCH  32  33
ATOM     33  C   UNL A   1      42.215  22.420  26.143  1.00  0.00     0.261 C 
BRANCH  33  34
ATOM     34  O   UNL A   1      41.620  23.713  25.951  1.00  0.00    -0.460 OA
BRANCH  34  35
ATOM     35  C   UNL A   1      42.445  24.778  25.845  1.00  0.00     0.338 C 
ATOM     36  O   UNL A   1      43.253  25.002  24.962  1.00  0.00    -0.246 OA
BRANCH  35  37
ATOM     37  C   UNL A   1      42.041  25.742  26.888  1.00  0.00     0.060 A 
ATOM     38  C   UNL A   1      42.590  27.031  26.873  1.00  0.00     0.016 A 
ATOM     39  C   UNL A   1      41.069  25.392  27.828  1.00  0.00     0.016 A 
ATOM     40  C   UNL A   1      42.172  27.973  27.814  1.00  0.00     0.010 A 
ATOM     41  C   UNL A   1      40.673  26.326  28.784  1.00  0.00     0.010 A 
ATOM     42  C   UNL A   1      41.241  27.611  28.796  1.00  0.00    -0.014 A 
BRANCH  42  43
ATOM     43  C   UNL A   1      41.013  28.495  29.963  1.00  0.00     0.031 A 
ATOM     44  C   UNL A   1      41.855  28.267  31.187  1.00  0.00     0.074 A 
ATOM     45  C   UNL A   1      40.081  29.462  29.942  1.00  0.00     0.049 A 
ATOM     46  N   UNL A   1      41.808  28.860  32.349  1.00  0.00    -0.248 NA
ATOM     47  C   UNL A   1      42.891  27.224  31.083  1.00  0.00     0.031 C 
ATOM     48  C   UNL A   1      39.227  29.794  28.803  1.00  0.00     0.029 A 
ATOM     49  N   UNL A   1      39.688  30.337  30.924  1.00  0.00    -0.354 N 
ATOM     50  C   UNL A   1      42.802  28.264  33.114  1.00  0.00     0.074 A 
ATOM     51  C   UNL A   1      43.418  27.243  32.296  1.00  0.00     0.031 C 
ATOM     52  C   UNL A   1      38.397  30.792  29.158  1.00  0.00     0.029 A 
ATOM     53  C   UNL A   1      38.642  31.148  30.555  1.00  0.00     0.049 A 
ATOM     54  H   UNL A   1      40.117  30.380  31.809  1.00  0.00     0.167 HD
ATOM     55  C   UNL A   1      43.175  28.549  34.383  1.00  0.00     0.037 A 
ATOM     56  C   UNL A   1      37.948  32.053  31.275  1.00  0.00     0.037 A 
ATOM     57  C   UNL A   1      42.547  29.554  35.198  1.00  0.00     0.049 A 
ATOM     58  C   UNL A   1      38.330  32.298  32.714  1.00  0.00     0.074 A 
ATOM     59  C   UNL A   1      42.856  29.928  36.493  1.00  0.00     0.029 A 
ATOM     60  N   UNL A   1      41.473  30.335  34.800  1.00  0.00    -0.354 N 
ATOM     61  N   UNL A   1      39.293  31.752  33.419  1.00  0.00    -0.248 NA
ATOM     62  C   UNL A   1      37.527  33.281  33.459  1.00  0.00     0.031 C 
ATOM     63  C   UNL A   1      41.936  30.902  36.896  1.00  0.00     0.029 A 
ATOM     64  C   UNL A   1      41.088  31.172  35.834  1.00  0.00     0.049 A 
ATOM     65  H   UNL A   1      41.046  30.300  33.912  1.00  0.00     0.167 HD
ATOM     66  C   UNL A   1      39.229  32.343  34.678  1.00  0.00     0.074 A 
ATOM     67  C   UNL A   1      38.140  33.296  34.635  1.00  0.00     0.031 C 
ATOM     68  C   UNL A   1      40.001  32.119  35.770  1.00  0.00     0.037 A 
BRANCH  55  69
ATOM     69  C   UNL A   1      44.294  27.738  34.972  1.00  0.00     0.058 A 
ATOM     70  C   UNL A   1      45.633  28.155  34.880  1.00  0.00     0.135 A 
ATOM     71  C   UNL A   1      44.025  26.539  35.649  1.00  0.00     0.135 A 
ATOM     72  F   UNL A   1      45.947  29.282  34.222  1.00  0.00    -0.206 F 
ATOM     73  C   UNL A   1      46.667  27.398  35.419  1.00  0.00     0.059 A 
ATOM     74  C   UNL A   1      45.042  25.780  36.219  1.00  0.00     0.059 A 
ATOM     75  F   UNL A   1      42.765  26.092  35.757  1.00  0.00    -0.206 F 
ATOM     76  C   UNL A   1      46.361  26.211  36.087  1.00  0.00     0.060 A 
BRANCH  76  77
ATOM     77  S   UNL A   1      47.714  25.242  36.785  1.00  0.00     0.124 S 
ATOM     78  O   UNL A   1      48.590  25.088  35.627  1.00  0.00    -0.237 OA
ATOM     79  O   UNL A   1      48.212  26.117  37.842  1.00  0.00    -0.237 OA
ATOM     80  O   UNL A   1      47.059  24.021  37.241  1.00  0.00    -0.744 OA
ENDBRANCH  76  77
ENDBRANCH  55  69
BRANCH  56  81
ATOM     81  C   UNL A   1      36.813  32.789  30.656  1.00  0.00     0.058 A 
ATOM     82  C   UNL A   1      35.483  32.466  30.965  1.00  0.00     0.135 A 
ATOM     83  C   UNL A   1      37.033  33.827  29.736  1.00  0.00     0.135 A 
ATOM     84  F   UNL A   1      35.218  31.471  31.826  1.00  0.00    -0.206 F 
ATOM     85  C   UNL A   1      34.414  33.134  30.377  1.00  0.00     0.059 A 
ATOM     86  C   UNL A   1      35.981  34.527  29.154  1.00  0.00     0.059 A 
ATOM     87  F   UNL A   1      38.287  34.180  29.410  1.00  0.00    -0.206 F 
ATOM     88  C   UNL A   1      34.673  34.167  29.475  1.00  0.00     0.060 A 
BRANCH  88  89
ATOM     89  S   UNL A   1      33.278  35.064  28.760  1.00  0.00     0.124 S 
ATOM     90  O   UNL A   1      33.957  36.127  28.027  1.00  0.00    -0.237 OA
ATOM     91  O   UNL A   1      32.637  34.036  27.946  1.00  0.00    -0.237 OA
ATOM     92  O   UNL A   1      32.517  35.490  29.930  1.00  0.00    -0.744 OA
ENDBRANCH  88  89
ENDBRANCH  56  81
BRANCH  68  93
ATOM     93  C   UNL A   1      39.721  32.936  37.002  1.00  0.00     0.058 A 
ATOM     94  C   UNL A   1      38.693  32.594  37.895  1.00  0.00     0.135 A 
ATOM     95  C   UNL A   1      40.534  34.034  37.326  1.00  0.00     0.135 A 
ATOM     96  F   UNL A   1      37.884  31.556  37.631  1.00  0.00    -0.206 F 
ATOM     97  C   UNL A   1      38.467  33.329  39.056  1.00  0.00     0.059 A 
ATOM     98  C   UNL A   1      40.343  34.765  38.496  1.00  0.00     0.059 A 
ATOM     99  F   UNL A   1      41.539  34.395  36.513  1.00  0.00    -0.206 F 
ATOM    100  C   UNL A   1      39.300  34.410  39.349  1.00  0.00     0.060 A 
BRANCH 100 101
ATOM    101  S   UNL A   1      39.020  35.329  40.878  1.00  0.00     0.124 S 
ATOM    102  O   UNL A   1      38.986  36.704  40.392  1.00  0.00    -0.237 OA
ATOM    103  O   UNL A   1      37.746  34.787  41.340  1.00  0.00    -0.237 OA
ATOM    104  O   UNL A   1      40.177  34.982  41.700  1.00  0.00    -0.744 OA
ENDBRANCH 100 101
ENDBRANCH  68  93
ENDBRANCH  42  43
ENDBRANCH  35  37
ENDBRANCH  34  35
ENDBRANCH  33  34
ENDBRANCH  32  33
ENDBRANCH  31  32
ENDBRANCH  30  31
ENDBRANCH  29  30
ENDBRANCH   1  29
TORSDOF 27
ENDMDL
