MODEL 1
REMARK VINA RESULT:      -9.9      0.000      0.000
REMARK SMILES O=C(OCCOCCOCCOCCOC(=O)[C@@H]1CCC[N@@H+](Cc2ccc(F)cc2Cl)C1)c1ccc(-c2c3nc(c(-c4c(F)cc(S(=O)(=O)[O-])cc4F)c4ccc([nH]4)c(-c4c(F)cc(S(=O)(=O)[O-])cc4F)c4nc(c(-c5c(F)cc(S(=O)(=O)[O-])cc5F)c5ccc2[nH]5)C=C4)C=C3)cc1
REMARK SMILES IDX 8 1 7 2 6 3 5 4 4 5 3 6 2 7 1 8 33 9 34 10 98 11 35 12 97 13
REMARK SMILES IDX 36 14 37 15 38 16 91 17 39 18 96 19 90 20 92 21 40 22 95 23
REMARK SMILES IDX 89 24 88 25 41 27 75 28 54 29 74 30 55 31 58 32 73 33 93 34
REMARK SMILES IDX 56 35 57 36 72 38 94 39 59 40 42 41 43 42 52 43 44 44 45 45
REMARK SMILES IDX 51 46 53 47 46 48 47 49 48 50 49 51 50 52 76 53 77 54 86 55
REMARK SMILES IDX 78 56 79 57 85 58 87 59 80 60 81 61 82 62 83 63 84 64 60 65
REMARK SMILES IDX 61 66 70 67 62 68 63 69 69 70 71 71 64 72 65 73 66 74 67 75
REMARK SMILES IDX 68 76 9 77 10 78 11 79 12 80 13 81 14 82 15 83 16 84 17 85
REMARK SMILES IDX 18 86 19 87 32 88 20 89 22 90 21 91 23 93 24 94 25 95 30 96
REMARK SMILES IDX 26 97 29 98 31 99 27 100 28 101
REMARK H PARENT 92 26 58 37 22 92
REMARK Flexibility Score: inf
ROOT
ATOM      1  C   UNL A   1      35.600  21.162  25.278  1.00  0.00     0.188 C 
ENDROOT
BRANCH   1   2
ATOM      2  C   UNL A   1      36.340  22.430  25.678  1.00  0.00     0.188 C 
BRANCH   2   3
ATOM      3  O   UNL A   1      37.742  22.177  25.607  1.00  0.00    -0.376 OA
BRANCH   3   4
ATOM      4  C   UNL A   1      38.597  23.031  26.361  1.00  0.00     0.202 C 
BRANCH   4   5
ATOM      5  C   UNL A   1      39.987  22.462  26.645  1.00  0.00     0.261 C 
BRANCH   5   6
ATOM      6  O   UNL A   1      40.833  23.321  27.428  1.00  0.00    -0.460 OA
BRANCH   6   7
ATOM      7  C   UNL A   1      41.300  24.567  27.158  1.00  0.00     0.338 C 
ATOM      8  O   UNL A   1      41.998  24.712  26.155  1.00  0.00    -0.246 OA
BRANCH   7   9
ATOM      9  C   UNL A   1      41.061  25.773  28.012  1.00  0.00     0.060 A 
ATOM     10  C   UNL A   1      41.915  26.866  28.120  1.00  0.00     0.016 A 
ATOM     11  C   UNL A   1      39.850  25.828  28.724  1.00  0.00     0.016 A 
ATOM     12  C   UNL A   1      41.650  27.934  28.953  1.00  0.00     0.010 A 
ATOM     13  C   UNL A   1      39.564  26.900  29.577  1.00  0.00     0.010 A 
ATOM     14  C   UNL A   1      40.502  27.928  29.728  1.00  0.00    -0.014 A 
BRANCH  14  15
ATOM     15  C   UNL A   1      40.511  28.833  30.887  1.00  0.00     0.031 A 
ATOM     16  C   UNL A   1      39.423  29.868  30.939  1.00  0.00     0.074 A 
ATOM     17  C   UNL A   1      41.297  28.568  31.945  1.00  0.00     0.049 A 
ATOM     18  N   UNL A   1      39.229  30.826  31.798  1.00  0.00    -0.248 NA
ATOM     19  C   UNL A   1      38.402  29.803  29.873  1.00  0.00     0.031 C 
ATOM     20  C   UNL A   1      42.222  27.434  32.047  1.00  0.00     0.029 A 
ATOM     21  N   UNL A   1      41.403  29.192  33.155  1.00  0.00    -0.354 N 
ATOM     22  C   UNL A   1      38.114  31.519  31.336  1.00  0.00     0.074 A 
ATOM     23  C   UNL A   1      37.660  30.865  30.134  1.00  0.00     0.031 C 
ATOM     24  C   UNL A   1      42.774  27.427  33.271  1.00  0.00     0.029 A 
ATOM     25  C   UNL A   1      42.317  28.604  33.998  1.00  0.00     0.049 A 
ATOM     26  H   UNL A   1      40.876  29.987  33.401  1.00  0.00     0.167 HD
ATOM     27  C   UNL A   1      37.545  32.620  31.873  1.00  0.00     0.037 A 
ATOM     28  C   UNL A   1      42.756  29.015  35.202  1.00  0.00     0.037 A 
ATOM     29  C   UNL A   1      38.019  33.205  33.095  1.00  0.00     0.049 A 
ATOM     30  C   UNL A   1      42.178  30.300  35.735  1.00  0.00     0.074 A 
ATOM     31  C   UNL A   1      37.606  34.361  33.725  1.00  0.00     0.029 A 
ATOM     32  N   UNL A   1      39.025  32.649  33.880  1.00  0.00    -0.354 N 
ATOM     33  N   UNL A   1      41.220  31.044  35.228  1.00  0.00    -0.248 NA
ATOM     34  C   UNL A   1      42.754  30.819  36.979  1.00  0.00     0.031 C 
ATOM     35  C   UNL A   1      38.396  34.528  34.869  1.00  0.00     0.029 A 
ATOM     36  C   UNL A   1      39.260  33.446  34.982  1.00  0.00     0.049 A 
ATOM     37  H   UNL A   1      39.499  31.811  33.680  1.00  0.00     0.167 HD
ATOM     38  C   UNL A   1      41.064  32.113  36.099  1.00  0.00     0.074 A 
ATOM     39  C   UNL A   1      42.018  31.905  37.175  1.00  0.00     0.031 C 
ATOM     40  C   UNL A   1      40.219  33.173  36.026  1.00  0.00     0.037 A 
BRANCH  27  41
ATOM     41  C   UNL A   1      36.458  33.287  31.076  1.00  0.00     0.058 A 
ATOM     42  C   UNL A   1      36.715  34.032  29.914  1.00  0.00     0.135 A 
ATOM     43  C   UNL A   1      35.133  33.242  31.540  1.00  0.00     0.135 A 
ATOM     44  F   UNL A   1      37.970  34.148  29.448  1.00  0.00    -0.206 F 
ATOM     45  C   UNL A   1      35.704  34.736  29.262  1.00  0.00     0.059 A 
ATOM     46  C   UNL A   1      34.103  33.915  30.891  1.00  0.00     0.059 A 
ATOM     47  F   UNL A   1      34.832  32.563  32.659  1.00  0.00    -0.206 F 
ATOM     48  C   UNL A   1      34.403  34.676  29.763  1.00  0.00     0.060 A 
BRANCH  48  49
ATOM     49  S   UNL A   1      33.107  35.619  28.930  1.00  0.00     0.124 S 
ATOM     50  O   UNL A   1      33.893  36.577  28.158  1.00  0.00    -0.237 OA
ATOM     51  O   UNL A   1      32.423  34.590  28.153  1.00  0.00    -0.237 OA
ATOM     52  O   UNL A   1      32.335  36.184  30.032  1.00  0.00    -0.744 OA
ENDBRANCH  48  49
ENDBRANCH  27  41
BRANCH  28  53
ATOM     53  C   UNL A   1      43.820  28.262  35.923  1.00  0.00     0.058 A 
ATOM     54  C   UNL A   1      45.179  28.551  35.734  1.00  0.00     0.135 A 
ATOM     55  C   UNL A   1      43.499  27.230  36.823  1.00  0.00     0.135 A 
ATOM     56  F   UNL A   1      45.546  29.519  34.881  1.00  0.00    -0.206 F 
ATOM     57  C   UNL A   1      46.178  27.839  36.395  1.00  0.00     0.059 A 
ATOM     58  C   UNL A   1      44.477  26.526  37.519  1.00  0.00     0.059 A 
ATOM     59  F   UNL A   1      42.215  26.909  37.050  1.00  0.00    -0.206 F 
ATOM     60  C   UNL A   1      45.816  26.828  37.287  1.00  0.00     0.060 A 
BRANCH  60  61
ATOM     61  S   UNL A   1      47.119  25.920  38.149  1.00  0.00     0.124 S 
ATOM     62  O   UNL A   1      46.873  26.279  39.527  1.00  0.00    -0.237 OA
ATOM     63  O   UNL A   1      46.823  24.534  37.777  1.00  0.00    -0.237 OA
ATOM     64  O   UNL A   1      48.349  26.461  37.558  1.00  0.00    -0.744 OA
ENDBRANCH  60  61
ENDBRANCH  28  53
BRANCH  40  65
ATOM     65  C   UNL A   1      40.265  34.146  37.165  1.00  0.00     0.058 A 
ATOM     66  C   UNL A   1      41.146  35.236  37.166  1.00  0.00     0.135 A 
ATOM     67  C   UNL A   1      39.372  34.008  38.238  1.00  0.00     0.135 A 
ATOM     68  F   UNL A   1      42.023  35.401  36.163  1.00  0.00    -0.206 F 
ATOM     69  C   UNL A   1      41.157  36.149  38.213  1.00  0.00     0.059 A 
ATOM     70  C   UNL A   1      39.344  34.925  39.278  1.00  0.00     0.059 A 
ATOM     71  F   UNL A   1      38.501  32.985  38.268  1.00  0.00    -0.206 F 
ATOM     72  C   UNL A   1      40.250  35.985  39.263  1.00  0.00     0.060 A 
BRANCH  72  73
ATOM     73  S   UNL A   1      40.249  37.195  40.599  1.00  0.00     0.124 S 
ATOM     74  O   UNL A   1      41.026  36.502  41.621  1.00  0.00    -0.237 OA
ATOM     75  O   UNL A   1      40.900  38.346  39.979  1.00  0.00    -0.237 OA
ATOM     76  O   UNL A   1      38.830  37.370  40.896  1.00  0.00    -0.744 OA
ENDBRANCH  72  73
ENDBRANCH  40  65
ENDBRANCH  14  15
ENDBRANCH   7   9
ENDBRANCH   6   7
ENDBRANCH   5   6
ENDBRANCH   4   5
ENDBRANCH   3   4
ENDBRANCH   2   3
ENDBRANCH   1   2
BRANCH   1  77
ATOM     77  O   UNL A   1      34.390  20.963  25.986  1.00  0.00    -0.377 OA
BRANCH  77  78
ATOM     78  C   UNL A   1      34.334  21.569  27.262  1.00  0.00     0.188 C 
BRANCH  78  79
ATOM     79  C   UNL A   1      33.130  22.444  27.672  1.00  0.00     0.188 C 
BRANCH  79  80
ATOM     80  O   UNL A   1      32.175  22.835  26.713  1.00  0.00    -0.376 OA
BRANCH  80  81
ATOM     81  C   UNL A   1      31.514  24.075  26.854  1.00  0.00     0.202 C 
BRANCH  81  82
ATOM     82  C   UNL A   1      30.456  24.579  25.847  1.00  0.00     0.261 C 
BRANCH  82  83
ATOM     83  O   UNL A   1      30.688  25.848  25.200  1.00  0.00    -0.463 OA
BRANCH  83  84
ATOM     84  C   UNL A   1      30.234  25.971  23.928  1.00  0.00     0.314 C 
ATOM     85  O   UNL A   1      29.041  26.118  23.675  1.00  0.00    -0.252 OA
BRANCH  84  86
ATOM     86  C   UNL A   1      31.302  25.732  22.831  1.00  0.00     0.154 C 
ATOM     87  C   UNL A   1      32.192  24.479  22.655  1.00  0.00     0.027 C 
ATOM     88  C   UNL A   1      32.282  26.898  22.935  1.00  0.00     0.277 C 
ATOM     89  C   UNL A   1      33.312  24.313  23.693  1.00  0.00     0.062 C 
ATOM     90  N   UNL A   1      33.156  26.756  24.108  1.00  0.00    -0.330 N 
ATOM     91  C   UNL A   1      34.060  25.610  23.990  1.00  0.00     0.262 C 
ATOM     92  H   UNL A   1      32.550  26.548  24.903  1.00  0.00     0.348 HD
BRANCH  90  93
ATOM     93  C   UNL A   1      33.848  28.017  24.455  1.00  0.00     0.300 C 
BRANCH  93  94
ATOM     94  C   UNL A   1      33.007  28.942  25.320  1.00  0.00     0.025 A 
ATOM     95  C   UNL A   1      31.746  29.346  24.838  1.00  0.00     0.014 A 
ATOM     96  C   UNL A   1      33.518  29.569  26.467  1.00  0.00     0.052 A 
ATOM     97  C   UNL A   1      31.112  30.468  25.358  1.00  0.00     0.040 A 
ATOM     98  C   UNL A   1      32.856  30.667  27.019  1.00  0.00     0.060 A 
ATOM     99  Cl  UNL A   1      34.995  29.078  27.213  1.00  0.00    -0.084 Cl
ATOM    100  C   UNL A   1      31.688  31.131  26.431  1.00  0.00     0.124 A 
ATOM    101  F   UNL A   1      31.111  32.244  26.899  1.00  0.00    -0.207 F 
ENDBRANCH  93  94
ENDBRANCH  90  93
ENDBRANCH  84  86
ENDBRANCH  83  84
ENDBRANCH  82  83
ENDBRANCH  81  82
ENDBRANCH  80  81
ENDBRANCH  79  80
ENDBRANCH  78  79
ENDBRANCH  77  78
ENDBRANCH   1  77
TORSDOF 25
ENDMDL
MODEL 2
REMARK VINA RESULT:      -9.4      6.737     12.054
REMARK SMILES O=C(OCCOCCOCCOCCOC(=O)[C@@H]1CCC[N@@H+](Cc2ccc(F)cc2Cl)C1)c1ccc(-c2c3nc(c(-c4c(F)cc(S(=O)(=O)[O-])cc4F)c4ccc([nH]4)c(-c4c(F)cc(S(=O)(=O)[O-])cc4F)c4nc(c(-c5c(F)cc(S(=O)(=O)[O-])cc5F)c5ccc2[nH]5)C=C4)C=C3)cc1
REMARK SMILES IDX 8 1 7 2 6 3 5 4 4 5 3 6 2 7 1 8 33 9 34 10 98 11 35 12 97 13
REMARK SMILES IDX 36 14 37 15 38 16 91 17 39 18 96 19 90 20 92 21 40 22 95 23
REMARK SMILES IDX 89 24 88 25 41 27 75 28 54 29 74 30 55 31 58 32 73 33 93 34
REMARK SMILES IDX 56 35 57 36 72 38 94 39 59 40 42 41 43 42 52 43 44 44 45 45
REMARK SMILES IDX 51 46 53 47 46 48 47 49 48 50 49 51 50 52 76 53 77 54 86 55
REMARK SMILES IDX 78 56 79 57 85 58 87 59 80 60 81 61 82 62 83 63 84 64 60 65
REMARK SMILES IDX 61 66 70 67 62 68 63 69 69 70 71 71 64 72 65 73 66 74 67 75
REMARK SMILES IDX 68 76 9 77 10 78 11 79 12 80 13 81 14 82 15 83 16 84 17 85
REMARK SMILES IDX 18 86 19 87 32 88 20 89 22 90 21 91 23 93 24 94 25 95 30 96
REMARK SMILES IDX 26 97 29 98 31 99 27 100 28 101
REMARK H PARENT 92 26 58 37 22 92
REMARK Flexibility Score: inf
ROOT
ATOM      1  C   UNL A   1      34.290  32.837  28.062  1.00  0.00     0.188 C 
ENDROOT
BRANCH   1   2
ATOM      2  C   UNL A   1      34.732  33.345  29.427  1.00  0.00     0.188 C 
BRANCH   2   3
ATOM      3  O   UNL A   1      35.976  32.729  29.757  1.00  0.00    -0.376 OA
BRANCH   3   4
ATOM      4  C   UNL A   1      35.953  31.710  30.752  1.00  0.00     0.202 C 
BRANCH   4   5
ATOM      5  C   UNL A   1      36.030  30.282  30.212  1.00  0.00     0.261 C 
BRANCH   5   6
ATOM      6  O   UNL A   1      36.314  29.284  31.208  1.00  0.00    -0.460 OA
BRANCH   6   7
ATOM      7  C   UNL A   1      37.445  29.068  31.928  1.00  0.00     0.338 C 
ATOM      8  O   UNL A   1      37.318  28.731  33.105  1.00  0.00    -0.246 OA
BRANCH   7   9
ATOM      9  C   UNL A   1      38.837  29.247  31.408  1.00  0.00     0.060 A 
ATOM     10  C   UNL A   1      39.174  29.805  30.179  1.00  0.00     0.016 A 
ATOM     11  C   UNL A   1      39.893  28.866  32.254  1.00  0.00     0.016 A 
ATOM     12  C   UNL A   1      40.479  29.910  29.746  1.00  0.00     0.010 A 
ATOM     13  C   UNL A   1      41.224  28.963  31.833  1.00  0.00     0.010 A 
ATOM     14  C   UNL A   1      41.506  29.437  30.547  1.00  0.00    -0.014 A 
BRANCH  14  15
ATOM     15  C   UNL A   1      42.777  29.167  29.859  1.00  0.00     0.031 A 
ATOM     16  C   UNL A   1      42.875  27.865  29.116  1.00  0.00     0.074 A 
ATOM     17  C   UNL A   1      43.684  30.147  29.706  1.00  0.00     0.049 A 
ATOM     18  N   UNL A   1      43.886  27.343  28.484  1.00  0.00    -0.248 NA
ATOM     19  C   UNL A   1      41.650  27.040  29.071  1.00  0.00     0.031 C 
ATOM     20  C   UNL A   1      43.544  31.515  30.218  1.00  0.00     0.029 A 
ATOM     21  N   UNL A   1      44.871  30.167  29.031  1.00  0.00    -0.354 N 
ATOM     22  C   UNL A   1      43.443  26.104  28.034  1.00  0.00     0.074 A 
ATOM     23  C   UNL A   1      42.070  25.954  28.445  1.00  0.00     0.031 C 
ATOM     24  C   UNL A   1      44.591  32.248  29.805  1.00  0.00     0.029 A 
ATOM     25  C   UNL A   1      45.516  31.380  29.088  1.00  0.00     0.049 A 
ATOM     26  H   UNL A   1      45.231  29.386  28.549  1.00  0.00     0.167 HD
ATOM     27  C   UNL A   1      44.147  25.172  27.354  1.00  0.00     0.037 A 
ATOM     28  C   UNL A   1      46.740  31.718  28.643  1.00  0.00     0.037 A 
ATOM     29  C   UNL A   1      45.503  25.393  26.938  1.00  0.00     0.049 A 
ATOM     30  C   UNL A   1      47.545  30.634  27.976  1.00  0.00     0.074 A 
ATOM     31  C   UNL A   1      46.376  24.525  26.317  1.00  0.00     0.029 A 
ATOM     32  N   UNL A   1      46.176  26.600  27.105  1.00  0.00    -0.354 N 
ATOM     33  N   UNL A   1      47.183  29.406  27.676  1.00  0.00    -0.248 NA
ATOM     34  C   UNL A   1      48.927  30.962  27.614  1.00  0.00     0.031 C 
ATOM     35  C   UNL A   1      47.595  25.194  26.149  1.00  0.00     0.029 A 
ATOM     36  C   UNL A   1      47.462  26.497  26.612  1.00  0.00     0.049 A 
ATOM     37  H   UNL A   1      45.793  27.409  27.512  1.00  0.00     0.167 HD
ATOM     38  C   UNL A   1      48.286  28.817  27.074  1.00  0.00     0.074 A 
ATOM     39  C   UNL A   1      49.322  29.835  27.038  1.00  0.00     0.031 C 
ATOM     40  C   UNL A   1      48.442  27.557  26.595  1.00  0.00     0.037 A 
BRANCH  27  41
ATOM     41  C   UNL A   1      43.491  23.835  27.146  1.00  0.00     0.058 A 
ATOM     42  C   UNL A   1      43.507  22.821  28.118  1.00  0.00     0.135 A 
ATOM     43  C   UNL A   1      42.901  23.539  25.907  1.00  0.00     0.135 A 
ATOM     44  F   UNL A   1      44.098  23.030  29.306  1.00  0.00    -0.206 F 
ATOM     45  C   UNL A   1      42.995  21.552  27.855  1.00  0.00     0.059 A 
ATOM     46  C   UNL A   1      42.358  22.288  25.631  1.00  0.00     0.059 A 
ATOM     47  F   UNL A   1      42.876  24.463  24.933  1.00  0.00    -0.206 F 
ATOM     48  C   UNL A   1      42.428  21.294  26.605  1.00  0.00     0.060 A 
BRANCH  48  49
ATOM     49  S   UNL A   1      41.797  19.637  26.262  1.00  0.00     0.124 S 
ATOM     50  O   UNL A   1      42.126  18.937  27.501  1.00  0.00    -0.237 OA
ATOM     51  O   UNL A   1      40.376  19.885  26.034  1.00  0.00    -0.237 OA
ATOM     52  O   UNL A   1      42.553  19.221  25.086  1.00  0.00    -0.744 OA
ENDBRANCH  48  49
ENDBRANCH  27  41
BRANCH  28  53
ATOM     53  C   UNL A   1      47.285  33.084  28.876  1.00  0.00     0.058 A 
ATOM     54  C   UNL A   1      47.079  34.123  27.958  1.00  0.00     0.135 A 
ATOM     55  C   UNL A   1      48.032  33.382  30.030  1.00  0.00     0.135 A 
ATOM     56  F   UNL A   1      46.382  33.896  26.834  1.00  0.00    -0.206 F 
ATOM     57  C   UNL A   1      47.600  35.399  28.165  1.00  0.00     0.059 A 
ATOM     58  C   UNL A   1      48.536  34.656  30.275  1.00  0.00     0.059 A 
ATOM     59  F   UNL A   1      48.261  32.431  30.950  1.00  0.00    -0.206 F 
ATOM     60  C   UNL A   1      48.327  35.656  29.328  1.00  0.00     0.060 A 
BRANCH  60  61
ATOM     61  S   UNL A   1      48.988  37.317  29.593  1.00  0.00     0.124 S 
ATOM     62  O   UNL A   1      49.278  37.302  31.008  1.00  0.00    -0.237 OA
ATOM     63  O   UNL A   1      50.144  37.333  28.694  1.00  0.00    -0.237 OA
ATOM     64  O   UNL A   1      47.881  38.186  29.178  1.00  0.00    -0.744 OA
ENDBRANCH  60  61
ENDBRANCH  28  53
BRANCH  40  65
ATOM     65  C   UNL A   1      49.759  27.241  25.955  1.00  0.00     0.058 A 
ATOM     66  C   UNL A   1      50.851  26.784  26.705  1.00  0.00     0.135 A 
ATOM     67  C   UNL A   1      49.902  27.346  24.563  1.00  0.00     0.135 A 
ATOM     68  F   UNL A   1      50.760  26.676  28.040  1.00  0.00    -0.206 F 
ATOM     69  C   UNL A   1      52.058  26.465  26.095  1.00  0.00     0.059 A 
ATOM     70  C   UNL A   1      51.088  27.002  23.930  1.00  0.00     0.059 A 
ATOM     71  F   UNL A   1      48.874  27.766  23.806  1.00  0.00    -0.206 F 
ATOM     72  C   UNL A   1      52.164  26.575  24.707  1.00  0.00     0.060 A 
BRANCH  72  73
ATOM     73  S   UNL A   1      53.723  26.124  23.922  1.00  0.00     0.124 S 
ATOM     74  O   UNL A   1      53.302  25.899  22.543  1.00  0.00    -0.237 OA
ATOM     75  O   UNL A   1      54.542  27.311  24.150  1.00  0.00    -0.237 OA
ATOM     76  O   UNL A   1      54.140  24.933  24.656  1.00  0.00    -0.744 OA
ENDBRANCH  72  73
ENDBRANCH  40  65
ENDBRANCH  14  15
ENDBRANCH   7   9
ENDBRANCH   6   7
ENDBRANCH   5   6
ENDBRANCH   4   5
ENDBRANCH   3   4
ENDBRANCH   2   3
ENDBRANCH   1   2
BRANCH   1  77
ATOM     77  O   UNL A   1      33.685  31.557  28.101  1.00  0.00    -0.377 OA
BRANCH  77  78
ATOM     78  C   UNL A   1      33.483  30.948  26.841  1.00  0.00     0.188 C 
BRANCH  78  79
ATOM     79  C   UNL A   1      32.150  30.250  26.501  1.00  0.00     0.188 C 
BRANCH  79  80
ATOM     80  O   UNL A   1      32.006  29.541  25.293  1.00  0.00    -0.376 OA
BRANCH  80  81
ATOM     81  C   UNL A   1      33.157  29.173  24.560  1.00  0.00     0.202 C 
BRANCH  81  82
ATOM     82  C   UNL A   1      33.363  27.756  23.981  1.00  0.00     0.261 C 
BRANCH  82  83
ATOM     83  O   UNL A   1      32.388  26.743  24.308  1.00  0.00    -0.463 OA
BRANCH  83  84
ATOM     84  C   UNL A   1      31.334  26.622  23.463  1.00  0.00     0.314 C 
ATOM     85  O   UNL A   1      31.270  27.249  22.409  1.00  0.00    -0.252 OA
BRANCH  84  86
ATOM     86  C   UNL A   1      30.153  25.783  24.014  1.00  0.00     0.154 C 
ATOM     87  C   UNL A   1      29.791  25.546  25.499  1.00  0.00     0.027 C 
ATOM     88  C   UNL A   1      30.318  24.384  23.423  1.00  0.00     0.277 C 
ATOM     89  C   UNL A   1      30.734  24.609  26.268  1.00  0.00     0.062 C 
ATOM     90  N   UNL A   1      31.413  23.656  24.079  1.00  0.00    -0.330 N 
ATOM     91  C   UNL A   1      31.119  23.359  25.483  1.00  0.00     0.262 C 
ATOM     92  H   UNL A   1      32.218  24.283  24.093  1.00  0.00     0.348 HD
BRANCH  90  93
ATOM     93  C   UNL A   1      31.848  22.471  23.307  1.00  0.00     0.300 C 
BRANCH  93  94
ATOM     94  C   UNL A   1      33.240  21.990  23.681  1.00  0.00     0.025 A 
ATOM     95  C   UNL A   1      33.372  20.715  24.269  1.00  0.00     0.014 A 
ATOM     96  C   UNL A   1      34.360  22.836  23.659  1.00  0.00     0.052 A 
ATOM     97  C   UNL A   1      34.514  20.378  24.985  1.00  0.00     0.040 A 
ATOM     98  C   UNL A   1      35.524  22.476  24.339  1.00  0.00     0.060 A 
ATOM     99  Cl  UNL A   1      34.347  24.370  22.866  1.00  0.00    -0.084 Cl
ATOM    100  C   UNL A   1      35.571  21.274  25.031  1.00  0.00     0.124 A 
ATOM    101  F   UNL A   1      36.650  20.978  25.766  1.00  0.00    -0.207 F 
ENDBRANCH  93  94
ENDBRANCH  90  93
ENDBRANCH  84  86
ENDBRANCH  83  84
ENDBRANCH  82  83
ENDBRANCH  81  82
ENDBRANCH  80  81
ENDBRANCH  79  80
ENDBRANCH  78  79
ENDBRANCH  77  78
ENDBRANCH   1  77
TORSDOF 25
ENDMDL
MODEL 3
REMARK VINA RESULT:      -9.2      5.147      9.239
REMARK SMILES O=C(OCCOCCOCCOCCOC(=O)[C@@H]1CCC[N@@H+](Cc2ccc(F)cc2Cl)C1)c1ccc(-c2c3nc(c(-c4c(F)cc(S(=O)(=O)[O-])cc4F)c4ccc([nH]4)c(-c4c(F)cc(S(=O)(=O)[O-])cc4F)c4nc(c(-c5c(F)cc(S(=O)(=O)[O-])cc5F)c5ccc2[nH]5)C=C4)C=C3)cc1
REMARK SMILES IDX 8 1 7 2 6 3 5 4 4 5 3 6 2 7 1 8 33 9 34 10 98 11 35 12 97 13
REMARK SMILES IDX 36 14 37 15 38 16 91 17 39 18 96 19 90 20 92 21 40 22 95 23
REMARK SMILES IDX 89 24 88 25 41 27 75 28 54 29 74 30 55 31 58 32 73 33 93 34
REMARK SMILES IDX 56 35 57 36 72 38 94 39 59 40 42 41 43 42 52 43 44 44 45 45
REMARK SMILES IDX 51 46 53 47 46 48 47 49 48 50 49 51 50 52 76 53 77 54 86 55
REMARK SMILES IDX 78 56 79 57 85 58 87 59 80 60 81 61 82 62 83 63 84 64 60 65
REMARK SMILES IDX 61 66 70 67 62 68 63 69 69 70 71 71 64 72 65 73 66 74 67 75
REMARK SMILES IDX 68 76 9 77 10 78 11 79 12 80 13 81 14 82 15 83 16 84 17 85
REMARK SMILES IDX 18 86 19 87 32 88 20 89 22 90 21 91 23 93 24 94 25 95 30 96
REMARK SMILES IDX 26 97 29 98 31 99 27 100 28 101
REMARK H PARENT 92 26 58 37 22 92
REMARK Flexibility Score: inf
ROOT
ATOM      1  C   UNL A   1      34.829  21.581  26.112  1.00  0.00     0.188 C 
ENDROOT
BRANCH   1   2
ATOM      2  C   UNL A   1      34.975  23.018  25.630  1.00  0.00     0.188 C 
BRANCH   2   3
ATOM      3  O   UNL A   1      36.310  23.448  25.891  1.00  0.00    -0.376 OA
BRANCH   3   4
ATOM      4  C   UNL A   1      37.313  23.061  24.958  1.00  0.00     0.202 C 
BRANCH   4   5
ATOM      5  C   UNL A   1      38.163  21.865  25.388  1.00  0.00     0.261 C 
BRANCH   5   6
ATOM      6  O   UNL A   1      39.527  22.189  25.711  1.00  0.00    -0.460 OA
BRANCH   6   7
ATOM      7  C   UNL A   1      40.108  22.409  26.918  1.00  0.00     0.338 C 
ATOM      8  O   UNL A   1      40.440  21.426  27.580  1.00  0.00    -0.246 OA
BRANCH   7   9
ATOM      9  C   UNL A   1      40.341  23.758  27.522  1.00  0.00     0.060 A 
ATOM     10  C   UNL A   1      39.611  24.907  27.235  1.00  0.00     0.016 A 
ATOM     11  C   UNL A   1      41.348  23.861  28.498  1.00  0.00     0.016 A 
ATOM     12  C   UNL A   1      39.900  26.129  27.805  1.00  0.00     0.010 A 
ATOM     13  C   UNL A   1      41.659  25.092  29.085  1.00  0.00     0.010 A 
ATOM     14  C   UNL A   1      40.961  26.239  28.688  1.00  0.00    -0.014 A 
BRANCH  14  15
ATOM     15  C   UNL A   1      41.484  27.599  28.891  1.00  0.00     0.031 A 
ATOM     16  C   UNL A   1      42.871  27.867  28.382  1.00  0.00     0.074 A 
ATOM     17  C   UNL A   1      40.660  28.588  29.279  1.00  0.00     0.049 A 
ATOM     18  N   UNL A   1      43.599  28.942  28.482  1.00  0.00    -0.248 NA
ATOM     19  C   UNL A   1      43.524  26.769  27.642  1.00  0.00     0.031 C 
ATOM     20  C   UNL A   1      39.232  28.430  29.575  1.00  0.00     0.029 A 
ATOM     21  N   UNL A   1      40.885  29.926  29.435  1.00  0.00    -0.354 N 
ATOM     22  C   UNL A   1      44.816  28.623  27.888  1.00  0.00     0.074 A 
ATOM     23  C   UNL A   1      44.727  27.265  27.412  1.00  0.00     0.031 C 
ATOM     24  C   UNL A   1      38.703  29.636  29.842  1.00  0.00     0.029 A 
ATOM     25  C   UNL A   1      39.771  30.628  29.831  1.00  0.00     0.049 A 
ATOM     26  H   UNL A   1      41.761  30.347  29.278  1.00  0.00     0.167 HD
ATOM     27  C   UNL A   1      45.912  29.406  27.779  1.00  0.00     0.037 A 
ATOM     28  C   UNL A   1      39.658  31.920  30.187  1.00  0.00     0.037 A 
ATOM     29  C   UNL A   1      45.928  30.765  28.239  1.00  0.00     0.049 A 
ATOM     30  C   UNL A   1      40.916  32.748  30.151  1.00  0.00     0.074 A 
ATOM     31  C   UNL A   1      46.976  31.661  28.274  1.00  0.00     0.029 A 
ATOM     32  N   UNL A   1      44.809  31.426  28.741  1.00  0.00    -0.354 N 
ATOM     33  N   UNL A   1      42.113  32.409  29.726  1.00  0.00    -0.248 NA
ATOM     34  C   UNL A   1      40.823  34.117  30.667  1.00  0.00     0.031 C 
ATOM     35  C   UNL A   1      46.502  32.850  28.842  1.00  0.00     0.029 A 
ATOM     36  C   UNL A   1      45.145  32.714  29.105  1.00  0.00     0.049 A 
ATOM     37  H   UNL A   1      43.912  31.032  28.823  1.00  0.00     0.167 HD
ATOM     38  C   UNL A   1      42.915  33.527  29.907  1.00  0.00     0.074 A 
ATOM     39  C   UNL A   1      42.057  34.558  30.465  1.00  0.00     0.031 C 
ATOM     40  C   UNL A   1      44.235  33.697  29.644  1.00  0.00     0.037 A 
BRANCH  27  41
ATOM     41  C   UNL A   1      47.166  28.760  27.257  1.00  0.00     0.058 A 
ATOM     42  C   UNL A   1      47.376  28.498  25.893  1.00  0.00     0.135 A 
ATOM     43  C   UNL A   1      48.146  28.322  28.162  1.00  0.00     0.135 A 
ATOM     44  F   UNL A   1      46.452  28.853  24.985  1.00  0.00    -0.206 F 
ATOM     45  C   UNL A   1      48.494  27.793  25.451  1.00  0.00     0.059 A 
ATOM     46  C   UNL A   1      49.283  27.640  27.741  1.00  0.00     0.059 A 
ATOM     47  F   UNL A   1      47.988  28.526  29.480  1.00  0.00    -0.206 F 
ATOM     48  C   UNL A   1      49.438  27.363  26.385  1.00  0.00     0.060 A 
BRANCH  48  49
ATOM     49  S   UNL A   1      50.867  26.422  25.805  1.00  0.00     0.124 S 
ATOM     50  O   UNL A   1      50.498  25.063  26.193  1.00  0.00    -0.237 OA
ATOM     51  O   UNL A   1      50.860  26.695  24.372  1.00  0.00    -0.237 OA
ATOM     52  O   UNL A   1      51.981  27.005  26.546  1.00  0.00    -0.744 OA
ENDBRANCH  48  49
ENDBRANCH  27  41
BRANCH  28  53
ATOM     53  C   UNL A   1      38.358  32.469  30.663  1.00  0.00     0.058 A 
ATOM     54  C   UNL A   1      37.493  33.158  29.802  1.00  0.00     0.135 A 
ATOM     55  C   UNL A   1      37.950  32.317  32.001  1.00  0.00     0.135 A 
ATOM     56  F   UNL A   1      37.833  33.342  28.517  1.00  0.00    -0.206 F 
ATOM     57  C   UNL A   1      36.282  33.686  30.247  1.00  0.00     0.059 A 
ATOM     58  C   UNL A   1      36.732  32.808  32.462  1.00  0.00     0.059 A 
ATOM     59  F   UNL A   1      38.732  31.663  32.874  1.00  0.00    -0.206 F 
ATOM     60  C   UNL A   1      35.910  33.505  31.580  1.00  0.00     0.060 A 
BRANCH  60  61
ATOM     61  S   UNL A   1      34.333  34.183  32.143  1.00  0.00     0.124 S 
ATOM     62  O   UNL A   1      34.757  35.333  32.909  1.00  0.00    -0.237 OA
ATOM     63  O   UNL A   1      33.650  34.462  30.877  1.00  0.00    -0.237 OA
ATOM     64  O   UNL A   1      33.753  33.079  32.918  1.00  0.00    -0.744 OA
ENDBRANCH  60  61
ENDBRANCH  28  53
BRANCH  40  65
ATOM     65  C   UNL A   1      44.802  35.058  29.913  1.00  0.00     0.058 A 
ATOM     66  C   UNL A   1      44.779  36.070  28.944  1.00  0.00     0.135 A 
ATOM     67  C   UNL A   1      45.321  35.360  31.182  1.00  0.00     0.135 A 
ATOM     68  F   UNL A   1      44.298  35.822  27.716  1.00  0.00    -0.206 F 
ATOM     69  C   UNL A   1      45.279  37.337  29.217  1.00  0.00     0.059 A 
ATOM     70  C   UNL A   1      45.797  36.627  31.485  1.00  0.00     0.059 A 
ATOM     71  F   UNL A   1      45.348  34.422  32.144  1.00  0.00    -0.206 F 
ATOM     72  C   UNL A   1      45.783  37.605  30.491  1.00  0.00     0.060 A 
BRANCH  72  73
ATOM     73  S   UNL A   1      46.397  39.263  30.845  1.00  0.00     0.124 S 
ATOM     74  O   UNL A   1      47.772  38.986  31.245  1.00  0.00    -0.237 OA
ATOM     75  O   UNL A   1      46.232  39.938  29.561  1.00  0.00    -0.237 OA
ATOM     76  O   UNL A   1      45.514  39.731  31.910  1.00  0.00    -0.744 OA
ENDBRANCH  72  73
ENDBRANCH  40  65
ENDBRANCH  14  15
ENDBRANCH   7   9
ENDBRANCH   6   7
ENDBRANCH   5   6
ENDBRANCH   4   5
ENDBRANCH   3   4
ENDBRANCH   2   3
ENDBRANCH   1   2
BRANCH   1  77
ATOM     77  O   UNL A   1      34.413  21.475  27.462  1.00  0.00    -0.377 OA
BRANCH  77  78
ATOM     78  C   UNL A   1      33.427  22.408  27.861  1.00  0.00     0.188 C 
BRANCH  78  79
ATOM     79  C   UNL A   1      31.932  22.156  27.570  1.00  0.00     0.188 C 
BRANCH  79  80
ATOM     80  O   UNL A   1      31.014  23.222  27.596  1.00  0.00    -0.376 OA
BRANCH  80  81
ATOM     81  C   UNL A   1      30.241  23.504  26.446  1.00  0.00     0.202 C 
BRANCH  81  82
ATOM     82  C   UNL A   1      30.742  24.412  25.302  1.00  0.00     0.261 C 
BRANCH  82  83
ATOM     83  O   UNL A   1      32.121  24.841  25.334  1.00  0.00    -0.463 OA
BRANCH  83  84
ATOM     84  C   UNL A   1      32.377  26.007  25.977  1.00  0.00     0.314 C 
ATOM     85  O   UNL A   1      31.703  26.385  26.932  1.00  0.00    -0.252 OA
BRANCH  84  86
ATOM     86  C   UNL A   1      33.454  26.896  25.305  1.00  0.00     0.154 C 
ATOM     87  C   UNL A   1      33.920  28.300  25.759  1.00  0.00     0.027 C 
ATOM     88  C   UNL A   1      33.004  27.082  23.857  1.00  0.00     0.277 C 
ATOM     89  C   UNL A   1      32.919  29.439  25.518  1.00  0.00     0.062 C 
ATOM     90  N   UNL A   1      31.877  28.021  23.767  1.00  0.00    -0.330 N 
ATOM     91  C   UNL A   1      32.258  29.384  24.144  1.00  0.00     0.262 C 
ATOM     92  H   UNL A   1      31.190  27.725  24.462  1.00  0.00     0.348 HD
BRANCH  90  93
ATOM     93  C   UNL A   1      31.180  27.944  22.464  1.00  0.00     0.300 C 
BRANCH  93  94
ATOM     94  C   UNL A   1      29.912  28.781  22.414  1.00  0.00     0.025 A 
ATOM     95  C   UNL A   1      29.982  30.070  21.848  1.00  0.00     0.014 A 
ATOM     96  C   UNL A   1      28.737  28.409  23.088  1.00  0.00     0.052 A 
ATOM     97  C   UNL A   1      29.005  31.020  22.119  1.00  0.00     0.040 A 
ATOM     98  C   UNL A   1      27.734  29.350  23.319  1.00  0.00     0.060 A 
ATOM     99  Cl  UNL A   1      28.494  26.820  23.718  1.00  0.00    -0.084 Cl
ATOM    100  C   UNL A   1      27.900  30.654  22.873  1.00  0.00     0.124 A 
ATOM    101  F   UNL A   1      26.984  31.579  23.183  1.00  0.00    -0.207 F 
ENDBRANCH  93  94
ENDBRANCH  90  93
ENDBRANCH  84  86
ENDBRANCH  83  84
ENDBRANCH  82  83
ENDBRANCH  81  82
ENDBRANCH  80  81
ENDBRANCH  79  80
ENDBRANCH  78  79
ENDBRANCH  77  78
ENDBRANCH   1  77
TORSDOF 25
ENDMDL
