MODEL 1
REMARK VINA RESULT:      -6.8      0.000      0.000
REMARK SMILES CC[C@H]1CN(C(=O)N(CC(=O)OCCOCCOCCOCCOC(=O)c2ccc(-c3c4nc(c(-c5c(F)cc(S(=O)(=O)[O-])cc5F)c5ccc([nH]5)c(-c5c(F)cc(S(=O)(=O)[O-])cc5F)c5nc(c(-c6c(F)cc(S(=O)(=O)[O-])cc6F)c6ccc3[nH]6)C=C5)C=C4)cc2)C(C)(C)C)CC[N@@H+]1C
REMARK SMILES IDX 17 1 16 2 15 3 14 4 13 5 12 6 10 7 11 8 9 9 8 10 6 11 7 12
REMARK SMILES IDX 5 13 3 14 4 15 99 16 98 17 100 18 97 20 2 21 1 22 93 23
REMARK SMILES IDX 94 24 95 25 96 26 18 27 19 28 20 29 21 30 22 31 23 32 24 33
REMARK SMILES IDX 25 34 26 35 27 36 28 37 92 38 29 39 91 40 30 41 31 42 32 43
REMARK SMILES IDX 85 44 33 45 90 46 84 47 86 48 34 49 89 50 83 51 82 52 35 54
REMARK SMILES IDX 69 55 48 56 68 57 49 58 52 59 67 60 87 61 50 62 51 63 66 65
REMARK SMILES IDX 88 66 53 67 36 68 37 69 46 70 38 71 39 72 45 73 47 74 40 75
REMARK SMILES IDX 41 76 42 77 43 78 44 79 70 80 71 81 80 82 72 83 73 84 79 85
REMARK SMILES IDX 81 86 74 87 75 88 76 89 77 90 78 91 54 92 55 93 64 94 56 95
REMARK SMILES IDX 57 96 63 97 65 98 58 99 59 100 60 101 61 102 62 103
REMARK H PARENT 99 19 86 53 52 64
REMARK Flexibility Score: inf
ROOT
ATOM      1  C   UNL A   1      34.316  36.563  33.448  1.00  0.00     0.188 C 
ENDROOT
BRANCH   1   2
ATOM      2  C   UNL A   1      34.417  35.058  33.761  1.00  0.00     0.188 C 
BRANCH   2   3
ATOM      3  O   UNL A   1      35.682  34.414  33.876  1.00  0.00    -0.376 OA
BRANCH   3   4
ATOM      4  C   UNL A   1      36.055  33.809  35.105  1.00  0.00     0.202 C 
BRANCH   4   5
ATOM      5  C   UNL A   1      37.314  32.918  35.094  1.00  0.00     0.261 C 
BRANCH   5   6
ATOM      6  O   UNL A   1      37.983  32.691  36.360  1.00  0.00    -0.462 OA
BRANCH   6   7
ATOM      7  C   UNL A   1      38.725  33.723  36.827  1.00  0.00     0.325 C 
ATOM      8  O   UNL A   1      39.544  34.337  36.140  1.00  0.00    -0.250 OA
BRANCH   7   9
ATOM      9  C   UNL A   1      38.605  34.046  38.339  1.00  0.00     0.244 C 
BRANCH   9  10
ATOM     10  N   UNL A   1      39.578  34.118  39.472  1.00  0.00    -0.309 N 
BRANCH  10  11
ATOM     11  C   UNL A   1      40.092  33.004  40.131  1.00  0.00     0.321 C 
ATOM     12  O   UNL A   1      40.974  32.321  39.596  1.00  0.00    -0.248 OA
BRANCH  11  13
ATOM     13  N   UNL A   1      39.573  32.566  41.338  1.00  0.00    -0.313 N 
ATOM     14  C   UNL A   1      37.890  32.316  43.179  1.00  0.00     0.203 C 
ATOM     15  C   UNL A   1      38.158  32.364  41.654  1.00  0.00     0.186 C 
ATOM     16  N   UNL A   1      38.636  31.201  43.824  1.00  0.00    -0.332 N 
ATOM     17  C   UNL A   1      40.081  31.320  43.519  1.00  0.00     0.284 C 
ATOM     18  C   UNL A   1      38.124  29.890  43.425  1.00  0.00     0.333 C 
ATOM     19  H   UNL A   1      38.496  31.276  44.832  1.00  0.00     0.348 HD
ATOM     20  C   UNL A   1      40.447  31.607  42.048  1.00  0.00     0.183 C 
BRANCH  14  21
ATOM     21  C   UNL A   1      38.187  33.612  43.985  1.00  0.00     0.063 C 
ATOM     22  C   UNL A   1      37.124  34.692  43.963  1.00  0.00     0.010 C 
ENDBRANCH  14  21
ENDBRANCH  11  13
ENDBRANCH  10  11
BRANCH  10  23
ATOM     23  C   UNL A   1      40.058  35.471  39.998  1.00  0.00     0.037 C 
ATOM     24  C   UNL A   1      40.275  36.503  38.856  1.00  0.00     0.034 C 
ATOM     25  C   UNL A   1      38.999  36.080  40.962  1.00  0.00     0.034 C 
ATOM     26  C   UNL A   1      41.336  35.398  40.867  1.00  0.00     0.034 C 
ENDBRANCH  10  23
ENDBRANCH   9  10
ENDBRANCH   7   9
ENDBRANCH   6   7
ENDBRANCH   5   6
ENDBRANCH   4   5
ENDBRANCH   3   4
ENDBRANCH   2   3
ENDBRANCH   1   2
BRANCH   1  27
ATOM     27  O   UNL A   1      33.076  36.945  32.899  1.00  0.00    -0.377 OA
BRANCH  27  28
ATOM     28  C   UNL A   1      33.051  37.080  31.495  1.00  0.00     0.188 C 
BRANCH  28  29
ATOM     29  C   UNL A   1      32.583  35.825  30.739  1.00  0.00     0.188 C 
BRANCH  29  30
ATOM     30  O   UNL A   1      32.548  36.015  29.333  1.00  0.00    -0.376 OA
BRANCH  30  31
ATOM     31  C   UNL A   1      33.715  35.988  28.538  1.00  0.00     0.202 C 
BRANCH  31  32
ATOM     32  C   UNL A   1      34.841  34.949  28.691  1.00  0.00     0.261 C 
BRANCH  32  33
ATOM     33  O   UNL A   1      34.486  33.619  29.061  1.00  0.00    -0.460 OA
BRANCH  33  34
ATOM     34  C   UNL A   1      34.971  33.174  30.241  1.00  0.00     0.338 C 
ATOM     35  O   UNL A   1      34.352  32.546  31.087  1.00  0.00    -0.246 OA
BRANCH  34  36
ATOM     36  C   UNL A   1      36.435  33.374  30.255  1.00  0.00     0.060 A 
ATOM     37  C   UNL A   1      37.210  32.614  29.370  1.00  0.00     0.016 A 
ATOM     38  C   UNL A   1      37.040  34.299  31.111  1.00  0.00     0.016 A 
ATOM     39  C   UNL A   1      38.594  32.759  29.348  1.00  0.00     0.010 A 
ATOM     40  C   UNL A   1      38.436  34.409  31.121  1.00  0.00     0.010 A 
ATOM     41  C   UNL A   1      39.217  33.616  30.261  1.00  0.00    -0.014 A 
BRANCH  41  42
ATOM     42  C   UNL A   1      40.678  33.486  30.471  1.00  0.00     0.031 A 
ATOM     43  C   UNL A   1      41.161  32.402  31.394  1.00  0.00     0.074 A 
ATOM     44  C   UNL A   1      41.556  34.264  29.814  1.00  0.00     0.049 A 
ATOM     45  N   UNL A   1      42.379  32.094  31.751  1.00  0.00    -0.248 NA
ATOM     46  C   UNL A   1      40.122  31.545  31.993  1.00  0.00     0.031 C 
ATOM     47  C   UNL A   1      41.207  35.306  28.849  1.00  0.00     0.029 A 
ATOM     48  N   UNL A   1      42.926  34.297  29.865  1.00  0.00    -0.354 N 
ATOM     49  C   UNL A   1      42.255  31.010  32.613  1.00  0.00     0.074 A 
ATOM     50  C   UNL A   1      40.843  30.734  32.753  1.00  0.00     0.031 C 
ATOM     51  C   UNL A   1      42.337  35.891  28.414  1.00  0.00     0.029 A 
ATOM     52  C   UNL A   1      43.484  35.285  29.090  1.00  0.00     0.049 A 
ATOM     53  H   UNL A   1      43.461  33.671  30.405  1.00  0.00     0.167 HD
ATOM     54  C   UNL A   1      43.233  30.304  33.227  1.00  0.00     0.037 A 
ATOM     55  C   UNL A   1      44.770  35.672  28.967  1.00  0.00     0.037 A 
ATOM     56  C   UNL A   1      44.636  30.597  33.096  1.00  0.00     0.049 A 
ATOM     57  C   UNL A   1      45.838  34.928  29.731  1.00  0.00     0.074 A 
ATOM     58  C   UNL A   1      45.707  29.950  33.681  1.00  0.00     0.029 A 
ATOM     59  N   UNL A   1      45.159  31.632  32.334  1.00  0.00    -0.354 N 
ATOM     60  N   UNL A   1      45.712  33.899  30.536  1.00  0.00    -0.248 NA
ATOM     61  C   UNL A   1      47.222  35.393  29.565  1.00  0.00     0.031 C 
ATOM     62  C   UNL A   1      46.876  30.628  33.319  1.00  0.00     0.029 A 
ATOM     63  C   UNL A   1      46.538  31.657  32.454  1.00  0.00     0.049 A 
ATOM     64  H   UNL A   1      44.628  32.257  31.789  1.00  0.00     0.167 HD
ATOM     65  C   UNL A   1      47.002  33.577  30.949  1.00  0.00     0.074 A 
ATOM     66  C   UNL A   1      47.893  34.513  30.296  1.00  0.00     0.031 C 
ATOM     67  C   UNL A   1      47.412  32.593  31.790  1.00  0.00     0.037 A 
BRANCH  54  68
ATOM     68  C   UNL A   1      42.813  29.170  34.122  1.00  0.00     0.058 A 
ATOM     69  C   UNL A   1      42.567  29.359  35.491  1.00  0.00     0.135 A 
ATOM     70  C   UNL A   1      42.637  27.880  33.598  1.00  0.00     0.135 A 
ATOM     71  F   UNL A   1      42.744  30.567  36.052  1.00  0.00    -0.206 F 
ATOM     72  C   UNL A   1      42.184  28.304  36.314  1.00  0.00     0.059 A 
ATOM     73  C   UNL A   1      42.224  26.816  34.395  1.00  0.00     0.059 A 
ATOM     74  F   UNL A   1      42.867  27.641  32.297  1.00  0.00    -0.206 F 
ATOM     75  C   UNL A   1      42.014  27.036  35.755  1.00  0.00     0.060 A 
BRANCH  75  76
ATOM     76  S   UNL A   1      41.508  25.680  36.834  1.00  0.00     0.124 S 
ATOM     77  O   UNL A   1      42.728  25.451  37.605  1.00  0.00    -0.237 OA
ATOM     78  O   UNL A   1      40.396  26.268  37.572  1.00  0.00    -0.237 OA
ATOM     79  O   UNL A   1      41.148  24.618  35.901  1.00  0.00    -0.744 OA
ENDBRANCH  75  76
ENDBRANCH  54  68
BRANCH  55  80
ATOM     80  C   UNL A   1      45.118  36.833  28.101  1.00  0.00     0.058 A 
ATOM     81  C   UNL A   1      45.020  38.150  28.572  1.00  0.00     0.135 A 
ATOM     82  C   UNL A   1      45.559  36.644  26.781  1.00  0.00     0.135 A 
ATOM     83  F   UNL A   1      44.590  38.387  29.821  1.00  0.00    -0.206 F 
ATOM     84  C   UNL A   1      45.333  39.239  27.764  1.00  0.00     0.059 A 
ATOM     85  C   UNL A   1      45.905  37.715  25.963  1.00  0.00     0.059 A 
ATOM     86  F   UNL A   1      45.676  35.403  26.282  1.00  0.00    -0.206 F 
ATOM     87  C   UNL A   1      45.782  39.010  26.461  1.00  0.00     0.060 A 
BRANCH  87  88
ATOM     88  S   UNL A   1      46.239  40.428  25.441  1.00  0.00     0.124 S 
ATOM     89  O   UNL A   1      46.907  39.781  24.318  1.00  0.00    -0.237 OA
ATOM     90  O   UNL A   1      44.939  41.027  25.152  1.00  0.00    -0.237 OA
ATOM     91  O   UNL A   1      47.100  41.212  26.322  1.00  0.00    -0.744 OA
ENDBRANCH  87  88
ENDBRANCH  55  80
BRANCH  67  92
ATOM     92  C   UNL A   1      48.892  32.445  32.024  1.00  0.00     0.058 A 
ATOM     93  C   UNL A   1      49.544  33.086  33.089  1.00  0.00     0.135 A 
ATOM     94  C   UNL A   1      49.657  31.596  31.206  1.00  0.00     0.135 A 
ATOM     95  F   UNL A   1      48.863  33.912  33.900  1.00  0.00    -0.206 F 
ATOM     96  C   UNL A   1      50.905  32.911  33.320  1.00  0.00     0.059 A 
ATOM     97  C   UNL A   1      51.012  31.380  31.439  1.00  0.00     0.059 A 
ATOM     98  F   UNL A   1      49.083  30.947  30.181  1.00  0.00    -0.206 F 
ATOM     99  C   UNL A   1      51.630  32.052  32.491  1.00  0.00     0.060 A 
BRANCH  99 100
ATOM    100  S   UNL A   1      53.387  31.806  32.824  1.00  0.00     0.124 S 
ATOM    101  O   UNL A   1      53.997  32.766  31.910  1.00  0.00    -0.237 OA
ATOM    102  O   UNL A   1      53.484  32.133  34.243  1.00  0.00    -0.237 OA
ATOM    103  O   UNL A   1      53.603  30.401  32.495  1.00  0.00    -0.744 OA
ENDBRANCH  99 100
ENDBRANCH  67  92
ENDBRANCH  41  42
ENDBRANCH  34  36
ENDBRANCH  33  34
ENDBRANCH  32  33
ENDBRANCH  31  32
ENDBRANCH  30  31
ENDBRANCH  29  30
ENDBRANCH  28  29
ENDBRANCH  27  28
ENDBRANCH   1  27
TORSDOF 28
ENDMDL
MODEL 2
REMARK VINA RESULT:      -6.5      5.328     12.377
REMARK SMILES CC[C@H]1CN(C(=O)N(CC(=O)OCCOCCOCCOCCOC(=O)c2ccc(-c3c4nc(c(-c5c(F)cc(S(=O)(=O)[O-])cc5F)c5ccc([nH]5)c(-c5c(F)cc(S(=O)(=O)[O-])cc5F)c5nc(c(-c6c(F)cc(S(=O)(=O)[O-])cc6F)c6ccc3[nH]6)C=C5)C=C4)cc2)C(C)(C)C)CC[N@@H+]1C
REMARK SMILES IDX 17 1 16 2 15 3 14 4 13 5 12 6 10 7 11 8 9 9 8 10 6 11 7 12
REMARK SMILES IDX 5 13 3 14 4 15 99 16 98 17 100 18 97 20 2 21 1 22 93 23
REMARK SMILES IDX 94 24 95 25 96 26 18 27 19 28 20 29 21 30 22 31 23 32 24 33
REMARK SMILES IDX 25 34 26 35 27 36 28 37 92 38 29 39 91 40 30 41 31 42 32 43
REMARK SMILES IDX 85 44 33 45 90 46 84 47 86 48 34 49 89 50 83 51 82 52 35 54
REMARK SMILES IDX 69 55 48 56 68 57 49 58 52 59 67 60 87 61 50 62 51 63 66 65
REMARK SMILES IDX 88 66 53 67 36 68 37 69 46 70 38 71 39 72 45 73 47 74 40 75
REMARK SMILES IDX 41 76 42 77 43 78 44 79 70 80 71 81 80 82 72 83 73 84 79 85
REMARK SMILES IDX 81 86 74 87 75 88 76 89 77 90 78 91 54 92 55 93 64 94 56 95
REMARK SMILES IDX 57 96 63 97 65 98 58 99 59 100 60 101 61 102 62 103
REMARK H PARENT 99 19 86 53 52 64
REMARK Flexibility Score: inf
ROOT
ATOM      1  C   UNL A   1      50.619  25.469  28.984  1.00  0.00     0.188 C 
ENDROOT
BRANCH   1   2
ATOM      2  C   UNL A   1      49.169  25.987  29.002  1.00  0.00     0.188 C 
BRANCH   2   3
ATOM      3  O   UNL A   1      48.065  25.089  28.915  1.00  0.00    -0.376 OA
BRANCH   3   4
ATOM      4  C   UNL A   1      47.117  25.239  27.871  1.00  0.00     0.202 C 
BRANCH   4   5
ATOM      5  C   UNL A   1      47.442  24.556  26.525  1.00  0.00     0.261 C 
BRANCH   5   6
ATOM      6  O   UNL A   1      46.660  23.391  26.162  1.00  0.00    -0.462 OA
BRANCH   6   7
ATOM      7  C   UNL A   1      45.548  23.634  25.429  1.00  0.00     0.325 C 
ATOM      8  O   UNL A   1      45.554  24.271  24.375  1.00  0.00    -0.250 OA
BRANCH   7   9
ATOM      9  C   UNL A   1      44.194  23.180  26.037  1.00  0.00     0.244 C 
BRANCH   9  10
ATOM     10  N   UNL A   1      43.255  23.763  27.043  1.00  0.00    -0.309 N 
BRANCH  10  11
ATOM     11  C   UNL A   1      43.563  24.844  27.865  1.00  0.00     0.321 C 
ATOM     12  O   UNL A   1      44.066  24.651  28.979  1.00  0.00    -0.248 OA
BRANCH  11  13
ATOM     13  N   UNL A   1      43.230  26.143  27.518  1.00  0.00    -0.313 N 
ATOM     14  C   UNL A   1      42.132  28.386  27.732  1.00  0.00     0.203 C 
ATOM     15  C   UNL A   1      42.873  27.224  28.438  1.00  0.00     0.186 C 
ATOM     16  N   UNL A   1      42.972  28.994  26.664  1.00  0.00    -0.332 N 
ATOM     17  C   UNL A   1      43.401  27.947  25.706  1.00  0.00     0.284 C 
ATOM     18  C   UNL A   1      44.126  29.710  27.208  1.00  0.00     0.333 C 
ATOM     19  H   UNL A   1      42.402  29.685  26.176  1.00  0.00     0.348 HD
ATOM     20  C   UNL A   1      43.943  26.640  26.321  1.00  0.00     0.183 C 
BRANCH  14  21
ATOM     21  C   UNL A   1      40.743  28.060  27.113  1.00  0.00     0.063 C 
ATOM     22  C   UNL A   1      39.630  29.057  27.361  1.00  0.00     0.010 C 
ENDBRANCH  14  21
ENDBRANCH  11  13
ENDBRANCH  10  11
BRANCH  10  23
ATOM     23  C   UNL A   1      41.862  23.163  27.243  1.00  0.00     0.037 C 
ATOM     24  C   UNL A   1      40.776  24.253  27.457  1.00  0.00     0.034 C 
ATOM     25  C   UNL A   1      41.441  22.348  25.984  1.00  0.00     0.034 C 
ATOM     26  C   UNL A   1      41.774  22.126  28.388  1.00  0.00     0.034 C 
ENDBRANCH  10  23
ENDBRANCH   9  10
ENDBRANCH   7   9
ENDBRANCH   6   7
ENDBRANCH   5   6
ENDBRANCH   4   5
ENDBRANCH   3   4
ENDBRANCH   2   3
ENDBRANCH   1   2
BRANCH   1  27
ATOM     27  O   UNL A   1      51.443  26.126  28.049  1.00  0.00    -0.377 OA
BRANCH  27  28
ATOM     28  C   UNL A   1      51.614  25.459  26.818  1.00  0.00     0.188 C 
BRANCH  28  29
ATOM     29  C   UNL A   1      52.947  25.752  26.110  1.00  0.00     0.188 C 
BRANCH  29  30
ATOM     30  O   UNL A   1      52.769  26.304  24.815  1.00  0.00    -0.376 OA
BRANCH  30  31
ATOM     31  C   UNL A   1      51.509  26.736  24.344  1.00  0.00     0.202 C 
BRANCH  31  32
ATOM     32  C   UNL A   1      51.186  28.189  23.952  1.00  0.00     0.261 C 
BRANCH  32  33
ATOM     33  O   UNL A   1      50.428  28.982  24.864  1.00  0.00    -0.460 OA
BRANCH  33  34
ATOM     34  C   UNL A   1      51.073  29.398  25.976  1.00  0.00     0.338 C 
ATOM     35  O   UNL A   1      52.212  29.838  26.030  1.00  0.00    -0.246 OA
BRANCH  34  36
ATOM     36  C   UNL A   1      50.105  29.446  27.092  1.00  0.00     0.060 A 
ATOM     37  C   UNL A   1      48.780  29.081  26.827  1.00  0.00     0.016 A 
ATOM     38  C   UNL A   1      50.490  29.832  28.379  1.00  0.00     0.016 A 
ATOM     39  C   UNL A   1      47.827  29.116  27.841  1.00  0.00     0.010 A 
ATOM     40  C   UNL A   1      49.520  29.912  29.386  1.00  0.00     0.010 A 
ATOM     41  C   UNL A   1      48.181  29.585  29.110  1.00  0.00    -0.014 A 
BRANCH  41  42
ATOM     42  C   UNL A   1      47.101  29.958  30.054  1.00  0.00     0.031 A 
ATOM     43  C   UNL A   1      46.741  28.973  31.132  1.00  0.00     0.074 A 
ATOM     44  C   UNL A   1      46.500  31.159  29.999  1.00  0.00     0.049 A 
ATOM     45  N   UNL A   1      45.830  29.056  32.065  1.00  0.00    -0.248 NA
ATOM     46  C   UNL A   1      47.522  27.724  31.162  1.00  0.00     0.031 C 
ATOM     47  C   UNL A   1      46.809  32.216  29.036  1.00  0.00     0.029 A 
ATOM     48  N   UNL A   1      45.499  31.688  30.772  1.00  0.00    -0.354 N 
ATOM     49  C   UNL A   1      45.928  27.876  32.792  1.00  0.00     0.074 A 
ATOM     50  C   UNL A   1      46.963  27.078  32.174  1.00  0.00     0.031 C 
ATOM     51  C   UNL A   1      45.996  33.262  29.265  1.00  0.00     0.029 A 
ATOM     52  C   UNL A   1      45.092  32.937  30.368  1.00  0.00     0.049 A 
ATOM     53  H   UNL A   1      45.107  31.219  31.544  1.00  0.00     0.167 HD
ATOM     54  C   UNL A   1      45.223  27.494  33.882  1.00  0.00     0.037 A 
ATOM     55  C   UNL A   1      44.087  33.713  30.822  1.00  0.00     0.037 A 
ATOM     56  C   UNL A   1      44.182  28.288  34.480  1.00  0.00     0.049 A 
ATOM     57  C   UNL A   1      43.252  33.231  31.983  1.00  0.00     0.074 A 
ATOM     58  C   UNL A   1      43.400  27.992  35.581  1.00  0.00     0.029 A 
ATOM     59  N   UNL A   1      43.771  29.530  34.018  1.00  0.00    -0.354 N 
ATOM     60  N   UNL A   1      43.358  32.117  32.670  1.00  0.00    -0.248 NA
ATOM     61  C   UNL A   1      42.166  34.111  32.435  1.00  0.00     0.031 C 
ATOM     62  C   UNL A   1      42.478  29.029  35.751  1.00  0.00     0.029 A 
ATOM     63  C   UNL A   1      42.729  30.003  34.797  1.00  0.00     0.049 A 
ATOM     64  H   UNL A   1      44.162  30.006  33.250  1.00  0.00     0.167 HD
ATOM     65  C   UNL A   1      42.372  32.177  33.651  1.00  0.00     0.074 A 
ATOM     66  C   UNL A   1      41.688  33.441  33.475  1.00  0.00     0.031 C 
ATOM     67  C   UNL A   1      42.063  31.270  34.613  1.00  0.00     0.037 A 
BRANCH  54  68
ATOM     68  C   UNL A   1      45.532  26.146  34.473  1.00  0.00     0.058 A 
ATOM     69  C   UNL A   1      44.812  24.996  34.113  1.00  0.00     0.135 A 
ATOM     70  C   UNL A   1      46.577  26.000  35.399  1.00  0.00     0.135 A 
ATOM     71  F   UNL A   1      43.786  25.081  33.250  1.00  0.00    -0.206 F 
ATOM     72  C   UNL A   1      45.101  23.753  34.668  1.00  0.00     0.059 A 
ATOM     73  C   UNL A   1      46.904  24.761  35.945  1.00  0.00     0.059 A 
ATOM     74  F   UNL A   1      47.292  27.068  35.787  1.00  0.00    -0.206 F 
ATOM     75  C   UNL A   1      46.150  23.646  35.582  1.00  0.00     0.060 A 
BRANCH  75  76
ATOM     76  S   UNL A   1      46.517  22.025  36.286  1.00  0.00     0.124 S 
ATOM     77  O   UNL A   1      46.093  21.136  35.208  1.00  0.00    -0.237 OA
ATOM     78  O   UNL A   1      47.957  22.103  36.512  1.00  0.00    -0.237 OA
ATOM     79  O   UNL A   1      45.697  21.984  37.492  1.00  0.00    -0.744 OA
ENDBRANCH  75  76
ENDBRANCH  54  68
BRANCH  55  80
ATOM     80  C   UNL A   1      43.798  35.018  30.165  1.00  0.00     0.058 A 
ATOM     81  C   UNL A   1      44.366  36.213  30.632  1.00  0.00     0.135 A 
ATOM     82  C   UNL A   1      42.946  35.094  29.052  1.00  0.00     0.135 A 
ATOM     83  F   UNL A   1      45.176  36.197  31.703  1.00  0.00    -0.206 F 
ATOM     84  C   UNL A   1      44.091  37.436  30.029  1.00  0.00     0.059 A 
ATOM     85  C   UNL A   1      42.678  36.301  28.414  1.00  0.00     0.059 A 
ATOM     86  F   UNL A   1      42.380  33.980  28.561  1.00  0.00    -0.206 F 
ATOM     87  C   UNL A   1      43.249  37.469  28.915  1.00  0.00     0.060 A 
BRANCH  87  88
ATOM     88  S   UNL A   1      42.945  39.055  28.107  1.00  0.00     0.124 S 
ATOM     89  O   UNL A   1      41.800  38.739  27.260  1.00  0.00    -0.237 OA
ATOM     90  O   UNL A   1      42.677  39.929  29.244  1.00  0.00    -0.237 OA
ATOM     91  O   UNL A   1      44.197  39.320  27.403  1.00  0.00    -0.744 OA
ENDBRANCH  87  88
ENDBRANCH  55  80
BRANCH  67  92
ATOM     92  C   UNL A   1      40.965  31.623  35.580  1.00  0.00     0.058 A 
ATOM     93  C   UNL A   1      41.226  32.276  36.795  1.00  0.00     0.135 A 
ATOM     94  C   UNL A   1      39.623  31.362  35.255  1.00  0.00     0.135 A 
ATOM     95  F   UNL A   1      42.490  32.548  37.158  1.00  0.00    -0.206 F 
ATOM     96  C   UNL A   1      40.200  32.634  37.664  1.00  0.00     0.059 A 
ATOM     97  C   UNL A   1      38.579  31.740  36.093  1.00  0.00     0.059 A 
ATOM     98  F   UNL A   1      39.314  30.752  34.099  1.00  0.00    -0.206 F 
ATOM     99  C   UNL A   1      38.878  32.365  37.302  1.00  0.00     0.060 A 
BRANCH  99 100
ATOM    100  S   UNL A   1      37.555  32.867  38.421  1.00  0.00     0.124 S 
ATOM    101  O   UNL A   1      37.433  31.693  39.279  1.00  0.00    -0.237 OA
ATOM    102  O   UNL A   1      38.115  34.058  39.052  1.00  0.00    -0.237 OA
ATOM    103  O   UNL A   1      36.426  33.111  37.528  1.00  0.00    -0.744 OA
ENDBRANCH  99 100
ENDBRANCH  67  92
ENDBRANCH  41  42
ENDBRANCH  34  36
ENDBRANCH  33  34
ENDBRANCH  32  33
ENDBRANCH  31  32
ENDBRANCH  30  31
ENDBRANCH  29  30
ENDBRANCH  28  29
ENDBRANCH  27  28
ENDBRANCH   1  27
TORSDOF 28
ENDMDL
MODEL 3
REMARK VINA RESULT:      -6.3      2.059      2.589
REMARK SMILES CC[C@H]1CN(C(=O)N(CC(=O)OCCOCCOCCOCCOC(=O)c2ccc(-c3c4nc(c(-c5c(F)cc(S(=O)(=O)[O-])cc5F)c5ccc([nH]5)c(-c5c(F)cc(S(=O)(=O)[O-])cc5F)c5nc(c(-c6c(F)cc(S(=O)(=O)[O-])cc6F)c6ccc3[nH]6)C=C5)C=C4)cc2)C(C)(C)C)CC[N@@H+]1C
REMARK SMILES IDX 17 1 16 2 15 3 14 4 13 5 12 6 10 7 11 8 9 9 8 10 6 11 7 12
REMARK SMILES IDX 5 13 3 14 4 15 99 16 98 17 100 18 97 20 2 21 1 22 93 23
REMARK SMILES IDX 94 24 95 25 96 26 18 27 19 28 20 29 21 30 22 31 23 32 24 33
REMARK SMILES IDX 25 34 26 35 27 36 28 37 92 38 29 39 91 40 30 41 31 42 32 43
REMARK SMILES IDX 85 44 33 45 90 46 84 47 86 48 34 49 89 50 83 51 82 52 35 54
REMARK SMILES IDX 69 55 48 56 68 57 49 58 52 59 67 60 87 61 50 62 51 63 66 65
REMARK SMILES IDX 88 66 53 67 36 68 37 69 46 70 38 71 39 72 45 73 47 74 40 75
REMARK SMILES IDX 41 76 42 77 43 78 44 79 70 80 71 81 80 82 72 83 73 84 79 85
REMARK SMILES IDX 81 86 74 87 75 88 76 89 77 90 78 91 54 92 55 93 64 94 56 95
REMARK SMILES IDX 57 96 63 97 65 98 58 99 59 100 60 101 61 102 62 103
REMARK H PARENT 99 19 86 53 52 64
REMARK Flexibility Score: inf
ROOT
ATOM      1  C   UNL A   1      34.171  35.920  33.602  1.00  0.00     0.188 C 
ENDROOT
BRANCH   1   2
ATOM      2  C   UNL A   1      34.500  34.418  33.671  1.00  0.00     0.188 C 
BRANCH   2   3
ATOM      3  O   UNL A   1      35.841  33.965  33.830  1.00  0.00    -0.376 OA
BRANCH   3   4
ATOM      4  C   UNL A   1      36.441  33.977  35.115  1.00  0.00     0.202 C 
BRANCH   4   5
ATOM      5  C   UNL A   1      37.891  33.458  35.218  1.00  0.00     0.261 C 
BRANCH   5   6
ATOM      6  O   UNL A   1      38.729  34.019  36.260  1.00  0.00    -0.462 OA
BRANCH   6   7
ATOM      7  C   UNL A   1      39.536  33.141  36.901  1.00  0.00     0.325 C 
ATOM      8  O   UNL A   1      39.251  31.954  37.071  1.00  0.00    -0.250 OA
BRANCH   7   9
ATOM      9  C   UNL A   1      40.821  33.717  37.552  1.00  0.00     0.244 C 
BRANCH   9  10
ATOM     10  N   UNL A   1      42.254  33.293  37.585  1.00  0.00    -0.309 N 
BRANCH  10  11
ATOM     11  C   UNL A   1      42.817  32.520  38.597  1.00  0.00     0.321 C 
ATOM     12  O   UNL A   1      42.512  31.325  38.704  1.00  0.00    -0.248 OA
BRANCH  11  13
ATOM     13  N   UNL A   1      43.641  33.071  39.564  1.00  0.00    -0.313 N 
ATOM     14  C   UNL A   1      44.626  34.858  41.020  1.00  0.00     0.203 C 
ATOM     15  C   UNL A   1      43.352  34.250  40.383  1.00  0.00     0.186 C 
ATOM     16  N   UNL A   1      45.308  33.877  41.908  1.00  0.00    -0.332 N 
ATOM     17  C   UNL A   1      45.605  32.637  41.152  1.00  0.00     0.284 C 
ATOM     18  C   UNL A   1      44.528  33.583  43.110  1.00  0.00     0.333 C 
ATOM     19  H   UNL A   1      46.183  34.298  42.222  1.00  0.00     0.348 HD
ATOM     20  C   UNL A   1      44.457  32.073  40.289  1.00  0.00     0.183 C 
BRANCH  14  21
ATOM     21  C   UNL A   1      45.691  35.435  40.045  1.00  0.00     0.063 C 
ATOM     22  C   UNL A   1      45.522  36.880  39.621  1.00  0.00     0.010 C 
ENDBRANCH  14  21
ENDBRANCH  11  13
ENDBRANCH  10  11
BRANCH  10  23
ATOM     23  C   UNL A   1      43.216  33.723  36.476  1.00  0.00     0.037 C 
ATOM     24  C   UNL A   1      42.526  33.772  35.084  1.00  0.00     0.034 C 
ATOM     25  C   UNL A   1      43.758  35.155  36.760  1.00  0.00     0.034 C 
ATOM     26  C   UNL A   1      44.499  32.865  36.378  1.00  0.00     0.034 C 
ENDBRANCH  10  23
ENDBRANCH   9  10
ENDBRANCH   7   9
ENDBRANCH   6   7
ENDBRANCH   5   6
ENDBRANCH   4   5
ENDBRANCH   3   4
ENDBRANCH   2   3
ENDBRANCH   1   2
BRANCH   1  27
ATOM     27  O   UNL A   1      32.943  36.202  32.970  1.00  0.00    -0.377 OA
BRANCH  27  28
ATOM     28  C   UNL A   1      33.026  36.516  31.597  1.00  0.00     0.188 C 
BRANCH  28  29
ATOM     29  C   UNL A   1      32.739  35.337  30.652  1.00  0.00     0.188 C 
BRANCH  29  30
ATOM     30  O   UNL A   1      32.668  35.731  29.291  1.00  0.00    -0.376 OA
BRANCH  30  31
ATOM     31  C   UNL A   1      33.802  35.748  28.449  1.00  0.00     0.202 C 
BRANCH  31  32
ATOM     32  C   UNL A   1      34.853  34.624  28.393  1.00  0.00     0.261 C 
BRANCH  32  33
ATOM     33  O   UNL A   1      34.452  33.307  28.762  1.00  0.00    -0.460 OA
BRANCH  33  34
ATOM     34  C   UNL A   1      34.906  32.851  29.951  1.00  0.00     0.338 C 
ATOM     35  O   UNL A   1      34.283  32.167  30.748  1.00  0.00    -0.246 OA
BRANCH  34  36
ATOM     36  C   UNL A   1      36.355  33.127  30.039  1.00  0.00     0.060 A 
ATOM     37  C   UNL A   1      37.217  32.375  29.231  1.00  0.00     0.016 A 
ATOM     38  C   UNL A   1      36.862  34.113  30.890  1.00  0.00     0.016 A 
ATOM     39  C   UNL A   1      38.591  32.590  29.282  1.00  0.00     0.010 A 
ATOM     40  C   UNL A   1      38.248  34.295  30.975  1.00  0.00     0.010 A 
ATOM     41  C   UNL A   1      39.116  33.512  30.193  1.00  0.00    -0.014 A 
BRANCH  41  42
ATOM     42  C   UNL A   1      40.567  33.465  30.491  1.00  0.00     0.031 A 
ATOM     43  C   UNL A   1      41.059  32.387  31.416  1.00  0.00     0.074 A 
ATOM     44  C   UNL A   1      41.433  34.313  29.908  1.00  0.00     0.049 A 
ATOM     45  N   UNL A   1      42.271  32.144  31.841  1.00  0.00    -0.248 NA
ATOM     46  C   UNL A   1      40.042  31.453  31.929  1.00  0.00     0.031 C 
ATOM     47  C   UNL A   1      41.079  35.358  28.949  1.00  0.00     0.029 A 
ATOM     48  N   UNL A   1      42.793  34.427  30.046  1.00  0.00    -0.354 N 
ATOM     49  C   UNL A   1      42.163  31.031  32.667  1.00  0.00     0.074 A 
ATOM     50  C   UNL A   1      40.764  30.666  32.712  1.00  0.00     0.031 C 
ATOM     51  C   UNL A   1      42.195  36.022  28.599  1.00  0.00     0.029 A 
ATOM     52  C   UNL A   1      43.334  35.469  29.331  1.00  0.00     0.049 A 
ATOM     53  H   UNL A   1      43.332  33.820  30.603  1.00  0.00     0.167 HD
ATOM     54  C   UNL A   1      43.143  30.369  33.324  1.00  0.00     0.037 A 
ATOM     55  C   UNL A   1      44.599  35.936  29.297  1.00  0.00     0.037 A 
ATOM     56  C   UNL A   1      44.530  30.750  33.287  1.00  0.00     0.049 A 
ATOM     57  C   UNL A   1      45.663  35.238  30.108  1.00  0.00     0.074 A 
ATOM     58  C   UNL A   1      45.603  30.153  33.923  1.00  0.00     0.029 A 
ATOM     59  N   UNL A   1      45.033  31.836  32.585  1.00  0.00    -0.354 N 
ATOM     60  N   UNL A   1      45.552  34.181  30.879  1.00  0.00    -0.248 NA
ATOM     61  C   UNL A   1      47.023  35.790  30.041  1.00  0.00     0.031 C 
ATOM     62  C   UNL A   1      46.746  30.910  33.650  1.00  0.00     0.029 A 
ATOM     63  C   UNL A   1      46.398  31.941  32.792  1.00  0.00     0.049 A 
ATOM     64  H   UNL A   1      44.499  32.442  32.023  1.00  0.00     0.167 HD
ATOM     65  C   UNL A   1      46.832  33.926  31.365  1.00  0.00     0.074 A 
ATOM     66  C   UNL A   1      47.701  34.932  30.791  1.00  0.00     0.031 C 
ATOM     67  C   UNL A   1      47.251  32.946  32.205  1.00  0.00     0.037 A 
BRANCH  54  68
ATOM     68  C   UNL A   1      42.741  29.187  34.164  1.00  0.00     0.058 A 
ATOM     69  C   UNL A   1      42.187  29.342  35.445  1.00  0.00     0.135 A 
ATOM     70  C   UNL A   1      42.895  27.882  33.672  1.00  0.00     0.135 A 
ATOM     71  F   UNL A   1      42.040  30.567  35.976  1.00  0.00    -0.206 F 
ATOM     72  C   UNL A   1      41.823  28.244  36.217  1.00  0.00     0.059 A 
ATOM     73  C   UNL A   1      42.509  26.769  34.414  1.00  0.00     0.059 A 
ATOM     74  F   UNL A   1      43.428  27.674  32.457  1.00  0.00    -0.206 F 
ATOM     75  C   UNL A   1      41.987  26.961  35.692  1.00  0.00     0.060 A 
BRANCH  75  76
ATOM     76  S   UNL A   1      41.501  25.548  36.704  1.00  0.00     0.124 S 
ATOM     77  O   UNL A   1      40.942  24.647  35.699  1.00  0.00    -0.237 OA
ATOM     78  O   UNL A   1      42.771  25.132  37.289  1.00  0.00    -0.237 OA
ATOM     79  O   UNL A   1      40.537  26.115  37.641  1.00  0.00    -0.744 OA
ENDBRANCH  75  76
ENDBRANCH  54  68
BRANCH  55  80
ATOM     80  C   UNL A   1      44.926  37.139  28.484  1.00  0.00     0.058 A 
ATOM     81  C   UNL A   1      44.907  38.426  29.041  1.00  0.00     0.135 A 
ATOM     82  C   UNL A   1      45.266  37.023  27.126  1.00  0.00     0.135 A 
ATOM     83  F   UNL A   1      44.574  38.594  30.331  1.00  0.00    -0.206 F 
ATOM     84  C   UNL A   1      45.201  39.555  28.282  1.00  0.00     0.059 A 
ATOM     85  C   UNL A   1      45.592  38.134  26.353  1.00  0.00     0.059 A 
ATOM     86  F   UNL A   1      45.304  35.815  26.543  1.00  0.00    -0.206 F 
ATOM     87  C   UNL A   1      45.549  39.397  26.939  1.00  0.00     0.060 A 
BRANCH  87  88
ATOM     88  S   UNL A   1      45.982  40.864  25.979  1.00  0.00     0.124 S 
ATOM     89  O   UNL A   1      47.241  40.455  25.367  1.00  0.00    -0.237 OA
ATOM     90  O   UNL A   1      44.842  40.985  25.076  1.00  0.00    -0.237 OA
ATOM     91  O   UNL A   1      46.083  41.911  26.992  1.00  0.00    -0.744 OA
ENDBRANCH  87  88
ENDBRANCH  55  80
BRANCH  67  92
ATOM     92  C   UNL A   1      48.721  32.882  32.528  1.00  0.00     0.058 A 
ATOM     93  C   UNL A   1      49.259  33.498  33.668  1.00  0.00     0.135 A 
ATOM     94  C   UNL A   1      49.592  32.137  31.716  1.00  0.00     0.135 A 
ATOM     95  F   UNL A   1      48.473  34.226  34.478  1.00  0.00    -0.206 F 
ATOM     96  C   UNL A   1      50.612  33.399  33.978  1.00  0.00     0.059 A 
ATOM     97  C   UNL A   1      50.941  31.996  32.024  1.00  0.00     0.059 A 
ATOM     98  F   UNL A   1      49.128  31.514  30.620  1.00  0.00    -0.206 F 
ATOM     99  C   UNL A   1      51.445  32.642  33.151  1.00  0.00     0.060 A 
BRANCH  99 100
ATOM    100  S   UNL A   1      53.190  32.492  33.585  1.00  0.00     0.124 S 
ATOM    101  O   UNL A   1      53.433  33.758  34.270  1.00  0.00    -0.237 OA
ATOM    102  O   UNL A   1      53.201  31.302  34.429  1.00  0.00    -0.237 OA
ATOM    103  O   UNL A   1      53.852  32.342  32.292  1.00  0.00    -0.744 OA
ENDBRANCH  99 100
ENDBRANCH  67  92
ENDBRANCH  41  42
ENDBRANCH  34  36
ENDBRANCH  33  34
ENDBRANCH  32  33
ENDBRANCH  31  32
ENDBRANCH  30  31
ENDBRANCH  29  30
ENDBRANCH  28  29
ENDBRANCH  27  28
ENDBRANCH   1  27
TORSDOF 28
ENDMDL
