MODEL 1
REMARK VINA RESULT:      -8.4      0.000      0.000
REMARK SMILES Cc1nc(COc2ccc(/C=C3\CCc4oc(C(=O)OCCOCCOCCOCCOC(=O)c5ccc(-c6c7nc(c(-c8c(F)cc(S(=O)(=O)[O-])cc8F)c8ccc([nH]8)c(-c8c(F)cc(S(=O)(=O)[O-])cc8F)c8nc(c(-c9c(F)cc(S(=O)(=O)[O-])cc9F)c9ccc6[nH]9)C=C8)C=C7)cc5)c(C)c4C3=O)cc2)no1
REMARK SMILES IDX 25 1 24 2 23 3 22 4 21 5 20 6 18 7 19 8 17 9 11 10 12 11
REMARK SMILES IDX 13 12 104 13 14 14 103 15 105 16 15 17 101 18 16 19 102 20
REMARK SMILES IDX 10 21 7 22 8 23 107 24 9 25 106 26 6 27 5 28 4 29 1 30 2 31
REMARK SMILES IDX 3 32 109 33 108 34 26 35 27 36 28 37 29 38 30 39 31 40 32 41
REMARK SMILES IDX 33 42 34 43 35 44 36 45 100 46 37 47 99 48 38 49 39 50 40 51
REMARK SMILES IDX 93 52 41 53 98 54 92 55 94 56 42 57 97 58 91 59 90 60 43 62
REMARK SMILES IDX 77 63 56 64 76 65 57 66 60 67 75 68 95 69 58 70 59 71 74 73
REMARK SMILES IDX 96 74 61 75 44 76 45 77 54 78 46 79 47 80 53 81 55 82 48 83
REMARK SMILES IDX 49 84 50 85 51 86 52 87 78 88 79 89 88 90 80 91 81 92 87 93
REMARK SMILES IDX 89 94 82 95 83 96 84 97 85 98 86 99 62 100 63 101 72 102
REMARK SMILES IDX 64 103 65 104 71 105 73 106 66 107 67 108 68 109 69 110
REMARK SMILES IDX 70 111
REMARK H PARENT 94 61 60 72
REMARK Flexibility Score: inf
ROOT
ATOM      1  C   UNL A   1      50.002  27.174  28.876  1.00  0.00     0.188 C 
ENDROOT
BRANCH   1   2
ATOM      2  C   UNL A   1      50.945  26.579  27.812  1.00  0.00     0.188 C 
BRANCH   2   3
ATOM      3  O   UNL A   1      50.494  26.579  26.472  1.00  0.00    -0.376 OA
BRANCH   3   4
ATOM      4  C   UNL A   1      49.134  26.515  26.096  1.00  0.00     0.202 C 
BRANCH   4   5
ATOM      5  C   UNL A   1      48.459  27.278  24.945  1.00  0.00     0.261 C 
BRANCH   5   6
ATOM      6  O   UNL A   1      47.061  27.123  24.753  1.00  0.00    -0.457 OA
BRANCH   6   7
ATOM      7  C   UNL A   1      46.266  28.179  25.036  1.00  0.00     0.374 C 
ATOM      8  O   UNL A   1      46.428  29.322  24.604  1.00  0.00    -0.242 OA
BRANCH   7   9
ATOM      9  C   UNL A   1      45.129  27.704  25.788  1.00  0.00     0.215 A 
ATOM     10  C   UNL A   1      41.202  24.427  27.769  1.00  0.00     0.016 C 
ATOM     11  C   UNL A   1      41.531  25.733  27.743  1.00  0.00     0.001 C 
ATOM     12  C   UNL A   1      40.841  26.897  27.069  1.00  0.00     0.048 C 
ATOM     13  C   UNL A   1      42.917  26.084  28.244  1.00  0.00     0.192 C 
ATOM     14  C   UNL A   1      41.574  27.196  25.745  1.00  0.00     0.081 C 
ATOM     15  C   UNL A   1      43.645  26.818  27.219  1.00  0.00     0.067 A 
ATOM     16  O   UNL A   1      43.382  25.708  29.310  1.00  0.00    -0.289 OA
ATOM     17  C   UNL A   1      43.020  27.245  26.067  1.00  0.00     0.116 A 
ATOM     18  C   UNL A   1      44.986  27.285  27.112  1.00  0.00     0.014 A 
ATOM     19  O   UNL A   1      43.897  27.737  25.176  1.00  0.00    -0.453 OA
ATOM     20  C   UNL A   1      45.990  27.350  28.204  1.00  0.00     0.049 C 
BRANCH  10  21
ATOM     21  C   UNL A   1      40.081  23.718  27.113  1.00  0.00    -0.025 A 
ATOM     22  C   UNL A   1      38.092  22.260  25.706  1.00  0.00     0.120 A 
ATOM     23  C   UNL A   1      37.884  23.587  26.046  1.00  0.00     0.047 A 
ATOM     24  C   UNL A   1      39.309  21.669  26.032  1.00  0.00     0.047 A 
ATOM     25  C   UNL A   1      38.872  24.309  26.724  1.00  0.00     0.012 A 
ATOM     26  C   UNL A   1      40.287  22.386  26.737  1.00  0.00     0.012 A 
BRANCH  22  27
ATOM     27  O   UNL A   1      37.109  21.679  24.956  1.00  0.00    -0.485 OA
BRANCH  27  28
ATOM     28  C   UNL A   1      35.944  21.234  25.675  1.00  0.00     0.310 C 
BRANCH  28  29
ATOM     29  C   UNL A   1      34.690  21.242  24.871  1.00  0.00     0.209 A 
ATOM     30  C   UNL A   1      32.099  22.876  23.092  1.00  0.00     0.114 C 
ATOM     31  C   UNL A   1      33.096  22.042  23.781  1.00  0.00     0.223 A 
ATOM     32  N   UNL A   1      34.335  22.327  24.102  1.00  0.00    -0.193 NA
ATOM     33  O   UNL A   1      32.678  20.830  24.245  1.00  0.00    -0.340 OA
ATOM     34  N   UNL A   1      33.749  20.291  24.963  1.00  0.00    -0.059 NA
ENDBRANCH  28  29
ENDBRANCH  27  28
ENDBRANCH  22  27
ENDBRANCH  10  21
ENDBRANCH   7   9
ENDBRANCH   6   7
ENDBRANCH   5   6
ENDBRANCH   4   5
ENDBRANCH   3   4
ENDBRANCH   2   3
ENDBRANCH   1   2
BRANCH   1  35
ATOM     35  O   UNL A   1      50.671  27.667  30.022  1.00  0.00    -0.377 OA
BRANCH  35  36
ATOM     36  C   UNL A   1      51.280  28.954  29.949  1.00  0.00     0.188 C 
BRANCH  36  37
ATOM     37  C   UNL A   1      50.675  30.209  30.640  1.00  0.00     0.188 C 
BRANCH  37  38
ATOM     38  O   UNL A   1      49.896  31.059  29.812  1.00  0.00    -0.376 OA
BRANCH  38  39
ATOM     39  C   UNL A   1      50.406  32.192  29.139  1.00  0.00     0.202 C 
BRANCH  39  40
ATOM     40  C   UNL A   1      51.661  32.834  29.711  1.00  0.00     0.261 C 
BRANCH  40  41
ATOM     41  O   UNL A   1      51.521  34.225  29.885  1.00  0.00    -0.460 OA
BRANCH  41  42
ATOM     42  C   UNL A   1      51.794  34.948  28.785  1.00  0.00     0.338 C 
ATOM     43  O   UNL A   1      52.565  34.664  27.878  1.00  0.00    -0.246 OA
BRANCH  42  44
ATOM     44  C   UNL A   1      51.099  36.223  28.914  1.00  0.00     0.060 A 
ATOM     45  C   UNL A   1      50.717  36.570  30.210  1.00  0.00     0.016 A 
ATOM     46  C   UNL A   1      50.455  36.700  27.763  1.00  0.00     0.016 A 
ATOM     47  C   UNL A   1      49.477  37.128  30.364  1.00  0.00     0.010 A 
ATOM     48  C   UNL A   1      49.198  37.194  27.920  1.00  0.00     0.010 A 
ATOM     49  C   UNL A   1      48.701  37.308  29.218  1.00  0.00    -0.014 A 
BRANCH  49  50
ATOM     50  C   UNL A   1      47.334  37.726  29.372  1.00  0.00     0.031 A 
ATOM     51  C   UNL A   1      46.436  36.567  29.553  1.00  0.00     0.074 A 
ATOM     52  C   UNL A   1      47.047  39.035  29.500  1.00  0.00     0.049 A 
ATOM     53  N   UNL A   1      45.458  36.200  28.795  1.00  0.00    -0.248 NA
ATOM     54  C   UNL A   1      46.813  35.559  30.567  1.00  0.00     0.031 C 
ATOM     55  C   UNL A   1      47.991  40.158  29.562  1.00  0.00     0.029 A 
ATOM     56  N   UNL A   1      45.855  39.629  29.756  1.00  0.00    -0.354 N 
ATOM     57  C   UNL A   1      44.935  35.071  29.412  1.00  0.00     0.074 A 
ATOM     58  C   UNL A   1      45.941  34.586  30.312  1.00  0.00     0.031 C 
ATOM     59  C   UNL A   1      47.361  41.239  30.072  1.00  0.00     0.029 A 
ATOM     60  C   UNL A   1      45.964  40.912  30.287  1.00  0.00     0.049 A 
ATOM     61  H   UNL A   1      44.990  39.192  29.581  1.00  0.00     0.167 HD
ATOM     62  C   UNL A   1      43.600  34.827  29.385  1.00  0.00     0.037 A 
ATOM     63  C   UNL A   1      44.987  41.556  30.979  1.00  0.00     0.037 A 
ATOM     64  C   UNL A   1      42.968  35.537  28.302  1.00  0.00     0.049 A 
ATOM     65  C   UNL A   1      43.704  40.872  30.636  1.00  0.00     0.074 A 
ATOM     66  C   UNL A   1      43.168  35.561  26.933  1.00  0.00     0.029 A 
ATOM     67  N   UNL A   1      42.263  36.678  28.605  1.00  0.00    -0.354 N 
ATOM     68  N   UNL A   1      43.175  40.889  29.440  1.00  0.00    -0.248 NA
ATOM     69  C   UNL A   1      43.281  39.762  31.480  1.00  0.00     0.031 C 
ATOM     70  C   UNL A   1      42.992  36.923  26.558  1.00  0.00     0.029 A 
ATOM     71  C   UNL A   1      42.617  37.642  27.692  1.00  0.00     0.049 A 
ATOM     72  H   UNL A   1      41.621  36.785  29.342  1.00  0.00     0.167 HD
ATOM     73  C   UNL A   1      42.708  39.596  29.235  1.00  0.00     0.074 A 
ATOM     74  C   UNL A   1      42.735  38.968  30.554  1.00  0.00     0.031 C 
ATOM     75  C   UNL A   1      42.631  39.061  27.980  1.00  0.00     0.037 A 
BRANCH  62  76
ATOM     76  C   UNL A   1      42.844  34.290  30.574  1.00  0.00     0.058 A 
ATOM     77  C   UNL A   1      42.088  33.113  30.422  1.00  0.00     0.135 A 
ATOM     78  C   UNL A   1      42.608  35.017  31.765  1.00  0.00     0.135 A 
ATOM     79  F   UNL A   1      42.226  32.352  29.325  1.00  0.00    -0.206 F 
ATOM     80  C   UNL A   1      41.117  32.731  31.345  1.00  0.00     0.059 A 
ATOM     81  C   UNL A   1      41.691  34.622  32.726  1.00  0.00     0.059 A 
ATOM     82  F   UNL A   1      43.176  36.202  32.020  1.00  0.00    -0.206 F 
ATOM     83  C   UNL A   1      40.916  33.503  32.487  1.00  0.00     0.060 A 
BRANCH  83  84
ATOM     84  S   UNL A   1      39.589  33.078  33.624  1.00  0.00     0.124 S 
ATOM     85  O   UNL A   1      38.838  34.327  33.668  1.00  0.00    -0.237 OA
ATOM     86  O   UNL A   1      38.947  31.965  32.932  1.00  0.00    -0.237 OA
ATOM     87  O   UNL A   1      40.299  32.722  34.849  1.00  0.00    -0.744 OA
ENDBRANCH  83  84
ENDBRANCH  62  76
BRANCH  63  88
ATOM     88  C   UNL A   1      45.159  42.414  32.190  1.00  0.00     0.058 A 
ATOM     89  C   UNL A   1      45.737  41.904  33.367  1.00  0.00     0.135 A 
ATOM     90  C   UNL A   1      45.002  43.817  32.145  1.00  0.00     0.135 A 
ATOM     91  F   UNL A   1      45.945  40.585  33.500  1.00  0.00    -0.206 F 
ATOM     92  C   UNL A   1      46.180  42.734  34.407  1.00  0.00     0.059 A 
ATOM     93  C   UNL A   1      45.416  44.660  33.174  1.00  0.00     0.059 A 
ATOM     94  F   UNL A   1      44.526  44.436  31.057  1.00  0.00    -0.206 F 
ATOM     95  C   UNL A   1      46.034  44.116  34.291  1.00  0.00     0.060 A 
BRANCH  95  96
ATOM     96  S   UNL A   1      46.772  45.212  35.525  1.00  0.00     0.124 S 
ATOM     97  O   UNL A   1      48.181  45.187  35.147  1.00  0.00    -0.237 OA
ATOM     98  O   UNL A   1      46.068  46.466  35.285  1.00  0.00    -0.237 OA
ATOM     99  O   UNL A   1      46.456  44.557  36.792  1.00  0.00    -0.744 OA
ENDBRANCH  95  96
ENDBRANCH  63  88
BRANCH  75 100
ATOM    100  C   UNL A   1      42.802  39.980  26.795  1.00  0.00     0.058 A 
ATOM    101  C   UNL A   1      41.751  40.679  26.173  1.00  0.00     0.135 A 
ATOM    102  C   UNL A   1      44.105  40.295  26.387  1.00  0.00     0.135 A 
ATOM    103  F   UNL A   1      40.484  40.524  26.581  1.00  0.00    -0.206 F 
ATOM    104  C   UNL A   1      41.982  41.612  25.159  1.00  0.00     0.059 A 
ATOM    105  C   UNL A   1      44.364  41.247  25.404  1.00  0.00     0.059 A 
ATOM    106  F   UNL A   1      45.156  39.715  26.989  1.00  0.00    -0.206 F 
ATOM    107  C   UNL A   1      43.295  41.890  24.783  1.00  0.00     0.060 A 
BRANCH 107 108
ATOM    108  S   UNL A   1      43.603  43.147  23.524  1.00  0.00     0.124 S 
ATOM    109  O   UNL A   1      44.612  42.503  22.690  1.00  0.00    -0.237 OA
ATOM    110  O   UNL A   1      42.288  43.315  22.913  1.00  0.00    -0.237 OA
ATOM    111  O   UNL A   1      44.073  44.296  24.295  1.00  0.00    -0.744 OA
ENDBRANCH 107 108
ENDBRANCH  75 100
ENDBRANCH  49  50
ENDBRANCH  42  44
ENDBRANCH  41  42
ENDBRANCH  40  41
ENDBRANCH  39  40
ENDBRANCH  38  39
ENDBRANCH  37  38
ENDBRANCH  36  37
ENDBRANCH  35  36
ENDBRANCH   1  35
TORSDOF 27
ENDMDL
MODEL 2
REMARK VINA RESULT:      -8.3      5.842     10.850
REMARK SMILES Cc1nc(COc2ccc(/C=C3\CCc4oc(C(=O)OCCOCCOCCOCCOC(=O)c5ccc(-c6c7nc(c(-c8c(F)cc(S(=O)(=O)[O-])cc8F)c8ccc([nH]8)c(-c8c(F)cc(S(=O)(=O)[O-])cc8F)c8nc(c(-c9c(F)cc(S(=O)(=O)[O-])cc9F)c9ccc6[nH]9)C=C8)C=C7)cc5)c(C)c4C3=O)cc2)no1
REMARK SMILES IDX 25 1 24 2 23 3 22 4 21 5 20 6 18 7 19 8 17 9 11 10 12 11
REMARK SMILES IDX 13 12 104 13 14 14 103 15 105 16 15 17 101 18 16 19 102 20
REMARK SMILES IDX 10 21 7 22 8 23 107 24 9 25 106 26 6 27 5 28 4 29 1 30 2 31
REMARK SMILES IDX 3 32 109 33 108 34 26 35 27 36 28 37 29 38 30 39 31 40 32 41
REMARK SMILES IDX 33 42 34 43 35 44 36 45 100 46 37 47 99 48 38 49 39 50 40 51
REMARK SMILES IDX 93 52 41 53 98 54 92 55 94 56 42 57 97 58 91 59 90 60 43 62
REMARK SMILES IDX 77 63 56 64 76 65 57 66 60 67 75 68 95 69 58 70 59 71 74 73
REMARK SMILES IDX 96 74 61 75 44 76 45 77 54 78 46 79 47 80 53 81 55 82 48 83
REMARK SMILES IDX 49 84 50 85 51 86 52 87 78 88 79 89 88 90 80 91 81 92 87 93
REMARK SMILES IDX 89 94 82 95 83 96 84 97 85 98 86 99 62 100 63 101 72 102
REMARK SMILES IDX 64 103 65 104 71 105 73 106 66 107 67 108 68 109 69 110
REMARK SMILES IDX 70 111
REMARK H PARENT 94 61 60 72
REMARK Flexibility Score: inf
ROOT
ATOM      1  C   UNL A   1      46.059  31.540  30.316  1.00  0.00     0.188 C 
ENDROOT
BRANCH   1   2
ATOM      2  C   UNL A   1      45.954  30.735  31.626  1.00  0.00     0.188 C 
BRANCH   2   3
ATOM      3  O   UNL A   1      47.080  29.974  32.013  1.00  0.00    -0.376 OA
BRANCH   3   4
ATOM      4  C   UNL A   1      48.350  30.526  32.290  1.00  0.00     0.202 C 
BRANCH   4   5
ATOM      5  C   UNL A   1      49.583  30.511  31.371  1.00  0.00     0.261 C 
BRANCH   5   6
ATOM      6  O   UNL A   1      49.557  31.290  30.185  1.00  0.00    -0.457 OA
BRANCH   6   7
ATOM      7  C   UNL A   1      50.464  31.004  29.224  1.00  0.00     0.374 C 
ATOM      8  O   UNL A   1      51.669  31.252  29.293  1.00  0.00    -0.242 OA
BRANCH   7   9
ATOM      9  C   UNL A   1      49.809  30.230  28.196  1.00  0.00     0.215 A 
ATOM     10  C   UNL A   1      46.527  26.612  25.703  1.00  0.00     0.016 C 
ATOM     11  C   UNL A   1      47.580  27.403  25.423  1.00  0.00     0.001 C 
ATOM     12  C   UNL A   1      49.002  27.038  25.061  1.00  0.00     0.048 C 
ATOM     13  C   UNL A   1      47.418  28.874  25.748  1.00  0.00     0.192 C 
ATOM     14  C   UNL A   1      49.874  27.165  26.326  1.00  0.00     0.081 C 
ATOM     15  C   UNL A   1      48.489  29.309  26.633  1.00  0.00     0.067 A 
ATOM     16  O   UNL A   1      46.466  29.558  25.401  1.00  0.00    -0.289 OA
ATOM     17  C   UNL A   1      49.551  28.481  26.929  1.00  0.00     0.116 A 
ATOM     18  C   UNL A   1      48.760  30.524  27.323  1.00  0.00     0.014 A 
ATOM     19  O   UNL A   1      50.329  28.993  27.897  1.00  0.00    -0.453 OA
ATOM     20  C   UNL A   1      48.090  31.832  27.109  1.00  0.00     0.049 C 
BRANCH  10  21
ATOM     21  C   UNL A   1      46.442  25.137  25.780  1.00  0.00    -0.025 A 
ATOM     22  C   UNL A   1      46.174  22.311  25.712  1.00  0.00     0.120 A 
ATOM     23  C   UNL A   1      45.865  23.020  26.862  1.00  0.00     0.047 A 
ATOM     24  C   UNL A   1      46.578  23.015  24.581  1.00  0.00     0.047 A 
ATOM     25  C   UNL A   1      45.982  24.414  26.888  1.00  0.00     0.012 A 
ATOM     26  C   UNL A   1      46.721  24.409  24.618  1.00  0.00     0.012 A 
BRANCH  22  27
ATOM     27  O   UNL A   1      45.928  20.968  25.759  1.00  0.00    -0.485 OA
BRANCH  27  28
ATOM     28  C   UNL A   1      45.249  20.408  24.619  1.00  0.00     0.310 C 
BRANCH  28  29
ATOM     29  C   UNL A   1      44.000  19.670  24.955  1.00  0.00     0.209 A 
ATOM     30  C   UNL A   1      40.814  19.398  26.478  1.00  0.00     0.114 C 
ATOM     31  C   UNL A   1      42.108  19.344  25.782  1.00  0.00     0.223 A 
ATOM     32  N   UNL A   1      42.857  20.329  25.348  1.00  0.00    -0.193 NA
ATOM     33  O   UNL A   1      42.681  18.116  25.630  1.00  0.00    -0.340 OA
ATOM     34  N   UNL A   1      43.940  18.334  25.066  1.00  0.00    -0.059 NA
ENDBRANCH  28  29
ENDBRANCH  27  28
ENDBRANCH  22  27
ENDBRANCH  10  21
ENDBRANCH   7   9
ENDBRANCH   6   7
ENDBRANCH   5   6
ENDBRANCH   4   5
ENDBRANCH   3   4
ENDBRANCH   2   3
ENDBRANCH   1   2
BRANCH   1  35
ATOM     35  O   UNL A   1      45.554  30.860  29.182  1.00  0.00    -0.377 OA
BRANCH  35  36
ATOM     36  C   UNL A   1      44.359  31.348  28.577  1.00  0.00     0.188 C 
BRANCH  36  37
ATOM     37  C   UNL A   1      44.325  31.923  27.132  1.00  0.00     0.188 C 
BRANCH  37  38
ATOM     38  O   UNL A   1      44.817  33.245  26.978  1.00  0.00    -0.376 OA
BRANCH  38  39
ATOM     39  C   UNL A   1      43.994  34.391  26.901  1.00  0.00     0.202 C 
BRANCH  39  40
ATOM     40  C   UNL A   1      44.460  35.635  27.641  1.00  0.00     0.261 C 
BRANCH  40  41
ATOM     41  O   UNL A   1      45.298  35.328  28.732  1.00  0.00    -0.460 OA
BRANCH  41  42
ATOM     42  C   UNL A   1      45.716  36.401  29.425  1.00  0.00     0.338 C 
ATOM     43  O   UNL A   1      46.399  37.332  29.017  1.00  0.00    -0.246 OA
BRANCH  42  44
ATOM     44  C   UNL A   1      45.321  36.209  30.814  1.00  0.00     0.060 A 
ATOM     45  C   UNL A   1      45.987  35.189  31.492  1.00  0.00     0.016 A 
ATOM     46  C   UNL A   1      44.043  36.667  31.168  1.00  0.00     0.016 A 
ATOM     47  C   UNL A   1      45.236  34.394  32.315  1.00  0.00     0.010 A 
ATOM     48  C   UNL A   1      43.282  35.841  31.933  1.00  0.00     0.010 A 
ATOM     49  C   UNL A   1      43.872  34.671  32.413  1.00  0.00    -0.014 A 
BRANCH  49  50
ATOM     50  C   UNL A   1      43.032  33.749  33.127  1.00  0.00     0.031 A 
ATOM     51  C   UNL A   1      43.052  34.019  34.579  1.00  0.00     0.074 A 
ATOM     52  C   UNL A   1      42.236  32.905  32.443  1.00  0.00     0.049 A 
ATOM     53  N   UNL A   1      43.446  33.232  35.523  1.00  0.00    -0.248 NA
ATOM     54  C   UNL A   1      42.827  35.412  35.021  1.00  0.00     0.031 C 
ATOM     55  C   UNL A   1      42.053  32.826  30.988  1.00  0.00     0.029 A 
ATOM     56  N   UNL A   1      41.302  32.040  32.911  1.00  0.00    -0.354 N 
ATOM     57  C   UNL A   1      43.246  33.954  36.693  1.00  0.00     0.074 A 
ATOM     58  C   UNL A   1      43.126  35.332  36.315  1.00  0.00     0.031 C 
ATOM     59  C   UNL A   1      40.917  32.145  30.721  1.00  0.00     0.029 A 
ATOM     60  C   UNL A   1      40.346  31.673  31.968  1.00  0.00     0.049 A 
ATOM     61  H   UNL A   1      41.302  31.701  33.836  1.00  0.00     0.167 HD
ATOM     62  C   UNL A   1      42.858  33.325  37.832  1.00  0.00     0.037 A 
ATOM     63  C   UNL A   1      39.122  31.157  32.256  1.00  0.00     0.037 A 
ATOM     64  C   UNL A   1      43.172  31.920  37.778  1.00  0.00     0.049 A 
ATOM     65  C   UNL A   1      39.204  30.626  33.651  1.00  0.00     0.074 A 
ATOM     66  C   UNL A   1      44.344  31.213  37.580  1.00  0.00     0.029 A 
ATOM     67  N   UNL A   1      42.147  31.041  37.518  1.00  0.00    -0.354 N 
ATOM     68  N   UNL A   1      39.957  29.613  33.993  1.00  0.00    -0.248 NA
ATOM     69  C   UNL A   1      38.851  31.527  34.741  1.00  0.00     0.031 C 
ATOM     70  C   UNL A   1      43.974  30.104  36.767  1.00  0.00     0.029 A 
ATOM     71  C   UNL A   1      42.593  30.146  36.578  1.00  0.00     0.049 A 
ATOM     72  H   UNL A   1      41.254  31.051  37.933  1.00  0.00     0.167 HD
ATOM     73  C   UNL A   1      40.516  29.977  35.213  1.00  0.00     0.074 A 
ATOM     74  C   UNL A   1      39.740  31.132  35.658  1.00  0.00     0.031 C 
ATOM     75  C   UNL A   1      41.737  29.503  35.603  1.00  0.00     0.037 A 
BRANCH  62  76
ATOM     76  C   UNL A   1      41.843  33.910  38.781  1.00  0.00     0.058 A 
ATOM     77  C   UNL A   1      40.515  34.064  38.343  1.00  0.00     0.135 A 
ATOM     78  C   UNL A   1      42.168  34.574  39.989  1.00  0.00     0.135 A 
ATOM     79  F   UNL A   1      40.102  33.486  37.204  1.00  0.00    -0.206 F 
ATOM     80  C   UNL A   1      39.603  34.878  39.012  1.00  0.00     0.059 A 
ATOM     81  C   UNL A   1      41.258  35.337  40.703  1.00  0.00     0.059 A 
ATOM     82  F   UNL A   1      43.407  34.603  40.493  1.00  0.00    -0.206 F 
ATOM     83  C   UNL A   1      39.991  35.523  40.184  1.00  0.00     0.060 A 
BRANCH  83  84
ATOM     84  S   UNL A   1      38.855  36.661  40.989  1.00  0.00     0.124 S 
ATOM     85  O   UNL A   1      38.660  37.659  39.944  1.00  0.00    -0.237 OA
ATOM     86  O   UNL A   1      37.716  35.796  41.274  1.00  0.00    -0.237 OA
ATOM     87  O   UNL A   1      39.604  37.109  42.160  1.00  0.00    -0.744 OA
ENDBRANCH  83  84
ENDBRANCH  62  76
BRANCH  63  88
ATOM     88  C   UNL A   1      37.830  31.472  31.575  1.00  0.00     0.058 A 
ATOM     89  C   UNL A   1      37.273  32.763  31.632  1.00  0.00     0.135 A 
ATOM     90  C   UNL A   1      37.240  30.593  30.640  1.00  0.00     0.135 A 
ATOM     91  F   UNL A   1      37.775  33.677  32.477  1.00  0.00    -0.206 F 
ATOM     92  C   UNL A   1      36.236  33.171  30.780  1.00  0.00     0.059 A 
ATOM     93  C   UNL A   1      36.197  30.970  29.798  1.00  0.00     0.059 A 
ATOM     94  F   UNL A   1      37.717  29.358  30.439  1.00  0.00    -0.206 F 
ATOM     95  C   UNL A   1      35.719  32.271  29.850  1.00  0.00     0.060 A 
BRANCH  95  96
ATOM     96  S   UNL A   1      34.524  32.833  28.613  1.00  0.00     0.124 S 
ATOM     97  O   UNL A   1      33.949  31.574  28.154  1.00  0.00    -0.237 OA
ATOM     98  O   UNL A   1      33.644  33.689  29.402  1.00  0.00    -0.237 OA
ATOM     99  O   UNL A   1      35.353  33.533  27.635  1.00  0.00    -0.744 OA
ENDBRANCH  95  96
ENDBRANCH  63  88
BRANCH  75 100
ATOM    100  C   UNL A   1      42.352  28.369  34.819  1.00  0.00     0.058 A 
ATOM    101  C   UNL A   1      43.151  28.536  33.673  1.00  0.00     0.135 A 
ATOM    102  C   UNL A   1      42.267  27.076  35.353  1.00  0.00     0.135 A 
ATOM    103  F   UNL A   1      43.381  29.755  33.165  1.00  0.00    -0.206 F 
ATOM    104  C   UNL A   1      43.797  27.460  33.060  1.00  0.00     0.059 A 
ATOM    105  C   UNL A   1      42.929  25.994  34.781  1.00  0.00     0.059 A 
ATOM    106  F   UNL A   1      41.576  26.860  36.485  1.00  0.00    -0.206 F 
ATOM    107  C   UNL A   1      43.680  26.191  33.624  1.00  0.00     0.060 A 
BRANCH 107 108
ATOM    108  S   UNL A   1      44.571  24.809  32.876  1.00  0.00     0.124 S 
ATOM    109  O   UNL A   1      43.871  23.657  33.434  1.00  0.00    -0.237 OA
ATOM    110  O   UNL A   1      44.376  25.040  31.448  1.00  0.00    -0.237 OA
ATOM    111  O   UNL A   1      45.943  24.992  33.346  1.00  0.00    -0.744 OA
ENDBRANCH 107 108
ENDBRANCH  75 100
ENDBRANCH  49  50
ENDBRANCH  42  44
ENDBRANCH  41  42
ENDBRANCH  40  41
ENDBRANCH  39  40
ENDBRANCH  38  39
ENDBRANCH  37  38
ENDBRANCH  36  37
ENDBRANCH  35  36
ENDBRANCH   1  35
TORSDOF 27
ENDMDL
MODEL 3
REMARK VINA RESULT:      -8.1      5.972     14.169
REMARK SMILES Cc1nc(COc2ccc(/C=C3\CCc4oc(C(=O)OCCOCCOCCOCCOC(=O)c5ccc(-c6c7nc(c(-c8c(F)cc(S(=O)(=O)[O-])cc8F)c8ccc([nH]8)c(-c8c(F)cc(S(=O)(=O)[O-])cc8F)c8nc(c(-c9c(F)cc(S(=O)(=O)[O-])cc9F)c9ccc6[nH]9)C=C8)C=C7)cc5)c(C)c4C3=O)cc2)no1
REMARK SMILES IDX 25 1 24 2 23 3 22 4 21 5 20 6 18 7 19 8 17 9 11 10 12 11
REMARK SMILES IDX 13 12 104 13 14 14 103 15 105 16 15 17 101 18 16 19 102 20
REMARK SMILES IDX 10 21 7 22 8 23 107 24 9 25 106 26 6 27 5 28 4 29 1 30 2 31
REMARK SMILES IDX 3 32 109 33 108 34 26 35 27 36 28 37 29 38 30 39 31 40 32 41
REMARK SMILES IDX 33 42 34 43 35 44 36 45 100 46 37 47 99 48 38 49 39 50 40 51
REMARK SMILES IDX 93 52 41 53 98 54 92 55 94 56 42 57 97 58 91 59 90 60 43 62
REMARK SMILES IDX 77 63 56 64 76 65 57 66 60 67 75 68 95 69 58 70 59 71 74 73
REMARK SMILES IDX 96 74 61 75 44 76 45 77 54 78 46 79 47 80 53 81 55 82 48 83
REMARK SMILES IDX 49 84 50 85 51 86 52 87 78 88 79 89 88 90 80 91 81 92 87 93
REMARK SMILES IDX 89 94 82 95 83 96 84 97 85 98 86 99 62 100 63 101 72 102
REMARK SMILES IDX 64 103 65 104 71 105 73 106 66 107 67 108 68 109 69 110
REMARK SMILES IDX 70 111
REMARK H PARENT 94 61 60 72
REMARK Flexibility Score: inf
ROOT
ATOM      1  C   UNL A   1      50.060  36.342  25.891  1.00  0.00     0.188 C 
ENDROOT
BRANCH   1   2
ATOM      2  C   UNL A   1      49.776  34.866  25.550  1.00  0.00     0.188 C 
BRANCH   2   3
ATOM      3  O   UNL A   1      48.455  34.399  25.738  1.00  0.00    -0.376 OA
BRANCH   3   4
ATOM      4  C   UNL A   1      47.323  34.951  25.100  1.00  0.00     0.202 C 
BRANCH   4   5
ATOM      5  C   UNL A   1      45.849  34.610  25.378  1.00  0.00     0.261 C 
BRANCH   5   6
ATOM      6  O   UNL A   1      45.540  33.796  26.499  1.00  0.00    -0.457 OA
BRANCH   6   7
ATOM      7  C   UNL A   1      45.693  34.335  27.729  1.00  0.00     0.374 C 
ATOM      8  O   UNL A   1      46.431  33.887  28.609  1.00  0.00    -0.242 OA
BRANCH   7   9
ATOM      9  C   UNL A   1      44.977  35.587  27.771  1.00  0.00     0.215 A 
ATOM     10  C   UNL A   1      42.329  40.121  26.189  1.00  0.00     0.016 C 
ATOM     11  C   UNL A   1      42.881  39.592  27.297  1.00  0.00     0.001 C 
ATOM     12  C   UNL A   1      44.090  40.035  28.089  1.00  0.00     0.048 C 
ATOM     13  C   UNL A   1      42.397  38.211  27.691  1.00  0.00     0.192 C 
ATOM     14  C   UNL A   1      45.291  39.164  27.672  1.00  0.00     0.081 C 
ATOM     15  C   UNL A   1      43.527  37.299  27.796  1.00  0.00     0.067 A 
ATOM     16  O   UNL A   1      41.221  37.895  27.798  1.00  0.00    -0.289 OA
ATOM     17  C   UNL A   1      44.824  37.757  27.712  1.00  0.00     0.116 A 
ATOM     18  C   UNL A   1      43.639  35.898  28.020  1.00  0.00     0.014 A 
ATOM     19  O   UNL A   1      45.707  36.747  27.649  1.00  0.00    -0.453 OA
ATOM     20  C   UNL A   1      42.559  34.984  28.472  1.00  0.00     0.049 C 
BRANCH  10  21
ATOM     21  C   UNL A   1      42.755  41.285  25.379  1.00  0.00    -0.025 A 
ATOM     22  C   UNL A   1      43.489  43.400  23.633  1.00  0.00     0.120 A 
ATOM     23  C   UNL A   1      44.358  42.970  24.623  1.00  0.00     0.047 A 
ATOM     24  C   UNL A   1      42.268  42.748  23.486  1.00  0.00     0.047 A 
ATOM     25  C   UNL A   1      44.001  41.916  25.471  1.00  0.00     0.012 A 
ATOM     26  C   UNL A   1      41.901  41.711  24.356  1.00  0.00     0.012 A 
BRANCH  22  27
ATOM     27  O   UNL A   1      43.974  44.363  22.795  1.00  0.00    -0.485 OA
BRANCH  27  28
ATOM     28  C   UNL A   1      45.226  44.068  22.148  1.00  0.00     0.310 C 
BRANCH  28  29
ATOM     29  C   UNL A   1      45.585  45.013  21.054  1.00  0.00     0.209 A 
ATOM     30  C   UNL A   1      44.974  47.830  18.997  1.00  0.00     0.114 C 
ATOM     31  C   UNL A   1      45.386  46.645  19.764  1.00  0.00     0.223 A 
ATOM     32  N   UNL A   1      45.006  46.257  20.958  1.00  0.00    -0.193 NA
ATOM     33  O   UNL A   1      46.210  45.755  19.139  1.00  0.00    -0.340 OA
ATOM     34  N   UNL A   1      46.352  44.671  20.007  1.00  0.00    -0.059 NA
ENDBRANCH  28  29
ENDBRANCH  27  28
ENDBRANCH  22  27
ENDBRANCH  10  21
ENDBRANCH   7   9
ENDBRANCH   6   7
ENDBRANCH   5   6
ENDBRANCH   4   5
ENDBRANCH   3   4
ENDBRANCH   2   3
ENDBRANCH   1   2
BRANCH   1  35
ATOM     35  O   UNL A   1      50.109  36.610  27.280  1.00  0.00    -0.377 OA
BRANCH  35  36
ATOM     36  C   UNL A   1      48.971  37.207  27.896  1.00  0.00     0.188 C 
BRANCH  36  37
ATOM     37  C   UNL A   1      49.085  38.202  29.087  1.00  0.00     0.188 C 
BRANCH  37  38
ATOM     38  O   UNL A   1      47.957  38.272  29.947  1.00  0.00    -0.376 OA
BRANCH  38  39
ATOM     39  C   UNL A   1      48.029  38.613  31.316  1.00  0.00     0.202 C 
BRANCH  39  40
ATOM     40  C   UNL A   1      46.764  39.155  31.965  1.00  0.00     0.261 C 
BRANCH  40  41
ATOM     41  O   UNL A   1      45.595  38.603  31.405  1.00  0.00    -0.460 OA
BRANCH  41  42
ATOM     42  C   UNL A   1      44.692  38.190  32.311  1.00  0.00     0.338 C 
ATOM     43  O   UNL A   1      43.857  38.869  32.895  1.00  0.00    -0.246 OA
BRANCH  42  44
ATOM     44  C   UNL A   1      44.960  36.785  32.589  1.00  0.00     0.060 A 
ATOM     45  C   UNL A   1      45.295  36.007  31.481  1.00  0.00     0.016 A 
ATOM     46  C   UNL A   1      44.389  36.261  33.758  1.00  0.00     0.016 A 
ATOM     47  C   UNL A   1      44.747  34.755  31.410  1.00  0.00     0.010 A 
ATOM     48  C   UNL A   1      43.791  35.044  33.659  1.00  0.00     0.010 A 
ATOM     49  C   UNL A   1      43.905  34.358  32.450  1.00  0.00    -0.014 A 
BRANCH  49  50
ATOM     50  C   UNL A   1      43.180  33.124  32.315  1.00  0.00     0.031 A 
ATOM     51  C   UNL A   1      41.722  33.347  32.397  1.00  0.00     0.074 A 
ATOM     52  C   UNL A   1      43.837  31.998  31.980  1.00  0.00     0.049 A 
ATOM     53  N   UNL A   1      40.898  32.871  33.268  1.00  0.00    -0.248 NA
ATOM     54  C   UNL A   1      41.143  34.413  31.551  1.00  0.00     0.031 C 
ATOM     55  C   UNL A   1      45.263  31.852  31.662  1.00  0.00     0.029 A 
ATOM     56  N   UNL A   1      43.340  30.767  31.702  1.00  0.00    -0.354 N 
ATOM     57  C   UNL A   1      39.656  33.368  32.891  1.00  0.00     0.074 A 
ATOM     58  C   UNL A   1      39.902  34.485  32.027  1.00  0.00     0.031 C 
ATOM     59  C   UNL A   1      45.456  30.682  31.014  1.00  0.00     0.029 A 
ATOM     60  C   UNL A   1      44.195  29.967  30.950  1.00  0.00     0.049 A 
ATOM     61  H   UNL A   1      42.452  30.467  32.006  1.00  0.00     0.167 HD
ATOM     62  C   UNL A   1      38.537  32.616  33.047  1.00  0.00     0.037 A 
ATOM     63  C   UNL A   1      43.814  28.885  30.220  1.00  0.00     0.037 A 
ATOM     64  C   UNL A   1      38.744  31.581  34.028  1.00  0.00     0.049 A 
ATOM     65  C   UNL A   1      42.487  28.458  30.759  1.00  0.00     0.074 A 
ATOM     66  C   UNL A   1      39.132  31.591  35.356  1.00  0.00     0.029 A 
ATOM     67  N   UNL A   1      38.958  30.299  33.578  1.00  0.00    -0.354 N 
ATOM     68  N   UNL A   1      42.318  27.982  31.966  1.00  0.00    -0.248 NA
ATOM     69  C   UNL A   1      41.292  29.029  30.150  1.00  0.00     0.031 C 
ATOM     70  C   UNL A   1      39.987  30.462  35.500  1.00  0.00     0.029 A 
ATOM     71  C   UNL A   1      40.014  29.780  34.284  1.00  0.00     0.049 A 
ATOM     72  H   UNL A   1      38.445  29.838  32.876  1.00  0.00     0.167 HD
ATOM     73  C   UNL A   1      41.143  28.568  32.422  1.00  0.00     0.074 A 
ATOM     74  C   UNL A   1      40.518  29.144  31.234  1.00  0.00     0.031 C 
ATOM     75  C   UNL A   1      40.936  28.796  33.754  1.00  0.00     0.037 A 
BRANCH  62  76
ATOM     76  C   UNL A   1      37.433  32.574  32.020  1.00  0.00     0.058 A 
ATOM     77  C   UNL A   1      37.738  32.151  30.714  1.00  0.00     0.135 A 
ATOM     78  C   UNL A   1      36.166  33.184  32.185  1.00  0.00     0.135 A 
ATOM     79  F   UNL A   1      38.918  31.569  30.444  1.00  0.00    -0.206 F 
ATOM     80  C   UNL A   1      36.883  32.387  29.639  1.00  0.00     0.059 A 
ATOM     81  C   UNL A   1      35.275  33.372  31.140  1.00  0.00     0.059 A 
ATOM     82  F   UNL A   1      35.762  33.722  33.341  1.00  0.00    -0.206 F 
ATOM     83  C   UNL A   1      35.660  33.014  29.863  1.00  0.00     0.060 A 
BRANCH  83  84
ATOM     84  S   UNL A   1      34.603  33.421  28.466  1.00  0.00     0.124 S 
ATOM     85  O   UNL A   1      33.282  33.129  29.010  1.00  0.00    -0.237 OA
ATOM     86  O   UNL A   1      34.914  34.831  28.256  1.00  0.00    -0.237 OA
ATOM     87  O   UNL A   1      35.070  32.519  27.417  1.00  0.00    -0.744 OA
ENDBRANCH  83  84
ENDBRANCH  62  76
BRANCH  63  88
ATOM     88  C   UNL A   1      44.315  28.487  28.870  1.00  0.00     0.058 A 
ATOM     89  C   UNL A   1      44.203  29.355  27.768  1.00  0.00     0.135 A 
ATOM     90  C   UNL A   1      45.145  27.361  28.678  1.00  0.00     0.135 A 
ATOM     91  F   UNL A   1      43.451  30.464  27.856  1.00  0.00    -0.206 F 
ATOM     92  C   UNL A   1      44.910  29.149  26.575  1.00  0.00     0.059 A 
ATOM     93  C   UNL A   1      45.841  27.125  27.495  1.00  0.00     0.059 A 
ATOM     94  F   UNL A   1      45.389  26.492  29.668  1.00  0.00    -0.206 F 
ATOM     95  C   UNL A   1      45.746  28.038  26.456  1.00  0.00     0.060 A 
BRANCH  95  96
ATOM     96  S   UNL A   1      46.814  27.859  25.008  1.00  0.00     0.124 S 
ATOM     97  O   UNL A   1      48.144  27.905  25.606  1.00  0.00    -0.237 OA
ATOM     98  O   UNL A   1      46.397  26.567  24.475  1.00  0.00    -0.237 OA
ATOM     99  O   UNL A   1      46.461  29.012  24.183  1.00  0.00    -0.744 OA
ENDBRANCH  95  96
ENDBRANCH  63  88
BRANCH  75 100
ATOM    100  C   UNL A   1      41.877  28.159  34.747  1.00  0.00     0.058 A 
ATOM    101  C   UNL A   1      41.783  26.827  35.190  1.00  0.00     0.135 A 
ATOM    102  C   UNL A   1      43.017  28.879  35.131  1.00  0.00     0.135 A 
ATOM    103  F   UNL A   1      40.787  26.032  34.776  1.00  0.00    -0.206 F 
ATOM    104  C   UNL A   1      42.753  26.253  36.014  1.00  0.00     0.059 A 
ATOM    105  C   UNL A   1      44.015  28.318  35.923  1.00  0.00     0.059 A 
ATOM    106  F   UNL A   1      43.201  30.133  34.686  1.00  0.00    -0.206 F 
ATOM    107  C   UNL A   1      43.868  27.008  36.375  1.00  0.00     0.060 A 
BRANCH 107 108
ATOM    108  S   UNL A   1      45.160  26.248  37.381  1.00  0.00     0.124 S 
ATOM    109  O   UNL A   1      44.388  25.379  38.263  1.00  0.00    -0.237 OA
ATOM    110  O   UNL A   1      45.983  25.569  36.384  1.00  0.00    -0.237 OA
ATOM    111  O   UNL A   1      45.801  27.387  38.034  1.00  0.00    -0.744 OA
ENDBRANCH 107 108
ENDBRANCH  75 100
ENDBRANCH  49  50
ENDBRANCH  42  44
ENDBRANCH  41  42
ENDBRANCH  40  41
ENDBRANCH  39  40
ENDBRANCH  38  39
ENDBRANCH  37  38
ENDBRANCH  36  37
ENDBRANCH  35  36
ENDBRANCH   1  35
TORSDOF 27
ENDMDL
