MODEL 1
REMARK VINA RESULT:     -10.1      0.000      0.000
REMARK SMILES O=C(CN(C(=O)[C@H]1CC[C@H]2CCCC[C@H]2[NH2+]1)C1CC1)OCCOCCOCCOCCOC(=O)c1ccc(-c2c3nc(c(-c4c(F)cc(S(=O)(=O)[O-])cc4F)c4ccc([nH]4)c(-c4c(F)cc(S(=O)(=O)[O-])cc4F)c4nc(c(-c5c(F)cc(S(=O)(=O)[O-])cc5F)c5ccc2[nH]5)C=C4)C=C3)cc1
REMARK SMILES IDX 26 1 25 2 24 3 23 4 22 5 21 6 20 7 2 8 1 9 3 10 4 11 5 12
REMARK SMILES IDX 6 13 7 14 8 15 16 16 9 17 15 18 10 21 14 22 11 23 13 24
REMARK SMILES IDX 12 25 17 26 18 27 19 28 27 29 28 30 29 31 30 32 31 33 32 34
REMARK SMILES IDX 33 35 34 36 35 37 36 38 100 39 37 40 99 41 38 42 39 43 40 44
REMARK SMILES IDX 93 45 41 46 98 47 92 48 94 49 42 50 97 51 91 52 90 53 43 55
REMARK SMILES IDX 77 56 56 57 76 58 57 59 60 60 75 61 95 62 58 63 59 64 74 66
REMARK SMILES IDX 96 67 61 68 44 69 45 70 54 71 46 72 47 73 53 74 55 75 48 76
REMARK SMILES IDX 49 77 50 78 51 79 52 80 78 81 79 82 88 83 80 84 81 85 87 86
REMARK SMILES IDX 89 87 82 88 83 89 84 90 85 91 86 92 62 93 63 94 72 95 64 96
REMARK SMILES IDX 65 97 71 98 73 99 66 100 67 101 68 102 69 103 70 104
REMARK H PARENT 16 19 16 20 94 54 60 65
REMARK Flexibility Score: inf
ROOT
ATOM      1  O   UNL A   1      40.763  20.434  27.500  1.00  0.00    -0.377 OA
ENDROOT
BRANCH   1   2
ATOM      2  C   UNL A   1      40.031  20.828  26.349  1.00  0.00     0.188 C 
BRANCH   2   3
ATOM      3  C   UNL A   1      39.253  22.147  26.359  1.00  0.00     0.188 C 
BRANCH   3   4
ATOM      4  O   UNL A   1      37.959  22.131  25.755  1.00  0.00    -0.376 OA
BRANCH   4   5
ATOM      5  C   UNL A   1      37.713  23.212  24.858  1.00  0.00     0.202 C 
BRANCH   5   6
ATOM      6  C   UNL A   1      36.591  22.838  23.905  1.00  0.00     0.261 C 
BRANCH   6   7
ATOM      7  O   UNL A   1      35.558  23.849  23.850  1.00  0.00    -0.462 OA
BRANCH   7   8
ATOM      8  C   UNL A   1      34.255  23.665  24.182  1.00  0.00     0.325 C 
ATOM      9  O   UNL A   1      33.427  23.510  23.278  1.00  0.00    -0.250 OA
BRANCH   8  10
ATOM     10  C   UNL A   1      33.783  23.712  25.648  1.00  0.00     0.242 C 
BRANCH  10  11
ATOM     11  N   UNL A   1      33.065  22.523  26.094  1.00  0.00    -0.323 N 
BRANCH  11  12
ATOM     12  C   UNL A   1      33.512  21.207  25.934  1.00  0.00     0.281 C 
ATOM     13  O   UNL A   1      34.689  20.937  26.205  1.00  0.00    -0.268 OA
BRANCH  12  14
ATOM     14  C   UNL A   1      32.559  20.099  25.341  1.00  0.00     0.273 C 
ATOM     15  C   UNL A   1      32.744  20.166  23.808  1.00  0.00     0.076 C 
ATOM     16  N   UNL A   1      32.909  18.757  25.883  1.00  0.00    -0.333 N 
ATOM     17  C   UNL A   1      32.176  18.970  23.053  1.00  0.00     0.016 C 
ATOM     18  C   UNL A   1      32.302  17.630  25.140  1.00  0.00     0.186 C 
ATOM     19  H   UNL A   1      32.592  18.710  26.851  1.00  0.00     0.347 HD
ATOM     20  H   UNL A   1      33.920  18.657  25.794  1.00  0.00     0.347 HD
ATOM     21  C   UNL A   1      32.657  17.647  23.649  1.00  0.00     0.048 C 
ATOM     22  C   UNL A   1      32.719  16.248  25.673  1.00  0.00     0.065 C 
ATOM     23  C   UNL A   1      34.153  17.372  23.393  1.00  0.00     0.010 C 
ATOM     24  C   UNL A   1      34.220  16.033  25.613  1.00  0.00     0.006 C 
ATOM     25  C   UNL A   1      34.779  16.235  24.212  1.00  0.00     0.001 C 
ENDBRANCH  12  14
ENDBRANCH  11  12
BRANCH  11  26
ATOM     26  C   UNL A   1      31.673  22.769  26.455  1.00  0.00     0.086 C 
ATOM     27  C   UNL A   1      31.047  24.132  26.489  1.00  0.00     0.027 C 
ATOM     28  C   UNL A   1      30.663  23.181  25.400  1.00  0.00     0.027 C 
ENDBRANCH  11  26
ENDBRANCH  10  11
ENDBRANCH   8  10
ENDBRANCH   7   8
ENDBRANCH   6   7
ENDBRANCH   5   6
ENDBRANCH   4   5
ENDBRANCH   3   4
ENDBRANCH   2   3
ENDBRANCH   1   2
BRANCH   1  29
ATOM     29  C   UNL A   1      42.178  20.398  27.430  1.00  0.00     0.188 C 
BRANCH  29  30
ATOM     30  C   UNL A   1      42.838  20.135  26.070  1.00  0.00     0.188 C 
BRANCH  30  31
ATOM     31  O   UNL A   1      43.823  21.096  25.751  1.00  0.00    -0.376 OA
BRANCH  31  32
ATOM     32  C   UNL A   1      43.368  22.230  25.043  1.00  0.00     0.202 C 
BRANCH  32  33
ATOM     33  C   UNL A   1      43.392  23.605  25.744  1.00  0.00     0.261 C 
BRANCH  33  34
ATOM     34  O   UNL A   1      42.162  24.091  26.307  1.00  0.00    -0.460 OA
BRANCH  34  35
ATOM     35  C   UNL A   1      41.841  25.385  26.062  1.00  0.00     0.338 C 
ATOM     36  O   UNL A   1      41.491  25.845  24.983  1.00  0.00    -0.246 OA
BRANCH  35  37
ATOM     37  C   UNL A   1      41.788  26.155  27.330  1.00  0.00     0.060 A 
ATOM     38  C   UNL A   1      40.698  25.947  28.190  1.00  0.00     0.016 A 
ATOM     39  C   UNL A   1      42.779  27.078  27.677  1.00  0.00     0.016 A 
ATOM     40  C   UNL A   1      40.599  26.651  29.393  1.00  0.00     0.010 A 
ATOM     41  C   UNL A   1      42.651  27.822  28.860  1.00  0.00     0.010 A 
ATOM     42  C   UNL A   1      41.548  27.630  29.713  1.00  0.00    -0.014 A 
BRANCH  42  43
ATOM     43  C   UNL A   1      41.242  28.608  30.791  1.00  0.00     0.031 A 
ATOM     44  C   UNL A   1      42.070  28.542  32.049  1.00  0.00     0.074 A 
ATOM     45  C   UNL A   1      40.302  29.563  30.657  1.00  0.00     0.049 A 
ATOM     46  N   UNL A   1      42.001  29.268  33.134  1.00  0.00    -0.248 NA
ATOM     47  C   UNL A   1      43.123  27.512  32.082  1.00  0.00     0.031 C 
ATOM     48  C   UNL A   1      39.461  29.767  29.480  1.00  0.00     0.029 A 
ATOM     49  N   UNL A   1      39.896  30.543  31.532  1.00  0.00    -0.354 N 
ATOM     50  C   UNL A   1      43.005  28.793  33.970  1.00  0.00     0.074 A 
ATOM     51  C   UNL A   1      43.638  27.687  33.288  1.00  0.00     0.031 C 
ATOM     52  C   UNL A   1      38.624  30.795  29.714  1.00  0.00     0.029 A 
ATOM     53  C   UNL A   1      38.853  31.309  31.065  1.00  0.00     0.049 A 
ATOM     54  H   UNL A   1      40.314  30.684  32.413  1.00  0.00     0.167 HD
ATOM     55  C   UNL A   1      43.380  29.246  35.190  1.00  0.00     0.037 A 
ATOM     56  C   UNL A   1      38.152  32.294  31.667  1.00  0.00     0.037 A 
ATOM     57  C   UNL A   1      42.737  30.332  35.882  1.00  0.00     0.049 A 
ATOM     58  C   UNL A   1      38.534  32.726  33.065  1.00  0.00     0.074 A 
ATOM     59  C   UNL A   1      43.030  30.851  37.130  1.00  0.00     0.029 A 
ATOM     60  N   UNL A   1      41.667  31.062  35.387  1.00  0.00    -0.354 N 
ATOM     61  N   UNL A   1      39.495  32.277  33.839  1.00  0.00    -0.248 NA
ATOM     62  C   UNL A   1      37.739  33.807  33.669  1.00  0.00     0.031 C 
ATOM     63  C   UNL A   1      42.106  31.863  37.411  1.00  0.00     0.029 A 
ATOM     64  C   UNL A   1      41.277  32.016  36.311  1.00  0.00     0.049 A 
ATOM     65  H   UNL A   1      41.246  30.922  34.508  1.00  0.00     0.167 HD
ATOM     66  C   UNL A   1      39.439  33.043  35.002  1.00  0.00     0.074 A 
ATOM     67  C   UNL A   1      38.363  33.993  34.824  1.00  0.00     0.031 C 
ATOM     68  C   UNL A   1      40.209  32.966  36.118  1.00  0.00     0.037 A 
BRANCH  55  69
ATOM     69  C   UNL A   1      44.536  28.553  35.859  1.00  0.00     0.058 A 
ATOM     70  C   UNL A   1      44.339  27.457  36.716  1.00  0.00     0.135 A 
ATOM     71  C   UNL A   1      45.855  28.967  35.620  1.00  0.00     0.135 A 
ATOM     72  F   UNL A   1      43.097  27.033  36.999  1.00  0.00    -0.206 F 
ATOM     73  C   UNL A   1      45.408  26.812  37.329  1.00  0.00     0.059 A 
ATOM     74  C   UNL A   1      46.942  28.317  36.199  1.00  0.00     0.059 A 
ATOM     75  F   UNL A   1      46.101  30.013  34.815  1.00  0.00    -0.206 F 
ATOM     76  C   UNL A   1      46.706  27.248  37.062  1.00  0.00     0.060 A 
BRANCH  76  77
ATOM     77  S   UNL A   1      48.082  26.388  37.854  1.00  0.00     0.124 S 
ATOM     78  O   UNL A   1      47.649  24.998  37.761  1.00  0.00    -0.237 OA
ATOM     79  O   UNL A   1      49.210  26.759  37.006  1.00  0.00    -0.237 OA
ATOM     80  O   UNL A   1      48.103  26.949  39.201  1.00  0.00    -0.744 OA
ENDBRANCH  76  77
ENDBRANCH  55  69
BRANCH  56  81
ATOM     81  C   UNL A   1      36.997  32.932  30.974  1.00  0.00     0.058 A 
ATOM     82  C   UNL A   1      35.671  32.609  31.303  1.00  0.00     0.135 A 
ATOM     83  C   UNL A   1      37.198  33.847  29.928  1.00  0.00     0.135 A 
ATOM     84  F   UNL A   1      35.419  31.725  32.282  1.00  0.00    -0.206 F 
ATOM     85  C   UNL A   1      34.590  33.146  30.607  1.00  0.00     0.059 A 
ATOM     86  C   UNL A   1      36.135  34.423  29.239  1.00  0.00     0.059 A 
ATOM     87  F   UNL A   1      38.444  34.197  29.572  1.00  0.00    -0.206 F 
ATOM     88  C   UNL A   1      34.834  34.054  29.576  1.00  0.00     0.060 A 
BRANCH  88  89
ATOM     89  S   UNL A   1      33.427  34.767  28.695  1.00  0.00     0.124 S 
ATOM     90  O   UNL A   1      32.484  34.999  29.783  1.00  0.00    -0.237 OA
ATOM     91  O   UNL A   1      34.015  35.959  28.093  1.00  0.00    -0.237 OA
ATOM     92  O   UNL A   1      33.056  33.717  27.751  1.00  0.00    -0.744 OA
ENDBRANCH  88  89
ENDBRANCH  56  81
BRANCH  68  93
ATOM     93  C   UNL A   1      39.949  33.965  37.217  1.00  0.00     0.058 A 
ATOM     94  C   UNL A   1      40.460  35.271  37.172  1.00  0.00     0.135 A 
ATOM     95  C   UNL A   1      39.142  33.618  38.314  1.00  0.00     0.135 A 
ATOM     96  F   UNL A   1      41.237  35.659  36.149  1.00  0.00    -0.206 F 
ATOM     97  C   UNL A   1      40.216  36.184  38.195  1.00  0.00     0.059 A 
ATOM     98  C   UNL A   1      38.857  34.524  39.331  1.00  0.00     0.059 A 
ATOM     99  F   UNL A   1      38.611  32.387  38.402  1.00  0.00    -0.206 F 
ATOM    100  C   UNL A   1      39.414  35.800  39.271  1.00  0.00     0.060 A 
BRANCH 100 101
ATOM    101  S   UNL A   1      39.097  36.997  40.586  1.00  0.00     0.124 S 
ATOM    102  O   UNL A   1      38.199  36.247  41.456  1.00  0.00    -0.237 OA
ATOM    103  O   UNL A   1      40.436  37.242  41.114  1.00  0.00    -0.237 OA
ATOM    104  O   UNL A   1      38.492  38.125  39.882  1.00  0.00    -0.744 OA
ENDBRANCH 100 101
ENDBRANCH  68  93
ENDBRANCH  42  43
ENDBRANCH  35  37
ENDBRANCH  34  35
ENDBRANCH  33  34
ENDBRANCH  32  33
ENDBRANCH  31  32
ENDBRANCH  30  31
ENDBRANCH  29  30
ENDBRANCH   1  29
TORSDOF 27
ENDMDL
MODEL 2
REMARK VINA RESULT:      -9.1      1.877      8.737
REMARK SMILES O=C(CN(C(=O)[C@H]1CC[C@H]2CCCC[C@H]2[NH2+]1)C1CC1)OCCOCCOCCOCCOC(=O)c1ccc(-c2c3nc(c(-c4c(F)cc(S(=O)(=O)[O-])cc4F)c4ccc([nH]4)c(-c4c(F)cc(S(=O)(=O)[O-])cc4F)c4nc(c(-c5c(F)cc(S(=O)(=O)[O-])cc5F)c5ccc2[nH]5)C=C4)C=C3)cc1
REMARK SMILES IDX 26 1 25 2 24 3 23 4 22 5 21 6 20 7 2 8 1 9 3 10 4 11 5 12
REMARK SMILES IDX 6 13 7 14 8 15 16 16 9 17 15 18 10 21 14 22 11 23 13 24
REMARK SMILES IDX 12 25 17 26 18 27 19 28 27 29 28 30 29 31 30 32 31 33 32 34
REMARK SMILES IDX 33 35 34 36 35 37 36 38 100 39 37 40 99 41 38 42 39 43 40 44
REMARK SMILES IDX 93 45 41 46 98 47 92 48 94 49 42 50 97 51 91 52 90 53 43 55
REMARK SMILES IDX 77 56 56 57 76 58 57 59 60 60 75 61 95 62 58 63 59 64 74 66
REMARK SMILES IDX 96 67 61 68 44 69 45 70 54 71 46 72 47 73 53 74 55 75 48 76
REMARK SMILES IDX 49 77 50 78 51 79 52 80 78 81 79 82 88 83 80 84 81 85 87 86
REMARK SMILES IDX 89 87 82 88 83 89 84 90 85 91 86 92 62 93 63 94 72 95 64 96
REMARK SMILES IDX 65 97 71 98 73 99 66 100 67 101 68 102 69 103 70 104
REMARK H PARENT 16 19 16 20 94 54 60 65
REMARK Flexibility Score: inf
ROOT
ATOM      1  O   UNL A   1      38.539  22.128  26.168  1.00  0.00    -0.377 OA
ENDROOT
BRANCH   1   2
ATOM      2  C   UNL A   1      38.365  21.068  25.239  1.00  0.00     0.188 C 
BRANCH   2   3
ATOM      3  C   UNL A   1      36.961  20.527  24.961  1.00  0.00     0.188 C 
BRANCH   3   4
ATOM      4  O   UNL A   1      35.905  21.487  24.895  1.00  0.00    -0.376 OA
BRANCH   4   5
ATOM      5  C   UNL A   1      34.958  21.396  25.956  1.00  0.00     0.202 C 
BRANCH   5   6
ATOM      6  C   UNL A   1      33.928  20.328  25.629  1.00  0.00     0.261 C 
BRANCH   6   7
ATOM      7  O   UNL A   1      32.618  20.887  25.378  1.00  0.00    -0.462 OA
BRANCH   7   8
ATOM      8  C   UNL A   1      32.188  21.387  24.191  1.00  0.00     0.325 C 
ATOM      9  O   UNL A   1      32.222  20.662  23.193  1.00  0.00    -0.250 OA
BRANCH   8  10
ATOM     10  C   UNL A   1      31.725  22.851  24.056  1.00  0.00     0.242 C 
BRANCH  10  11
ATOM     11  N   UNL A   1      32.760  23.843  24.327  1.00  0.00    -0.323 N 
BRANCH  11  12
ATOM     12  C   UNL A   1      32.864  24.594  25.503  1.00  0.00     0.281 C 
ATOM     13  O   UNL A   1      33.758  24.320  26.314  1.00  0.00    -0.268 OA
BRANCH  12  14
ATOM     14  C   UNL A   1      31.810  25.721  25.834  1.00  0.00     0.273 C 
ATOM     15  C   UNL A   1      32.632  26.914  26.375  1.00  0.00     0.076 C 
ATOM     16  N   UNL A   1      31.031  26.089  24.620  1.00  0.00    -0.333 N 
ATOM     17  C   UNL A   1      31.861  28.227  26.446  1.00  0.00     0.016 C 
ATOM     18  C   UNL A   1      30.269  27.351  24.752  1.00  0.00     0.186 C 
ATOM     19  H   UNL A   1      30.372  25.337  24.422  1.00  0.00     0.347 HD
ATOM     20  H   UNL A   1      31.706  26.230  23.868  1.00  0.00     0.347 HD
ATOM     21  C   UNL A   1      31.160  28.541  25.124  1.00  0.00     0.048 C 
ATOM     22  C   UNL A   1      29.516  27.751  23.471  1.00  0.00     0.065 C 
ATOM     23  C   UNL A   1      32.137  28.926  23.993  1.00  0.00     0.010 C 
ATOM     24  C   UNL A   1      30.448  27.943  22.289  1.00  0.00     0.006 C 
ATOM     25  C   UNL A   1      31.549  28.953  22.576  1.00  0.00     0.001 C 
ENDBRANCH  12  14
ENDBRANCH  11  12
BRANCH  11  26
ATOM     26  C   UNL A   1      33.527  24.240  23.152  1.00  0.00     0.086 C 
ATOM     27  C   UNL A   1      32.999  25.142  22.076  1.00  0.00     0.027 C 
ATOM     28  C   UNL A   1      34.045  25.659  23.011  1.00  0.00     0.027 C 
ENDBRANCH  11  26
ENDBRANCH  10  11
ENDBRANCH   8  10
ENDBRANCH   7   8
ENDBRANCH   6   7
ENDBRANCH   5   6
ENDBRANCH   4   5
ENDBRANCH   3   4
ENDBRANCH   2   3
ENDBRANCH   1   2
BRANCH   1  29
ATOM     29  C   UNL A   1      39.793  22.273  26.811  1.00  0.00     0.188 C 
BRANCH  29  30
ATOM     30  C   UNL A   1      40.809  21.128  26.703  1.00  0.00     0.188 C 
BRANCH  30  31
ATOM     31  O   UNL A   1      42.081  21.570  26.277  1.00  0.00    -0.376 OA
BRANCH  31  32
ATOM     32  C   UNL A   1      42.130  22.874  25.737  1.00  0.00     0.202 C 
BRANCH  32  33
ATOM     33  C   UNL A   1      43.501  23.563  25.575  1.00  0.00     0.261 C 
BRANCH  33  34
ATOM     34  O   UNL A   1      43.956  24.408  26.646  1.00  0.00    -0.460 OA
BRANCH  34  35
ATOM     35  C   UNL A   1      44.083  25.729  26.376  1.00  0.00     0.338 C 
ATOM     36  O   UNL A   1      44.518  26.210  25.337  1.00  0.00    -0.246 OA
BRANCH  35  37
ATOM     37  C   UNL A   1      43.446  26.541  27.443  1.00  0.00     0.060 A 
ATOM     38  C   UNL A   1      43.749  27.910  27.509  1.00  0.00     0.016 A 
ATOM     39  C   UNL A   1      42.572  25.979  28.377  1.00  0.00     0.016 A 
ATOM     40  C   UNL A   1      43.179  28.717  28.497  1.00  0.00     0.010 A 
ATOM     41  C   UNL A   1      42.040  26.779  29.400  1.00  0.00     0.010 A 
ATOM     42  C   UNL A   1      42.361  28.147  29.481  1.00  0.00    -0.014 A 
BRANCH  42  43
ATOM     43  C   UNL A   1      42.063  28.926  30.712  1.00  0.00     0.031 A 
ATOM     44  C   UNL A   1      40.864  29.841  30.686  1.00  0.00     0.074 A 
ATOM     45  C   UNL A   1      42.786  28.801  31.841  1.00  0.00     0.049 A 
ATOM     46  N   UNL A   1      40.395  30.631  31.617  1.00  0.00    -0.248 NA
ATOM     47  C   UNL A   1      40.089  29.863  29.434  1.00  0.00     0.031 C 
ATOM     48  C   UNL A   1      43.941  27.923  32.017  1.00  0.00     0.029 A 
ATOM     49  N   UNL A   1      42.652  29.425  33.059  1.00  0.00    -0.354 N 
ATOM     50  C   UNL A   1      39.267  31.231  31.069  1.00  0.00     0.074 A 
ATOM     51  C   UNL A   1      39.148  30.751  29.711  1.00  0.00     0.031 C 
ATOM     52  C   UNL A   1      44.422  28.081  33.264  1.00  0.00     0.029 A 
ATOM     53  C   UNL A   1      43.626  29.086  33.969  1.00  0.00     0.049 A 
ATOM     54  H   UNL A   1      41.925  30.059  33.262  1.00  0.00     0.167 HD
ATOM     55  C   UNL A   1      38.396  32.091  31.648  1.00  0.00     0.037 A 
ATOM     56  C   UNL A   1      43.859  29.548  35.216  1.00  0.00     0.037 A 
ATOM     57  C   UNL A   1      38.526  32.589  32.992  1.00  0.00     0.049 A 
ATOM     58  C   UNL A   1      42.922  30.575  35.812  1.00  0.00     0.074 A 
ATOM     59  C   UNL A   1      37.707  33.480  33.662  1.00  0.00     0.029 A 
ATOM     60  N   UNL A   1      39.541  32.242  33.870  1.00  0.00    -0.354 N 
ATOM     61  N   UNL A   1      41.851  31.124  35.287  1.00  0.00    -0.248 NA
ATOM     62  C   UNL A   1      43.221  31.039  37.176  1.00  0.00     0.031 C 
ATOM     63  C   UNL A   1      38.254  33.710  34.929  1.00  0.00     0.029 A 
ATOM     64  C   UNL A   1      39.379  32.914  35.070  1.00  0.00     0.049 A 
ATOM     65  H   UNL A   1      40.270  31.611  33.671  1.00  0.00     0.167 HD
ATOM     66  C   UNL A   1      41.334  31.969  36.268  1.00  0.00     0.074 A 
ATOM     67  C   UNL A   1      42.199  31.846  37.421  1.00  0.00     0.031 C 
ATOM     68  C   UNL A   1      40.242  32.775  36.218  1.00  0.00     0.037 A 
BRANCH  55  69
ATOM     69  C   UNL A   1      37.233  32.560  30.817  1.00  0.00     0.058 A 
ATOM     70  C   UNL A   1      37.379  33.568  29.850  1.00  0.00     0.135 A 
ATOM     71  C   UNL A   1      35.965  31.977  30.968  1.00  0.00     0.135 A 
ATOM     72  F   UNL A   1      38.563  34.177  29.681  1.00  0.00    -0.206 F 
ATOM     73  C   UNL A   1      36.305  33.996  29.078  1.00  0.00     0.059 A 
ATOM     74  C   UNL A   1      34.883  32.368  30.184  1.00  0.00     0.059 A 
ATOM     75  F   UNL A   1      35.767  31.013  31.882  1.00  0.00    -0.206 F 
ATOM     76  C   UNL A   1      35.060  33.388  29.251  1.00  0.00     0.060 A 
BRANCH  76  77
ATOM     77  S   UNL A   1      33.681  33.946  28.228  1.00  0.00     0.124 S 
ATOM     78  O   UNL A   1      34.343  34.894  27.338  1.00  0.00    -0.237 OA
ATOM     79  O   UNL A   1      33.232  32.703  27.609  1.00  0.00    -0.237 OA
ATOM     80  O   UNL A   1      32.757  34.532  29.193  1.00  0.00    -0.744 OA
ENDBRANCH  76  77
ENDBRANCH  55  69
BRANCH  56  81
ATOM     81  C   UNL A   1      45.042  29.075  35.989  1.00  0.00     0.058 A 
ATOM     82  C   UNL A   1      46.276  29.742  35.930  1.00  0.00     0.135 A 
ATOM     83  C   UNL A   1      44.974  27.909  36.770  1.00  0.00     0.135 A 
ATOM     84  F   UNL A   1      46.403  30.851  35.185  1.00  0.00    -0.206 F 
ATOM     85  C   UNL A   1      47.403  29.260  36.592  1.00  0.00     0.059 A 
ATOM     86  C   UNL A   1      46.078  27.425  37.467  1.00  0.00     0.059 A 
ATOM     87  F   UNL A   1      43.820  27.231  36.867  1.00  0.00    -0.206 F 
ATOM     88  C   UNL A   1      47.292  28.099  37.359  1.00  0.00     0.060 A 
BRANCH  88  89
ATOM     89  S   UNL A   1      48.752  27.495  38.235  1.00  0.00     0.124 S 
ATOM     90  O   UNL A   1      48.607  28.143  39.533  1.00  0.00    -0.237 OA
ATOM     91  O   UNL A   1      48.545  26.051  38.215  1.00  0.00    -0.237 OA
ATOM     92  O   UNL A   1      49.859  27.972  37.411  1.00  0.00    -0.744 OA
ENDBRANCH  88  89
ENDBRANCH  56  81
BRANCH  68  93
ATOM     93  C   UNL A   1      39.890  33.553  37.460  1.00  0.00     0.058 A 
ATOM     94  C   UNL A   1      40.489  34.785  37.762  1.00  0.00     0.135 A 
ATOM     95  C   UNL A   1      38.908  33.071  38.343  1.00  0.00     0.135 A 
ATOM     96  F   UNL A   1      41.433  35.294  36.955  1.00  0.00    -0.206 F 
ATOM     97  C   UNL A   1      40.158  35.493  38.915  1.00  0.00     0.059 A 
ATOM     98  C   UNL A   1      38.537  33.778  39.483  1.00  0.00     0.059 A 
ATOM     99  F   UNL A   1      38.288  31.906  38.097  1.00  0.00    -0.206 F 
ATOM    100  C   UNL A   1      39.181  34.980  39.770  1.00  0.00     0.060 A 
BRANCH 100 101
ATOM    101  S   UNL A   1      38.754  35.913  41.256  1.00  0.00     0.124 S 
ATOM    102  O   UNL A   1      37.496  35.286  41.645  1.00  0.00    -0.237 OA
ATOM    103  O   UNL A   1      39.893  35.645  42.130  1.00  0.00    -0.237 OA
ATOM    104  O   UNL A   1      38.649  37.288  40.778  1.00  0.00    -0.744 OA
ENDBRANCH 100 101
ENDBRANCH  68  93
ENDBRANCH  42  43
ENDBRANCH  35  37
ENDBRANCH  34  35
ENDBRANCH  33  34
ENDBRANCH  32  33
ENDBRANCH  31  32
ENDBRANCH  30  31
ENDBRANCH  29  30
ENDBRANCH   1  29
TORSDOF 27
ENDMDL
MODEL 3
REMARK VINA RESULT:      -9.0      1.746      3.759
REMARK SMILES O=C(CN(C(=O)[C@H]1CC[C@H]2CCCC[C@H]2[NH2+]1)C1CC1)OCCOCCOCCOCCOC(=O)c1ccc(-c2c3nc(c(-c4c(F)cc(S(=O)(=O)[O-])cc4F)c4ccc([nH]4)c(-c4c(F)cc(S(=O)(=O)[O-])cc4F)c4nc(c(-c5c(F)cc(S(=O)(=O)[O-])cc5F)c5ccc2[nH]5)C=C4)C=C3)cc1
REMARK SMILES IDX 26 1 25 2 24 3 23 4 22 5 21 6 20 7 2 8 1 9 3 10 4 11 5 12
REMARK SMILES IDX 6 13 7 14 8 15 16 16 9 17 15 18 10 21 14 22 11 23 13 24
REMARK SMILES IDX 12 25 17 26 18 27 19 28 27 29 28 30 29 31 30 32 31 33 32 34
REMARK SMILES IDX 33 35 34 36 35 37 36 38 100 39 37 40 99 41 38 42 39 43 40 44
REMARK SMILES IDX 93 45 41 46 98 47 92 48 94 49 42 50 97 51 91 52 90 53 43 55
REMARK SMILES IDX 77 56 56 57 76 58 57 59 60 60 75 61 95 62 58 63 59 64 74 66
REMARK SMILES IDX 96 67 61 68 44 69 45 70 54 71 46 72 47 73 53 74 55 75 48 76
REMARK SMILES IDX 49 77 50 78 51 79 52 80 78 81 79 82 88 83 80 84 81 85 87 86
REMARK SMILES IDX 89 87 82 88 83 89 84 90 85 91 86 92 62 93 63 94 72 95 64 96
REMARK SMILES IDX 65 97 71 98 73 99 66 100 67 101 68 102 69 103 70 104
REMARK H PARENT 16 19 16 20 94 54 60 65
REMARK Flexibility Score: inf
ROOT
ATOM      1  O   UNL A   1      40.675  21.317  27.314  1.00  0.00    -0.377 OA
ENDROOT
BRANCH   1   2
ATOM      2  C   UNL A   1      40.111  21.667  26.058  1.00  0.00     0.188 C 
BRANCH   2   3
ATOM      3  C   UNL A   1      38.590  21.751  25.907  1.00  0.00     0.188 C 
BRANCH   3   4
ATOM      4  O   UNL A   1      37.972  22.971  26.321  1.00  0.00    -0.376 OA
BRANCH   4   5
ATOM      5  C   UNL A   1      37.280  23.663  25.285  1.00  0.00     0.202 C 
BRANCH   5   6
ATOM      6  C   UNL A   1      36.247  22.741  24.658  1.00  0.00     0.261 C 
BRANCH   6   7
ATOM      7  O   UNL A   1      35.001  23.422  24.383  1.00  0.00    -0.462 OA
BRANCH   7   8
ATOM      8  C   UNL A   1      34.181  23.172  23.329  1.00  0.00     0.325 C 
ATOM      9  O   UNL A   1      34.605  23.371  22.187  1.00  0.00    -0.250 OA
BRANCH   8  10
ATOM     10  C   UNL A   1      32.725  22.713  23.534  1.00  0.00     0.242 C 
BRANCH  10  11
ATOM     11  N   UNL A   1      32.013  23.409  24.601  1.00  0.00    -0.323 N 
BRANCH  11  12
ATOM     12  C   UNL A   1      31.746  24.782  24.626  1.00  0.00     0.281 C 
ATOM     13  O   UNL A   1      30.571  25.164  24.696  1.00  0.00    -0.268 OA
BRANCH  12  14
ATOM     14  C   UNL A   1      32.915  25.832  24.484  1.00  0.00     0.273 C 
ATOM     15  C   UNL A   1      32.573  26.670  23.231  1.00  0.00     0.076 C 
ATOM     16  N   UNL A   1      33.017  26.677  25.705  1.00  0.00    -0.333 N 
ATOM     17  C   UNL A   1      33.384  27.953  23.092  1.00  0.00     0.016 C 
ATOM     18  C   UNL A   1      33.847  27.890  25.532  1.00  0.00     0.186 C 
ATOM     19  H   UNL A   1      33.425  26.115  26.451  1.00  0.00     0.347 HD
ATOM     20  H   UNL A   1      32.073  26.995  25.923  1.00  0.00     0.347 HD
ATOM     21  C   UNL A   1      33.361  28.777  24.380  1.00  0.00     0.048 C 
ATOM     22  C   UNL A   1      33.895  28.786  26.783  1.00  0.00     0.065 C 
ATOM     23  C   UNL A   1      31.988  29.421  24.666  1.00  0.00     0.010 C 
ATOM     24  C   UNL A   1      32.519  29.272  27.200  1.00  0.00     0.006 C 
ATOM     25  C   UNL A   1      31.795  29.997  26.075  1.00  0.00     0.001 C 
ENDBRANCH  12  14
ENDBRANCH  11  12
BRANCH  11  26
ATOM     26  C   UNL A   1      31.854  22.625  25.821  1.00  0.00     0.086 C 
ATOM     27  C   UNL A   1      32.840  21.594  26.285  1.00  0.00     0.027 C 
ATOM     28  C   UNL A   1      32.736  22.888  27.028  1.00  0.00     0.027 C 
ENDBRANCH  11  26
ENDBRANCH  10  11
ENDBRANCH   8  10
ENDBRANCH   7   8
ENDBRANCH   6   7
ENDBRANCH   5   6
ENDBRANCH   4   5
ENDBRANCH   3   4
ENDBRANCH   2   3
ENDBRANCH   1   2
BRANCH   1  29
ATOM     29  C   UNL A   1      41.968  20.739  27.345  1.00  0.00     0.188 C 
BRANCH  29  30
ATOM     30  C   UNL A   1      42.579  20.239  26.029  1.00  0.00     0.188 C 
BRANCH  30  31
ATOM     31  O   UNL A   1      43.443  21.186  25.437  1.00  0.00    -0.376 OA
BRANCH  31  32
ATOM     32  C   UNL A   1      43.919  22.203  26.294  1.00  0.00     0.202 C 
BRANCH  32  33
ATOM     33  C   UNL A   1      43.660  23.677  25.917  1.00  0.00     0.261 C 
BRANCH  33  34
ATOM     34  O   UNL A   1      42.430  24.275  26.360  1.00  0.00    -0.460 OA
BRANCH  34  35
ATOM     35  C   UNL A   1      42.228  25.576  26.043  1.00  0.00     0.338 C 
ATOM     36  O   UNL A   1      41.951  26.009  24.932  1.00  0.00    -0.246 OA
BRANCH  35  37
ATOM     37  C   UNL A   1      42.202  26.412  27.270  1.00  0.00     0.060 A 
ATOM     38  C   UNL A   1      41.253  26.112  28.260  1.00  0.00     0.016 A 
ATOM     39  C   UNL A   1      43.081  27.483  27.454  1.00  0.00     0.016 A 
ATOM     40  C   UNL A   1      41.185  26.871  29.431  1.00  0.00     0.010 A 
ATOM     41  C   UNL A   1      42.977  28.277  28.607  1.00  0.00     0.010 A 
ATOM     42  C   UNL A   1      42.012  27.990  29.590  1.00  0.00    -0.014 A 
BRANCH  42  43
ATOM     43  C   UNL A   1      41.687  28.984  30.648  1.00  0.00     0.031 A 
ATOM     44  C   UNL A   1      42.572  29.020  31.868  1.00  0.00     0.074 A 
ATOM     45  C   UNL A   1      40.678  29.868  30.526  1.00  0.00     0.049 A 
ATOM     46  N   UNL A   1      42.501  29.780  32.930  1.00  0.00    -0.248 NA
ATOM     47  C   UNL A   1      43.694  28.066  31.886  1.00  0.00     0.031 C 
ATOM     48  C   UNL A   1      39.773  29.970  29.383  1.00  0.00     0.029 A 
ATOM     49  N   UNL A   1      40.244  30.849  31.385  1.00  0.00    -0.354 N 
ATOM     50  C   UNL A   1      43.572  29.404  33.733  1.00  0.00     0.074 A 
ATOM     51  C   UNL A   1      44.250  28.320  33.060  1.00  0.00     0.031 C 
ATOM     52  C   UNL A   1      38.878  30.947  29.622  1.00  0.00     0.029 A 
ATOM     53  C   UNL A   1      39.130  31.525  30.943  1.00  0.00     0.049 A 
ATOM     54  H   UNL A   1      40.689  31.050  32.241  1.00  0.00     0.167 HD
ATOM     55  C   UNL A   1      43.969  29.926  34.918  1.00  0.00     0.037 A 
ATOM     56  C   UNL A   1      38.390  32.481  31.543  1.00  0.00     0.037 A 
ATOM     57  C   UNL A   1      43.282  30.990  35.603  1.00  0.00     0.049 A 
ATOM     58  C   UNL A   1      38.802  32.990  32.907  1.00  0.00     0.074 A 
ATOM     59  C   UNL A   1      43.594  31.574  36.818  1.00  0.00     0.029 A 
ATOM     60  N   UNL A   1      42.143  31.628  35.134  1.00  0.00    -0.354 N 
ATOM     61  N   UNL A   1      39.826  32.635  33.650  1.00  0.00    -0.248 NA
ATOM     62  C   UNL A   1      37.962  34.035  33.511  1.00  0.00     0.031 C 
ATOM     63  C   UNL A   1      42.616  32.531  37.108  1.00  0.00     0.029 A 
ATOM     64  C   UNL A   1      41.730  32.587  36.043  1.00  0.00     0.049 A 
ATOM     65  H   UNL A   1      41.694  31.428  34.281  1.00  0.00     0.167 HD
ATOM     66  C   UNL A   1      39.768  33.438  34.788  1.00  0.00     0.074 A 
ATOM     67  C   UNL A   1      38.622  34.305  34.628  1.00  0.00     0.031 C 
ATOM     68  C   UNL A   1      40.590  33.454  35.868  1.00  0.00     0.037 A 
BRANCH  55  69
ATOM     69  C   UNL A   1      45.198  29.338  35.556  1.00  0.00     0.058 A 
ATOM     70  C   UNL A   1      45.113  28.285  36.482  1.00  0.00     0.135 A 
ATOM     71  C   UNL A   1      46.475  29.809  35.217  1.00  0.00     0.135 A 
ATOM     72  F   UNL A   1      43.915  27.811  36.861  1.00  0.00    -0.206 F 
ATOM     73  C   UNL A   1      46.250  27.737  37.065  1.00  0.00     0.059 A 
ATOM     74  C   UNL A   1      47.629  29.255  35.765  1.00  0.00     0.059 A 
ATOM     75  F   UNL A   1      46.614  30.818  34.342  1.00  0.00    -0.206 F 
ATOM     76  C   UNL A   1      47.504  28.227  36.699  1.00  0.00     0.060 A 
BRANCH  76  77
ATOM     77  S   UNL A   1      48.970  27.492  37.455  1.00  0.00     0.124 S 
ATOM     78  O   UNL A   1      49.975  27.716  36.421  1.00  0.00    -0.237 OA
ATOM     79  O   UNL A   1      49.123  28.287  38.670  1.00  0.00    -0.237 OA
ATOM     80  O   UNL A   1      48.584  26.101  37.664  1.00  0.00    -0.744 OA
ENDBRANCH  76  77
ENDBRANCH  55  69
BRANCH  56  81
ATOM     81  C   UNL A   1      37.163  33.013  30.884  1.00  0.00     0.058 A 
ATOM     82  C   UNL A   1      35.913  32.397  31.049  1.00  0.00     0.135 A 
ATOM     83  C   UNL A   1      37.228  34.128  30.031  1.00  0.00     0.135 A 
ATOM     84  F   UNL A   1      35.796  31.318  31.838  1.00  0.00    -0.206 F 
ATOM     85  C   UNL A   1      34.779  32.847  30.375  1.00  0.00     0.059 A 
ATOM     86  C   UNL A   1      36.103  34.616  29.372  1.00  0.00     0.059 A 
ATOM     87  F   UNL A   1      38.396  34.759  29.838  1.00  0.00    -0.206 F 
ATOM     88  C   UNL A   1      34.886  33.959  29.539  1.00  0.00     0.060 A 
BRANCH  88  89
ATOM     89  S   UNL A   1      33.406  34.552  28.689  1.00  0.00     0.124 S 
ATOM     90  O   UNL A   1      33.959  35.577  27.812  1.00  0.00    -0.237 OA
ATOM     91  O   UNL A   1      32.924  33.341  28.032  1.00  0.00    -0.237 OA
ATOM     92  O   UNL A   1      32.567  35.040  29.780  1.00  0.00    -0.744 OA
ENDBRANCH  88  89
ENDBRANCH  56  81
BRANCH  68  93
ATOM     93  C   UNL A   1      40.311  34.473  36.944  1.00  0.00     0.058 A 
ATOM     94  C   UNL A   1      39.413  34.222  37.992  1.00  0.00     0.135 A 
ATOM     95  C   UNL A   1      40.985  35.707  36.943  1.00  0.00     0.135 A 
ATOM     96  F   UNL A   1      38.741  33.061  38.044  1.00  0.00    -0.206 F 
ATOM     97  C   UNL A   1      39.160  35.172  38.978  1.00  0.00     0.059 A 
ATOM     98  C   UNL A   1      40.773  36.658  37.937  1.00  0.00     0.059 A 
ATOM     99  F   UNL A   1      41.869  35.995  35.975  1.00  0.00    -0.206 F 
ATOM    100  C   UNL A   1      39.845  36.388  38.941  1.00  0.00     0.060 A 
BRANCH 100 101
ATOM    101  S   UNL A   1      39.515  37.608  40.231  1.00  0.00     0.124 S 
ATOM    102  O   UNL A   1      40.541  38.608  39.958  1.00  0.00    -0.237 OA
ATOM    103  O   UNL A   1      38.142  38.010  39.938  1.00  0.00    -0.237 OA
ATOM    104  O   UNL A   1      39.689  36.852  41.468  1.00  0.00    -0.744 OA
ENDBRANCH 100 101
ENDBRANCH  68  93
ENDBRANCH  42  43
ENDBRANCH  35  37
ENDBRANCH  34  35
ENDBRANCH  33  34
ENDBRANCH  32  33
ENDBRANCH  31  32
ENDBRANCH  30  31
ENDBRANCH  29  30
ENDBRANCH   1  29
TORSDOF 27
ENDMDL
