MODEL 1
REMARK VINA RESULT:     -10.0      0.000      0.000
REMARK SMILES CC[C@@H](C(=O)OCCOCCOCCOCCOC(=O)c1ccc(-c2c3nc(c(-c4c(F)cc(S(=O)(=O)[O-])cc4F)c4ccc([nH]4)c(-c4c(F)cc(S(=O)(=O)[O-])cc4F)c4nc(c(-c5c(F)cc(S(=O)(=O)[O-])cc5F)c5ccc2[nH]5)C=C4)C=C3)cc1)N1C(=O)/C(=C/C(C)=C/c2ccccc2)SC1=S
REMARK SMILES IDX 12 1 11 2 10 3 9 4 8 5 7 6 6 7 4 8 5 9 3 10 2 11 1 12 87 13
REMARK SMILES IDX 88 14 102 15 89 16 90 17 101 18 103 19 91 20 92 21 93 22
REMARK SMILES IDX 94 23 95 24 96 25 100 26 97 27 99 28 98 29 13 30 14 31 15 32
REMARK SMILES IDX 16 33 17 34 18 35 19 36 20 37 21 38 22 39 86 40 23 41 85 42
REMARK SMILES IDX 24 43 25 44 26 45 79 46 27 47 84 48 78 49 80 50 28 51 83 52
REMARK SMILES IDX 77 53 76 54 29 56 63 57 42 58 62 59 43 60 46 61 61 62 81 63
REMARK SMILES IDX 44 64 45 65 60 67 82 68 47 69 30 70 31 71 40 72 32 73 33 74
REMARK SMILES IDX 39 75 41 76 34 77 35 78 36 79 37 80 38 81 64 82 65 83 74 84
REMARK SMILES IDX 66 85 67 86 73 87 75 88 68 89 69 90 70 91 71 92 72 93 48 94
REMARK SMILES IDX 49 95 58 96 50 97 51 98 57 99 59 100 52 101 53 102 54 103
REMARK SMILES IDX 55 104 56 105
REMARK H PARENT 80 55 46 66
REMARK Flexibility Score: inf
ROOT
ATOM      1  O   UNL A   1      35.354  23.652  26.466  1.00  0.00    -0.377 OA
ENDROOT
BRANCH   1   2
ATOM      2  C   UNL A   1      34.148  24.330  26.152  1.00  0.00     0.188 C 
BRANCH   2   3
ATOM      3  C   UNL A   1      34.234  25.736  25.544  1.00  0.00     0.188 C 
BRANCH   3   4
ATOM      4  O   UNL A   1      33.416  26.685  26.198  1.00  0.00    -0.376 OA
BRANCH   4   5
ATOM      5  C   UNL A   1      33.769  28.054  26.129  1.00  0.00     0.202 C 
BRANCH   5   6
ATOM      6  C   UNL A   1      33.191  28.968  25.030  1.00  0.00     0.261 C 
BRANCH   6   7
ATOM      7  O   UNL A   1      32.044  28.512  24.295  1.00  0.00    -0.462 OA
BRANCH   7   8
ATOM      8  C   UNL A   1      32.264  28.062  23.047  1.00  0.00     0.329 C 
ATOM      9  O   UNL A   1      33.297  28.330  22.437  1.00  0.00    -0.250 OA
BRANCH   8  10
ATOM     10  C   UNL A   1      31.115  27.200  22.443  1.00  0.00     0.201 C 
BRANCH  10  11
ATOM     11  C   UNL A   1      29.664  27.436  22.928  1.00  0.00     0.034 C 
ATOM     12  C   UNL A   1      29.118  28.855  22.834  1.00  0.00     0.007 C 
ENDBRANCH  10  11
BRANCH  10  13
ATOM     13  N   UNL A   1      31.586  25.770  22.543  1.00  0.00    -0.278 N 
ATOM     14  C   UNL A   1      31.340  24.920  23.620  1.00  0.00     0.266 C 
ATOM     15  C   UNL A   1      32.356  25.195  21.544  1.00  0.00     0.149 C 
ATOM     16  O   UNL A   1      30.609  25.113  24.582  1.00  0.00    -0.268 OA
ATOM     17  C   UNL A   1      32.057  23.612  23.437  1.00  0.00     0.080 C 
ATOM     18  S   UNL A   1      33.225  23.833  22.206  1.00  0.00    -0.054 SA
ATOM     19  S   UNL A   1      32.480  25.591  19.929  1.00  0.00    -0.052 S 
ATOM     20  C   UNL A   1      31.704  22.487  24.088  1.00  0.00     0.024 C 
BRANCH  20  21
ATOM     21  C   UNL A   1      32.192  21.096  23.992  1.00  0.00    -0.049 C 
ATOM     22  C   UNL A   1      32.138  20.491  22.606  1.00  0.00     0.044 C 
ATOM     23  C   UNL A   1      32.647  20.382  25.042  1.00  0.00     0.011 C 
BRANCH  23  24
ATOM     24  C   UNL A   1      33.183  19.017  25.114  1.00  0.00    -0.025 A 
ATOM     25  C   UNL A   1      34.282  18.711  24.298  1.00  0.00     0.008 A 
ATOM     26  C   UNL A   1      32.542  17.988  25.809  1.00  0.00     0.008 A 
ATOM     27  C   UNL A   1      34.740  17.398  24.182  1.00  0.00     0.001 A 
ATOM     28  C   UNL A   1      33.003  16.673  25.696  1.00  0.00     0.001 A 
ATOM     29  C   UNL A   1      34.098  16.379  24.881  1.00  0.00     0.000 A 
ENDBRANCH  23  24
ENDBRANCH  20  21
ENDBRANCH  10  13
ENDBRANCH   8  10
ENDBRANCH   7   8
ENDBRANCH   6   7
ENDBRANCH   5   6
ENDBRANCH   4   5
ENDBRANCH   3   4
ENDBRANCH   2   3
ENDBRANCH   1   2
BRANCH   1  30
ATOM     30  C   UNL A   1      36.151  23.109  25.416  1.00  0.00     0.188 C 
BRANCH  30  31
ATOM     31  C   UNL A   1      36.488  21.602  25.369  1.00  0.00     0.188 C 
BRANCH  31  32
ATOM     32  O   UNL A   1      37.758  21.288  24.824  1.00  0.00    -0.376 OA
BRANCH  32  33
ATOM     33  C   UNL A   1      38.850  21.204  25.728  1.00  0.00     0.202 C 
BRANCH  33  34
ATOM     34  C   UNL A   1      39.539  19.840  25.881  1.00  0.00     0.261 C 
BRANCH  34  35
ATOM     35  O   UNL A   1      40.869  19.726  25.347  1.00  0.00    -0.460 OA
BRANCH  35  36
ATOM     36  C   UNL A   1      41.899  19.566  26.214  1.00  0.00     0.338 C 
ATOM     37  O   UNL A   1      42.426  18.532  26.546  1.00  0.00    -0.246 OA
BRANCH  36  38
ATOM     38  C   UNL A   1      42.399  20.925  26.537  1.00  0.00     0.060 A 
ATOM     39  C   UNL A   1      42.658  21.830  25.498  1.00  0.00     0.016 A 
ATOM     40  C   UNL A   1      42.565  21.312  27.867  1.00  0.00     0.016 A 
ATOM     41  C   UNL A   1      43.081  23.130  25.791  1.00  0.00     0.010 A 
ATOM     42  C   UNL A   1      43.016  22.602  28.156  1.00  0.00     0.010 A 
ATOM     43  C   UNL A   1      43.289  23.514  27.121  1.00  0.00    -0.014 A 
BRANCH  43  44
ATOM     44  C   UNL A   1      43.916  24.819  27.443  1.00  0.00     0.031 A 
ATOM     45  C   UNL A   1      43.036  25.942  27.918  1.00  0.00     0.074 A 
ATOM     46  C   UNL A   1      45.238  25.015  27.288  1.00  0.00     0.049 A 
ATOM     47  N   UNL A   1      43.334  27.196  28.134  1.00  0.00    -0.248 NA
ATOM     48  C   UNL A   1      41.627  25.602  28.180  1.00  0.00     0.031 C 
ATOM     49  C   UNL A   1      46.201  23.994  26.878  1.00  0.00     0.029 A 
ATOM     50  N   UNL A   1      45.995  26.152  27.433  1.00  0.00    -0.354 N 
ATOM     51  C   UNL A   1      42.151  27.799  28.543  1.00  0.00     0.074 A 
ATOM     52  C   UNL A   1      41.126  26.778  28.527  1.00  0.00     0.031 C 
ATOM     53  C   UNL A   1      47.417  24.557  26.778  1.00  0.00     0.029 A 
ATOM     54  C   UNL A   1      47.311  25.987  27.072  1.00  0.00     0.049 A 
ATOM     55  H   UNL A   1      45.630  27.004  27.766  1.00  0.00     0.167 HD
ATOM     56  C   UNL A   1      41.941  29.089  28.897  1.00  0.00     0.037 A 
ATOM     57  C   UNL A   1      48.304  26.893  26.949  1.00  0.00     0.037 A 
ATOM     58  C   UNL A   1      42.966  30.100  28.902  1.00  0.00     0.049 A 
ATOM     59  C   UNL A   1      48.025  28.342  27.262  1.00  0.00     0.074 A 
ATOM     60  C   UNL A   1      42.860  31.429  29.274  1.00  0.00     0.029 A 
ATOM     61  N   UNL A   1      44.279  29.902  28.502  1.00  0.00    -0.354 N 
ATOM     62  N   UNL A   1      46.912  28.897  27.682  1.00  0.00    -0.248 NA
ATOM     63  C   UNL A   1      49.132  29.291  27.076  1.00  0.00     0.031 C 
ATOM     64  C   UNL A   1      44.090  32.049  29.036  1.00  0.00     0.029 A 
ATOM     65  C   UNL A   1      44.982  31.093  28.576  1.00  0.00     0.049 A 
ATOM     66  H   UNL A   1      44.656  29.041  28.208  1.00  0.00     0.167 HD
ATOM     67  C   UNL A   1      47.191  30.253  27.826  1.00  0.00     0.074 A 
ATOM     68  C   UNL A   1      48.583  30.432  27.469  1.00  0.00     0.031 C 
ATOM     69  C   UNL A   1      46.369  31.259  28.216  1.00  0.00     0.037 A 
BRANCH  56  70
ATOM     70  C   UNL A   1      40.542  29.493  29.275  1.00  0.00     0.058 A 
ATOM     71  C   UNL A   1      40.175  29.747  30.606  1.00  0.00     0.135 A 
ATOM     72  C   UNL A   1      39.564  29.671  28.281  1.00  0.00     0.135 A 
ATOM     73  F   UNL A   1      41.063  29.576  31.597  1.00  0.00    -0.206 F 
ATOM     74  C   UNL A   1      38.884  30.144  30.941  1.00  0.00     0.059 A 
ATOM     75  C   UNL A   1      38.275  30.095  28.590  1.00  0.00     0.059 A 
ATOM     76  F   UNL A   1      39.860  29.437  26.993  1.00  0.00    -0.206 F 
ATOM     77  C   UNL A   1      37.941  30.318  29.924  1.00  0.00     0.060 A 
BRANCH  77  78
ATOM     78  S   UNL A   1      36.275  30.846  30.376  1.00  0.00     0.124 S 
ATOM     79  O   UNL A   1      35.905  29.832  31.358  1.00  0.00    -0.237 OA
ATOM     80  O   UNL A   1      36.509  32.186  30.907  1.00  0.00    -0.237 OA
ATOM     81  O   UNL A   1      35.546  30.792  29.114  1.00  0.00    -0.744 OA
ENDBRANCH  77  78
ENDBRANCH  56  70
BRANCH  57  82
ATOM     82  C   UNL A   1      49.648  26.466  26.471  1.00  0.00     0.058 A 
ATOM     83  C   UNL A   1      50.616  25.977  27.362  1.00  0.00     0.135 A 
ATOM     84  C   UNL A   1      49.997  26.548  25.113  1.00  0.00     0.135 A 
ATOM     85  F   UNL A   1      50.341  25.896  28.673  1.00  0.00    -0.206 F 
ATOM     86  C   UNL A   1      51.881  25.593  26.927  1.00  0.00     0.059 A 
ATOM     87  C   UNL A   1      51.244  26.142  24.650  1.00  0.00     0.059 A 
ATOM     88  F   UNL A   1      49.109  27.006  24.217  1.00  0.00    -0.206 F 
ATOM     89  C   UNL A   1      52.184  25.673  25.566  1.00  0.00     0.060 A 
BRANCH  89  90
ATOM     90  S   UNL A   1      53.808  25.116  25.006  1.00  0.00     0.124 S 
ATOM     91  O   UNL A   1      53.941  25.825  23.739  1.00  0.00    -0.237 OA
ATOM     92  O   UNL A   1      54.674  25.571  26.089  1.00  0.00    -0.237 OA
ATOM     93  O   UNL A   1      53.650  23.668  24.906  1.00  0.00    -0.744 OA
ENDBRANCH  89  90
ENDBRANCH  57  82
BRANCH  69  94
ATOM     94  C   UNL A   1      46.947  32.648  28.295  1.00  0.00     0.058 A 
ATOM     95  C   UNL A   1      47.652  33.090  29.425  1.00  0.00     0.135 A 
ATOM     96  C   UNL A   1      46.862  33.519  27.195  1.00  0.00     0.135 A 
ATOM     97  F   UNL A   1      47.756  32.301  30.506  1.00  0.00    -0.206 F 
ATOM     98  C   UNL A   1      48.242  34.350  29.468  1.00  0.00     0.059 A 
ATOM     99  C   UNL A   1      47.470  34.772  27.205  1.00  0.00     0.059 A 
ATOM    100  F   UNL A   1      46.208  33.145  26.084  1.00  0.00    -0.206 F 
ATOM    101  C   UNL A   1      48.152  35.181  28.349  1.00  0.00     0.060 A 
BRANCH 101 102
ATOM    102  S   UNL A   1      48.971  36.789  28.402  1.00  0.00     0.124 S 
ATOM    103  O   UNL A   1      47.915  37.674  27.920  1.00  0.00    -0.237 OA
ATOM    104  O   UNL A   1      49.311  36.919  29.815  1.00  0.00    -0.237 OA
ATOM    105  O   UNL A   1      50.108  36.622  27.502  1.00  0.00    -0.744 OA
ENDBRANCH 101 102
ENDBRANCH  69  94
ENDBRANCH  43  44
ENDBRANCH  36  38
ENDBRANCH  35  36
ENDBRANCH  34  35
ENDBRANCH  33  34
ENDBRANCH  32  33
ENDBRANCH  31  32
ENDBRANCH  30  31
ENDBRANCH   1  30
TORSDOF 27
ENDMDL
MODEL 2
REMARK VINA RESULT:      -8.2      5.427      7.209
REMARK SMILES CC[C@@H](C(=O)OCCOCCOCCOCCOC(=O)c1ccc(-c2c3nc(c(-c4c(F)cc(S(=O)(=O)[O-])cc4F)c4ccc([nH]4)c(-c4c(F)cc(S(=O)(=O)[O-])cc4F)c4nc(c(-c5c(F)cc(S(=O)(=O)[O-])cc5F)c5ccc2[nH]5)C=C4)C=C3)cc1)N1C(=O)/C(=C/C(C)=C/c2ccccc2)SC1=S
REMARK SMILES IDX 12 1 11 2 10 3 9 4 8 5 7 6 6 7 4 8 5 9 3 10 2 11 1 12 87 13
REMARK SMILES IDX 88 14 102 15 89 16 90 17 101 18 103 19 91 20 92 21 93 22
REMARK SMILES IDX 94 23 95 24 96 25 100 26 97 27 99 28 98 29 13 30 14 31 15 32
REMARK SMILES IDX 16 33 17 34 18 35 19 36 20 37 21 38 22 39 86 40 23 41 85 42
REMARK SMILES IDX 24 43 25 44 26 45 79 46 27 47 84 48 78 49 80 50 28 51 83 52
REMARK SMILES IDX 77 53 76 54 29 56 63 57 42 58 62 59 43 60 46 61 61 62 81 63
REMARK SMILES IDX 44 64 45 65 60 67 82 68 47 69 30 70 31 71 40 72 32 73 33 74
REMARK SMILES IDX 39 75 41 76 34 77 35 78 36 79 37 80 38 81 64 82 65 83 74 84
REMARK SMILES IDX 66 85 67 86 73 87 75 88 68 89 69 90 70 91 71 92 72 93 48 94
REMARK SMILES IDX 49 95 58 96 50 97 51 98 57 99 59 100 52 101 53 102 54 103
REMARK SMILES IDX 55 104 56 105
REMARK H PARENT 80 55 46 66
REMARK Flexibility Score: inf
ROOT
ATOM      1  O   UNL A   1      35.351  23.932  26.416  1.00  0.00    -0.377 OA
ENDROOT
BRANCH   1   2
ATOM      2  C   UNL A   1      34.183  24.614  25.991  1.00  0.00     0.188 C 
BRANCH   2   3
ATOM      3  C   UNL A   1      34.327  26.030  25.418  1.00  0.00     0.188 C 
BRANCH   3   4
ATOM      4  O   UNL A   1      33.728  27.028  26.221  1.00  0.00    -0.376 OA
BRANCH   4   5
ATOM      5  C   UNL A   1      33.961  28.388  25.908  1.00  0.00     0.202 C 
BRANCH   5   6
ATOM      6  C   UNL A   1      33.064  29.136  24.901  1.00  0.00     0.261 C 
BRANCH   6   7
ATOM      7  O   UNL A   1      31.905  28.460  24.385  1.00  0.00    -0.462 OA
BRANCH   7   8
ATOM      8  C   UNL A   1      32.079  27.720  23.276  1.00  0.00     0.329 C 
ATOM      9  O   UNL A   1      33.110  27.786  22.612  1.00  0.00    -0.250 OA
BRANCH   8  10
ATOM     10  C   UNL A   1      30.878  26.800  22.902  1.00  0.00     0.201 C 
BRANCH  10  11
ATOM     11  C   UNL A   1      29.437  27.307  23.149  1.00  0.00     0.034 C 
ATOM     12  C   UNL A   1      29.118  28.739  22.740  1.00  0.00     0.007 C 
ENDBRANCH  10  11
BRANCH  10  13
ATOM     13  N   UNL A   1      31.188  25.459  23.520  1.00  0.00    -0.278 N 
ATOM     14  C   UNL A   1      31.889  24.431  22.893  1.00  0.00     0.266 C 
ATOM     15  C   UNL A   1      30.743  25.135  24.793  1.00  0.00     0.149 C 
ATOM     16  O   UNL A   1      32.486  24.467  21.826  1.00  0.00    -0.268 OA
ATOM     17  C   UNL A   1      31.907  23.200  23.753  1.00  0.00     0.080 C 
ATOM     18  S   UNL A   1      30.709  23.397  24.960  1.00  0.00    -0.054 SA
ATOM     19  S   UNL A   1      30.339  26.129  26.069  1.00  0.00    -0.052 S 
ATOM     20  C   UNL A   1      32.812  22.214  23.602  1.00  0.00     0.024 C 
BRANCH  20  21
ATOM     21  C   UNL A   1      33.074  20.986  24.379  1.00  0.00    -0.049 C 
ATOM     22  C   UNL A   1      33.303  21.200  25.860  1.00  0.00     0.044 C 
ATOM     23  C   UNL A   1      33.127  19.750  23.842  1.00  0.00     0.011 C 
BRANCH  23  24
ATOM     24  C   UNL A   1      33.350  18.439  24.467  1.00  0.00    -0.025 A 
ATOM     25  C   UNL A   1      34.614  17.854  24.303  1.00  0.00     0.008 A 
ATOM     26  C   UNL A   1      32.321  17.691  25.046  1.00  0.00     0.008 A 
ATOM     27  C   UNL A   1      34.851  16.543  24.718  1.00  0.00     0.001 A 
ATOM     28  C   UNL A   1      32.560  16.379  25.465  1.00  0.00     0.001 A 
ATOM     29  C   UNL A   1      33.822  15.806  25.298  1.00  0.00     0.000 A 
ENDBRANCH  23  24
ENDBRANCH  20  21
ENDBRANCH  10  13
ENDBRANCH   8  10
ENDBRANCH   7   8
ENDBRANCH   6   7
ENDBRANCH   5   6
ENDBRANCH   4   5
ENDBRANCH   3   4
ENDBRANCH   2   3
ENDBRANCH   1   2
BRANCH   1  30
ATOM     30  C   UNL A   1      36.239  23.382  25.445  1.00  0.00     0.188 C 
BRANCH  30  31
ATOM     31  C   UNL A   1      36.845  21.973  25.627  1.00  0.00     0.188 C 
BRANCH  31  32
ATOM     32  O   UNL A   1      38.223  21.867  25.313  1.00  0.00    -0.376 OA
BRANCH  32  33
ATOM     33  C   UNL A   1      39.135  21.827  26.400  1.00  0.00     0.202 C 
BRANCH  33  34
ATOM     34  C   UNL A   1      40.475  21.111  26.175  1.00  0.00     0.261 C 
BRANCH  34  35
ATOM     35  O   UNL A   1      41.644  21.943  26.090  1.00  0.00    -0.460 OA
BRANCH  35  36
ATOM     36  C   UNL A   1      42.817  21.455  26.563  1.00  0.00     0.338 C 
ATOM     37  O   UNL A   1      43.401  20.464  26.199  1.00  0.00    -0.246 OA
BRANCH  36  38
ATOM     38  C   UNL A   1      43.363  22.480  27.487  1.00  0.00     0.060 A 
ATOM     39  C   UNL A   1      42.494  23.167  28.347  1.00  0.00     0.016 A 
ATOM     40  C   UNL A   1      44.736  22.723  27.531  1.00  0.00     0.016 A 
ATOM     41  C   UNL A   1      43.001  24.098  29.258  1.00  0.00     0.010 A 
ATOM     42  C   UNL A   1      45.237  23.676  28.421  1.00  0.00     0.010 A 
ATOM     43  C   UNL A   1      44.373  24.378  29.280  1.00  0.00    -0.014 A 
BRANCH  43  44
ATOM     44  C   UNL A   1      44.905  25.493  30.101  1.00  0.00     0.031 A 
ATOM     45  C   UNL A   1      45.207  25.238  31.551  1.00  0.00     0.074 A 
ATOM     46  C   UNL A   1      45.087  26.719  29.577  1.00  0.00     0.049 A 
ATOM     47  N   UNL A   1      45.554  26.081  32.487  1.00  0.00    -0.248 NA
ATOM     48  C   UNL A   1      45.099  23.841  32.005  1.00  0.00     0.031 C 
ATOM     49  C   UNL A   1      44.874  27.080  28.176  1.00  0.00     0.029 A 
ATOM     50  N   UNL A   1      45.471  27.896  30.173  1.00  0.00    -0.354 N 
ATOM     51  C   UNL A   1      45.691  25.324  33.645  1.00  0.00     0.074 A 
ATOM     52  C   UNL A   1      45.374  23.956  33.296  1.00  0.00     0.031 C 
ATOM     53  C   UNL A   1      45.102  28.396  28.025  1.00  0.00     0.029 A 
ATOM     54  C   UNL A   1      45.435  28.979  29.326  1.00  0.00     0.049 A 
ATOM     55  H   UNL A   1      45.748  27.958  31.115  1.00  0.00     0.167 HD
ATOM     56  C   UNL A   1      46.049  25.735  34.884  1.00  0.00     0.037 A 
ATOM     57  C   UNL A   1      45.605  30.293  29.580  1.00  0.00     0.037 A 
ATOM     58  C   UNL A   1      46.356  27.100  35.222  1.00  0.00     0.049 A 
ATOM     59  C   UNL A   1      45.913  30.740  30.988  1.00  0.00     0.074 A 
ATOM     60  C   UNL A   1      46.758  27.612  36.443  1.00  0.00     0.029 A 
ATOM     61  N   UNL A   1      46.279  28.172  34.345  1.00  0.00    -0.354 N 
ATOM     62  N   UNL A   1      46.076  30.012  32.068  1.00  0.00    -0.248 NA
ATOM     63  C   UNL A   1      46.052  32.186  31.215  1.00  0.00     0.031 C 
ATOM     64  C   UNL A   1      46.859  29.001  36.322  1.00  0.00     0.029 A 
ATOM     65  C   UNL A   1      46.583  29.349  35.009  1.00  0.00     0.049 A 
ATOM     66  H   UNL A   1      46.042  28.106  33.392  1.00  0.00     0.167 HD
ATOM     67  C   UNL A   1      46.354  30.909  33.096  1.00  0.00     0.074 A 
ATOM     68  C   UNL A   1      46.357  32.232  32.504  1.00  0.00     0.031 C 
ATOM     69  C   UNL A   1      46.582  30.661  34.409  1.00  0.00     0.037 A 
BRANCH  56  70
ATOM     70  C   UNL A   1      46.093  24.704  35.979  1.00  0.00     0.058 A 
ATOM     71  C   UNL A   1      47.276  24.024  36.312  1.00  0.00     0.135 A 
ATOM     72  C   UNL A   1      44.942  24.424  36.734  1.00  0.00     0.135 A 
ATOM     73  F   UNL A   1      48.400  24.239  35.612  1.00  0.00    -0.206 F 
ATOM     74  C   UNL A   1      47.311  23.090  37.343  1.00  0.00     0.059 A 
ATOM     75  C   UNL A   1      44.961  23.514  37.787  1.00  0.00     0.059 A 
ATOM     76  F   UNL A   1      43.784  25.040  36.454  1.00  0.00    -0.206 F 
ATOM     77  C   UNL A   1      46.148  22.844  38.077  1.00  0.00     0.060 A 
BRANCH  77  78
ATOM     78  S   UNL A   1      46.216  21.639  39.419  1.00  0.00     0.124 S 
ATOM     79  O   UNL A   1      47.581  21.819  39.903  1.00  0.00    -0.237 OA
ATOM     80  O   UNL A   1      45.160  22.109  40.311  1.00  0.00    -0.237 OA
ATOM     81  O   UNL A   1      45.950  20.369  38.752  1.00  0.00    -0.744 OA
ENDBRANCH  77  78
ENDBRANCH  56  70
BRANCH  57  82
ATOM     82  C   UNL A   1      45.448  31.291  28.486  1.00  0.00     0.058 A 
ATOM     83  C   UNL A   1      44.188  31.803  28.142  1.00  0.00     0.135 A 
ATOM     84  C   UNL A   1      46.557  31.748  27.754  1.00  0.00     0.135 A 
ATOM     85  F   UNL A   1      43.094  31.387  28.798  1.00  0.00    -0.206 F 
ATOM     86  C   UNL A   1      44.030  32.723  27.110  1.00  0.00     0.059 A 
ATOM     87  C   UNL A   1      46.429  32.689  26.738  1.00  0.00     0.059 A 
ATOM     88  F   UNL A   1      47.787  31.293  28.042  1.00  0.00    -0.206 F 
ATOM     89  C   UNL A   1      45.158  33.165  26.417  1.00  0.00     0.060 A 
BRANCH  89  90
ATOM     90  S   UNL A   1      44.948  34.403  25.119  1.00  0.00     0.124 S 
ATOM     91  O   UNL A   1      44.445  33.592  24.017  1.00  0.00    -0.237 OA
ATOM     92  O   UNL A   1      43.991  35.321  25.728  1.00  0.00    -0.237 OA
ATOM     93  O   UNL A   1      46.295  34.939  24.945  1.00  0.00    -0.744 OA
ENDBRANCH  89  90
ENDBRANCH  57  82
BRANCH  69  94
ATOM     94  C   UNL A   1      46.870  31.837  35.306  1.00  0.00     0.058 A 
ATOM     95  C   UNL A   1      48.172  32.334  35.473  1.00  0.00     0.135 A 
ATOM     96  C   UNL A   1      45.822  32.522  35.943  1.00  0.00     0.135 A 
ATOM     97  F   UNL A   1      49.212  31.713  34.894  1.00  0.00    -0.206 F 
ATOM     98  C   UNL A   1      48.426  33.461  36.250  1.00  0.00     0.059 A 
ATOM     99  C   UNL A   1      46.050  33.669  36.699  1.00  0.00     0.059 A 
ATOM    100  F   UNL A   1      44.556  32.097  35.810  1.00  0.00    -0.206 F 
ATOM    101  C   UNL A   1      47.357  34.126  36.852  1.00  0.00     0.060 A 
BRANCH 101 102
ATOM    102  S   UNL A   1      47.699  35.619  37.810  1.00  0.00     0.124 S 
ATOM    103  O   UNL A   1      47.285  36.666  36.882  1.00  0.00    -0.237 OA
ATOM    104  O   UNL A   1      46.848  35.438  38.982  1.00  0.00    -0.237 OA
ATOM    105  O   UNL A   1      49.135  35.538  38.065  1.00  0.00    -0.744 OA
ENDBRANCH 101 102
ENDBRANCH  69  94
ENDBRANCH  43  44
ENDBRANCH  36  38
ENDBRANCH  35  36
ENDBRANCH  34  35
ENDBRANCH  33  34
ENDBRANCH  32  33
ENDBRANCH  31  32
ENDBRANCH  30  31
ENDBRANCH   1  30
TORSDOF 27
ENDMDL
MODEL 3
REMARK VINA RESULT:      -8.2      4.940      9.857
REMARK SMILES CC[C@@H](C(=O)OCCOCCOCCOCCOC(=O)c1ccc(-c2c3nc(c(-c4c(F)cc(S(=O)(=O)[O-])cc4F)c4ccc([nH]4)c(-c4c(F)cc(S(=O)(=O)[O-])cc4F)c4nc(c(-c5c(F)cc(S(=O)(=O)[O-])cc5F)c5ccc2[nH]5)C=C4)C=C3)cc1)N1C(=O)/C(=C/C(C)=C/c2ccccc2)SC1=S
REMARK SMILES IDX 12 1 11 2 10 3 9 4 8 5 7 6 6 7 4 8 5 9 3 10 2 11 1 12 87 13
REMARK SMILES IDX 88 14 102 15 89 16 90 17 101 18 103 19 91 20 92 21 93 22
REMARK SMILES IDX 94 23 95 24 96 25 100 26 97 27 99 28 98 29 13 30 14 31 15 32
REMARK SMILES IDX 16 33 17 34 18 35 19 36 20 37 21 38 22 39 86 40 23 41 85 42
REMARK SMILES IDX 24 43 25 44 26 45 79 46 27 47 84 48 78 49 80 50 28 51 83 52
REMARK SMILES IDX 77 53 76 54 29 56 63 57 42 58 62 59 43 60 46 61 61 62 81 63
REMARK SMILES IDX 44 64 45 65 60 67 82 68 47 69 30 70 31 71 40 72 32 73 33 74
REMARK SMILES IDX 39 75 41 76 34 77 35 78 36 79 37 80 38 81 64 82 65 83 74 84
REMARK SMILES IDX 66 85 67 86 73 87 75 88 68 89 69 90 70 91 71 92 72 93 48 94
REMARK SMILES IDX 49 95 58 96 50 97 51 98 57 99 59 100 52 101 53 102 54 103
REMARK SMILES IDX 55 104 56 105
REMARK H PARENT 80 55 46 66
REMARK Flexibility Score: inf
ROOT
ATOM      1  O   UNL A   1      44.601  23.712  26.766  1.00  0.00    -0.377 OA
ENDROOT
BRANCH   1   2
ATOM      2  C   UNL A   1      45.425  23.359  27.866  1.00  0.00     0.188 C 
BRANCH   2   3
ATOM      3  C   UNL A   1      45.028  23.844  29.266  1.00  0.00     0.188 C 
BRANCH   3   4
ATOM      4  O   UNL A   1      45.926  24.789  29.812  1.00  0.00    -0.376 OA
BRANCH   4   5
ATOM      5  C   UNL A   1      45.520  25.549  30.935  1.00  0.00     0.202 C 
BRANCH   5   6
ATOM      6  C   UNL A   1      44.605  24.939  32.017  1.00  0.00     0.261 C 
BRANCH   6   7
ATOM      7  O   UNL A   1      45.186  24.036  32.972  1.00  0.00    -0.462 OA
BRANCH   7   8
ATOM      8  C   UNL A   1      46.094  24.552  33.819  1.00  0.00     0.329 C 
ATOM      9  O   UNL A   1      47.234  24.829  33.451  1.00  0.00    -0.250 OA
BRANCH   8  10
ATOM     10  C   UNL A   1      45.595  24.752  35.281  1.00  0.00     0.201 C 
BRANCH  10  11
ATOM     11  C   UNL A   1      45.244  23.508  36.133  1.00  0.00     0.034 C 
ATOM     12  C   UNL A   1      45.846  22.176  35.706  1.00  0.00     0.007 C 
ENDBRANCH  10  11
BRANCH  10  13
ATOM     13  N   UNL A   1      44.499  25.786  35.197  1.00  0.00    -0.278 N 
ATOM     14  C   UNL A   1      44.696  27.143  34.954  1.00  0.00     0.266 C 
ATOM     15  C   UNL A   1      43.171  25.443  35.402  1.00  0.00     0.149 C 
ATOM     16  O   UNL A   1      45.731  27.710  34.634  1.00  0.00    -0.268 OA
ATOM     17  C   UNL A   1      43.398  27.894  35.058  1.00  0.00     0.080 C 
ATOM     18  S   UNL A   1      42.275  26.873  35.848  1.00  0.00    -0.054 SA
ATOM     19  S   UNL A   1      42.407  23.971  35.224  1.00  0.00    -0.052 S 
ATOM     20  C   UNL A   1      43.208  29.106  34.503  1.00  0.00     0.024 C 
BRANCH  20  21
ATOM     21  C   UNL A   1      42.012  29.967  34.397  1.00  0.00    -0.049 C 
ATOM     22  C   UNL A   1      41.479  30.156  32.993  1.00  0.00     0.044 C 
ATOM     23  C   UNL A   1      41.419  30.567  35.449  1.00  0.00     0.011 C 
BRANCH  23  24
ATOM     24  C   UNL A   1      40.228  31.424  35.520  1.00  0.00    -0.025 A 
ATOM     25  C   UNL A   1      40.408  32.798  35.306  1.00  0.00     0.008 A 
ATOM     26  C   UNL A   1      38.987  30.959  35.963  1.00  0.00     0.008 A 
ATOM     27  C   UNL A   1      39.363  33.696  35.523  1.00  0.00     0.001 A 
ATOM     28  C   UNL A   1      37.938  31.859  36.177  1.00  0.00     0.001 A 
ATOM     29  C   UNL A   1      38.128  33.225  35.961  1.00  0.00     0.000 A 
ENDBRANCH  23  24
ENDBRANCH  20  21
ENDBRANCH  10  13
ENDBRANCH   8  10
ENDBRANCH   7   8
ENDBRANCH   6   7
ENDBRANCH   5   6
ENDBRANCH   4   5
ENDBRANCH   3   4
ENDBRANCH   2   3
ENDBRANCH   1   2
BRANCH   1  30
ATOM     30  C   UNL A   1      43.239  23.292  26.742  1.00  0.00     0.188 C 
BRANCH  30  31
ATOM     31  C   UNL A   1      42.619  22.672  25.470  1.00  0.00     0.188 C 
BRANCH  31  32
ATOM     32  O   UNL A   1      42.248  21.309  25.587  1.00  0.00    -0.376 OA
BRANCH  32  33
ATOM     33  C   UNL A   1      41.509  20.935  26.740  1.00  0.00     0.202 C 
BRANCH  33  34
ATOM     34  C   UNL A   1      40.285  21.787  27.104  1.00  0.00     0.261 C 
BRANCH  34  35
ATOM     35  O   UNL A   1      39.463  22.236  26.013  1.00  0.00    -0.460 OA
BRANCH  35  36
ATOM     36  C   UNL A   1      38.487  23.140  26.270  1.00  0.00     0.338 C 
ATOM     37  O   UNL A   1      37.294  22.962  26.241  1.00  0.00    -0.246 OA
BRANCH  36  38
ATOM     38  C   UNL A   1      39.160  24.355  26.794  1.00  0.00     0.060 A 
ATOM     39  C   UNL A   1      39.910  25.158  25.922  1.00  0.00     0.016 A 
ATOM     40  C   UNL A   1      39.006  24.719  28.131  1.00  0.00     0.016 A 
ATOM     41  C   UNL A   1      40.507  26.332  26.391  1.00  0.00     0.010 A 
ATOM     42  C   UNL A   1      39.628  25.876  28.604  1.00  0.00     0.010 A 
ATOM     43  C   UNL A   1      40.392  26.683  27.742  1.00  0.00    -0.014 A 
BRANCH  43  44
ATOM     44  C   UNL A   1      41.171  27.815  28.299  1.00  0.00     0.031 A 
ATOM     45  C   UNL A   1      40.426  28.967  28.913  1.00  0.00     0.074 A 
ATOM     46  C   UNL A   1      42.515  27.837  28.232  1.00  0.00     0.049 A 
ATOM     47  N   UNL A   1      40.879  30.114  29.344  1.00  0.00    -0.248 NA
ATOM     48  C   UNL A   1      38.970  28.800  29.058  1.00  0.00     0.031 C 
ATOM     49  C   UNL A   1      43.353  26.763  27.701  1.00  0.00     0.029 A 
ATOM     50  N   UNL A   1      43.410  28.815  28.593  1.00  0.00    -0.354 N 
ATOM     51  C   UNL A   1      39.766  30.814  29.796  1.00  0.00     0.074 A 
ATOM     52  C   UNL A   1      38.614  29.968  29.572  1.00  0.00     0.031 C 
ATOM     53  C   UNL A   1      44.639  27.151  27.745  1.00  0.00     0.029 A 
ATOM     54  C   UNL A   1      44.712  28.518  28.264  1.00  0.00     0.049 A 
ATOM     55  H   UNL A   1      43.146  29.649  29.044  1.00  0.00     0.167 HD
ATOM     56  C   UNL A   1      39.714  32.050  30.348  1.00  0.00     0.037 A 
ATOM     57  C   UNL A   1      45.826  29.276  28.332  1.00  0.00     0.037 A 
ATOM     58  C   UNL A   1      40.866  32.886  30.560  1.00  0.00     0.049 A 
ATOM     59  C   UNL A   1      45.730  30.684  28.865  1.00  0.00     0.074 A 
ATOM     60  C   UNL A   1      40.920  34.142  31.139  1.00  0.00     0.029 A 
ATOM     61  N   UNL A   1      42.163  32.562  30.188  1.00  0.00    -0.354 N 
ATOM     62  N   UNL A   1      44.679  31.324  29.324  1.00  0.00    -0.248 NA
ATOM     63  C   UNL A   1      46.967  31.479  28.883  1.00  0.00     0.031 C 
ATOM     64  C   UNL A   1      42.237  34.605  31.056  1.00  0.00     0.029 A 
ATOM     65  C   UNL A   1      43.016  33.612  30.484  1.00  0.00     0.049 A 
ATOM     66  H   UNL A   1      42.435  31.713  29.772  1.00  0.00     0.167 HD
ATOM     67  C   UNL A   1      45.133  32.585  29.699  1.00  0.00     0.074 A 
ATOM     68  C   UNL A   1      46.556  32.612  29.434  1.00  0.00     0.031 C 
ATOM     69  C   UNL A   1      44.433  33.627  30.214  1.00  0.00     0.037 A 
BRANCH  56  70
ATOM     70  C   UNL A   1      38.362  32.590  30.728  1.00  0.00     0.058 A 
ATOM     71  C   UNL A   1      37.589  33.352  29.837  1.00  0.00     0.135 A 
ATOM     72  C   UNL A   1      37.815  32.304  31.989  1.00  0.00     0.135 A 
ATOM     73  F   UNL A   1      38.071  33.670  28.625  1.00  0.00    -0.206 F 
ATOM     74  C   UNL A   1      36.330  33.826  30.190  1.00  0.00     0.059 A 
ATOM     75  C   UNL A   1      36.546  32.744  32.354  1.00  0.00     0.059 A 
ATOM     76  F   UNL A   1      38.513  31.585  32.882  1.00  0.00    -0.206 F 
ATOM     77  C   UNL A   1      35.816  33.514  31.451  1.00  0.00     0.060 A 
BRANCH  77  78
ATOM     78  S   UNL A   1      34.174  34.127  31.887  1.00  0.00     0.124 S 
ATOM     79  O   UNL A   1      33.630  32.996  32.632  1.00  0.00    -0.237 OA
ATOM     80  O   UNL A   1      34.487  35.313  32.678  1.00  0.00    -0.237 OA
ATOM     81  O   UNL A   1      33.551  34.384  30.594  1.00  0.00    -0.744 OA
ENDBRANCH  77  78
ENDBRANCH  56  70
BRANCH  57  82
ATOM     82  C   UNL A   1      47.127  28.737  27.847  1.00  0.00     0.058 A 
ATOM     83  C   UNL A   1      48.019  28.094  28.718  1.00  0.00     0.135 A 
ATOM     84  C   UNL A   1      47.510  28.863  26.501  1.00  0.00     0.135 A 
ATOM     85  F   UNL A   1      47.709  27.962  30.017  1.00  0.00    -0.206 F 
ATOM     86  C   UNL A   1      49.244  27.602  28.277  1.00  0.00     0.059 A 
ATOM     87  C   UNL A   1      48.716  28.354  26.030  1.00  0.00     0.059 A 
ATOM     88  F   UNL A   1      46.694  29.468  25.623  1.00  0.00    -0.206 F 
ATOM     89  C   UNL A   1      49.581  27.732  26.929  1.00  0.00     0.060 A 
BRANCH  89  90
ATOM     90  S   UNL A   1      51.147  27.039  26.357  1.00  0.00     0.124 S 
ATOM     91  O   UNL A   1      50.692  25.994  25.448  1.00  0.00    -0.237 OA
ATOM     92  O   UNL A   1      51.783  28.197  25.736  1.00  0.00    -0.237 OA
ATOM     93  O   UNL A   1      51.778  26.573  27.589  1.00  0.00    -0.744 OA
ENDBRANCH  89  90
ENDBRANCH  57  82
BRANCH  69  94
ATOM     94  C   UNL A   1      45.191  34.887  30.542  1.00  0.00     0.058 A 
ATOM     95  C   UNL A   1      45.319  35.932  29.614  1.00  0.00     0.135 A 
ATOM     96  C   UNL A   1      45.728  35.083  31.826  1.00  0.00     0.135 A 
ATOM     97  F   UNL A   1      44.832  35.794  28.371  1.00  0.00    -0.206 F 
ATOM     98  C   UNL A   1      45.962  37.122  29.942  1.00  0.00     0.059 A 
ATOM     99  C   UNL A   1      46.349  36.277  32.185  1.00  0.00     0.059 A 
ATOM    100  F   UNL A   1      45.627  34.121  32.756  1.00  0.00    -0.206 F 
ATOM    101  C   UNL A   1      46.467  37.288  31.234  1.00  0.00     0.060 A 
BRANCH 101 102
ATOM    102  S   UNL A   1      47.249  38.859  31.659  1.00  0.00     0.124 S 
ATOM    103  O   UNL A   1      48.337  38.919  30.688  1.00  0.00    -0.237 OA
ATOM    104  O   UNL A   1      46.163  39.812  31.454  1.00  0.00    -0.237 OA
ATOM    105  O   UNL A   1      47.658  38.671  33.048  1.00  0.00    -0.744 OA
ENDBRANCH 101 102
ENDBRANCH  69  94
ENDBRANCH  43  44
ENDBRANCH  36  38
ENDBRANCH  35  36
ENDBRANCH  34  35
ENDBRANCH  33  34
ENDBRANCH  32  33
ENDBRANCH  31  32
ENDBRANCH  30  31
ENDBRANCH   1  30
TORSDOF 27
ENDMDL
