MODEL 1
REMARK VINA RESULT:      -8.8      0.000      0.000
REMARK SMILES CC[NH2+]C(C)(C)C(=O)N[C@@](C)(C(=O)OCCOCCOCCOCCOC(=O)c1ccc(-c2c3nc(c(-c4c(F)cc(S(=O)(=O)[O-])cc4F)c4ccc([nH]4)c(-c4c(F)cc(S(=O)(=O)[O-])cc4F)c4nc(c(-c5c(F)cc(S(=O)(=O)[O-])cc5F)c5ccc2[nH]5)C=C4)C=C3)cc1)C(F)(F)F
REMARK SMILES IDX 19 1 18 2 17 3 16 4 15 5 14 6 12 7 13 8 10 9 11 10 9 11 7 12
REMARK SMILES IDX 8 13 4 15 5 16 6 17 3 18 2 21 1 22 95 23 96 24 97 25 98 26
REMARK SMILES IDX 20 27 21 28 22 29 23 30 24 31 25 32 26 33 27 34 28 35 29 36
REMARK SMILES IDX 30 37 94 38 31 39 93 40 32 41 33 42 34 43 87 44 35 45 92 46
REMARK SMILES IDX 86 47 88 48 36 49 91 50 85 51 84 52 37 54 71 55 50 56 70 57
REMARK SMILES IDX 51 58 54 59 69 60 89 61 52 62 53 63 68 65 90 66 55 67 38 68
REMARK SMILES IDX 39 69 48 70 40 71 41 72 47 73 49 74 42 75 43 76 44 77 45 78
REMARK SMILES IDX 46 79 72 80 73 81 82 82 74 83 75 84 81 85 83 86 76 87 77 88
REMARK SMILES IDX 78 89 79 90 80 91 56 92 57 93 66 94 58 95 59 96 65 97 67 98
REMARK SMILES IDX 60 99 61 100 62 101 63 102 64 103
REMARK H PARENT 9 14 3 19 3 20 88 53 54 64
REMARK Flexibility Score: inf
ROOT
ATOM      1  C   UNL A   1      34.381  28.546  23.434  1.00  0.00     0.188 C 
ENDROOT
BRANCH   1   2
ATOM      2  C   UNL A   1      33.517  28.061  22.256  1.00  0.00     0.188 C 
BRANCH   2   3
ATOM      3  O   UNL A   1      33.670  26.754  21.720  1.00  0.00    -0.376 OA
BRANCH   3   4
ATOM      4  C   UNL A   1      32.548  26.020  21.251  1.00  0.00     0.202 C 
BRANCH   4   5
ATOM      5  C   UNL A   1      32.018  24.779  22.002  1.00  0.00     0.261 C 
BRANCH   5   6
ATOM      6  O   UNL A   1      32.481  24.599  23.357  1.00  0.00    -0.461 OA
BRANCH   6   7
ATOM      7  C   UNL A   1      31.589  24.881  24.337  1.00  0.00     0.341 C 
ATOM      8  O   UNL A   1      30.458  25.290  24.105  1.00  0.00    -0.249 OA
BRANCH   7   9
ATOM      9  C   UNL A   1      32.171  24.701  25.768  1.00  0.00     0.231 C 
ATOM     10  C   UNL A   1      31.845  26.021  26.488  1.00  0.00     0.058 C 
BRANCH   9  11
ATOM     11  N   UNL A   1      33.719  24.605  25.829  1.00  0.00    -0.328 N 
ATOM     12  C   UNL A   1      34.806  23.796  25.593  1.00  0.00     0.281 C 
ATOM     13  O   UNL A   1      35.877  24.268  25.999  1.00  0.00    -0.268 OA
ATOM     14  H   UNL A   1      34.057  25.462  26.175  1.00  0.00     0.165 HD
BRANCH  12  15
ATOM     15  C   UNL A   1      34.779  22.429  24.839  1.00  0.00     0.169 C 
ATOM     16  C   UNL A   1      35.366  21.339  25.739  1.00  0.00     0.090 C 
ATOM     17  C   UNL A   1      35.527  22.626  23.509  1.00  0.00     0.090 C 
BRANCH  15  18
ATOM     18  N   UNL A   1      33.430  21.979  24.359  1.00  0.00    -0.334 N 
ATOM     19  H   UNL A   1      32.748  22.626  24.754  1.00  0.00     0.347 HD
ATOM     20  H   UNL A   1      33.539  21.967  23.345  1.00  0.00     0.347 HD
BRANCH  18  21
ATOM     21  C   UNL A   1      32.953  20.633  24.657  1.00  0.00     0.257 C 
ATOM     22  C   UNL A   1      32.427  20.008  23.360  1.00  0.00     0.071 C 
ENDBRANCH  18  21
ENDBRANCH  15  18
ENDBRANCH  12  15
ENDBRANCH   9  11
BRANCH   9  23
ATOM     23  C   UNL A   1      31.261  23.574  26.304  1.00  0.00     0.422 C 
ATOM     24  F   UNL A   1      31.907  22.722  27.130  1.00  0.00    -0.168 F 
ATOM     25  F   UNL A   1      30.199  24.046  26.986  1.00  0.00    -0.168 F 
ATOM     26  F   UNL A   1      30.724  22.823  25.312  1.00  0.00    -0.168 F 
ENDBRANCH   9  23
ENDBRANCH   7   9
ENDBRANCH   6   7
ENDBRANCH   5   6
ENDBRANCH   4   5
ENDBRANCH   3   4
ENDBRANCH   2   3
ENDBRANCH   1   2
BRANCH   1  27
ATOM     27  O   UNL A   1      33.656  28.798  24.617  1.00  0.00    -0.377 OA
BRANCH  27  28
ATOM     28  C   UNL A   1      32.259  28.944  24.446  1.00  0.00     0.188 C 
BRANCH  28  29
ATOM     29  C   UNL A   1      31.579  30.004  25.332  1.00  0.00     0.188 C 
BRANCH  29  30
ATOM     30  O   UNL A   1      31.958  29.939  26.705  1.00  0.00    -0.376 OA
BRANCH  30  31
ATOM     31  C   UNL A   1      32.903  30.875  27.204  1.00  0.00     0.202 C 
BRANCH  31  32
ATOM     32  C   UNL A   1      32.518  32.364  27.224  1.00  0.00     0.261 C 
BRANCH  32  33
ATOM     33  O   UNL A   1      33.580  33.310  27.412  1.00  0.00    -0.460 OA
BRANCH  33  34
ATOM     34  C   UNL A   1      33.467  34.198  28.428  1.00  0.00     0.338 C 
ATOM     35  O   UNL A   1      32.547  34.955  28.633  1.00  0.00    -0.246 OA
BRANCH  34  36
ATOM     36  C   UNL A   1      34.567  33.914  29.384  1.00  0.00     0.060 A 
ATOM     37  C   UNL A   1      35.884  34.185  28.990  1.00  0.00     0.016 A 
ATOM     38  C   UNL A   1      34.301  33.423  30.664  1.00  0.00     0.016 A 
ATOM     39  C   UNL A   1      36.942  33.934  29.863  1.00  0.00     0.010 A 
ATOM     40  C   UNL A   1      35.363  33.140  31.527  1.00  0.00     0.010 A 
ATOM     41  C   UNL A   1      36.690  33.361  31.115  1.00  0.00    -0.014 A 
BRANCH  41  42
ATOM     42  C   UNL A   1      37.813  32.778  31.889  1.00  0.00     0.031 A 
ATOM     43  C   UNL A   1      38.508  31.572  31.317  1.00  0.00     0.074 A 
ATOM     44  C   UNL A   1      38.225  33.313  33.051  1.00  0.00     0.049 A 
ATOM     45  N   UNL A   1      39.482  30.858  31.816  1.00  0.00    -0.248 NA
ATOM     46  C   UNL A   1      38.034  31.110  30.002  1.00  0.00     0.031 C 
ATOM     47  C   UNL A   1      37.666  34.508  33.679  1.00  0.00     0.029 A 
ATOM     48  N   UNL A   1      39.215  32.910  33.914  1.00  0.00    -0.354 N 
ATOM     49  C   UNL A   1      39.730  29.857  30.883  1.00  0.00     0.074 A 
ATOM     50  C   UNL A   1      38.784  30.038  29.805  1.00  0.00     0.031 C 
ATOM     51  C   UNL A   1      38.313  34.734  34.837  1.00  0.00     0.029 A 
ATOM     52  C   UNL A   1      39.308  33.681  35.047  1.00  0.00     0.049 A 
ATOM     53  H   UNL A   1      39.803  32.140  33.737  1.00  0.00     0.167 HD
ATOM     54  C   UNL A   1      40.667  28.881  30.919  1.00  0.00     0.037 A 
ATOM     55  C   UNL A   1      40.090  33.538  36.136  1.00  0.00     0.037 A 
ATOM     56  C   UNL A   1      41.598  28.703  32.002  1.00  0.00     0.049 A 
ATOM     57  C   UNL A   1      41.071  32.394  36.194  1.00  0.00     0.074 A 
ATOM     58  C   UNL A   1      42.596  27.754  32.130  1.00  0.00     0.029 A 
ATOM     59  N   UNL A   1      41.635  29.480  33.150  1.00  0.00    -0.354 N 
ATOM     60  N   UNL A   1      41.314  31.466  35.297  1.00  0.00    -0.248 NA
ATOM     61  C   UNL A   1      41.887  32.278  37.411  1.00  0.00     0.031 C 
ATOM     62  C   UNL A   1      43.194  27.918  33.383  1.00  0.00     0.029 A 
ATOM     63  C   UNL A   1      42.617  29.013  34.007  1.00  0.00     0.049 A 
ATOM     64  H   UNL A   1      41.049  30.252  33.329  1.00  0.00     0.167 HD
ATOM     65  C   UNL A   1      42.331  30.677  35.828  1.00  0.00     0.074 A 
ATOM     66  C   UNL A   1      42.662  31.241  37.120  1.00  0.00     0.031 C 
ATOM     67  C   UNL A   1      42.939  29.588  35.291  1.00  0.00     0.037 A 
BRANCH  54  68
ATOM     68  C   UNL A   1      40.695  27.906  29.771  1.00  0.00     0.058 A 
ATOM     69  C   UNL A   1      41.674  27.966  28.767  1.00  0.00     0.135 A 
ATOM     70  C   UNL A   1      39.723  26.896  29.676  1.00  0.00     0.135 A 
ATOM     71  F   UNL A   1      42.615  28.923  28.795  1.00  0.00    -0.206 F 
ATOM     72  C   UNL A   1      41.667  27.084  27.690  1.00  0.00     0.059 A 
ATOM     73  C   UNL A   1      39.717  25.983  28.627  1.00  0.00     0.059 A 
ATOM     74  F   UNL A   1      38.760  26.795  30.606  1.00  0.00    -0.206 F 
ATOM     75  C   UNL A   1      40.682  26.098  27.628  1.00  0.00     0.060 A 
BRANCH  75  76
ATOM     76  S   UNL A   1      40.677  24.971  26.218  1.00  0.00     0.124 S 
ATOM     77  O   UNL A   1      41.599  23.934  26.671  1.00  0.00    -0.237 OA
ATOM     78  O   UNL A   1      39.273  24.579  26.138  1.00  0.00    -0.237 OA
ATOM     79  O   UNL A   1      41.157  25.800  25.117  1.00  0.00    -0.744 OA
ENDBRANCH  75  76
ENDBRANCH  54  68
BRANCH  55  80
ATOM     80  C   UNL A   1      39.974  34.502  37.265  1.00  0.00     0.058 A 
ATOM     81  C   UNL A   1      40.728  35.683  37.290  1.00  0.00     0.135 A 
ATOM     82  C   UNL A   1      39.095  34.267  38.334  1.00  0.00     0.135 A 
ATOM     83  F   UNL A   1      41.595  35.947  36.300  1.00  0.00    -0.206 F 
ATOM     84  C   UNL A   1      40.618  36.597  38.333  1.00  0.00     0.059 A 
ATOM     85  C   UNL A   1      38.948  35.178  39.375  1.00  0.00     0.059 A 
ATOM     86  F   UNL A   1      38.347  33.153  38.357  1.00  0.00    -0.206 F 
ATOM     87  C   UNL A   1      39.717  36.340  39.367  1.00  0.00     0.060 A 
BRANCH  87  88
ATOM     88  S   UNL A   1      39.527  37.571  40.676  1.00  0.00     0.124 S 
ATOM     89  O   UNL A   1      38.313  38.261  40.258  1.00  0.00    -0.237 OA
ATOM     90  O   UNL A   1      39.411  36.734  41.866  1.00  0.00    -0.237 OA
ATOM     91  O   UNL A   1      40.759  38.350  40.584  1.00  0.00    -0.744 OA
ENDBRANCH  87  88
ENDBRANCH  55  80
BRANCH  67  92
ATOM     92  C   UNL A   1      44.057  28.953  36.077  1.00  0.00     0.058 A 
ATOM     93  C   UNL A   1      43.853  27.814  36.873  1.00  0.00     0.135 A 
ATOM     94  C   UNL A   1      45.365  29.456  35.982  1.00  0.00     0.135 A 
ATOM     95  F   UNL A   1      42.624  27.292  37.004  1.00  0.00    -0.206 F 
ATOM     96  C   UNL A   1      44.901  27.213  37.564  1.00  0.00     0.059 A 
ATOM     97  C   UNL A   1      46.433  28.853  36.638  1.00  0.00     0.059 A 
ATOM     98  F   UNL A   1      45.621  30.536  35.225  1.00  0.00    -0.206 F 
ATOM     99  C   UNL A   1      46.188  27.738  37.437  1.00  0.00     0.060 A 
BRANCH  99 100
ATOM    100  S   UNL A   1      47.543  26.928  38.313  1.00  0.00     0.124 S 
ATOM    101  O   UNL A   1      48.409  26.527  37.210  1.00  0.00    -0.237 OA
ATOM    102  O   UNL A   1      48.052  28.001  39.161  1.00  0.00    -0.237 OA
ATOM    103  O   UNL A   1      46.886  25.834  39.023  1.00  0.00    -0.744 OA
ENDBRANCH  99 100
ENDBRANCH  67  92
ENDBRANCH  41  42
ENDBRANCH  34  36
ENDBRANCH  33  34
ENDBRANCH  32  33
ENDBRANCH  31  32
ENDBRANCH  30  31
ENDBRANCH  29  30
ENDBRANCH  28  29
ENDBRANCH  27  28
ENDBRANCH   1  27
TORSDOF 28
ENDMDL
MODEL 2
REMARK VINA RESULT:      -8.4      2.481      8.696
REMARK SMILES CC[NH2+]C(C)(C)C(=O)N[C@@](C)(C(=O)OCCOCCOCCOCCOC(=O)c1ccc(-c2c3nc(c(-c4c(F)cc(S(=O)(=O)[O-])cc4F)c4ccc([nH]4)c(-c4c(F)cc(S(=O)(=O)[O-])cc4F)c4nc(c(-c5c(F)cc(S(=O)(=O)[O-])cc5F)c5ccc2[nH]5)C=C4)C=C3)cc1)C(F)(F)F
REMARK SMILES IDX 19 1 18 2 17 3 16 4 15 5 14 6 12 7 13 8 10 9 11 10 9 11 7 12
REMARK SMILES IDX 8 13 4 15 5 16 6 17 3 18 2 21 1 22 95 23 96 24 97 25 98 26
REMARK SMILES IDX 20 27 21 28 22 29 23 30 24 31 25 32 26 33 27 34 28 35 29 36
REMARK SMILES IDX 30 37 94 38 31 39 93 40 32 41 33 42 34 43 87 44 35 45 92 46
REMARK SMILES IDX 86 47 88 48 36 49 91 50 85 51 84 52 37 54 71 55 50 56 70 57
REMARK SMILES IDX 51 58 54 59 69 60 89 61 52 62 53 63 68 65 90 66 55 67 38 68
REMARK SMILES IDX 39 69 48 70 40 71 41 72 47 73 49 74 42 75 43 76 44 77 45 78
REMARK SMILES IDX 46 79 72 80 73 81 82 82 74 83 75 84 81 85 83 86 76 87 77 88
REMARK SMILES IDX 78 89 79 90 80 91 56 92 57 93 66 94 58 95 59 96 65 97 67 98
REMARK SMILES IDX 60 99 61 100 62 101 63 102 64 103
REMARK H PARENT 9 14 3 19 3 20 88 53 54 64
REMARK Flexibility Score: inf
ROOT
ATOM      1  C   UNL A   1      37.477  22.327  25.934  1.00  0.00     0.188 C 
ENDROOT
BRANCH   1   2
ATOM      2  C   UNL A   1      37.356  21.276  24.817  1.00  0.00     0.188 C 
BRANCH   2   3
ATOM      3  O   UNL A   1      36.098  20.958  24.239  1.00  0.00    -0.376 OA
BRANCH   3   4
ATOM      4  C   UNL A   1      35.005  20.545  25.046  1.00  0.00     0.202 C 
BRANCH   4   5
ATOM      5  C   UNL A   1      33.549  20.602  24.534  1.00  0.00     0.261 C 
BRANCH   5   6
ATOM      6  O   UNL A   1      32.799  21.792  24.858  1.00  0.00    -0.461 OA
BRANCH   6   7
ATOM      7  C   UNL A   1      32.688  22.716  23.874  1.00  0.00     0.341 C 
ATOM      8  O   UNL A   1      32.900  22.457  22.695  1.00  0.00    -0.249 OA
BRANCH   7   9
ATOM      9  C   UNL A   1      32.342  24.137  24.402  1.00  0.00     0.231 C 
ATOM     10  C   UNL A   1      31.019  23.956  25.167  1.00  0.00     0.058 C 
BRANCH   9  11
ATOM     11  N   UNL A   1      32.004  25.173  23.297  1.00  0.00    -0.328 N 
ATOM     12  C   UNL A   1      31.287  26.308  23.000  1.00  0.00     0.281 C 
ATOM     13  O   UNL A   1      31.320  26.621  21.802  1.00  0.00    -0.268 OA
ATOM     14  H   UNL A   1      32.500  24.916  22.487  1.00  0.00     0.165 HD
BRANCH  12  15
ATOM     15  C   UNL A   1      30.526  27.201  24.031  1.00  0.00     0.169 C 
ATOM     16  C   UNL A   1      29.068  26.743  24.124  1.00  0.00     0.090 C 
ATOM     17  C   UNL A   1      30.705  28.664  23.587  1.00  0.00     0.090 C 
BRANCH  15  18
ATOM     18  N   UNL A   1      31.107  27.235  25.414  1.00  0.00    -0.334 N 
ATOM     19  H   UNL A   1      30.411  26.819  26.034  1.00  0.00     0.347 HD
ATOM     20  H   UNL A   1      31.995  26.746  25.303  1.00  0.00     0.347 HD
BRANCH  18  21
ATOM     21  C   UNL A   1      31.501  28.504  26.017  1.00  0.00     0.257 C 
ATOM     22  C   UNL A   1      32.632  28.234  27.015  1.00  0.00     0.071 C 
ENDBRANCH  18  21
ENDBRANCH  15  18
ENDBRANCH  12  15
ENDBRANCH   9  11
BRANCH   9  23
ATOM     23  C   UNL A   1      33.499  24.357  25.402  1.00  0.00     0.422 C 
ATOM     24  F   UNL A   1      33.822  25.659  25.556  1.00  0.00    -0.168 F 
ATOM     25  F   UNL A   1      33.220  23.879  26.629  1.00  0.00    -0.168 F 
ATOM     26  F   UNL A   1      34.634  23.714  25.033  1.00  0.00    -0.168 F 
ENDBRANCH   9  23
ENDBRANCH   7   9
ENDBRANCH   6   7
ENDBRANCH   5   6
ENDBRANCH   4   5
ENDBRANCH   3   4
ENDBRANCH   2   3
ENDBRANCH   1   2
BRANCH   1  27
ATOM     27  O   UNL A   1      38.795  22.771  26.171  1.00  0.00    -0.377 OA
BRANCH  27  28
ATOM     28  C   UNL A   1      39.703  21.766  26.581  1.00  0.00     0.188 C 
BRANCH  28  29
ATOM     29  C   UNL A   1      41.153  21.924  26.085  1.00  0.00     0.188 C 
BRANCH  29  30
ATOM     30  O   UNL A   1      42.095  21.118  26.787  1.00  0.00    -0.376 OA
BRANCH  30  31
ATOM     31  C   UNL A   1      43.474  21.450  26.717  1.00  0.00     0.202 C 
BRANCH  31  32
ATOM     32  C   UNL A   1      43.878  22.756  26.008  1.00  0.00     0.261 C 
BRANCH  32  33
ATOM     33  O   UNL A   1      43.613  23.982  26.703  1.00  0.00    -0.460 OA
BRANCH  33  34
ATOM     34  C   UNL A   1      43.038  24.993  26.008  1.00  0.00     0.338 C 
ATOM     35  O   UNL A   1      42.854  25.043  24.816  1.00  0.00    -0.246 OA
BRANCH  34  36
ATOM     36  C   UNL A   1      42.460  25.933  27.001  1.00  0.00     0.060 A 
ATOM     37  C   UNL A   1      42.855  27.277  26.963  1.00  0.00     0.016 A 
ATOM     38  C   UNL A   1      41.512  25.503  27.933  1.00  0.00     0.016 A 
ATOM     39  C   UNL A   1      42.328  28.188  27.878  1.00  0.00     0.010 A 
ATOM     40  C   UNL A   1      41.010  26.410  28.871  1.00  0.00     0.010 A 
ATOM     41  C   UNL A   1      41.444  27.748  28.869  1.00  0.00    -0.014 A 
BRANCH  41  42
ATOM     42  C   UNL A   1      41.163  28.620  30.035  1.00  0.00     0.031 A 
ATOM     43  C   UNL A   1      42.017  28.449  31.262  1.00  0.00     0.074 A 
ATOM     44  C   UNL A   1      40.198  29.555  30.003  1.00  0.00     0.049 A 
ATOM     45  N   UNL A   1      41.947  29.057  32.417  1.00  0.00    -0.248 NA
ATOM     46  C   UNL A   1      43.098  27.454  31.169  1.00  0.00     0.031 C 
ATOM     47  C   UNL A   1      39.341  29.849  28.857  1.00  0.00     0.029 A 
ATOM     48  N   UNL A   1      39.775  30.430  30.975  1.00  0.00    -0.354 N 
ATOM     49  C   UNL A   1      42.964  28.509  33.191  1.00  0.00     0.074 A 
ATOM     50  C   UNL A   1      43.616  27.502  32.386  1.00  0.00     0.031 C 
ATOM     51  C   UNL A   1      38.483  30.828  29.196  1.00  0.00     0.029 A 
ATOM     52  C   UNL A   1      38.708  31.206  30.592  1.00  0.00     0.049 A 
ATOM     53  H   UNL A   1      40.198  30.494  31.862  1.00  0.00     0.167 HD
ATOM     54  C   UNL A   1      43.326  28.825  34.457  1.00  0.00     0.037 A 
ATOM     55  C   UNL A   1      37.984  32.099  31.297  1.00  0.00     0.037 A 
ATOM     56  C   UNL A   1      42.664  29.824  35.255  1.00  0.00     0.049 A 
ATOM     57  C   UNL A   1      38.351  32.377  32.733  1.00  0.00     0.074 A 
ATOM     58  C   UNL A   1      42.961  30.230  36.543  1.00  0.00     0.029 A 
ATOM     59  N   UNL A   1      41.562  30.561  34.846  1.00  0.00    -0.354 N 
ATOM     60  N   UNL A   1      39.330  31.872  33.449  1.00  0.00    -0.248 NA
ATOM     61  C   UNL A   1      37.519  33.349  33.456  1.00  0.00     0.031 C 
ATOM     62  C   UNL A   1      41.999  31.167  36.936  1.00  0.00     0.029 A 
ATOM     63  C   UNL A   1      41.145  31.397  35.869  1.00  0.00     0.049 A 
ATOM     64  H   UNL A   1      41.138  30.499  33.959  1.00  0.00     0.167 HD
ATOM     65  C   UNL A   1      39.248  32.488  34.695  1.00  0.00     0.074 A 
ATOM     66  C   UNL A   1      38.131  33.407  34.632  1.00  0.00     0.031 C 
ATOM     67  C   UNL A   1      40.032  32.312  35.790  1.00  0.00     0.037 A 
BRANCH  54  68
ATOM     68  C   UNL A   1      44.462  28.047  35.066  1.00  0.00     0.058 A 
ATOM     69  C   UNL A   1      44.247  26.882  35.821  1.00  0.00     0.135 A 
ATOM     70  C   UNL A   1      45.788  28.477  34.892  1.00  0.00     0.135 A 
ATOM     71  F   UNL A   1      43.000  26.437  36.038  1.00  0.00    -0.206 F 
ATOM     72  C   UNL A   1      45.302  26.194  36.412  1.00  0.00     0.059 A 
ATOM     73  C   UNL A   1      46.860  27.785  35.445  1.00  0.00     0.059 A 
ATOM     74  F   UNL A   1      46.051  29.587  34.183  1.00  0.00    -0.206 F 
ATOM     75  C   UNL A   1      46.606  26.656  36.220  1.00  0.00     0.060 A 
BRANCH  75  76
ATOM     76  S   UNL A   1      47.962  25.760  37.006  1.00  0.00     0.124 S 
ATOM     77  O   UNL A   1      47.425  25.537  38.345  1.00  0.00    -0.237 OA
ATOM     78  O   UNL A   1      48.079  24.573  36.165  1.00  0.00    -0.237 OA
ATOM     79  O   UNL A   1      49.080  26.695  36.926  1.00  0.00    -0.744 OA
ENDBRANCH  75  76
ENDBRANCH  54  68
BRANCH  55  80
ATOM     80  C   UNL A   1      36.834  32.794  30.654  1.00  0.00     0.058 A 
ATOM     81  C   UNL A   1      35.515  32.382  30.890  1.00  0.00     0.135 A 
ATOM     82  C   UNL A   1      37.032  33.893  29.803  1.00  0.00     0.135 A 
ATOM     83  F   UNL A   1      35.273  31.326  31.682  1.00  0.00    -0.206 F 
ATOM     84  C   UNL A   1      34.433  33.032  30.305  1.00  0.00     0.059 A 
ATOM     85  C   UNL A   1      35.966  34.575  29.229  1.00  0.00     0.059 A 
ATOM     86  F   UNL A   1      38.276  34.330  29.548  1.00  0.00    -0.206 F 
ATOM     87  C   UNL A   1      34.668  34.135  29.483  1.00  0.00     0.060 A 
BRANCH  87  88
ATOM     88  S   UNL A   1      33.250  35.017  28.792  1.00  0.00     0.124 S 
ATOM     89  O   UNL A   1      32.710  34.028  27.867  1.00  0.00    -0.237 OA
ATOM     90  O   UNL A   1      32.451  35.284  29.983  1.00  0.00    -0.237 OA
ATOM     91  O   UNL A   1      33.855  36.194  28.175  1.00  0.00    -0.744 OA
ENDBRANCH  87  88
ENDBRANCH  55  80
BRANCH  67  92
ATOM     92  C   UNL A   1      39.740  33.158  37.002  1.00  0.00     0.058 A 
ATOM     93  C   UNL A   1      38.799  32.773  37.970  1.00  0.00     0.135 A 
ATOM     94  C   UNL A   1      40.462  34.342  37.229  1.00  0.00     0.135 A 
ATOM     95  F   UNL A   1      38.078  31.654  37.804  1.00  0.00    -0.206 F 
ATOM     96  C   UNL A   1      38.566  33.544  39.104  1.00  0.00     0.059 A 
ATOM     97  C   UNL A   1      40.268  35.112  38.371  1.00  0.00     0.059 A 
ATOM     98  F   UNL A   1      41.384  34.753  36.343  1.00  0.00    -0.206 F 
ATOM     99  C   UNL A   1      39.308  34.711  39.299  1.00  0.00     0.060 A 
BRANCH  99 100
ATOM    100  S   UNL A   1      39.019  35.683  40.792  1.00  0.00     0.124 S 
ATOM    101  O   UNL A   1      40.376  35.854  41.299  1.00  0.00    -0.237 OA
ATOM    102  O   UNL A   1      38.383  36.885  40.263  1.00  0.00    -0.237 OA
ATOM    103  O   UNL A   1      38.153  34.825  41.596  1.00  0.00    -0.744 OA
ENDBRANCH  99 100
ENDBRANCH  67  92
ENDBRANCH  41  42
ENDBRANCH  34  36
ENDBRANCH  33  34
ENDBRANCH  32  33
ENDBRANCH  31  32
ENDBRANCH  30  31
ENDBRANCH  29  30
ENDBRANCH  28  29
ENDBRANCH  27  28
ENDBRANCH   1  27
TORSDOF 28
ENDMDL
MODEL 3
REMARK VINA RESULT:      -8.3      3.064      9.047
REMARK SMILES CC[NH2+]C(C)(C)C(=O)N[C@@](C)(C(=O)OCCOCCOCCOCCOC(=O)c1ccc(-c2c3nc(c(-c4c(F)cc(S(=O)(=O)[O-])cc4F)c4ccc([nH]4)c(-c4c(F)cc(S(=O)(=O)[O-])cc4F)c4nc(c(-c5c(F)cc(S(=O)(=O)[O-])cc5F)c5ccc2[nH]5)C=C4)C=C3)cc1)C(F)(F)F
REMARK SMILES IDX 19 1 18 2 17 3 16 4 15 5 14 6 12 7 13 8 10 9 11 10 9 11 7 12
REMARK SMILES IDX 8 13 4 15 5 16 6 17 3 18 2 21 1 22 95 23 96 24 97 25 98 26
REMARK SMILES IDX 20 27 21 28 22 29 23 30 24 31 25 32 26 33 27 34 28 35 29 36
REMARK SMILES IDX 30 37 94 38 31 39 93 40 32 41 33 42 34 43 87 44 35 45 92 46
REMARK SMILES IDX 86 47 88 48 36 49 91 50 85 51 84 52 37 54 71 55 50 56 70 57
REMARK SMILES IDX 51 58 54 59 69 60 89 61 52 62 53 63 68 65 90 66 55 67 38 68
REMARK SMILES IDX 39 69 48 70 40 71 41 72 47 73 49 74 42 75 43 76 44 77 45 78
REMARK SMILES IDX 46 79 72 80 73 81 82 82 74 83 75 84 81 85 83 86 76 87 77 88
REMARK SMILES IDX 78 89 79 90 80 91 56 92 57 93 66 94 58 95 59 96 65 97 67 98
REMARK SMILES IDX 60 99 61 100 62 101 63 102 64 103
REMARK H PARENT 9 14 3 19 3 20 88 53 54 64
REMARK Flexibility Score: inf
ROOT
ATOM      1  C   UNL A   1      32.114  28.804  23.107  1.00  0.00     0.188 C 
ENDROOT
BRANCH   1   2
ATOM      2  C   UNL A   1      30.580  28.684  23.092  1.00  0.00     0.188 C 
BRANCH   2   3
ATOM      3  O   UNL A   1      29.941  27.454  22.778  1.00  0.00    -0.376 OA
BRANCH   3   4
ATOM      4  C   UNL A   1      29.228  26.727  23.768  1.00  0.00     0.202 C 
BRANCH   4   5
ATOM      5  C   UNL A   1      29.942  26.090  24.980  1.00  0.00     0.261 C 
BRANCH   5   6
ATOM      6  O   UNL A   1      31.297  25.642  24.767  1.00  0.00    -0.461 OA
BRANCH   6   7
ATOM      7  C   UNL A   1      31.495  24.302  24.788  1.00  0.00     0.341 C 
ATOM      8  O   UNL A   1      30.995  23.573  25.637  1.00  0.00    -0.249 OA
BRANCH   7   9
ATOM      9  C   UNL A   1      32.470  23.807  23.683  1.00  0.00     0.231 C 
ATOM     10  C   UNL A   1      32.132  24.666  22.453  1.00  0.00     0.058 C 
BRANCH   9  11
ATOM     11  N   UNL A   1      32.225  22.349  23.210  1.00  0.00    -0.328 N 
ATOM     12  C   UNL A   1      32.470  21.023  23.479  1.00  0.00     0.281 C 
ATOM     13  O   UNL A   1      32.091  20.254  22.585  1.00  0.00    -0.268 OA
ATOM     14  H   UNL A   1      31.679  22.390  22.393  1.00  0.00     0.165 HD
BRANCH  12  15
ATOM     15  C   UNL A   1      33.107  20.461  24.789  1.00  0.00     0.169 C 
ATOM     16  C   UNL A   1      34.633  20.528  24.683  1.00  0.00     0.090 C 
ATOM     17  C   UNL A   1      32.547  19.043  24.998  1.00  0.00     0.090 C 
BRANCH  15  18
ATOM     18  N   UNL A   1      32.686  21.139  26.059  1.00  0.00    -0.334 N 
ATOM     19  H   UNL A   1      32.317  22.053  25.795  1.00  0.00     0.347 HD
ATOM     20  H   UNL A   1      32.038  20.469  26.474  1.00  0.00     0.347 HD
BRANCH  18  21
ATOM     21  C   UNL A   1      33.652  21.370  27.128  1.00  0.00     0.257 C 
ATOM     22  C   UNL A   1      33.110  22.476  28.039  1.00  0.00     0.071 C 
ENDBRANCH  18  21
ENDBRANCH  15  18
ENDBRANCH  12  15
ENDBRANCH   9  11
BRANCH   9  23
ATOM     23  C   UNL A   1      33.823  24.256  24.278  1.00  0.00     0.422 C 
ATOM     24  F   UNL A   1      33.812  24.315  25.628  1.00  0.00    -0.168 F 
ATOM     25  F   UNL A   1      34.837  23.438  23.935  1.00  0.00    -0.168 F 
ATOM     26  F   UNL A   1      34.205  25.479  23.837  1.00  0.00    -0.168 F 
ENDBRANCH   9  23
ENDBRANCH   7   9
ENDBRANCH   6   7
ENDBRANCH   5   6
ENDBRANCH   4   5
ENDBRANCH   3   4
ENDBRANCH   2   3
ENDBRANCH   1   2
BRANCH   1  27
ATOM     27  O   UNL A   1      32.683  28.782  24.398  1.00  0.00    -0.377 OA
BRANCH  27  28
ATOM     28  C   UNL A   1      31.778  29.034  25.457  1.00  0.00     0.188 C 
BRANCH  28  29
ATOM     29  C   UNL A   1      31.909  30.408  26.141  1.00  0.00     0.188 C 
BRANCH  29  30
ATOM     30  O   UNL A   1      32.613  30.372  27.380  1.00  0.00    -0.376 OA
BRANCH  30  31
ATOM     31  C   UNL A   1      33.935  30.890  27.436  1.00  0.00     0.202 C 
BRANCH  31  32
ATOM     32  C   UNL A   1      34.128  32.357  27.859  1.00  0.00     0.261 C 
BRANCH  32  33
ATOM     33  O   UNL A   1      35.308  32.669  28.611  1.00  0.00    -0.460 OA
BRANCH  33  34
ATOM     34  C   UNL A   1      35.375  32.238  29.894  1.00  0.00     0.338 C 
ATOM     35  O   UNL A   1      34.493  32.268  30.718  1.00  0.00    -0.246 OA
BRANCH  34  36
ATOM     36  C   UNL A   1      36.657  31.503  30.042  1.00  0.00     0.060 A 
ATOM     37  C   UNL A   1      36.689  30.371  30.868  1.00  0.00     0.016 A 
ATOM     38  C   UNL A   1      37.801  31.903  29.348  1.00  0.00     0.016 A 
ATOM     39  C   UNL A   1      37.875  29.654  31.027  1.00  0.00     0.010 A 
ATOM     40  C   UNL A   1      38.997  31.204  29.534  1.00  0.00     0.010 A 
ATOM     41  C   UNL A   1      39.046  30.099  30.403  1.00  0.00    -0.014 A 
BRANCH  41  42
ATOM     42  C   UNL A   1      40.356  29.558  30.842  1.00  0.00     0.031 A 
ATOM     43  C   UNL A   1      41.015  30.197  32.035  1.00  0.00     0.074 A 
ATOM     44  C   UNL A   1      40.936  28.516  30.222  1.00  0.00     0.049 A 
ATOM     45  N   UNL A   1      42.171  29.937  32.586  1.00  0.00    -0.248 NA
ATOM     46  C   UNL A   1      40.263  31.279  32.692  1.00  0.00     0.031 C 
ATOM     47  C   UNL A   1      40.372  27.783  29.091  1.00  0.00     0.029 A 
ATOM     48  N   UNL A   1      42.139  27.897  30.460  1.00  0.00    -0.354 N 
ATOM     49  C   UNL A   1      42.290  30.830  33.645  1.00  0.00     0.074 A 
ATOM     50  C   UNL A   1      41.105  31.657  33.640  1.00  0.00     0.031 C 
ATOM     51  C   UNL A   1      41.236  26.820  28.723  1.00  0.00     0.029 A 
ATOM     52  C   UNL A   1      42.427  26.891  29.570  1.00  0.00     0.049 A 
ATOM     53  H   UNL A   1      42.738  28.151  31.199  1.00  0.00     0.167 HD
ATOM     54  C   UNL A   1      43.295  30.944  34.546  1.00  0.00     0.037 A 
ATOM     55  C   UNL A   1      43.535  26.133  29.443  1.00  0.00     0.037 A 
ATOM     56  C   UNL A   1      44.476  30.122  34.537  1.00  0.00     0.049 A 
ATOM     57  C   UNL A   1      44.679  26.331  30.405  1.00  0.00     0.074 A 
ATOM     58  C   UNL A   1      45.547  30.146  35.412  1.00  0.00     0.029 A 
ATOM     59  N   UNL A   1      44.750  29.140  33.596  1.00  0.00    -0.354 N 
ATOM     60  N   UNL A   1      44.773  27.161  31.419  1.00  0.00    -0.248 NA
ATOM     61  C   UNL A   1      45.867  25.488  30.210  1.00  0.00     0.031 C 
ATOM     62  C   UNL A   1      46.496  29.222  34.964  1.00  0.00     0.029 A 
ATOM     63  C   UNL A   1      45.988  28.572  33.850  1.00  0.00     0.049 A 
ATOM     64  H   UNL A   1      44.152  28.883  32.857  1.00  0.00     0.167 HD
ATOM     65  C   UNL A   1      46.015  26.918  31.999  1.00  0.00     0.074 A 
ATOM     66  C   UNL A   1      46.633  25.858  31.228  1.00  0.00     0.031 C 
ATOM     67  C   UNL A   1      46.589  27.513  33.076  1.00  0.00     0.037 A 
BRANCH  54  68
ATOM     68  C   UNL A   1      43.173  32.026  35.586  1.00  0.00     0.058 A 
ATOM     69  C   UNL A   1      42.639  31.778  36.861  1.00  0.00     0.135 A 
ATOM     70  C   UNL A   1      43.597  33.334  35.299  1.00  0.00     0.135 A 
ATOM     71  F   UNL A   1      42.198  30.552  37.183  1.00  0.00    -0.206 F 
ATOM     72  C   UNL A   1      42.495  32.795  37.800  1.00  0.00     0.059 A 
ATOM     73  C   UNL A   1      43.494  34.358  36.234  1.00  0.00     0.059 A 
ATOM     74  F   UNL A   1      44.111  33.629  34.094  1.00  0.00    -0.206 F 
ATOM     75  C   UNL A   1      42.924  34.083  37.475  1.00  0.00     0.060 A 
BRANCH  75  76
ATOM     76  S   UNL A   1      42.716  35.394  38.698  1.00  0.00     0.124 S 
ATOM     77  O   UNL A   1      43.414  36.504  38.055  1.00  0.00    -0.237 OA
ATOM     78  O   UNL A   1      41.264  35.520  38.775  1.00  0.00    -0.237 OA
ATOM     79  O   UNL A   1      43.361  34.854  39.891  1.00  0.00    -0.744 OA
ENDBRANCH  75  76
ENDBRANCH  54  68
BRANCH  55  80
ATOM     80  C   UNL A   1      43.619  25.118  28.357  1.00  0.00     0.058 A 
ATOM     81  C   UNL A   1      44.244  25.411  27.137  1.00  0.00     0.135 A 
ATOM     82  C   UNL A   1      43.086  23.830  28.524  1.00  0.00     0.135 A 
ATOM     83  F   UNL A   1      44.754  26.633  26.920  1.00  0.00    -0.206 F 
ATOM     84  C   UNL A   1      44.339  24.466  26.120  1.00  0.00     0.059 A 
ATOM     85  C   UNL A   1      43.192  22.859  27.533  1.00  0.00     0.059 A 
ATOM     86  F   UNL A   1      42.480  23.496  29.674  1.00  0.00    -0.206 F 
ATOM     87  C   UNL A   1      43.817  23.188  26.332  1.00  0.00     0.060 A 
BRANCH  87  88
ATOM     88  S   UNL A   1      44.016  21.948  25.033  1.00  0.00     0.124 S 
ATOM     89  O   UNL A   1      43.152  20.876  25.515  1.00  0.00    -0.237 OA
ATOM     90  O   UNL A   1      43.547  22.667  23.853  1.00  0.00    -0.237 OA
ATOM     91  O   UNL A   1      45.448  21.663  25.057  1.00  0.00    -0.744 OA
ENDBRANCH  87  88
ENDBRANCH  55  80
BRANCH  67  92
ATOM     92  C   UNL A   1      47.939  27.010  33.517  1.00  0.00     0.058 A 
ATOM     93  C   UNL A   1      49.134  27.603  33.081  1.00  0.00     0.135 A 
ATOM     94  C   UNL A   1      48.034  25.955  34.441  1.00  0.00     0.135 A 
ATOM     95  F   UNL A   1      49.105  28.611  32.195  1.00  0.00    -0.206 F 
ATOM     96  C   UNL A   1      50.374  27.153  33.525  1.00  0.00     0.059 A 
ATOM     97  C   UNL A   1      49.260  25.511  34.923  1.00  0.00     0.059 A 
ATOM     98  F   UNL A   1      46.923  25.358  34.903  1.00  0.00    -0.206 F 
ATOM     99  C   UNL A   1      50.427  26.108  34.450  1.00  0.00     0.060 A 
BRANCH  99 100
ATOM    100  S   UNL A   1      52.040  25.558  35.043  1.00  0.00     0.124 S 
ATOM    101  O   UNL A   1      51.758  25.276  36.446  1.00  0.00    -0.237 OA
ATOM    102  O   UNL A   1      52.301  24.394  34.202  1.00  0.00    -0.237 OA
ATOM    103  O   UNL A   1      52.906  26.708  34.796  1.00  0.00    -0.744 OA
ENDBRANCH  99 100
ENDBRANCH  67  92
ENDBRANCH  41  42
ENDBRANCH  34  36
ENDBRANCH  33  34
ENDBRANCH  32  33
ENDBRANCH  31  32
ENDBRANCH  30  31
ENDBRANCH  29  30
ENDBRANCH  28  29
ENDBRANCH  27  28
ENDBRANCH   1  27
TORSDOF 28
ENDMDL
