MODEL 1
REMARK VINA RESULT:      -8.3      0.000      0.000
REMARK SMILES CCn1ccc([C@@H](C)NC(=O)[C@H](C)n2ccc(C(=O)OCCOCCOCCOCCOC(=O)c3ccc(-c4c5nc(c(-c6c(F)cc(S(=O)(=O)[O-])cc6F)c6ccc([nH]6)c(-c6c(F)cc(S(=O)(=O)[O-])cc6F)c6nc(c(-c7c(F)cc(S(=O)(=O)[O-])cc7F)c7ccc4[nH]7)C=C6)C=C5)cc3)n2)n1
REMARK SMILES IDX 25 1 24 2 23 3 22 4 21 5 20 6 18 7 19 8 17 9 14 10 15 11
REMARK SMILES IDX 101 12 16 13 12 14 13 15 10 16 9 17 11 19 7 20 8 21 6 22
REMARK SMILES IDX 3 23 4 24 102 25 5 26 2 27 1 28 26 29 27 30 28 31 29 32
REMARK SMILES IDX 30 33 31 34 32 35 33 36 34 37 35 38 36 39 100 40 37 41 99 42
REMARK SMILES IDX 38 43 39 44 40 45 93 46 41 47 98 48 92 49 94 50 42 51 97 52
REMARK SMILES IDX 91 53 90 54 43 56 77 57 56 58 76 59 57 60 60 61 75 62 95 63
REMARK SMILES IDX 58 64 59 65 74 67 96 68 61 69 44 70 45 71 54 72 46 73 47 74
REMARK SMILES IDX 53 75 55 76 48 77 49 78 50 79 51 80 52 81 78 82 79 83 88 84
REMARK SMILES IDX 80 85 81 86 87 87 89 88 82 89 83 90 84 91 85 92 86 93 62 94
REMARK SMILES IDX 63 95 72 96 64 97 65 98 71 99 73 100 66 101 67 102 68 103
REMARK SMILES IDX 69 104 70 105
REMARK H PARENT 9 18 94 55 60 66
REMARK Flexibility Score: inf
ROOT
ATOM      1  C   UNL A   1      41.508  26.559  28.614  1.00  0.00     0.188 C 
ENDROOT
BRANCH   1   2
ATOM      2  C   UNL A   1      41.554  25.122  28.064  1.00  0.00     0.188 C 
BRANCH   2   3
ATOM      3  O   UNL A   1      40.408  24.310  28.249  1.00  0.00    -0.376 OA
BRANCH   3   4
ATOM      4  C   UNL A   1      39.762  23.618  27.196  1.00  0.00     0.202 C 
BRANCH   4   5
ATOM      5  C   UNL A   1      38.767  24.191  26.164  1.00  0.00     0.261 C 
BRANCH   5   6
ATOM      6  O   UNL A   1      37.375  24.112  26.437  1.00  0.00    -0.458 OA
BRANCH   6   7
ATOM      7  C   UNL A   1      36.667  23.148  25.794  1.00  0.00     0.358 C 
ATOM      8  O   UNL A   1      37.135  22.371  24.970  1.00  0.00    -0.244 OA
BRANCH   7   9
ATOM      9  C   UNL A   1      35.326  23.014  26.378  1.00  0.00     0.170 A 
ATOM     10  N   UNL A   1      33.363  23.508  27.055  1.00  0.00    -0.260 N 
ATOM     11  C   UNL A   1      33.613  22.265  27.579  1.00  0.00     0.110 A 
ATOM     12  N   UNL A   1      34.417  24.006  26.367  1.00  0.00    -0.165 NA
ATOM     13  C   UNL A   1      34.849  21.898  27.116  1.00  0.00     0.057 A 
BRANCH  10  14
ATOM     14  C   UNL A   1      32.029  24.086  26.794  1.00  0.00     0.193 C 
ATOM     15  C   UNL A   1      32.257  25.163  25.735  1.00  0.00     0.044 C 
BRANCH  14  16
ATOM     16  C   UNL A   1      30.993  22.994  26.484  1.00  0.00     0.245 C 
ATOM     17  N   UNL A   1      31.039  22.225  25.359  1.00  0.00    -0.346 N 
ATOM     18  H   UNL A   1      30.223  21.698  25.202  1.00  0.00     0.164 HD
ATOM     19  O   UNL A   1      29.999  22.812  27.197  1.00  0.00    -0.273 OA
BRANCH  17  20
ATOM     20  C   UNL A   1      32.070  22.037  24.345  1.00  0.00     0.130 C 
ATOM     21  C   UNL A   1      31.667  22.697  23.031  1.00  0.00     0.038 C 
BRANCH  20  22
ATOM     22  C   UNL A   1      32.311  20.554  24.206  1.00  0.00     0.084 A 
ATOM     23  N   UNL A   1      32.569  18.524  24.798  1.00  0.00    -0.273 N 
ATOM     24  C   UNL A   1      32.546  18.487  23.436  1.00  0.00     0.109 A 
ATOM     25  N   UNL A   1      32.453  19.775  25.290  1.00  0.00    -0.176 NA
ATOM     26  C   UNL A   1      32.376  19.784  23.018  1.00  0.00     0.047 A 
BRANCH  23  27
ATOM     27  C   UNL A   1      32.639  17.417  25.735  1.00  0.00     0.141 C 
ATOM     28  C   UNL A   1      32.797  16.036  25.119  1.00  0.00     0.029 C 
ENDBRANCH  23  27
ENDBRANCH  20  22
ENDBRANCH  17  20
ENDBRANCH  14  16
ENDBRANCH  10  14
ENDBRANCH   7   9
ENDBRANCH   6   7
ENDBRANCH   5   6
ENDBRANCH   4   5
ENDBRANCH   3   4
ENDBRANCH   2   3
ENDBRANCH   1   2
BRANCH   1  29
ATOM     29  O   UNL A   1      40.906  27.461  27.697  1.00  0.00    -0.377 OA
BRANCH  29  30
ATOM     30  C   UNL A   1      40.360  28.652  28.257  1.00  0.00     0.188 C 
BRANCH  30  31
ATOM     31  C   UNL A   1      38.857  28.719  28.635  1.00  0.00     0.188 C 
BRANCH  31  32
ATOM     32  O   UNL A   1      38.085  29.653  27.881  1.00  0.00    -0.376 OA
BRANCH  32  33
ATOM     33  C   UNL A   1      37.484  30.760  28.529  1.00  0.00     0.202 C 
BRANCH  33  34
ATOM     34  C   UNL A   1      36.066  31.040  28.046  1.00  0.00     0.261 C 
BRANCH  34  35
ATOM     35  O   UNL A   1      35.167  31.291  29.112  1.00  0.00    -0.460 OA
BRANCH  35  36
ATOM     36  C   UNL A   1      34.947  32.594  29.380  1.00  0.00     0.338 C 
ATOM     37  O   UNL A   1      34.527  33.445  28.621  1.00  0.00    -0.246 OA
BRANCH  36  38
ATOM     38  C   UNL A   1      35.421  32.862  30.738  1.00  0.00     0.060 A 
ATOM     39  C   UNL A   1      36.265  33.963  30.872  1.00  0.00     0.016 A 
ATOM     40  C   UNL A   1      35.331  31.847  31.705  1.00  0.00     0.016 A 
ATOM     41  C   UNL A   1      37.248  33.887  31.823  1.00  0.00     0.010 A 
ATOM     42  C   UNL A   1      36.326  31.763  32.640  1.00  0.00     0.010 A 
ATOM     43  C   UNL A   1      37.327  32.727  32.599  1.00  0.00    -0.014 A 
BRANCH  43  44
ATOM     44  C   UNL A   1      38.547  32.520  33.332  1.00  0.00     0.031 A 
ATOM     45  C   UNL A   1      38.574  33.196  34.637  1.00  0.00     0.074 A 
ATOM     46  C   UNL A   1      39.522  31.726  32.857  1.00  0.00     0.049 A 
ATOM     47  N   UNL A   1      39.296  34.203  34.995  1.00  0.00    -0.248 NA
ATOM     48  C   UNL A   1      37.544  32.800  35.607  1.00  0.00     0.031 C 
ATOM     49  C   UNL A   1      39.464  30.782  31.737  1.00  0.00     0.029 A 
ATOM     50  N   UNL A   1      40.763  31.529  33.367  1.00  0.00    -0.354 N 
ATOM     51  C   UNL A   1      38.967  34.423  36.324  1.00  0.00     0.074 A 
ATOM     52  C   UNL A   1      37.760  33.680  36.583  1.00  0.00     0.031 C 
ATOM     53  C   UNL A   1      40.539  29.963  31.798  1.00  0.00     0.029 A 
ATOM     54  C   UNL A   1      41.407  30.405  32.878  1.00  0.00     0.049 A 
ATOM     55  H   UNL A   1      41.171  32.133  34.028  1.00  0.00     0.167 HD
ATOM     56  C   UNL A   1      39.852  34.982  37.189  1.00  0.00     0.037 A 
ATOM     57  C   UNL A   1      42.513  29.836  33.412  1.00  0.00     0.037 A 
ATOM     58  C   UNL A   1      40.902  35.688  36.502  1.00  0.00     0.049 A 
ATOM     59  C   UNL A   1      43.176  30.868  34.258  1.00  0.00     0.074 A 
ATOM     60  C   UNL A   1      40.929  36.744  35.611  1.00  0.00     0.029 A 
ATOM     61  N   UNL A   1      42.133  35.085  36.404  1.00  0.00    -0.354 N 
ATOM     62  N   UNL A   1      43.726  31.959  33.792  1.00  0.00    -0.248 NA
ATOM     63  C   UNL A   1      42.843  30.908  35.675  1.00  0.00     0.031 C 
ATOM     64  C   UNL A   1      41.989  36.448  34.707  1.00  0.00     0.029 A 
ATOM     65  C   UNL A   1      42.570  35.244  35.112  1.00  0.00     0.049 A 
ATOM     66  H   UNL A   1      42.614  34.622  37.129  1.00  0.00     0.167 HD
ATOM     67  C   UNL A   1      43.444  32.942  34.732  1.00  0.00     0.074 A 
ATOM     68  C   UNL A   1      42.988  32.214  35.912  1.00  0.00     0.031 C 
ATOM     69  C   UNL A   1      43.342  34.258  34.381  1.00  0.00     0.037 A 
BRANCH  56  70
ATOM     70  C   UNL A   1      39.940  34.568  38.632  1.00  0.00     0.058 A 
ATOM     71  C   UNL A   1      39.768  35.530  39.643  1.00  0.00     0.135 A 
ATOM     72  C   UNL A   1      40.443  33.314  39.054  1.00  0.00     0.135 A 
ATOM     73  F   UNL A   1      39.320  36.760  39.345  1.00  0.00    -0.206 F 
ATOM     74  C   UNL A   1      40.120  35.282  40.968  1.00  0.00     0.059 A 
ATOM     75  C   UNL A   1      40.739  33.024  40.377  1.00  0.00     0.059 A 
ATOM     76  F   UNL A   1      40.773  32.346  38.190  1.00  0.00    -0.206 F 
ATOM     77  C   UNL A   1      40.620  34.029  41.321  1.00  0.00     0.060 A 
BRANCH  77  78
ATOM     78  S   UNL A   1      41.198  33.740  43.000  1.00  0.00     0.124 S 
ATOM     79  O   UNL A   1      41.601  35.085  43.398  1.00  0.00    -0.237 OA
ATOM     80  O   UNL A   1      40.004  33.210  43.647  1.00  0.00    -0.237 OA
ATOM     81  O   UNL A   1      42.284  32.781  42.819  1.00  0.00    -0.744 OA
ENDBRANCH  77  78
ENDBRANCH  56  70
BRANCH  57  82
ATOM     82  C   UNL A   1      42.796  28.381  33.523  1.00  0.00     0.058 A 
ATOM     83  C   UNL A   1      43.940  27.812  32.940  1.00  0.00     0.135 A 
ATOM     84  C   UNL A   1      42.078  27.555  34.416  1.00  0.00     0.135 A 
ATOM     85  F   UNL A   1      44.702  28.536  32.107  1.00  0.00    -0.206 F 
ATOM     86  C   UNL A   1      44.361  26.511  33.242  1.00  0.00     0.059 A 
ATOM     87  C   UNL A   1      42.469  26.254  34.719  1.00  0.00     0.059 A 
ATOM     88  F   UNL A   1      41.020  28.019  35.096  1.00  0.00    -0.206 F 
ATOM     89  C   UNL A   1      43.624  25.744  34.145  1.00  0.00     0.060 A 
BRANCH  89  90
ATOM     90  S   UNL A   1      44.239  24.121  34.649  1.00  0.00     0.124 S 
ATOM     91  O   UNL A   1      43.023  23.317  34.626  1.00  0.00    -0.237 OA
ATOM     92  O   UNL A   1      45.220  23.827  33.610  1.00  0.00    -0.237 OA
ATOM     93  O   UNL A   1      44.798  24.366  35.977  1.00  0.00    -0.744 OA
ENDBRANCH  89  90
ENDBRANCH  57  82
BRANCH  69  94
ATOM     94  C   UNL A   1      43.828  34.670  33.014  1.00  0.00     0.058 A 
ATOM     95  C   UNL A   1      45.172  34.959  32.716  1.00  0.00     0.135 A 
ATOM     96  C   UNL A   1      42.937  34.591  31.932  1.00  0.00     0.135 A 
ATOM     97  F   UNL A   1      46.106  34.950  33.676  1.00  0.00    -0.206 F 
ATOM     98  C   UNL A   1      45.605  35.188  31.408  1.00  0.00     0.059 A 
ATOM     99  C   UNL A   1      43.353  34.787  30.615  1.00  0.00     0.059 A 
ATOM    100  F   UNL A   1      41.654  34.255  32.141  1.00  0.00    -0.206 F 
ATOM    101  C   UNL A   1      44.689  35.092  30.361  1.00  0.00     0.060 A 
BRANCH 101 102
ATOM    102  S   UNL A   1      45.275  35.271  28.662  1.00  0.00     0.124 S 
ATOM    103  O   UNL A   1      44.028  35.275  27.905  1.00  0.00    -0.237 OA
ATOM    104  O   UNL A   1      45.995  36.541  28.705  1.00  0.00    -0.237 OA
ATOM    105  O   UNL A   1      46.121  34.096  28.466  1.00  0.00    -0.744 OA
ENDBRANCH 101 102
ENDBRANCH  69  94
ENDBRANCH  43  44
ENDBRANCH  36  38
ENDBRANCH  35  36
ENDBRANCH  34  35
ENDBRANCH  33  34
ENDBRANCH  32  33
ENDBRANCH  31  32
ENDBRANCH  30  31
ENDBRANCH  29  30
ENDBRANCH   1  29
TORSDOF 28
ENDMDL
MODEL 2
REMARK VINA RESULT:      -8.1      1.933      3.305
REMARK SMILES CCn1ccc([C@@H](C)NC(=O)[C@H](C)n2ccc(C(=O)OCCOCCOCCOCCOC(=O)c3ccc(-c4c5nc(c(-c6c(F)cc(S(=O)(=O)[O-])cc6F)c6ccc([nH]6)c(-c6c(F)cc(S(=O)(=O)[O-])cc6F)c6nc(c(-c7c(F)cc(S(=O)(=O)[O-])cc7F)c7ccc4[nH]7)C=C6)C=C5)cc3)n2)n1
REMARK SMILES IDX 25 1 24 2 23 3 22 4 21 5 20 6 18 7 19 8 17 9 14 10 15 11
REMARK SMILES IDX 101 12 16 13 12 14 13 15 10 16 9 17 11 19 7 20 8 21 6 22
REMARK SMILES IDX 3 23 4 24 102 25 5 26 2 27 1 28 26 29 27 30 28 31 29 32
REMARK SMILES IDX 30 33 31 34 32 35 33 36 34 37 35 38 36 39 100 40 37 41 99 42
REMARK SMILES IDX 38 43 39 44 40 45 93 46 41 47 98 48 92 49 94 50 42 51 97 52
REMARK SMILES IDX 91 53 90 54 43 56 77 57 56 58 76 59 57 60 60 61 75 62 95 63
REMARK SMILES IDX 58 64 59 65 74 67 96 68 61 69 44 70 45 71 54 72 46 73 47 74
REMARK SMILES IDX 53 75 55 76 48 77 49 78 50 79 51 80 52 81 78 82 79 83 88 84
REMARK SMILES IDX 80 85 81 86 87 87 89 88 82 89 83 90 84 91 85 92 86 93 62 94
REMARK SMILES IDX 63 95 72 96 64 97 65 98 71 99 73 100 66 101 67 102 68 103
REMARK SMILES IDX 69 104 70 105
REMARK H PARENT 9 18 94 55 60 66
REMARK Flexibility Score: inf
ROOT
ATOM      1  C   UNL A   1      41.701  26.073  26.879  1.00  0.00     0.188 C 
ENDROOT
BRANCH   1   2
ATOM      2  C   UNL A   1      42.382  26.020  25.499  1.00  0.00     0.188 C 
BRANCH   2   3
ATOM      3  O   UNL A   1      42.877  24.769  25.058  1.00  0.00    -0.376 OA
BRANCH   3   4
ATOM      4  C   UNL A   1      43.056  23.654  25.913  1.00  0.00     0.202 C 
BRANCH   4   5
ATOM      5  C   UNL A   1      42.459  22.239  25.750  1.00  0.00     0.261 C 
BRANCH   5   6
ATOM      6  O   UNL A   1      41.566  21.753  26.742  1.00  0.00    -0.458 OA
BRANCH   6   7
ATOM      7  C   UNL A   1      40.482  21.054  26.316  1.00  0.00     0.358 C 
ATOM      8  O   UNL A   1      40.414  19.832  26.269  1.00  0.00    -0.244 OA
BRANCH   7   9
ATOM      9  C   UNL A   1      39.330  21.947  26.131  1.00  0.00     0.170 A 
ATOM     10  N   UNL A   1      37.496  22.744  25.384  1.00  0.00    -0.260 N 
ATOM     11  C   UNL A   1      38.047  23.761  26.122  1.00  0.00     0.110 A 
ATOM     12  N   UNL A   1      38.290  21.649  25.330  1.00  0.00    -0.165 NA
ATOM     13  C   UNL A   1      39.203  23.259  26.659  1.00  0.00     0.057 A 
BRANCH  10  14
ATOM     14  C   UNL A   1      36.061  22.576  25.076  1.00  0.00     0.193 C 
ATOM     15  C   UNL A   1      35.321  23.339  26.173  1.00  0.00     0.044 C 
BRANCH  14  16
ATOM     16  C   UNL A   1      35.751  22.951  23.618  1.00  0.00     0.245 C 
ATOM     17  N   UNL A   1      34.488  22.953  23.105  1.00  0.00    -0.346 N 
ATOM     18  H   UNL A   1      34.456  23.036  22.124  1.00  0.00     0.164 HD
ATOM     19  O   UNL A   1      36.646  23.183  22.797  1.00  0.00    -0.273 OA
BRANCH  17  20
ATOM     20  C   UNL A   1      33.177  22.858  23.734  1.00  0.00     0.130 C 
ATOM     21  C   UNL A   1      32.243  21.974  22.915  1.00  0.00     0.038 C 
BRANCH  20  22
ATOM     22  C   UNL A   1      32.650  24.262  23.911  1.00  0.00     0.084 A 
ATOM     23  N   UNL A   1      32.305  26.318  23.476  1.00  0.00    -0.273 N 
ATOM     24  C   UNL A   1      31.527  26.060  24.566  1.00  0.00     0.109 A 
ATOM     25  N   UNL A   1      33.018  25.245  23.075  1.00  0.00    -0.176 NA
ATOM     26  C   UNL A   1      31.722  24.735  24.872  1.00  0.00     0.047 A 
BRANCH  23  27
ATOM     27  C   UNL A   1      32.402  27.541  22.701  1.00  0.00     0.141 C 
ATOM     28  C   UNL A   1      33.606  28.421  22.999  1.00  0.00     0.029 C 
ENDBRANCH  23  27
ENDBRANCH  20  22
ENDBRANCH  17  20
ENDBRANCH  14  16
ENDBRANCH  10  14
ENDBRANCH   7   9
ENDBRANCH   6   7
ENDBRANCH   5   6
ENDBRANCH   4   5
ENDBRANCH   3   4
ENDBRANCH   2   3
ENDBRANCH   1   2
BRANCH   1  29
ATOM     29  O   UNL A   1      42.232  27.106  27.696  1.00  0.00    -0.377 OA
BRANCH  29  30
ATOM     30  C   UNL A   1      41.416  28.263  27.852  1.00  0.00     0.188 C 
BRANCH  30  31
ATOM     31  C   UNL A   1      39.881  28.169  27.648  1.00  0.00     0.188 C 
BRANCH  31  32
ATOM     32  O   UNL A   1      39.128  29.241  28.214  1.00  0.00    -0.376 OA
BRANCH  32  33
ATOM     33  C   UNL A   1      37.954  29.700  27.565  1.00  0.00     0.202 C 
BRANCH  33  34
ATOM     34  C   UNL A   1      36.846  30.087  28.537  1.00  0.00     0.261 C 
BRANCH  34  35
ATOM     35  O   UNL A   1      36.746  31.488  28.718  1.00  0.00    -0.460 OA
BRANCH  35  36
ATOM     36  C   UNL A   1      35.608  31.909  29.307  1.00  0.00     0.338 C 
ATOM     37  O   UNL A   1      34.522  32.072  28.786  1.00  0.00    -0.246 OA
BRANCH  36  38
ATOM     38  C   UNL A   1      35.920  32.264  30.692  1.00  0.00     0.060 A 
ATOM     39  C   UNL A   1      36.654  33.436  30.859  1.00  0.00     0.016 A 
ATOM     40  C   UNL A   1      35.816  31.280  31.689  1.00  0.00     0.016 A 
ATOM     41  C   UNL A   1      37.539  33.478  31.903  1.00  0.00     0.010 A 
ATOM     42  C   UNL A   1      36.715  31.313  32.719  1.00  0.00     0.010 A 
ATOM     43  C   UNL A   1      37.634  32.356  32.733  1.00  0.00    -0.014 A 
BRANCH  43  44
ATOM     44  C   UNL A   1      38.787  32.280  33.590  1.00  0.00     0.031 A 
ATOM     45  C   UNL A   1      38.685  33.116  34.794  1.00  0.00     0.074 A 
ATOM     46  C   UNL A   1      39.815  31.462  33.306  1.00  0.00     0.049 A 
ATOM     47  N   UNL A   1      39.353  34.181  35.081  1.00  0.00    -0.248 NA
ATOM     48  C   UNL A   1      37.579  32.816  35.714  1.00  0.00     0.031 C 
ATOM     49  C   UNL A   1      39.875  30.382  32.316  1.00  0.00     0.029 A 
ATOM     50  N   UNL A   1      41.009  31.367  33.943  1.00  0.00    -0.354 N 
ATOM     51  C   UNL A   1      38.902  34.558  36.337  1.00  0.00     0.074 A 
ATOM     52  C   UNL A   1      37.691  33.818  36.584  1.00  0.00     0.031 C 
ATOM     53  C   UNL A   1      40.954  29.610  32.575  1.00  0.00     0.029 A 
ATOM     54  C   UNL A   1      41.714  30.210  33.660  1.00  0.00     0.049 A 
ATOM     55  H   UNL A   1      41.345  32.062  34.554  1.00  0.00     0.167 HD
ATOM     56  C   UNL A   1      39.696  35.247  37.197  1.00  0.00     0.037 A 
ATOM     57  C   UNL A   1      42.778  29.746  34.356  1.00  0.00     0.037 A 
ATOM     58  C   UNL A   1      40.790  35.892  36.518  1.00  0.00     0.049 A 
ATOM     59  C   UNL A   1      43.344  30.896  35.118  1.00  0.00     0.074 A 
ATOM     60  C   UNL A   1      40.877  36.827  35.505  1.00  0.00     0.029 A 
ATOM     61  N   UNL A   1      42.036  35.317  36.605  1.00  0.00    -0.354 N 
ATOM     62  N   UNL A   1      43.913  31.935  34.564  1.00  0.00    -0.248 NA
ATOM     63  C   UNL A   1      42.884  31.105  36.483  1.00  0.00     0.031 C 
ATOM     64  C   UNL A   1      42.020  36.450  34.741  1.00  0.00     0.029 A 
ATOM     65  C   UNL A   1      42.584  35.324  35.346  1.00  0.00     0.049 A 
ATOM     66  H   UNL A   1      42.458  34.964  37.422  1.00  0.00     0.167 HD
ATOM     67  C   UNL A   1      43.530  33.020  35.342  1.00  0.00     0.074 A 
ATOM     68  C   UNL A   1      42.983  32.434  36.562  1.00  0.00     0.031 C 
ATOM     69  C   UNL A   1      43.436  34.278  34.817  1.00  0.00     0.037 A 
BRANCH  56  70
ATOM     70  C   UNL A   1      39.661  35.022  38.683  1.00  0.00     0.058 A 
ATOM     71  C   UNL A   1      39.885  33.731  39.196  1.00  0.00     0.135 A 
ATOM     72  C   UNL A   1      39.159  35.972  39.604  1.00  0.00     0.135 A 
ATOM     73  F   UNL A   1      40.337  32.750  38.399  1.00  0.00    -0.206 F 
ATOM     74  C   UNL A   1      39.582  33.397  40.515  1.00  0.00     0.059 A 
ATOM     75  C   UNL A   1      38.913  35.677  40.936  1.00  0.00     0.059 A 
ATOM     76  F   UNL A   1      38.783  37.202  39.232  1.00  0.00    -0.206 F 
ATOM     77  C   UNL A   1      39.082  34.375  41.372  1.00  0.00     0.060 A 
BRANCH  77  78
ATOM     78  S   UNL A   1      38.567  33.924  43.036  1.00  0.00     0.124 S 
ATOM     79  O   UNL A   1      39.846  33.579  43.646  1.00  0.00    -0.237 OA
ATOM     80  O   UNL A   1      37.942  35.156  43.506  1.00  0.00    -0.237 OA
ATOM     81  O   UNL A   1      37.650  32.810  42.812  1.00  0.00    -0.744 OA
ENDBRANCH  77  78
ENDBRANCH  56  70
BRANCH  57  82
ATOM     82  C   UNL A   1      43.076  28.325  34.677  1.00  0.00     0.058 A 
ATOM     83  C   UNL A   1      42.274  27.593  35.568  1.00  0.00     0.135 A 
ATOM     84  C   UNL A   1      44.010  27.579  33.926  1.00  0.00     0.135 A 
ATOM     85  F   UNL A   1      41.335  28.216  36.296  1.00  0.00    -0.206 F 
ATOM     86  C   UNL A   1      42.374  26.202  35.689  1.00  0.00     0.059 A 
ATOM     87  C   UNL A   1      44.138  26.197  34.041  1.00  0.00     0.059 A 
ATOM     88  F   UNL A   1      44.769  28.158  32.985  1.00  0.00    -0.206 F 
ATOM     89  C   UNL A   1      43.302  25.511  34.910  1.00  0.00     0.060 A 
BRANCH  89  90
ATOM     90  S   UNL A   1      43.338  23.704  34.955  1.00  0.00     0.124 S 
ATOM     91  O   UNL A   1      44.195  23.448  36.106  1.00  0.00    -0.237 OA
ATOM     92  O   UNL A   1      41.927  23.372  35.122  1.00  0.00    -0.237 OA
ATOM     93  O   UNL A   1      43.910  23.343  33.660  1.00  0.00    -0.744 OA
ENDBRANCH  89  90
ENDBRANCH  57  82
BRANCH  69  94
ATOM     94  C   UNL A   1      44.036  34.528  33.456  1.00  0.00     0.058 A 
ATOM     95  C   UNL A   1      45.395  34.814  33.241  1.00  0.00     0.135 A 
ATOM     96  C   UNL A   1      43.246  34.288  32.320  1.00  0.00     0.135 A 
ATOM     97  F   UNL A   1      46.240  34.952  34.271  1.00  0.00    -0.206 F 
ATOM     98  C   UNL A   1      45.939  34.889  31.957  1.00  0.00     0.059 A 
ATOM     99  C   UNL A   1      43.774  34.329  31.030  1.00  0.00     0.059 A 
ATOM    100  F   UNL A   1      41.954  33.947  32.459  1.00  0.00    -0.206 F 
ATOM    101  C   UNL A   1      45.122  34.637  30.856  1.00  0.00     0.060 A 
BRANCH 101 102
ATOM    102  S   UNL A   1      45.854  34.617  29.204  1.00  0.00     0.124 S 
ATOM    103  O   UNL A   1      46.334  35.988  29.064  1.00  0.00    -0.237 OA
ATOM    104  O   UNL A   1      46.888  33.593  29.326  1.00  0.00    -0.237 OA
ATOM    105  O   UNL A   1      44.734  34.255  28.338  1.00  0.00    -0.744 OA
ENDBRANCH 101 102
ENDBRANCH  69  94
ENDBRANCH  43  44
ENDBRANCH  36  38
ENDBRANCH  35  36
ENDBRANCH  34  35
ENDBRANCH  33  34
ENDBRANCH  32  33
ENDBRANCH  31  32
ENDBRANCH  30  31
ENDBRANCH  29  30
ENDBRANCH   1  29
TORSDOF 28
ENDMDL
MODEL 3
REMARK VINA RESULT:      -7.9      3.691      8.029
REMARK SMILES CCn1ccc([C@@H](C)NC(=O)[C@H](C)n2ccc(C(=O)OCCOCCOCCOCCOC(=O)c3ccc(-c4c5nc(c(-c6c(F)cc(S(=O)(=O)[O-])cc6F)c6ccc([nH]6)c(-c6c(F)cc(S(=O)(=O)[O-])cc6F)c6nc(c(-c7c(F)cc(S(=O)(=O)[O-])cc7F)c7ccc4[nH]7)C=C6)C=C5)cc3)n2)n1
REMARK SMILES IDX 25 1 24 2 23 3 22 4 21 5 20 6 18 7 19 8 17 9 14 10 15 11
REMARK SMILES IDX 101 12 16 13 12 14 13 15 10 16 9 17 11 19 7 20 8 21 6 22
REMARK SMILES IDX 3 23 4 24 102 25 5 26 2 27 1 28 26 29 27 30 28 31 29 32
REMARK SMILES IDX 30 33 31 34 32 35 33 36 34 37 35 38 36 39 100 40 37 41 99 42
REMARK SMILES IDX 38 43 39 44 40 45 93 46 41 47 98 48 92 49 94 50 42 51 97 52
REMARK SMILES IDX 91 53 90 54 43 56 77 57 56 58 76 59 57 60 60 61 75 62 95 63
REMARK SMILES IDX 58 64 59 65 74 67 96 68 61 69 44 70 45 71 54 72 46 73 47 74
REMARK SMILES IDX 53 75 55 76 48 77 49 78 50 79 51 80 52 81 78 82 79 83 88 84
REMARK SMILES IDX 80 85 81 86 87 87 89 88 82 89 83 90 84 91 85 92 86 93 62 94
REMARK SMILES IDX 63 95 72 96 64 97 65 98 71 99 73 100 66 101 67 102 68 103
REMARK SMILES IDX 69 104 70 105
REMARK H PARENT 9 18 94 55 60 66
REMARK Flexibility Score: inf
ROOT
ATOM      1  C   UNL A   1      40.017  25.422  27.900  1.00  0.00     0.188 C 
ENDROOT
BRANCH   1   2
ATOM      2  C   UNL A   1      39.181  24.483  27.011  1.00  0.00     0.188 C 
BRANCH   2   3
ATOM      3  O   UNL A   1      39.317  23.088  27.217  1.00  0.00    -0.376 OA
BRANCH   3   4
ATOM      4  C   UNL A   1      39.177  22.128  26.185  1.00  0.00     0.202 C 
BRANCH   4   5
ATOM      5  C   UNL A   1      37.967  21.924  25.247  1.00  0.00     0.261 C 
BRANCH   5   6
ATOM      6  O   UNL A   1      36.658  22.097  25.770  1.00  0.00    -0.458 OA
BRANCH   6   7
ATOM      7  C   UNL A   1      35.651  21.414  25.167  1.00  0.00     0.358 C 
ATOM      8  O   UNL A   1      35.637  20.202  24.989  1.00  0.00    -0.244 OA
BRANCH   7   9
ATOM      9  C   UNL A   1      34.487  22.286  24.955  1.00  0.00     0.170 A 
ATOM     10  N   UNL A   1      33.099  23.603  24.009  1.00  0.00    -0.260 N 
ATOM     11  C   UNL A   1      32.773  23.646  25.340  1.00  0.00     0.110 A 
ATOM     12  N   UNL A   1      34.178  22.824  23.761  1.00  0.00    -0.165 NA
ATOM     13  C   UNL A   1      33.616  22.767  25.969  1.00  0.00     0.057 A 
BRANCH  10  14
ATOM     14  C   UNL A   1      32.193  23.910  22.884  1.00  0.00     0.193 C 
ATOM     15  C   UNL A   1      30.783  23.802  23.462  1.00  0.00     0.044 C 
BRANCH  14  16
ATOM     16  C   UNL A   1      32.578  25.229  22.194  1.00  0.00     0.245 C 
ATOM     17  N   UNL A   1      31.890  26.391  22.378  1.00  0.00    -0.346 N 
ATOM     18  H   UNL A   1      32.132  27.103  21.744  1.00  0.00     0.164 HD
ATOM     19  O   UNL A   1      33.484  25.289  21.355  1.00  0.00    -0.273 OA
BRANCH  17  20
ATOM     20  C   UNL A   1      30.863  26.778  23.338  1.00  0.00     0.130 C 
ATOM     21  C   UNL A   1      29.972  27.876  22.769  1.00  0.00     0.038 C 
BRANCH  20  22
ATOM     22  C   UNL A   1      31.559  27.190  24.613  1.00  0.00     0.084 A 
ATOM     23  N   UNL A   1      32.840  28.301  25.901  1.00  0.00    -0.273 N 
ATOM     24  C   UNL A   1      32.166  27.456  26.730  1.00  0.00     0.109 A 
ATOM     25  N   UNL A   1      32.507  28.140  24.603  1.00  0.00    -0.176 NA
ATOM     26  C   UNL A   1      31.323  26.724  25.930  1.00  0.00     0.047 A 
BRANCH  23  27
ATOM     27  C   UNL A   1      33.788  29.346  26.246  1.00  0.00     0.141 C 
ATOM     28  C   UNL A   1      34.578  29.128  27.526  1.00  0.00     0.029 C 
ENDBRANCH  23  27
ENDBRANCH  20  22
ENDBRANCH  17  20
ENDBRANCH  14  16
ENDBRANCH  10  14
ENDBRANCH   7   9
ENDBRANCH   6   7
ENDBRANCH   5   6
ENDBRANCH   4   5
ENDBRANCH   3   4
ENDBRANCH   2   3
ENDBRANCH   1   2
BRANCH   1  29
ATOM     29  O   UNL A   1      39.803  26.788  27.580  1.00  0.00    -0.377 OA
BRANCH  29  30
ATOM     30  C   UNL A   1      40.971  27.559  27.313  1.00  0.00     0.188 C 
BRANCH  30  31
ATOM     31  C   UNL A   1      42.378  26.938  27.514  1.00  0.00     0.188 C 
BRANCH  31  32
ATOM     32  O   UNL A   1      43.272  27.709  28.316  1.00  0.00    -0.376 OA
BRANCH  32  33
ATOM     33  C   UNL A   1      44.619  27.878  27.910  1.00  0.00     0.202 C 
BRANCH  33  34
ATOM     34  C   UNL A   1      44.755  28.577  26.563  1.00  0.00     0.261 C 
BRANCH  34  35
ATOM     35  O   UNL A   1      44.503  29.969  26.643  1.00  0.00    -0.460 OA
BRANCH  35  36
ATOM     36  C   UNL A   1      45.536  30.759  26.288  1.00  0.00     0.338 C 
ATOM     37  O   UNL A   1      46.413  30.513  25.483  1.00  0.00    -0.246 OA
BRANCH  36  38
ATOM     38  C   UNL A   1      45.507  31.951  27.137  1.00  0.00     0.060 A 
ATOM     39  C   UNL A   1      46.223  31.856  28.328  1.00  0.00     0.016 A 
ATOM     40  C   UNL A   1      44.514  32.920  26.918  1.00  0.00     0.016 A 
ATOM     41  C   UNL A   1      45.726  32.529  29.413  1.00  0.00     0.010 A 
ATOM     42  C   UNL A   1      44.006  33.575  28.006  1.00  0.00     0.010 A 
ATOM     43  C   UNL A   1      44.553  33.272  29.248  1.00  0.00    -0.014 A 
BRANCH  43  44
ATOM     44  C   UNL A   1      43.868  33.676  30.447  1.00  0.00     0.031 A 
ATOM     45  C   UNL A   1      44.451  34.862  31.089  1.00  0.00     0.074 A 
ATOM     46  C   UNL A   1      42.766  33.035  30.871  1.00  0.00     0.049 A 
ATOM     47  N   UNL A   1      45.086  34.927  32.210  1.00  0.00    -0.248 NA
ATOM     48  C   UNL A   1      44.472  36.100  30.297  1.00  0.00     0.031 C 
ATOM     49  C   UNL A   1      41.944  32.059  30.150  1.00  0.00     0.029 A 
ATOM     50  N   UNL A   1      42.086  33.219  32.031  1.00  0.00    -0.354 N 
ATOM     51  C   UNL A   1      45.390  36.271  32.371  1.00  0.00     0.074 A 
ATOM     52  C   UNL A   1      45.175  36.902  31.094  1.00  0.00     0.031 C 
ATOM     53  C   UNL A   1      40.768  31.911  30.800  1.00  0.00     0.029 A 
ATOM     54  C   UNL A   1      40.811  32.681  32.033  1.00  0.00     0.049 A 
ATOM     55  H   UNL A   1      42.467  33.693  32.804  1.00  0.00     0.167 HD
ATOM     56  C   UNL A   1      45.538  36.820  33.604  1.00  0.00     0.037 A 
ATOM     57  C   UNL A   1      39.841  32.956  32.938  1.00  0.00     0.037 A 
ATOM     58  C   UNL A   1      45.790  35.822  34.610  1.00  0.00     0.049 A 
ATOM     59  C   UNL A   1      40.512  33.503  34.151  1.00  0.00     0.074 A 
ATOM     60  C   UNL A   1      46.769  34.864  34.793  1.00  0.00     0.029 A 
ATOM     61  N   UNL A   1      44.753  35.460  35.437  1.00  0.00    -0.354 N 
ATOM     62  N   UNL A   1      41.309  32.813  34.925  1.00  0.00    -0.248 NA
ATOM     63  C   UNL A   1      40.650  34.949  34.263  1.00  0.00     0.031 C 
ATOM     64  C   UNL A   1      46.098  33.744  35.364  1.00  0.00     0.029 A 
ATOM     65  C   UNL A   1      44.755  34.089  35.527  1.00  0.00     0.049 A 
ATOM     66  H   UNL A   1      44.123  36.072  35.884  1.00  0.00     0.167 HD
ATOM     67  C   UNL A   1      42.304  33.702  35.312  1.00  0.00     0.074 A 
ATOM     68  C   UNL A   1      41.789  35.021  34.956  1.00  0.00     0.031 C 
ATOM     69  C   UNL A   1      43.561  33.273  35.629  1.00  0.00     0.037 A 
BRANCH  56  70
ATOM     70  C   UNL A   1      45.093  38.221  33.921  1.00  0.00     0.058 A 
ATOM     71  C   UNL A   1      43.730  38.555  33.829  1.00  0.00     0.135 A 
ATOM     72  C   UNL A   1      45.986  39.311  34.057  1.00  0.00     0.135 A 
ATOM     73  F   UNL A   1      42.802  37.597  33.672  1.00  0.00    -0.206 F 
ATOM     74  C   UNL A   1      43.291  39.878  33.820  1.00  0.00     0.059 A 
ATOM     75  C   UNL A   1      45.565  40.631  34.116  1.00  0.00     0.059 A 
ATOM     76  F   UNL A   1      47.316  39.156  34.032  1.00  0.00    -0.206 F 
ATOM     77  C   UNL A   1      44.220  40.908  33.949  1.00  0.00     0.060 A 
BRANCH  77  78
ATOM     78  S   UNL A   1      43.680  42.619  33.809  1.00  0.00     0.124 S 
ATOM     79  O   UNL A   1      44.624  43.135  32.824  1.00  0.00    -0.237 OA
ATOM     80  O   UNL A   1      42.301  42.468  33.360  1.00  0.00    -0.237 OA
ATOM     81  O   UNL A   1      43.839  43.131  35.167  1.00  0.00    -0.744 OA
ENDBRANCH  77  78
ENDBRANCH  56  70
BRANCH  57  82
ATOM     82  C   UNL A   1      38.390  33.119  32.660  1.00  0.00     0.058 A 
ATOM     83  C   UNL A   1      37.423  32.397  33.378  1.00  0.00     0.135 A 
ATOM     84  C   UNL A   1      37.907  34.173  31.854  1.00  0.00     0.135 A 
ATOM     85  F   UNL A   1      37.795  31.402  34.197  1.00  0.00    -0.206 F 
ATOM     86  C   UNL A   1      36.061  32.715  33.320  1.00  0.00     0.059 A 
ATOM     87  C   UNL A   1      36.555  34.497  31.767  1.00  0.00     0.059 A 
ATOM     88  F   UNL A   1      38.744  34.983  31.191  1.00  0.00    -0.206 F 
ATOM     89  C   UNL A   1      35.638  33.777  32.519  1.00  0.00     0.060 A 
BRANCH  89  90
ATOM     90  S   UNL A   1      33.904  34.285  32.550  1.00  0.00     0.124 S 
ATOM     91  O   UNL A   1      33.976  35.564  33.245  1.00  0.00    -0.237 OA
ATOM     92  O   UNL A   1      33.576  34.347  31.129  1.00  0.00    -0.237 OA
ATOM     93  O   UNL A   1      33.247  33.210  33.290  1.00  0.00    -0.744 OA
ENDBRANCH  89  90
ENDBRANCH  57  82
BRANCH  69  94
ATOM     94  C   UNL A   1      43.778  31.795  35.838  1.00  0.00     0.058 A 
ATOM     95  C   UNL A   1      44.071  30.893  34.801  1.00  0.00     0.135 A 
ATOM     96  C   UNL A   1      43.873  31.310  37.152  1.00  0.00     0.135 A 
ATOM     97  F   UNL A   1      44.106  31.300  33.525  1.00  0.00    -0.206 F 
ATOM     98  C   UNL A   1      44.413  29.563  35.054  1.00  0.00     0.059 A 
ATOM     99  C   UNL A   1      44.241  29.994  37.430  1.00  0.00     0.059 A 
ATOM    100  F   UNL A   1      43.668  32.137  38.191  1.00  0.00    -0.206 F 
ATOM    101  C   UNL A   1      44.504  29.123  36.374  1.00  0.00     0.060 A 
BRANCH 101 102
ATOM    102  S   UNL A   1      45.062  27.437  36.702  1.00  0.00     0.124 S 
ATOM    103  O   UNL A   1      43.808  26.691  36.698  1.00  0.00    -0.237 OA
ATOM    104  O   UNL A   1      45.959  27.174  35.580  1.00  0.00    -0.237 OA
ATOM    105  O   UNL A   1      45.723  27.542  38.001  1.00  0.00    -0.744 OA
ENDBRANCH 101 102
ENDBRANCH  69  94
ENDBRANCH  43  44
ENDBRANCH  36  38
ENDBRANCH  35  36
ENDBRANCH  34  35
ENDBRANCH  33  34
ENDBRANCH  32  33
ENDBRANCH  31  32
ENDBRANCH  30  31
ENDBRANCH  29  30
ENDBRANCH   1  29
TORSDOF 28
ENDMDL
