MODEL 1
REMARK VINA RESULT:      -9.0      0.000      0.000
REMARK SMILES C[C@H]1C[NH+](CCC(=O)OCCOCCOCCOCCOC(=O)c2ccc(-c3c4nc(c(-c5c(F)cc(S(=O)(=O)[O-])cc5F)c5ccc([nH]5)c(-c5c(F)cc(S(=O)(=O)[O-])cc5F)c5nc(c(-c6c(F)cc(S(=O)(=O)[O-])cc6F)c6ccc3[nH]6)C=C5)C=C4)cc2)C[C@@H]1C
REMARK SMILES IDX 16 1 15 2 14 3 13 4 12 5 11 6 10 7 9 8 7 9 8 10 6 11 5 12
REMARK SMILES IDX 4 13 1 14 2 15 3 16 91 17 90 18 92 19 17 21 18 22 19 23
REMARK SMILES IDX 20 24 21 25 22 26 23 27 24 28 25 29 89 30 26 31 88 32 27 33
REMARK SMILES IDX 28 34 29 35 82 36 30 37 87 38 81 39 83 40 31 41 86 42 80 43
REMARK SMILES IDX 79 44 32 46 66 47 45 48 65 49 46 50 49 51 64 52 84 53 47 54
REMARK SMILES IDX 48 55 63 57 85 58 50 59 33 60 34 61 43 62 35 63 36 64 42 65
REMARK SMILES IDX 44 66 37 67 38 68 39 69 40 70 41 71 67 72 68 73 77 74 69 75
REMARK SMILES IDX 70 76 76 77 78 78 71 79 72 80 73 81 74 82 75 83 51 84 52 85
REMARK SMILES IDX 61 86 53 87 54 88 60 89 62 90 55 91 56 92 57 93 58 94 59 95
REMARK H PARENT 4 20 83 45 49 56
REMARK Flexibility Score: inf
ROOT
ATOM      1  C   UNL A   1      35.989  22.192  24.280  1.00  0.00     0.188 C 
ENDROOT
BRANCH   1   2
ATOM      2  O   UNL A   1      35.719  22.957  23.117  1.00  0.00    -0.377 OA
BRANCH   2   3
ATOM      3  C   UNL A   1      34.691  23.932  23.180  1.00  0.00     0.188 C 
BRANCH   3   4
ATOM      4  C   UNL A   1      33.403  23.817  22.349  1.00  0.00     0.188 C 
BRANCH   4   5
ATOM      5  O   UNL A   1      32.442  24.800  22.660  1.00  0.00    -0.376 OA
BRANCH   5   6
ATOM      6  C   UNL A   1      31.152  24.475  23.128  1.00  0.00     0.202 C 
BRANCH   6   7
ATOM      7  C   UNL A   1      30.889  23.337  24.127  1.00  0.00     0.261 C 
BRANCH   7   8
ATOM      8  O   UNL A   1      31.592  23.371  25.374  1.00  0.00    -0.463 OA
BRANCH   8   9
ATOM      9  C   UNL A   1      31.281  24.364  26.233  1.00  0.00     0.311 C 
ATOM     10  O   UNL A   1      30.150  24.545  26.677  1.00  0.00    -0.252 OA
BRANCH   9  11
ATOM     11  C   UNL A   1      32.431  25.276  26.629  1.00  0.00     0.184 C 
BRANCH  11  12
ATOM     12  C   UNL A   1      32.678  26.689  26.074  1.00  0.00     0.274 C 
BRANCH  12  13
ATOM     13  N   UNL A   1      33.009  27.817  26.919  1.00  0.00    -0.334 N 
ATOM     14  C   UNL A   1      31.569  30.432  25.663  1.00  0.00     0.014 C 
ATOM     15  C   UNL A   1      32.312  30.080  26.955  1.00  0.00     0.049 C 
ATOM     16  C   UNL A   1      31.963  28.676  27.436  1.00  0.00     0.265 C 
ATOM     17  C   UNL A   1      33.841  30.054  26.773  1.00  0.00     0.049 C 
ATOM     18  C   UNL A   1      34.213  28.575  26.637  1.00  0.00     0.265 C 
ATOM     19  C   UNL A   1      34.576  30.699  27.951  1.00  0.00     0.014 C 
ATOM     20  H   UNL A   1      33.229  27.197  27.699  1.00  0.00     0.348 HD
ENDBRANCH  12  13
ENDBRANCH  11  12
ENDBRANCH   9  11
ENDBRANCH   8   9
ENDBRANCH   7   8
ENDBRANCH   6   7
ENDBRANCH   5   6
ENDBRANCH   4   5
ENDBRANCH   3   4
ENDBRANCH   2   3
ENDBRANCH   1   2
BRANCH   1  21
ATOM     21  C   UNL A   1      37.488  22.142  24.615  1.00  0.00     0.188 C 
BRANCH  21  22
ATOM     22  O   UNL A   1      37.894  22.284  25.965  1.00  0.00    -0.376 OA
BRANCH  22  23
ATOM     23  C   UNL A   1      39.257  22.213  26.349  1.00  0.00     0.202 C 
BRANCH  23  24
ATOM     24  C   UNL A   1      40.201  23.419  26.561  1.00  0.00     0.261 C 
BRANCH  24  25
ATOM     25  O   UNL A   1      39.691  24.743  26.404  1.00  0.00    -0.460 OA
BRANCH  25  26
ATOM     26  C   UNL A   1      40.599  25.725  26.276  1.00  0.00     0.338 C 
ATOM     27  O   UNL A   1      41.119  26.121  25.240  1.00  0.00    -0.246 OA
BRANCH  26  28
ATOM     28  C   UNL A   1      40.759  26.365  27.596  1.00  0.00     0.060 A 
ATOM     29  C   UNL A   1      39.793  26.129  28.583  1.00  0.00     0.016 A 
ATOM     30  C   UNL A   1      41.838  27.217  27.848  1.00  0.00     0.016 A 
ATOM     31  C   UNL A   1      39.878  26.780  29.811  1.00  0.00     0.010 A 
ATOM     32  C   UNL A   1      41.907  27.891  29.071  1.00  0.00     0.010 A 
ATOM     33  C   UNL A   1      40.902  27.707  30.038  1.00  0.00    -0.014 A 
BRANCH  33  34
ATOM     34  C   UNL A   1      40.784  28.643  31.181  1.00  0.00     0.031 A 
ATOM     35  C   UNL A   1      39.724  29.709  31.118  1.00  0.00     0.074 A 
ATOM     36  C   UNL A   1      41.564  28.521  32.268  1.00  0.00     0.049 A 
ATOM     37  N   UNL A   1      39.433  30.646  31.982  1.00  0.00    -0.248 NA
ATOM     38  C   UNL A   1      38.876  29.714  29.915  1.00  0.00     0.031 C 
ATOM     39  C   UNL A   1      42.579  27.489  32.470  1.00  0.00     0.029 A 
ATOM     40  N   UNL A   1      41.620  29.277  33.412  1.00  0.00    -0.354 N 
ATOM     41  C   UNL A   1      38.382  31.362  31.420  1.00  0.00     0.074 A 
ATOM     42  C   UNL A   1      38.105  30.769  30.131  1.00  0.00     0.031 C 
ATOM     43  C   UNL A   1      43.157  27.676  33.669  1.00  0.00     0.029 A 
ATOM     44  C   UNL A   1      42.579  28.860  34.302  1.00  0.00     0.049 A 
ATOM     45  H   UNL A   1      41.027  30.045  33.579  1.00  0.00     0.167 HD
ATOM     46  C   UNL A   1      37.705  32.416  31.937  1.00  0.00     0.037 A 
ATOM     47  C   UNL A   1      42.953  29.387  35.486  1.00  0.00     0.037 A 
ATOM     48  C   UNL A   1      37.993  33.001  33.219  1.00  0.00     0.049 A 
ATOM     49  C   UNL A   1      42.246  30.616  36.000  1.00  0.00     0.074 A 
ATOM     50  C   UNL A   1      37.357  34.057  33.846  1.00  0.00     0.029 A 
ATOM     51  N   UNL A   1      39.013  32.591  34.066  1.00  0.00    -0.354 N 
ATOM     52  N   UNL A   1      41.240  31.274  35.473  1.00  0.00    -0.248 NA
ATOM     53  C   UNL A   1      42.727  31.174  37.272  1.00  0.00     0.031 C 
ATOM     54  C   UNL A   1      38.033  34.328  35.041  1.00  0.00     0.029 A 
ATOM     55  C   UNL A   1      39.049  33.396  35.192  1.00  0.00     0.049 A 
ATOM     56  H   UNL A   1      39.624  31.837  33.891  1.00  0.00     0.167 HD
ATOM     57  C   UNL A   1      40.945  32.300  36.366  1.00  0.00     0.074 A 
ATOM     58  C   UNL A   1      41.877  32.173  37.467  1.00  0.00     0.031 C 
ATOM     59  C   UNL A   1      39.983  33.254  36.284  1.00  0.00     0.037 A 
BRANCH  46  60
ATOM     60  C   UNL A   1      36.630  33.032  31.080  1.00  0.00     0.058 A 
ATOM     61  C   UNL A   1      36.927  33.818  29.954  1.00  0.00     0.135 A 
ATOM     62  C   UNL A   1      35.276  32.842  31.404  1.00  0.00     0.135 A 
ATOM     63  F   UNL A   1      38.204  34.047  29.607  1.00  0.00    -0.206 F 
ATOM     64  C   UNL A   1      35.925  34.432  29.210  1.00  0.00     0.059 A 
ATOM     65  C   UNL A   1      34.256  33.419  30.653  1.00  0.00     0.059 A 
ATOM     66  F   UNL A   1      34.933  32.101  32.468  1.00  0.00    -0.206 F 
ATOM     67  C   UNL A   1      34.591  34.231  29.573  1.00  0.00     0.060 A 
BRANCH  67  68
ATOM     68  S   UNL A   1      33.302  35.061  28.620  1.00  0.00     0.124 S 
ATOM     69  O   UNL A   1      32.753  33.952  27.845  1.00  0.00    -0.237 OA
ATOM     70  O   UNL A   1      32.434  35.594  29.666  1.00  0.00    -0.237 OA
ATOM     71  O   UNL A   1      34.037  36.060  27.850  1.00  0.00    -0.744 OA
ENDBRANCH  67  68
ENDBRANCH  46  60
BRANCH  47  72
ATOM     72  C   UNL A   1      44.041  28.746  36.272  1.00  0.00     0.058 A 
ATOM     73  C   UNL A   1      45.348  29.255  36.239  1.00  0.00     0.135 A 
ATOM     74  C   UNL A   1      43.796  27.629  37.085  1.00  0.00     0.135 A 
ATOM     75  F   UNL A   1      45.636  30.312  35.466  1.00  0.00    -0.206 F 
ATOM     76  C   UNL A   1      46.373  28.680  36.982  1.00  0.00     0.059 A 
ATOM     77  C   UNL A   1      44.798  27.052  37.858  1.00  0.00     0.059 A 
ATOM     78  F   UNL A   1      42.562  27.106  37.158  1.00  0.00    -0.206 F 
ATOM     79  C   UNL A   1      46.086  27.584  37.797  1.00  0.00     0.060 A 
BRANCH  79  80
ATOM     80  S   UNL A   1      47.409  26.896  38.816  1.00  0.00     0.124 S 
ATOM     81  O   UNL A   1      47.175  25.464  38.678  1.00  0.00    -0.237 OA
ATOM     82  O   UNL A   1      48.602  27.417  38.155  1.00  0.00    -0.237 OA
ATOM     83  O   UNL A   1      47.141  27.455  40.138  1.00  0.00    -0.744 OA
ENDBRANCH  79  80
ENDBRANCH  47  72
BRANCH  59  84
ATOM     84  C   UNL A   1      39.857  34.217  37.437  1.00  0.00     0.058 A 
ATOM     85  C   UNL A   1      39.141  33.895  38.600  1.00  0.00     0.135 A 
ATOM     86  C   UNL A   1      40.512  35.460  37.394  1.00  0.00     0.135 A 
ATOM     87  F   UNL A   1      38.491  32.725  38.693  1.00  0.00    -0.206 F 
ATOM     88  C   UNL A   1      39.058  34.781  39.671  1.00  0.00     0.059 A 
ATOM     89  C   UNL A   1      40.469  36.347  38.465  1.00  0.00     0.059 A 
ATOM     90  F   UNL A   1      41.220  35.814  36.311  1.00  0.00    -0.206 F 
ATOM     91  C   UNL A   1      39.729  36.003  39.595  1.00  0.00     0.060 A 
BRANCH  91  92
ATOM     92  S   UNL A   1      39.640  37.129  41.004  1.00  0.00     0.124 S 
ATOM     93  O   UNL A   1      38.943  36.312  41.991  1.00  0.00    -0.237 OA
ATOM     94  O   UNL A   1      41.049  37.393  41.280  1.00  0.00    -0.237 OA
ATOM     95  O   UNL A   1      38.886  38.267  40.486  1.00  0.00    -0.744 OA
ENDBRANCH  91  92
ENDBRANCH  59  84
ENDBRANCH  33  34
ENDBRANCH  26  28
ENDBRANCH  25  26
ENDBRANCH  24  25
ENDBRANCH  23  24
ENDBRANCH  22  23
ENDBRANCH  21  22
ENDBRANCH   1  21
TORSDOF 25
ENDMDL
MODEL 2
REMARK VINA RESULT:      -9.0      0.860      8.314
REMARK SMILES C[C@H]1C[NH+](CCC(=O)OCCOCCOCCOCCOC(=O)c2ccc(-c3c4nc(c(-c5c(F)cc(S(=O)(=O)[O-])cc5F)c5ccc([nH]5)c(-c5c(F)cc(S(=O)(=O)[O-])cc5F)c5nc(c(-c6c(F)cc(S(=O)(=O)[O-])cc6F)c6ccc3[nH]6)C=C5)C=C4)cc2)C[C@@H]1C
REMARK SMILES IDX 16 1 15 2 14 3 13 4 12 5 11 6 10 7 9 8 7 9 8 10 6 11 5 12
REMARK SMILES IDX 4 13 1 14 2 15 3 16 91 17 90 18 92 19 17 21 18 22 19 23
REMARK SMILES IDX 20 24 21 25 22 26 23 27 24 28 25 29 89 30 26 31 88 32 27 33
REMARK SMILES IDX 28 34 29 35 82 36 30 37 87 38 81 39 83 40 31 41 86 42 80 43
REMARK SMILES IDX 79 44 32 46 66 47 45 48 65 49 46 50 49 51 64 52 84 53 47 54
REMARK SMILES IDX 48 55 63 57 85 58 50 59 33 60 34 61 43 62 35 63 36 64 42 65
REMARK SMILES IDX 44 66 37 67 38 68 39 69 40 70 41 71 67 72 68 73 77 74 69 75
REMARK SMILES IDX 70 76 76 77 78 78 71 79 72 80 73 81 74 82 75 83 51 84 52 85
REMARK SMILES IDX 61 86 53 87 54 88 60 89 62 90 55 91 56 92 57 93 58 94 59 95
REMARK H PARENT 4 20 83 45 49 56
REMARK Flexibility Score: inf
ROOT
ATOM      1  C   UNL A   1      36.230  21.153  25.369  1.00  0.00     0.188 C 
ENDROOT
BRANCH   1   2
ATOM      2  O   UNL A   1      35.519  21.551  24.209  1.00  0.00    -0.377 OA
BRANCH   2   3
ATOM      3  C   UNL A   1      35.238  22.931  24.036  1.00  0.00     0.188 C 
BRANCH   3   4
ATOM      4  C   UNL A   1      34.117  23.427  23.109  1.00  0.00     0.188 C 
BRANCH   4   5
ATOM      5  O   UNL A   1      34.228  24.791  22.771  1.00  0.00    -0.376 OA
BRANCH   5   6
ATOM      6  C   UNL A   1      33.100  25.614  22.569  1.00  0.00     0.202 C 
BRANCH   6   7
ATOM      7  C   UNL A   1      31.681  25.053  22.382  1.00  0.00     0.261 C 
BRANCH   7   8
ATOM      8  O   UNL A   1      30.879  24.869  23.554  1.00  0.00    -0.463 OA
BRANCH   8   9
ATOM      9  C   UNL A   1      30.102  25.901  23.942  1.00  0.00     0.311 C 
ATOM     10  O   UNL A   1      28.955  26.072  23.539  1.00  0.00    -0.252 OA
BRANCH   9  11
ATOM     11  C   UNL A   1      30.739  26.872  24.924  1.00  0.00     0.184 C 
BRANCH  11  12
ATOM     12  C   UNL A   1      31.382  26.487  26.267  1.00  0.00     0.274 C 
BRANCH  12  13
ATOM     13  N   UNL A   1      32.314  27.346  26.965  1.00  0.00    -0.334 N 
ATOM     14  C   UNL A   1      31.782  30.379  25.960  1.00  0.00     0.014 C 
ATOM     15  C   UNL A   1      32.597  29.696  27.062  1.00  0.00     0.049 C 
ATOM     16  C   UNL A   1      31.840  28.520  27.670  1.00  0.00     0.265 C 
ATOM     17  C   UNL A   1      33.906  29.078  26.536  1.00  0.00     0.049 C 
ATOM     18  C   UNL A   1      33.622  27.582  26.382  1.00  0.00     0.265 C 
ATOM     19  C   UNL A   1      35.083  29.319  27.485  1.00  0.00     0.014 C 
ATOM     20  H   UNL A   1      32.442  26.650  27.699  1.00  0.00     0.348 HD
ENDBRANCH  12  13
ENDBRANCH  11  12
ENDBRANCH   9  11
ENDBRANCH   8   9
ENDBRANCH   7   8
ENDBRANCH   6   7
ENDBRANCH   5   6
ENDBRANCH   4   5
ENDBRANCH   3   4
ENDBRANCH   2   3
ENDBRANCH   1   2
BRANCH   1  21
ATOM     21  C   UNL A   1      37.753  21.267  25.193  1.00  0.00     0.188 C 
BRANCH  21  22
ATOM     22  O   UNL A   1      38.517  21.886  26.212  1.00  0.00    -0.376 OA
BRANCH  22  23
ATOM     23  C   UNL A   1      39.934  21.860  26.207  1.00  0.00     0.202 C 
BRANCH  23  24
ATOM     24  C   UNL A   1      40.862  23.097  26.214  1.00  0.00     0.261 C 
BRANCH  24  25
ATOM     25  O   UNL A   1      40.287  24.403  26.211  1.00  0.00    -0.460 OA
BRANCH  25  26
ATOM     26  C   UNL A   1      41.141  25.436  26.101  1.00  0.00     0.338 C 
ATOM     27  O   UNL A   1      41.715  25.816  25.089  1.00  0.00    -0.246 OA
BRANCH  26  28
ATOM     28  C   UNL A   1      41.157  26.145  27.395  1.00  0.00     0.060 A 
ATOM     29  C   UNL A   1      40.079  25.975  28.273  1.00  0.00     0.016 A 
ATOM     30  C   UNL A   1      42.214  26.996  27.727  1.00  0.00     0.016 A 
ATOM     31  C   UNL A   1      40.031  26.691  29.466  1.00  0.00     0.010 A 
ATOM     32  C   UNL A   1      42.153  27.735  28.912  1.00  0.00     0.010 A 
ATOM     33  C   UNL A   1      41.039  27.617  29.763  1.00  0.00    -0.014 A 
BRANCH  33  34
ATOM     34  C   UNL A   1      40.806  28.615  30.833  1.00  0.00     0.031 A 
ATOM     35  C   UNL A   1      41.692  28.571  32.049  1.00  0.00     0.074 A 
ATOM     36  C   UNL A   1      39.867  29.567  30.708  1.00  0.00     0.049 A 
ATOM     37  N   UNL A   1      41.678  29.325  33.117  1.00  0.00    -0.248 NA
ATOM     38  C   UNL A   1      42.737  27.534  32.057  1.00  0.00     0.031 C 
ATOM     39  C   UNL A   1      38.995  29.750  29.549  1.00  0.00     0.029 A 
ATOM     40  N   UNL A   1      39.492  30.564  31.573  1.00  0.00    -0.354 N 
ATOM     41  C   UNL A   1      42.698  28.843  33.931  1.00  0.00     0.074 A 
ATOM     42  C   UNL A   1      43.291  27.717  33.246  1.00  0.00     0.031 C 
ATOM     43  C   UNL A   1      38.185  30.798  29.775  1.00  0.00     0.029 A 
ATOM     44  C   UNL A   1      38.457  31.338  31.106  1.00  0.00     0.049 A 
ATOM     45  H   UNL A   1      39.924  30.712  32.445  1.00  0.00     0.167 HD
ATOM     46  C   UNL A   1      43.105  29.304  35.138  1.00  0.00     0.037 A 
ATOM     47  C   UNL A   1      37.798  32.356  31.697  1.00  0.00     0.037 A 
ATOM     48  C   UNL A   1      42.503  30.424  35.812  1.00  0.00     0.049 A 
ATOM     49  C   UNL A   1      38.210  32.793  33.080  1.00  0.00     0.074 A 
ATOM     50  C   UNL A   1      42.852  30.985  37.026  1.00  0.00     0.029 A 
ATOM     51  N   UNL A   1      41.417  31.143  35.336  1.00  0.00    -0.354 N 
ATOM     52  N   UNL A   1      39.188  32.347  33.833  1.00  0.00    -0.248 NA
ATOM     53  C   UNL A   1      37.427  33.875  33.694  1.00  0.00     0.031 C 
ATOM     54  C   UNL A   1      41.935  32.001  37.317  1.00  0.00     0.029 A 
ATOM     55  C   UNL A   1      41.057  32.120  36.250  1.00  0.00     0.049 A 
ATOM     56  H   UNL A   1      40.967  30.984  34.474  1.00  0.00     0.167 HD
ATOM     57  C   UNL A   1      39.160  33.117  34.993  1.00  0.00     0.074 A 
ATOM     58  C   UNL A   1      38.071  34.058  34.839  1.00  0.00     0.031 C 
ATOM     59  C   UNL A   1      39.970  33.055  36.081  1.00  0.00     0.037 A 
BRANCH  46  60
ATOM     60  C   UNL A   1      44.217  28.553  35.823  1.00  0.00     0.058 A 
ATOM     61  C   UNL A   1      43.969  27.495  36.713  1.00  0.00     0.135 A 
ATOM     62  C   UNL A   1      45.556  28.911  35.591  1.00  0.00     0.135 A 
ATOM     63  F   UNL A   1      42.709  27.121  36.985  1.00  0.00    -0.206 F 
ATOM     64  C   UNL A   1      45.004  26.853  37.386  1.00  0.00     0.059 A 
ATOM     65  C   UNL A   1      46.608  28.259  36.228  1.00  0.00     0.059 A 
ATOM     66  F   UNL A   1      45.853  29.912  34.750  1.00  0.00    -0.206 F 
ATOM     67  C   UNL A   1      46.321  27.248  37.142  1.00  0.00     0.060 A 
BRANCH  67  68
ATOM     68  S   UNL A   1      47.651  26.430  38.047  1.00  0.00     0.124 S 
ATOM     69  O   UNL A   1      47.810  25.198  37.280  1.00  0.00    -0.237 OA
ATOM     70  O   UNL A   1      48.743  27.391  37.934  1.00  0.00    -0.237 OA
ATOM     71  O   UNL A   1      47.100  26.266  39.388  1.00  0.00    -0.744 OA
ENDBRANCH  67  68
ENDBRANCH  46  60
BRANCH  47  72
ATOM     72  C   UNL A   1      36.691  33.039  30.978  1.00  0.00     0.058 A 
ATOM     73  C   UNL A   1      35.355  32.843  31.360  1.00  0.00     0.135 A 
ATOM     74  C   UNL A   1      36.943  33.916  29.910  1.00  0.00     0.135 A 
ATOM     75  F   UNL A   1      35.062  32.004  32.364  1.00  0.00    -0.206 F 
ATOM     76  C   UNL A   1      34.309  33.488  30.710  1.00  0.00     0.059 A 
ATOM     77  C   UNL A   1      35.915  34.593  29.262  1.00  0.00     0.059 A 
ATOM     78  F   UNL A   1      38.203  34.143  29.509  1.00  0.00    -0.206 F 
ATOM     79  C   UNL A   1      34.600  34.371  29.668  1.00  0.00     0.060 A 
BRANCH  79  80
ATOM     80  S   UNL A   1      33.237  35.261  28.885  1.00  0.00     0.124 S 
ATOM     81  O   UNL A   1      32.681  34.239  28.007  1.00  0.00    -0.237 OA
ATOM     82  O   UNL A   1      32.419  35.633  30.035  1.00  0.00    -0.237 OA
ATOM     83  O   UNL A   1      33.904  36.374  28.215  1.00  0.00    -0.744 OA
ENDBRANCH  79  80
ENDBRANCH  47  72
BRANCH  59  84
ATOM     84  C   UNL A   1      39.739  34.060  37.180  1.00  0.00     0.058 A 
ATOM     85  C   UNL A   1      39.060  33.727  38.362  1.00  0.00     0.135 A 
ATOM     86  C   UNL A   1      40.256  35.361  37.067  1.00  0.00     0.135 A 
ATOM     87  F   UNL A   1      38.539  32.500  38.521  1.00  0.00    -0.206 F 
ATOM     88  C   UNL A   1      38.880  34.656  39.383  1.00  0.00     0.059 A 
ATOM     89  C   UNL A   1      40.116  36.296  38.087  1.00  0.00     0.059 A 
ATOM     90  F   UNL A   1      40.924  35.731  35.963  1.00  0.00    -0.206 F 
ATOM     91  C   UNL A   1      39.415  35.937  39.238  1.00  0.00     0.060 A 
BRANCH  91  92
ATOM     92  S   UNL A   1      39.203  37.122  40.584  1.00  0.00     0.124 S 
ATOM     93  O   UNL A   1      38.151  36.489  41.370  1.00  0.00    -0.237 OA
ATOM     94  O   UNL A   1      40.529  37.140  41.194  1.00  0.00    -0.237 OA
ATOM     95  O   UNL A   1      38.820  38.353  39.897  1.00  0.00    -0.744 OA
ENDBRANCH  91  92
ENDBRANCH  59  84
ENDBRANCH  33  34
ENDBRANCH  26  28
ENDBRANCH  25  26
ENDBRANCH  24  25
ENDBRANCH  23  24
ENDBRANCH  22  23
ENDBRANCH  21  22
ENDBRANCH   1  21
TORSDOF 25
ENDMDL
MODEL 3
REMARK VINA RESULT:      -8.8      7.006     12.390
REMARK SMILES C[C@H]1C[NH+](CCC(=O)OCCOCCOCCOCCOC(=O)c2ccc(-c3c4nc(c(-c5c(F)cc(S(=O)(=O)[O-])cc5F)c5ccc([nH]5)c(-c5c(F)cc(S(=O)(=O)[O-])cc5F)c5nc(c(-c6c(F)cc(S(=O)(=O)[O-])cc6F)c6ccc3[nH]6)C=C5)C=C4)cc2)C[C@@H]1C
REMARK SMILES IDX 16 1 15 2 14 3 13 4 12 5 11 6 10 7 9 8 7 9 8 10 6 11 5 12
REMARK SMILES IDX 4 13 1 14 2 15 3 16 91 17 90 18 92 19 17 21 18 22 19 23
REMARK SMILES IDX 20 24 21 25 22 26 23 27 24 28 25 29 89 30 26 31 88 32 27 33
REMARK SMILES IDX 28 34 29 35 82 36 30 37 87 38 81 39 83 40 31 41 86 42 80 43
REMARK SMILES IDX 79 44 32 46 66 47 45 48 65 49 46 50 49 51 64 52 84 53 47 54
REMARK SMILES IDX 48 55 63 57 85 58 50 59 33 60 34 61 43 62 35 63 36 64 42 65
REMARK SMILES IDX 44 66 37 67 38 68 39 69 40 70 41 71 67 72 68 73 77 74 69 75
REMARK SMILES IDX 70 76 76 77 78 78 71 79 72 80 73 81 74 82 75 83 51 84 52 85
REMARK SMILES IDX 61 86 53 87 54 88 60 89 62 90 55 91 56 92 57 93 58 94 59 95
REMARK H PARENT 4 20 83 45 49 56
REMARK Flexibility Score: inf
ROOT
ATOM      1  C   UNL A   1      34.813  32.366  28.009  1.00  0.00     0.188 C 
ENDROOT
BRANCH   1   2
ATOM      2  O   UNL A   1      34.021  31.197  27.885  1.00  0.00    -0.377 OA
BRANCH   2   3
ATOM      3  C   UNL A   1      34.654  30.001  27.460  1.00  0.00     0.188 C 
BRANCH   3   4
ATOM      4  C   UNL A   1      33.865  28.826  26.861  1.00  0.00     0.188 C 
BRANCH   4   5
ATOM      5  O   UNL A   1      33.933  28.760  25.455  1.00  0.00    -0.376 OA
BRANCH   5   6
ATOM      6  C   UNL A   1      32.829  29.063  24.630  1.00  0.00     0.202 C 
BRANCH   6   7
ATOM      7  C   UNL A   1      32.835  28.833  23.110  1.00  0.00     0.261 C 
BRANCH   7   8
ATOM      8  O   UNL A   1      32.103  27.711  22.605  1.00  0.00    -0.463 OA
BRANCH   8   9
ATOM      9  C   UNL A   1      32.816  26.675  22.119  1.00  0.00     0.311 C 
ATOM     10  O   UNL A   1      33.893  26.806  21.542  1.00  0.00    -0.252 OA
BRANCH   9  11
ATOM     11  C   UNL A   1      32.201  25.299  22.321  1.00  0.00     0.184 C 
BRANCH  11  12
ATOM     12  C   UNL A   1      32.986  23.989  22.495  1.00  0.00     0.274 C 
BRANCH  12  13
ATOM     13  N   UNL A   1      33.563  23.584  23.760  1.00  0.00    -0.334 N 
ATOM     14  C   UNL A   1      36.678  22.873  23.225  1.00  0.00     0.014 C 
ATOM     15  C   UNL A   1      35.769  23.056  24.443  1.00  0.00     0.049 C 
ATOM     16  C   UNL A   1      34.783  24.201  24.238  1.00  0.00     0.265 C 
ATOM     17  C   UNL A   1      34.879  21.827  24.711  1.00  0.00     0.049 C 
ATOM     18  C   UNL A   1      33.504  22.185  24.141  1.00  0.00     0.265 C 
ATOM     19  C   UNL A   1      34.786  21.494  26.202  1.00  0.00     0.014 C 
ATOM     20  H   UNL A   1      32.824  24.059  24.276  1.00  0.00     0.348 HD
ENDBRANCH  12  13
ENDBRANCH  11  12
ENDBRANCH   9  11
ENDBRANCH   8   9
ENDBRANCH   7   8
ENDBRANCH   6   7
ENDBRANCH   5   6
ENDBRANCH   4   5
ENDBRANCH   3   4
ENDBRANCH   2   3
ENDBRANCH   1   2
BRANCH   1  21
ATOM     21  C   UNL A   1      34.106  33.474  28.807  1.00  0.00     0.188 C 
BRANCH  21  22
ATOM     22  O   UNL A   1      34.076  33.388  30.220  1.00  0.00    -0.376 OA
BRANCH  22  23
ATOM     23  C   UNL A   1      35.248  33.151  30.981  1.00  0.00     0.202 C 
BRANCH  23  24
ATOM     24  C   UNL A   1      35.736  31.773  31.485  1.00  0.00     0.261 C 
BRANCH  24  25
ATOM     25  O   UNL A   1      36.365  30.876  30.570  1.00  0.00    -0.460 OA
BRANCH  25  26
ATOM     26  C   UNL A   1      37.094  29.883  31.108  1.00  0.00     0.338 C 
ATOM     27  O   UNL A   1      36.691  28.971  31.819  1.00  0.00    -0.246 OA
BRANCH  26  28
ATOM     28  C   UNL A   1      38.463  29.987  30.567  1.00  0.00     0.060 A 
ATOM     29  C   UNL A   1      38.649  29.919  29.180  1.00  0.00     0.016 A 
ATOM     30  C   UNL A   1      39.559  30.120  31.423  1.00  0.00     0.016 A 
ATOM     31  C   UNL A   1      39.935  29.937  28.647  1.00  0.00     0.010 A 
ATOM     32  C   UNL A   1      40.851  30.110  30.889  1.00  0.00     0.010 A 
ATOM     33  C   UNL A   1      41.043  29.974  29.502  1.00  0.00    -0.014 A 
BRANCH  33  34
ATOM     34  C   UNL A   1      42.380  29.636  28.962  1.00  0.00     0.031 A 
ATOM     35  C   UNL A   1      42.614  28.232  28.475  1.00  0.00     0.074 A 
ATOM     36  C   UNL A   1      43.347  30.564  28.859  1.00  0.00     0.049 A 
ATOM     37  N   UNL A   1      43.695  27.694  27.974  1.00  0.00    -0.248 NA
ATOM     38  C   UNL A   1      41.469  27.311  28.566  1.00  0.00     0.031 C 
ATOM     39  C   UNL A   1      43.215  31.969  29.236  1.00  0.00     0.029 A 
ATOM     40  N   UNL A   1      44.636  30.456  28.402  1.00  0.00    -0.354 N 
ATOM     41  C   UNL A   1      43.366  26.369  27.706  1.00  0.00     0.074 A 
ATOM     42  C   UNL A   1      41.996  26.179  28.126  1.00  0.00     0.031 C 
ATOM     43  C   UNL A   1      44.380  32.596  28.994  1.00  0.00     0.029 A 
ATOM     44  C   UNL A   1      45.348  31.629  28.478  1.00  0.00     0.049 A 
ATOM     45  H   UNL A   1      45.016  29.617  28.052  1.00  0.00     0.167 HD
ATOM     46  C   UNL A   1      44.137  25.402  27.154  1.00  0.00     0.037 A 
ATOM     47  C   UNL A   1      46.638  31.883  28.179  1.00  0.00     0.037 A 
ATOM     48  C   UNL A   1      45.502  25.602  26.745  1.00  0.00     0.049 A 
ATOM     49  C   UNL A   1      47.504  30.768  27.651  1.00  0.00     0.074 A 
ATOM     50  C   UNL A   1      46.366  24.696  26.157  1.00  0.00     0.029 A 
ATOM     51  N   UNL A   1      46.208  26.787  26.895  1.00  0.00    -0.354 N 
ATOM     52  N   UNL A   1      47.180  29.524  27.381  1.00  0.00    -0.248 NA
ATOM     53  C   UNL A   1      48.913  31.090  27.386  1.00  0.00     0.031 C 
ATOM     54  C   UNL A   1      47.613  25.313  26.012  1.00  0.00     0.029 A 
ATOM     55  C   UNL A   1      47.508  26.626  26.446  1.00  0.00     0.049 A 
ATOM     56  H   UNL A   1      45.839  27.621  27.267  1.00  0.00     0.167 HD
ATOM     57  C   UNL A   1      48.334  28.928  26.881  1.00  0.00     0.074 A 
ATOM     58  C   UNL A   1      49.362  29.948  26.884  1.00  0.00     0.031 C 
ATOM     59  C   UNL A   1      48.522  27.654  26.451  1.00  0.00     0.037 A 
BRANCH  46  60
ATOM     60  C   UNL A   1      43.531  24.029  27.022  1.00  0.00     0.058 A 
ATOM     61  C   UNL A   1      43.066  23.531  25.793  1.00  0.00     0.135 A 
ATOM     62  C   UNL A   1      43.402  23.203  28.151  1.00  0.00     0.135 A 
ATOM     63  F   UNL A   1      43.148  24.282  24.684  1.00  0.00    -0.206 F 
ATOM     64  C   UNL A   1      42.451  22.286  25.699  1.00  0.00     0.059 A 
ATOM     65  C   UNL A   1      42.821  21.941  28.072  1.00  0.00     0.059 A 
ATOM     66  F   UNL A   1      43.830  23.626  29.350  1.00  0.00    -0.206 F 
ATOM     67  C   UNL A   1      42.327  21.501  26.847  1.00  0.00     0.060 A 
BRANCH  67  68
ATOM     68  S   UNL A   1      41.497  19.904  26.717  1.00  0.00     0.124 S 
ATOM     69  O   UNL A   1      41.887  19.482  25.375  1.00  0.00    -0.237 OA
ATOM     70  O   UNL A   1      42.095  19.151  27.815  1.00  0.00    -0.237 OA
ATOM     71  O   UNL A   1      40.087  20.238  26.885  1.00  0.00    -0.744 OA
ENDBRANCH  67  68
ENDBRANCH  46  60
BRANCH  47  72
ATOM     72  C   UNL A   1      47.184  33.255  28.357  1.00  0.00     0.058 A 
ATOM     73  C   UNL A   1      47.165  34.180  27.302  1.00  0.00     0.135 A 
ATOM     74  C   UNL A   1      47.717  33.676  29.586  1.00  0.00     0.135 A 
ATOM     75  F   UNL A   1      46.679  33.821  26.105  1.00  0.00    -0.206 F 
ATOM     76  C   UNL A   1      47.655  35.472  27.457  1.00  0.00     0.059 A 
ATOM     77  C   UNL A   1      48.189  34.972  29.773  1.00  0.00     0.059 A 
ATOM     78  F   UNL A   1      47.753  32.833  30.629  1.00  0.00    -0.206 F 
ATOM     79  C   UNL A   1      48.156  35.862  28.701  1.00  0.00     0.060 A 
BRANCH  79  80
ATOM     80  S   UNL A   1      48.716  37.567  28.909  1.00  0.00     0.124 S 
ATOM     81  O   UNL A   1      47.452  38.293  28.932  1.00  0.00    -0.237 OA
ATOM     82  O   UNL A   1      49.438  37.496  30.176  1.00  0.00    -0.237 OA
ATOM     83  O   UNL A   1      49.552  37.791  27.733  1.00  0.00    -0.744 OA
ENDBRANCH  79  80
ENDBRANCH  47  72
BRANCH  59  84
ATOM     84  C   UNL A   1      49.880  27.295  25.906  1.00  0.00     0.058 A 
ATOM     85  C   UNL A   1      50.933  26.889  26.739  1.00  0.00     0.135 A 
ATOM     86  C   UNL A   1      50.110  27.306  24.520  1.00  0.00     0.135 A 
ATOM     87  F   UNL A   1      50.772  26.867  28.071  1.00  0.00    -0.206 F 
ATOM     88  C   UNL A   1      52.174  26.531  26.220  1.00  0.00     0.059 A 
ATOM     89  C   UNL A   1      51.331  26.921  23.976  1.00  0.00     0.059 A 
ATOM     90  F   UNL A   1      49.134  27.675  23.674  1.00  0.00    -0.206 F 
ATOM     91  C   UNL A   1      52.363  26.547  24.837  1.00  0.00     0.060 A 
BRANCH  91  92
ATOM     92  S   UNL A   1      53.967  26.048  24.175  1.00  0.00     0.124 S 
ATOM     93  O   UNL A   1      53.735  26.144  22.738  1.00  0.00    -0.237 OA
ATOM     94  O   UNL A   1      54.862  27.051  24.742  1.00  0.00    -0.237 OA
ATOM     95  O   UNL A   1      54.144  24.694  24.693  1.00  0.00    -0.744 OA
ENDBRANCH  91  92
ENDBRANCH  59  84
ENDBRANCH  33  34
ENDBRANCH  26  28
ENDBRANCH  25  26
ENDBRANCH  24  25
ENDBRANCH  23  24
ENDBRANCH  22  23
ENDBRANCH  21  22
ENDBRANCH   1  21
TORSDOF 25
ENDMDL
