MODEL 1
REMARK VINA RESULT:     -10.7      0.000      0.000
REMARK SMILES Cc1ccc(-c2cnnc(-n3nc(C)c4c3NC(=O)C[C@@H]4c3ccc(C(=O)OCCOCCOCCOCCOC(=O)c4ccc(-c5c6nc(c(-c7c(F)cc(S(=O)(=O)[O-])cc7F)c7ccc([nH]7)c(-c7c(F)cc(S(=O)(=O)[O-])cc7F)c7nc(c(-c8c(F)cc(S(=O)(=O)[O-])cc8F)c8ccc5[nH]8)C=C7)C=C6)cc4)cc3)n2)cc1
REMARK SMILES IDX 34 1 33 2 32 3 31 4 30 5 29 6 28 7 26 8 27 9 25 10 22 11
REMARK SMILES IDX 23 12 110 13 24 14 109 15 21 16 11 17 12 18 16 19 13 20
REMARK SMILES IDX 15 21 17 22 14 23 18 24 20 26 19 27 10 28 6 29 7 30 111 31
REMARK SMILES IDX 8 32 9 33 5 34 1 35 2 36 3 37 113 38 4 39 112 40 35 41 36 42
REMARK SMILES IDX 37 43 38 44 39 45 40 46 41 47 42 48 43 49 44 50 108 51 45 52
REMARK SMILES IDX 107 53 46 54 47 55 48 56 101 57 49 58 106 59 100 60 102 61
REMARK SMILES IDX 50 62 105 63 99 64 98 65 51 67 85 68 64 69 84 70 65 71 68 72
REMARK SMILES IDX 83 73 103 74 66 75 67 76 82 78 104 79 69 80 52 81 53 82
REMARK SMILES IDX 62 83 54 84 55 85 61 86 63 87 56 88 57 89 58 90 59 91 60 92
REMARK SMILES IDX 86 93 87 94 96 95 88 96 89 97 95 98 97 99 90 100 91 101
REMARK SMILES IDX 92 102 93 103 94 104 70 105 71 106 80 107 72 108 73 109
REMARK SMILES IDX 79 110 81 111 74 112 75 113 76 114 77 115 78 116
REMARK H PARENT 17 25 102 66 68 77
REMARK Flexibility Score: inf
ROOT
ATOM      1  O   UNL A   1      42.227  23.591  26.012  1.00  0.00    -0.377 OA
ENDROOT
BRANCH   1   2
ATOM      2  C   UNL A   1      43.499  24.152  26.247  1.00  0.00     0.188 C 
BRANCH   2   3
ATOM      3  C   UNL A   1      43.547  25.559  26.865  1.00  0.00     0.188 C 
BRANCH   3   4
ATOM      4  O   UNL A   1      44.426  25.825  27.961  1.00  0.00    -0.376 OA
BRANCH   4   5
ATOM      5  C   UNL A   1      43.849  26.190  29.205  1.00  0.00     0.202 C 
BRANCH   5   6
ATOM      6  C   UNL A   1      44.802  26.298  30.359  1.00  0.00     0.261 C 
BRANCH   6   7
ATOM      7  O   UNL A   1      44.328  25.436  31.378  1.00  0.00    -0.460 OA
BRANCH   7   8
ATOM      8  C   UNL A   1      44.551  25.871  32.603  1.00  0.00     0.338 C 
ATOM      9  O   UNL A   1      44.572  27.045  33.006  1.00  0.00    -0.246 OA
BRANCH   8  10
ATOM     10  C   UNL A   1      44.627  24.707  33.477  1.00  0.00     0.060 A 
ATOM     11  C   UNL A   1      44.906  22.511  35.175  1.00  0.00    -0.040 A 
ATOM     12  C   UNL A   1      45.980  22.974  34.378  1.00  0.00     0.005 A 
ATOM     13  C   UNL A   1      43.710  23.227  35.166  1.00  0.00     0.005 A 
ATOM     14  C   UNL A   1      45.857  24.081  33.567  1.00  0.00     0.016 A 
ATOM     15  C   UNL A   1      43.553  24.280  34.276  1.00  0.00     0.016 A 
BRANCH  11  16
ATOM     16  C   UNL A   1      45.151  21.222  35.904  1.00  0.00     0.064 C 
ATOM     17  N   UNL A   1      47.485  20.420  38.457  1.00  0.00    -0.180 N 
ATOM     18  N   UNL A   1      47.160  21.601  39.048  1.00  0.00    -0.168 NA
ATOM     19  C   UNL A   1      47.244  20.544  37.101  1.00  0.00     0.143 A 
ATOM     20  C   UNL A   1      46.217  22.109  38.237  1.00  0.00     0.066 A 
ATOM     21  C   UNL A   1      46.111  21.331  37.041  1.00  0.00     0.026 A 
ATOM     22  N   UNL A   1      47.803  19.987  35.967  1.00  0.00    -0.310 N 
ATOM     23  C   UNL A   1      45.547  23.360  38.680  1.00  0.00     0.069 C 
ATOM     24  C   UNL A   1      47.047  20.063  34.763  1.00  0.00     0.226 C 
ATOM     25  H   UNL A   1      48.688  19.556  35.991  1.00  0.00     0.171 HD
ATOM     26  C   UNL A   1      45.559  20.096  34.938  1.00  0.00     0.113 C 
ATOM     27  O   UNL A   1      47.648  19.928  33.699  1.00  0.00    -0.275 OA
BRANCH  17  28
ATOM     28  C   UNL A   1      47.395  19.183  39.177  1.00  0.00     0.272 A 
ATOM     29  C   UNL A   1      46.176  17.588  40.286  1.00  0.00     0.095 A 
ATOM     30  C   UNL A   1      47.314  17.218  40.981  1.00  0.00     0.164 A 
ATOM     31  N   UNL A   1      46.183  18.623  39.400  1.00  0.00    -0.208 NA
ATOM     32  N   UNL A   1      48.490  17.814  40.745  1.00  0.00    -0.153 NA
ATOM     33  N   UNL A   1      48.534  18.785  39.802  1.00  0.00    -0.109 NA
BRANCH  29  34
ATOM     34  C   UNL A   1      44.943  16.796  40.376  1.00  0.00     0.002 A 
ATOM     35  C   UNL A   1      41.459  14.221  40.517  1.00  0.00     0.044 C 
ATOM     36  C   UNL A   1      42.670  15.105  40.465  1.00  0.00    -0.051 A 
ATOM     37  C   UNL A   1      43.260  15.565  41.647  1.00  0.00     0.004 A 
ATOM     38  C   UNL A   1      43.217  15.494  39.240  1.00  0.00     0.004 A 
ATOM     39  C   UNL A   1      44.384  16.399  41.604  1.00  0.00     0.011 A 
ATOM     40  C   UNL A   1      44.333  16.331  39.199  1.00  0.00     0.011 A 
ENDBRANCH  29  34
ENDBRANCH  17  28
ENDBRANCH  11  16
ENDBRANCH   8  10
ENDBRANCH   7   8
ENDBRANCH   6   7
ENDBRANCH   5   6
ENDBRANCH   4   5
ENDBRANCH   3   4
ENDBRANCH   2   3
ENDBRANCH   1   2
BRANCH   1  41
ATOM     41  C   UNL A   1      41.827  22.470  26.769  1.00  0.00     0.188 C 
BRANCH  41  42
ATOM     42  C   UNL A   1      40.521  22.711  27.517  1.00  0.00     0.188 C 
BRANCH  42  43
ATOM     43  O   UNL A   1      39.432  23.164  26.735  1.00  0.00    -0.376 OA
BRANCH  43  44
ATOM     44  C   UNL A   1      38.939  24.484  26.990  1.00  0.00     0.202 C 
BRANCH  44  45
ATOM     45  C   UNL A   1      39.527  25.357  28.143  1.00  0.00     0.261 C 
BRANCH  45  46
ATOM     46  O   UNL A   1      39.737  26.741  27.747  1.00  0.00    -0.460 OA
BRANCH  46  47
ATOM     47  C   UNL A   1      39.113  27.731  28.467  1.00  0.00     0.338 C 
ATOM     48  O   UNL A   1      38.113  28.326  28.099  1.00  0.00    -0.246 OA
BRANCH  47  49
ATOM     49  C   UNL A   1      39.536  27.737  29.901  1.00  0.00     0.060 A 
ATOM     50  C   UNL A   1      38.619  27.635  30.948  1.00  0.00     0.016 A 
ATOM     51  C   UNL A   1      40.879  27.912  30.217  1.00  0.00     0.016 A 
ATOM     52  C   UNL A   1      38.999  28.018  32.245  1.00  0.00     0.010 A 
ATOM     53  C   UNL A   1      41.235  28.404  31.468  1.00  0.00     0.010 A 
ATOM     54  C   UNL A   1      40.266  28.579  32.458  1.00  0.00    -0.014 A 
BRANCH  54  55
ATOM     55  C   UNL A   1      40.500  29.639  33.472  1.00  0.00     0.031 A 
ATOM     56  C   UNL A   1      41.266  29.398  34.743  1.00  0.00     0.074 A 
ATOM     57  C   UNL A   1      40.263  30.912  33.046  1.00  0.00     0.049 A 
ATOM     58  N   UNL A   1      41.430  30.272  35.679  1.00  0.00    -0.248 NA
ATOM     59  C   UNL A   1      41.970  28.156  35.059  1.00  0.00     0.031 C 
ATOM     60  C   UNL A   1      40.659  32.176  33.659  1.00  0.00     0.029 A 
ATOM     61  N   UNL A   1      39.554  31.342  31.921  1.00  0.00    -0.354 N 
ATOM     62  C   UNL A   1      42.486  29.882  36.493  1.00  0.00     0.074 A 
ATOM     63  C   UNL A   1      42.710  28.509  36.120  1.00  0.00     0.031 C 
ATOM     64  C   UNL A   1      40.137  33.217  32.992  1.00  0.00     0.029 A 
ATOM     65  C   UNL A   1      39.144  32.671  32.099  1.00  0.00     0.049 A 
ATOM     66  H   UNL A   1      39.371  30.795  31.123  1.00  0.00     0.167 HD
ATOM     67  C   UNL A   1      43.126  30.825  37.265  1.00  0.00     0.037 A 
ATOM     68  C   UNL A   1      37.816  32.893  32.344  1.00  0.00     0.037 A 
ATOM     69  C   UNL A   1      42.337  32.087  37.305  1.00  0.00     0.049 A 
ATOM     70  C   UNL A   1      37.540  33.160  33.838  1.00  0.00     0.074 A 
ATOM     71  C   UNL A   1      42.602  33.426  37.069  1.00  0.00     0.029 A 
ATOM     72  N   UNL A   1      40.940  32.017  37.430  1.00  0.00    -0.354 N 
ATOM     73  N   UNL A   1      38.365  32.772  34.792  1.00  0.00    -0.248 NA
ATOM     74  C   UNL A   1      36.480  33.998  34.394  1.00  0.00     0.031 C 
ATOM     75  C   UNL A   1      41.358  34.080  36.792  1.00  0.00     0.029 A 
ATOM     76  C   UNL A   1      40.321  33.173  36.982  1.00  0.00     0.049 A 
ATOM     77  H   UNL A   1      40.458  31.239  37.794  1.00  0.00     0.167 HD
ATOM     78  C   UNL A   1      38.073  33.371  35.987  1.00  0.00     0.074 A 
ATOM     79  C   UNL A   1      36.832  34.077  35.697  1.00  0.00     0.031 C 
ATOM     80  C   UNL A   1      38.867  33.333  37.111  1.00  0.00     0.037 A 
BRANCH  67  81
ATOM     81  C   UNL A   1      44.575  30.700  37.812  1.00  0.00     0.058 A 
ATOM     82  C   UNL A   1      44.871  30.909  39.184  1.00  0.00     0.135 A 
ATOM     83  C   UNL A   1      45.737  30.481  37.026  1.00  0.00     0.135 A 
ATOM     84  F   UNL A   1      43.897  31.166  40.067  1.00  0.00    -0.206 F 
ATOM     85  C   UNL A   1      46.175  30.875  39.721  1.00  0.00     0.059 A 
ATOM     86  C   UNL A   1      47.041  30.389  37.549  1.00  0.00     0.059 A 
ATOM     87  F   UNL A   1      45.682  30.403  35.692  1.00  0.00    -0.206 F 
ATOM     88  C   UNL A   1      47.257  30.592  38.900  1.00  0.00     0.060 A 
BRANCH  88  89
ATOM     89  S   UNL A   1      48.919  30.464  39.610  1.00  0.00     0.124 S 
ATOM     90  O   UNL A   1      49.082  31.760  40.260  1.00  0.00    -0.237 OA
ATOM     91  O   UNL A   1      48.789  29.318  40.505  1.00  0.00    -0.237 OA
ATOM     92  O   UNL A   1      49.771  30.241  38.444  1.00  0.00    -0.744 OA
ENDBRANCH  88  89
ENDBRANCH  67  81
BRANCH  68  93
ATOM     93  C   UNL A   1      37.019  32.552  31.111  1.00  0.00     0.058 A 
ATOM     94  C   UNL A   1      35.656  32.253  31.356  1.00  0.00     0.135 A 
ATOM     95  C   UNL A   1      37.283  33.164  29.868  1.00  0.00     0.135 A 
ATOM     96  F   UNL A   1      35.313  31.643  32.503  1.00  0.00    -0.206 F 
ATOM     97  C   UNL A   1      34.615  32.735  30.553  1.00  0.00     0.059 A 
ATOM     98  C   UNL A   1      36.250  33.648  29.038  1.00  0.00     0.059 A 
ATOM     99  F   UNL A   1      38.546  33.437  29.512  1.00  0.00    -0.206 F 
ATOM    100  C   UNL A   1      34.921  33.496  29.431  1.00  0.00     0.060 A 
BRANCH 100 101
ATOM    101  S   UNL A   1      33.591  34.456  28.645  1.00  0.00     0.124 S 
ATOM    102  O   UNL A   1      32.765  34.823  29.788  1.00  0.00    -0.237 OA
ATOM    103  O   UNL A   1      34.325  35.550  28.012  1.00  0.00    -0.237 OA
ATOM    104  O   UNL A   1      33.016  33.499  27.709  1.00  0.00    -0.744 OA
ENDBRANCH 100 101
ENDBRANCH  68  93
BRANCH  80 105
ATOM    105  C   UNL A   1      38.347  33.467  38.533  1.00  0.00     0.058 A 
ATOM    106  C   UNL A   1      37.655  32.435  39.183  1.00  0.00     0.135 A 
ATOM    107  C   UNL A   1      38.781  34.532  39.370  1.00  0.00     0.135 A 
ATOM    108  F   UNL A   1      37.256  31.339  38.523  1.00  0.00    -0.206 F 
ATOM    109  C   UNL A   1      37.391  32.465  40.553  1.00  0.00     0.059 A 
ATOM    110  C   UNL A   1      38.590  34.547  40.745  1.00  0.00     0.059 A 
ATOM    111  F   UNL A   1      39.442  35.595  38.886  1.00  0.00    -0.206 F 
ATOM    112  C   UNL A   1      37.872  33.518  41.326  1.00  0.00     0.060 A 
BRANCH 112 113
ATOM    113  S   UNL A   1      37.582  33.526  43.100  1.00  0.00     0.124 S 
ATOM    114  O   UNL A   1      36.967  32.216  43.291  1.00  0.00    -0.237 OA
ATOM    115  O   UNL A   1      38.929  33.679  43.641  1.00  0.00    -0.237 OA
ATOM    116  O   UNL A   1      36.702  34.673  43.294  1.00  0.00    -0.744 OA
ENDBRANCH 112 113
ENDBRANCH  80 105
ENDBRANCH  54  55
ENDBRANCH  47  49
ENDBRANCH  46  47
ENDBRANCH  45  46
ENDBRANCH  44  45
ENDBRANCH  43  44
ENDBRANCH  42  43
ENDBRANCH  41  42
ENDBRANCH   1  41
TORSDOF 26
ENDMDL
MODEL 2
REMARK VINA RESULT:      -9.8      5.558     11.163
REMARK SMILES Cc1ccc(-c2cnnc(-n3nc(C)c4c3NC(=O)C[C@@H]4c3ccc(C(=O)OCCOCCOCCOCCOC(=O)c4ccc(-c5c6nc(c(-c7c(F)cc(S(=O)(=O)[O-])cc7F)c7ccc([nH]7)c(-c7c(F)cc(S(=O)(=O)[O-])cc7F)c7nc(c(-c8c(F)cc(S(=O)(=O)[O-])cc8F)c8ccc5[nH]8)C=C7)C=C6)cc4)cc3)n2)cc1
REMARK SMILES IDX 34 1 33 2 32 3 31 4 30 5 29 6 28 7 26 8 27 9 25 10 22 11
REMARK SMILES IDX 23 12 110 13 24 14 109 15 21 16 11 17 12 18 16 19 13 20
REMARK SMILES IDX 15 21 17 22 14 23 18 24 20 26 19 27 10 28 6 29 7 30 111 31
REMARK SMILES IDX 8 32 9 33 5 34 1 35 2 36 3 37 113 38 4 39 112 40 35 41 36 42
REMARK SMILES IDX 37 43 38 44 39 45 40 46 41 47 42 48 43 49 44 50 108 51 45 52
REMARK SMILES IDX 107 53 46 54 47 55 48 56 101 57 49 58 106 59 100 60 102 61
REMARK SMILES IDX 50 62 105 63 99 64 98 65 51 67 85 68 64 69 84 70 65 71 68 72
REMARK SMILES IDX 83 73 103 74 66 75 67 76 82 78 104 79 69 80 52 81 53 82
REMARK SMILES IDX 62 83 54 84 55 85 61 86 63 87 56 88 57 89 58 90 59 91 60 92
REMARK SMILES IDX 86 93 87 94 96 95 88 96 89 97 95 98 97 99 90 100 91 101
REMARK SMILES IDX 92 102 93 103 94 104 70 105 71 106 80 107 72 108 73 109
REMARK SMILES IDX 79 110 81 111 74 112 75 113 76 114 77 115 78 116
REMARK H PARENT 17 25 102 66 68 77
REMARK Flexibility Score: inf
ROOT
ATOM      1  O   UNL A   1      42.278  23.270  26.011  1.00  0.00    -0.377 OA
ENDROOT
BRANCH   1   2
ATOM      2  C   UNL A   1      43.663  23.433  26.217  1.00  0.00     0.188 C 
BRANCH   2   3
ATOM      3  C   UNL A   1      44.130  23.766  27.644  1.00  0.00     0.188 C 
BRANCH   3   4
ATOM      4  O   UNL A   1      43.326  24.603  28.479  1.00  0.00    -0.376 OA
BRANCH   4   5
ATOM      5  C   UNL A   1      43.967  25.308  29.531  1.00  0.00     0.202 C 
BRANCH   5   6
ATOM      6  C   UNL A   1      44.498  26.667  29.176  1.00  0.00     0.261 C 
BRANCH   6   7
ATOM      7  O   UNL A   1      43.427  27.404  28.616  1.00  0.00    -0.460 OA
BRANCH   7   8
ATOM      8  C   UNL A   1      43.682  27.909  27.425  1.00  0.00     0.338 C 
ATOM      9  O   UNL A   1      43.650  27.332  26.326  1.00  0.00    -0.246 OA
BRANCH   8  10
ATOM     10  C   UNL A   1      43.871  29.345  27.586  1.00  0.00     0.060 A 
ATOM     11  C   UNL A   1      44.210  32.109  27.758  1.00  0.00    -0.040 A 
ATOM     12  C   UNL A   1      44.592  31.385  26.604  1.00  0.00     0.005 A 
ATOM     13  C   UNL A   1      43.574  31.427  28.794  1.00  0.00     0.005 A 
ATOM     14  C   UNL A   1      44.391  30.026  26.501  1.00  0.00     0.016 A 
ATOM     15  C   UNL A   1      43.463  30.045  28.734  1.00  0.00     0.016 A 
BRANCH  11  16
ATOM     16  C   UNL A   1      44.610  33.556  27.775  1.00  0.00     0.064 C 
ATOM     17  N   UNL A   1      42.627  36.501  27.708  1.00  0.00    -0.180 N 
ATOM     18  N   UNL A   1      41.812  35.906  28.620  1.00  0.00    -0.168 NA
ATOM     19  C   UNL A   1      43.250  35.503  26.981  1.00  0.00     0.143 A 
ATOM     20  C   UNL A   1      42.402  34.720  28.842  1.00  0.00     0.066 A 
ATOM     21  C   UNL A   1      43.469  34.508  27.913  1.00  0.00     0.026 A 
ATOM     22  N   UNL A   1      43.726  35.407  25.688  1.00  0.00    -0.310 N 
ATOM     23  C   UNL A   1      41.818  33.863  29.908  1.00  0.00     0.069 C 
ATOM     24  C   UNL A   1      44.643  34.353  25.409  1.00  0.00     0.226 C 
ATOM     25  H   UNL A   1      43.443  36.039  24.989  1.00  0.00     0.171 HD
ATOM     26  C   UNL A   1      45.489  33.913  26.564  1.00  0.00     0.113 C 
ATOM     27  O   UNL A   1      44.786  34.013  24.236  1.00  0.00    -0.275 OA
BRANCH  17  28
ATOM     28  C   UNL A   1      43.207  37.787  27.964  1.00  0.00     0.272 A 
ATOM     29  C   UNL A   1      44.418  39.615  27.291  1.00  0.00     0.095 A 
ATOM     30  C   UNL A   1      44.743  39.871  28.610  1.00  0.00     0.164 A 
ATOM     31  N   UNL A   1      43.679  38.528  26.933  1.00  0.00    -0.208 NA
ATOM     32  N   UNL A   1      44.273  39.100  29.599  1.00  0.00    -0.153 NA
ATOM     33  N   UNL A   1      43.463  38.066  29.269  1.00  0.00    -0.109 NA
BRANCH  29  34
ATOM     34  C   UNL A   1      44.742  40.578  26.230  1.00  0.00     0.002 A 
ATOM     35  C   UNL A   1      45.735  43.633  23.321  1.00  0.00     0.044 C 
ATOM     36  C   UNL A   1      45.393  42.582  24.334  1.00  0.00    -0.051 A 
ATOM     37  C   UNL A   1      46.240  41.487  24.529  1.00  0.00     0.004 A 
ATOM     38  C   UNL A   1      44.219  42.672  25.086  1.00  0.00     0.004 A 
ATOM     39  C   UNL A   1      45.921  40.497  25.467  1.00  0.00     0.011 A 
ATOM     40  C   UNL A   1      43.899  41.681  26.016  1.00  0.00     0.011 A 
ENDBRANCH  29  34
ENDBRANCH  17  28
ENDBRANCH  11  16
ENDBRANCH   8  10
ENDBRANCH   7   8
ENDBRANCH   6   7
ENDBRANCH   5   6
ENDBRANCH   4   5
ENDBRANCH   3   4
ENDBRANCH   2   3
ENDBRANCH   1   2
BRANCH   1  41
ATOM     41  C   UNL A   1      41.612  22.214  26.670  1.00  0.00     0.188 C 
BRANCH  41  42
ATOM     42  C   UNL A   1      40.409  22.699  27.471  1.00  0.00     0.188 C 
BRANCH  42  43
ATOM     43  O   UNL A   1      39.357  23.278  26.722  1.00  0.00    -0.376 OA
BRANCH  43  44
ATOM     44  C   UNL A   1      38.967  24.615  27.055  1.00  0.00     0.202 C 
BRANCH  44  45
ATOM     45  C   UNL A   1      39.682  25.405  28.197  1.00  0.00     0.261 C 
BRANCH  45  46
ATOM     46  O   UNL A   1      39.907  26.801  27.857  1.00  0.00    -0.460 OA
BRANCH  46  47
ATOM     47  C   UNL A   1      39.218  27.765  28.553  1.00  0.00     0.338 C 
ATOM     48  O   UNL A   1      38.210  28.320  28.147  1.00  0.00    -0.246 OA
BRANCH  47  49
ATOM     49  C   UNL A   1      39.586  27.785  30.002  1.00  0.00     0.060 A 
ATOM     50  C   UNL A   1      38.627  27.742  31.014  1.00  0.00     0.016 A 
ATOM     51  C   UNL A   1      40.922  27.913  30.366  1.00  0.00     0.016 A 
ATOM     52  C   UNL A   1      38.972  28.137  32.317  1.00  0.00     0.010 A 
ATOM     53  C   UNL A   1      41.250  28.417  31.620  1.00  0.00     0.010 A 
ATOM     54  C   UNL A   1      40.252  28.652  32.568  1.00  0.00    -0.014 A 
BRANCH  54  55
ATOM     55  C   UNL A   1      40.489  29.723  33.569  1.00  0.00     0.031 A 
ATOM     56  C   UNL A   1      41.250  29.494  34.846  1.00  0.00     0.074 A 
ATOM     57  C   UNL A   1      40.263  30.992  33.126  1.00  0.00     0.049 A 
ATOM     58  N   UNL A   1      41.416  30.379  35.772  1.00  0.00    -0.248 NA
ATOM     59  C   UNL A   1      41.943  28.250  35.181  1.00  0.00     0.031 C 
ATOM     60  C   UNL A   1      40.666  32.261  33.724  1.00  0.00     0.029 A 
ATOM     61  N   UNL A   1      39.562  31.413  31.992  1.00  0.00    -0.354 N 
ATOM     62  C   UNL A   1      42.467  29.991  36.594  1.00  0.00     0.074 A 
ATOM     63  C   UNL A   1      42.682  28.612  36.240  1.00  0.00     0.031 C 
ATOM     64  C   UNL A   1      40.154  33.297  33.041  1.00  0.00     0.029 A 
ATOM     65  C   UNL A   1      39.160  32.746  32.152  1.00  0.00     0.049 A 
ATOM     66  H   UNL A   1      39.377  30.857  31.201  1.00  0.00     0.167 HD
ATOM     67  C   UNL A   1      43.111  30.939  37.356  1.00  0.00     0.037 A 
ATOM     68  C   UNL A   1      37.833  32.981  32.388  1.00  0.00     0.037 A 
ATOM     69  C   UNL A   1      42.330  32.208  37.377  1.00  0.00     0.049 A 
ATOM     70  C   UNL A   1      37.554  33.270  33.878  1.00  0.00     0.074 A 
ATOM     71  C   UNL A   1      42.606  33.542  37.124  1.00  0.00     0.029 A 
ATOM     72  N   UNL A   1      40.933  32.150  37.498  1.00  0.00    -0.354 N 
ATOM     73  N   UNL A   1      38.373  32.889  34.840  1.00  0.00    -0.248 NA
ATOM     74  C   UNL A   1      36.498  34.122  34.419  1.00  0.00     0.031 C 
ATOM     75  C   UNL A   1      41.368  34.201  36.834  1.00  0.00     0.029 A 
ATOM     76  C   UNL A   1      40.323  33.304  37.032  1.00  0.00     0.049 A 
ATOM     77  H   UNL A   1      40.444  31.380  37.870  1.00  0.00     0.167 HD
ATOM     78  C   UNL A   1      38.081  33.505  36.026  1.00  0.00     0.074 A 
ATOM     79  C   UNL A   1      36.846  34.216  35.722  1.00  0.00     0.031 C 
ATOM     80  C   UNL A   1      38.870  33.476  37.154  1.00  0.00     0.037 A 
BRANCH  67  81
ATOM     81  C   UNL A   1      44.557  30.811  37.910  1.00  0.00     0.058 A 
ATOM     82  C   UNL A   1      45.653  30.511  37.060  1.00  0.00     0.135 A 
ATOM     83  C   UNL A   1      44.923  30.867  39.279  1.00  0.00     0.135 A 
ATOM     84  F   UNL A   1      45.484  30.384  35.736  1.00  0.00    -0.206 F 
ATOM     85  C   UNL A   1      46.973  30.317  37.518  1.00  0.00     0.059 A 
ATOM     86  C   UNL A   1      46.241  30.731  39.754  1.00  0.00     0.059 A 
ATOM     87  F   UNL A   1      44.010  30.999  40.248  1.00  0.00    -0.206 F 
ATOM     88  C   UNL A   1      47.266  30.450  38.868  1.00  0.00     0.060 A 
BRANCH  88  89
ATOM     89  S   UNL A   1      48.977  30.286  39.440  1.00  0.00     0.124 S 
ATOM     90  O   UNL A   1      48.854  29.303  40.512  1.00  0.00    -0.237 OA
ATOM     91  O   UNL A   1      49.667  29.829  38.238  1.00  0.00    -0.237 OA
ATOM     92  O   UNL A   1      49.322  31.639  39.872  1.00  0.00    -0.744 OA
ENDBRANCH  88  89
ENDBRANCH  67  81
BRANCH  68  93
ATOM     93  C   UNL A   1      37.039  32.630  31.157  1.00  0.00     0.058 A 
ATOM     94  C   UNL A   1      35.682  32.304  31.406  1.00  0.00     0.135 A 
ATOM     95  C   UNL A   1      37.286  33.252  29.916  1.00  0.00     0.135 A 
ATOM     96  F   UNL A   1      35.356  31.683  32.552  1.00  0.00    -0.206 F 
ATOM     97  C   UNL A   1      34.629  32.770  30.609  1.00  0.00     0.059 A 
ATOM     98  C   UNL A   1      36.241  33.719  29.092  1.00  0.00     0.059 A 
ATOM     99  F   UNL A   1      38.542  33.551  29.556  1.00  0.00    -0.206 F 
ATOM    100  C   UNL A   1      34.916  33.540  29.489  1.00  0.00     0.060 A 
BRANCH 100 101
ATOM    101  S   UNL A   1      33.565  34.477  28.712  1.00  0.00     0.124 S 
ATOM    102  O   UNL A   1      34.274  35.616  28.143  1.00  0.00    -0.237 OA
ATOM    103  O   UNL A   1      33.027  33.517  27.751  1.00  0.00    -0.237 OA
ATOM    104  O   UNL A   1      32.682  34.759  29.837  1.00  0.00    -0.744 OA
ENDBRANCH 100 101
ENDBRANCH  68  93
BRANCH  80 105
ATOM    105  C   UNL A   1      38.346  33.633  38.572  1.00  0.00     0.058 A 
ATOM    106  C   UNL A   1      37.697  32.593  39.255  1.00  0.00     0.135 A 
ATOM    107  C   UNL A   1      38.736  34.740  39.374  1.00  0.00     0.135 A 
ATOM    108  F   UNL A   1      37.344  31.462  38.629  1.00  0.00    -0.206 F 
ATOM    109  C   UNL A   1      37.434  32.655  40.623  1.00  0.00     0.059 A 
ATOM    110  C   UNL A   1      38.545  34.789  40.748  1.00  0.00     0.059 A 
ATOM    111  F   UNL A   1      39.352  35.813  38.857  1.00  0.00    -0.206 F 
ATOM    112  C   UNL A   1      37.871  33.750  41.362  1.00  0.00     0.060 A 
BRANCH 112 113
ATOM    113  S   UNL A   1      37.582  33.800  43.137  1.00  0.00     0.124 S 
ATOM    114  O   UNL A   1      38.936  33.614  43.648  1.00  0.00    -0.237 OA
ATOM    115  O   UNL A   1      37.009  35.129  43.327  1.00  0.00    -0.237 OA
ATOM    116  O   UNL A   1      36.663  32.690  43.361  1.00  0.00    -0.744 OA
ENDBRANCH 112 113
ENDBRANCH  80 105
ENDBRANCH  54  55
ENDBRANCH  47  49
ENDBRANCH  46  47
ENDBRANCH  45  46
ENDBRANCH  44  45
ENDBRANCH  43  44
ENDBRANCH  42  43
ENDBRANCH  41  42
ENDBRANCH   1  41
TORSDOF 26
ENDMDL
MODEL 3
REMARK VINA RESULT:      -9.1      7.106      9.952
REMARK SMILES Cc1ccc(-c2cnnc(-n3nc(C)c4c3NC(=O)C[C@@H]4c3ccc(C(=O)OCCOCCOCCOCCOC(=O)c4ccc(-c5c6nc(c(-c7c(F)cc(S(=O)(=O)[O-])cc7F)c7ccc([nH]7)c(-c7c(F)cc(S(=O)(=O)[O-])cc7F)c7nc(c(-c8c(F)cc(S(=O)(=O)[O-])cc8F)c8ccc5[nH]8)C=C7)C=C6)cc4)cc3)n2)cc1
REMARK SMILES IDX 34 1 33 2 32 3 31 4 30 5 29 6 28 7 26 8 27 9 25 10 22 11
REMARK SMILES IDX 23 12 110 13 24 14 109 15 21 16 11 17 12 18 16 19 13 20
REMARK SMILES IDX 15 21 17 22 14 23 18 24 20 26 19 27 10 28 6 29 7 30 111 31
REMARK SMILES IDX 8 32 9 33 5 34 1 35 2 36 3 37 113 38 4 39 112 40 35 41 36 42
REMARK SMILES IDX 37 43 38 44 39 45 40 46 41 47 42 48 43 49 44 50 108 51 45 52
REMARK SMILES IDX 107 53 46 54 47 55 48 56 101 57 49 58 106 59 100 60 102 61
REMARK SMILES IDX 50 62 105 63 99 64 98 65 51 67 85 68 64 69 84 70 65 71 68 72
REMARK SMILES IDX 83 73 103 74 66 75 67 76 82 78 104 79 69 80 52 81 53 82
REMARK SMILES IDX 62 83 54 84 55 85 61 86 63 87 56 88 57 89 58 90 59 91 60 92
REMARK SMILES IDX 86 93 87 94 96 95 88 96 89 97 95 98 97 99 90 100 91 101
REMARK SMILES IDX 92 102 93 103 94 104 70 105 71 106 80 107 72 108 73 109
REMARK SMILES IDX 79 110 81 111 74 112 75 113 76 114 77 115 78 116
REMARK H PARENT 17 25 102 66 68 77
REMARK Flexibility Score: inf
ROOT
ATOM      1  O   UNL A   1      42.846  30.904  29.397  1.00  0.00    -0.377 OA
ENDROOT
BRANCH   1   2
ATOM      2  C   UNL A   1      44.036  31.059  30.136  1.00  0.00     0.188 C 
BRANCH   2   3
ATOM      3  C   UNL A   1      45.259  30.245  29.684  1.00  0.00     0.188 C 
BRANCH   3   4
ATOM      4  O   UNL A   1      46.563  30.601  30.150  1.00  0.00    -0.376 OA
BRANCH   4   5
ATOM      5  C   UNL A   1      47.653  29.772  29.780  1.00  0.00     0.202 C 
BRANCH   5   6
ATOM      6  C   UNL A   1      47.588  29.185  28.400  1.00  0.00     0.261 C 
BRANCH   6   7
ATOM      7  O   UNL A   1      47.470  27.781  28.545  1.00  0.00    -0.460 OA
BRANCH   7   8
ATOM      8  C   UNL A   1      48.051  27.087  27.586  1.00  0.00     0.338 C 
ATOM      9  O   UNL A   1      49.240  27.118  27.231  1.00  0.00    -0.246 OA
BRANCH   8  10
ATOM     10  C   UNL A   1      47.074  26.129  27.082  1.00  0.00     0.060 A 
ATOM     11  C   UNL A   1      45.235  24.339  25.988  1.00  0.00    -0.040 A 
ATOM     12  C   UNL A   1      45.495  25.594  25.389  1.00  0.00     0.005 A 
ATOM     13  C   UNL A   1      45.982  23.964  27.104  1.00  0.00     0.005 A 
ATOM     14  C   UNL A   1      46.430  26.465  25.905  1.00  0.00     0.016 A 
ATOM     15  C   UNL A   1      46.850  24.879  27.682  1.00  0.00     0.016 A 
BRANCH  11  16
ATOM     16  C   UNL A   1      44.101  23.559  25.388  1.00  0.00     0.064 C 
ATOM     17  N   UNL A   1      41.765  21.352  26.898  1.00  0.00    -0.180 N 
ATOM     18  N   UNL A   1      41.641  22.258  27.903  1.00  0.00    -0.168 NA
ATOM     19  C   UNL A   1      43.018  21.508  26.336  1.00  0.00     0.143 A 
ATOM     20  C   UNL A   1      42.456  23.259  27.526  1.00  0.00     0.066 A 
ATOM     21  C   UNL A   1      43.231  22.872  26.387  1.00  0.00     0.026 A 
ATOM     22  N   UNL A   1      43.908  20.657  25.711  1.00  0.00    -0.310 N 
ATOM     23  C   UNL A   1      42.451  24.487  28.364  1.00  0.00     0.069 C 
ATOM     24  C   UNL A   1      44.938  21.252  24.927  1.00  0.00     0.226 C 
ATOM     25  H   UNL A   1      43.834  19.680  25.805  1.00  0.00     0.171 HD
ATOM     26  C   UNL A   1      44.598  22.576  24.314  1.00  0.00     0.113 C 
ATOM     27  O   UNL A   1      45.935  20.575  24.682  1.00  0.00    -0.275 OA
BRANCH  17  28
ATOM     28  C   UNL A   1      40.615  20.888  26.176  1.00  0.00     0.272 A 
ATOM     29  C   UNL A   1      38.391  21.032  25.633  1.00  0.00     0.095 A 
ATOM     30  C   UNL A   1      38.398  19.690  25.298  1.00  0.00     0.164 A 
ATOM     31  N   UNL A   1      39.497  21.651  26.133  1.00  0.00    -0.208 NA
ATOM     32  N   UNL A   1      39.522  18.966  25.376  1.00  0.00    -0.153 NA
ATOM     33  N   UNL A   1      40.653  19.587  25.786  1.00  0.00    -0.109 NA
BRANCH  29  34
ATOM     34  C   UNL A   1      37.228  21.880  25.340  1.00  0.00     0.002 A 
ATOM     35  C   UNL A   1      33.981  24.552  24.293  1.00  0.00     0.044 C 
ATOM     36  C   UNL A   1      35.110  23.632  24.650  1.00  0.00    -0.051 A 
ATOM     37  C   UNL A   1      35.081  22.291  24.252  1.00  0.00     0.004 A 
ATOM     38  C   UNL A   1      36.198  24.093  25.394  1.00  0.00     0.004 A 
ATOM     39  C   UNL A   1      36.128  21.425  24.591  1.00  0.00     0.011 A 
ATOM     40  C   UNL A   1      37.238  23.227  25.736  1.00  0.00     0.011 A 
ENDBRANCH  29  34
ENDBRANCH  17  28
ENDBRANCH  11  16
ENDBRANCH   8  10
ENDBRANCH   7   8
ENDBRANCH   6   7
ENDBRANCH   5   6
ENDBRANCH   4   5
ENDBRANCH   3   4
ENDBRANCH   2   3
ENDBRANCH   1   2
BRANCH   1  41
ATOM     41  C   UNL A   1      42.656  29.720  28.653  1.00  0.00     0.188 C 
BRANCH  41  42
ATOM     42  C   UNL A   1      41.195  29.284  28.621  1.00  0.00     0.188 C 
BRANCH  42  43
ATOM     43  O   UNL A   1      40.884  28.101  29.332  1.00  0.00    -0.376 OA
BRANCH  43  44
ATOM     44  C   UNL A   1      41.361  27.995  30.678  1.00  0.00     0.202 C 
BRANCH  44  45
ATOM     45  C   UNL A   1      40.464  28.403  31.889  1.00  0.00     0.261 C 
BRANCH  45  46
ATOM     46  O   UNL A   1      40.323  29.844  32.021  1.00  0.00    -0.460 OA
BRANCH  46  47
ATOM     47  C   UNL A   1      39.091  30.407  31.793  1.00  0.00     0.338 C 
ATOM     48  O   UNL A   1      38.392  30.167  30.821  1.00  0.00    -0.246 OA
BRANCH  47  49
ATOM     49  C   UNL A   1      38.517  31.030  33.025  1.00  0.00     0.060 A 
ATOM     50  C   UNL A   1      38.257  32.397  33.117  1.00  0.00     0.016 A 
ATOM     51  C   UNL A   1      38.288  30.240  34.147  1.00  0.00     0.016 A 
ATOM     52  C   UNL A   1      38.085  32.989  34.378  1.00  0.00     0.010 A 
ATOM     53  C   UNL A   1      38.236  30.828  35.406  1.00  0.00     0.010 A 
ATOM     54  C   UNL A   1      38.261  32.218  35.536  1.00  0.00    -0.014 A 
BRANCH  54  55
ATOM     55  C   UNL A   1      38.836  32.784  36.782  1.00  0.00     0.031 A 
ATOM     56  C   UNL A   1      38.018  33.031  38.020  1.00  0.00     0.074 A 
ATOM     57  C   UNL A   1      40.197  32.769  36.853  1.00  0.00     0.049 A 
ATOM     58  N   UNL A   1      38.465  33.585  39.098  1.00  0.00    -0.248 NA
ATOM     59  C   UNL A   1      36.622  32.626  38.180  1.00  0.00     0.031 C 
ATOM     60  C   UNL A   1      41.060  32.963  38.014  1.00  0.00     0.029 A 
ATOM     61  N   UNL A   1      41.126  32.588  35.825  1.00  0.00    -0.354 N 
ATOM     62  C   UNL A   1      37.603  33.303  40.150  1.00  0.00     0.074 A 
ATOM     63  C   UNL A   1      36.426  32.795  39.496  1.00  0.00     0.031 C 
ATOM     64  C   UNL A   1      42.352  32.986  37.652  1.00  0.00     0.029 A 
ATOM     65  C   UNL A   1      42.370  33.104  36.214  1.00  0.00     0.049 A 
ATOM     66  H   UNL A   1      40.936  32.161  34.957  1.00  0.00     0.167 HD
ATOM     67  C   UNL A   1      38.066  33.397  41.443  1.00  0.00     0.037 A 
ATOM     68  C   UNL A   1      42.776  34.276  35.634  1.00  0.00     0.037 A 
ATOM     69  C   UNL A   1      39.377  34.102  41.476  1.00  0.00     0.049 A 
ATOM     70  C   UNL A   1      42.571  35.485  36.569  1.00  0.00     0.074 A 
ATOM     71  C   UNL A   1      40.627  33.840  42.015  1.00  0.00     0.029 A 
ATOM     72  N   UNL A   1      39.572  35.226  40.657  1.00  0.00    -0.354 N 
ATOM     73  N   UNL A   1      41.714  35.469  37.573  1.00  0.00    -0.248 NA
ATOM     74  C   UNL A   1      43.376  36.703  36.611  1.00  0.00     0.031 C 
ATOM     75  C   UNL A   1      41.587  34.635  41.309  1.00  0.00     0.029 A 
ATOM     76  C   UNL A   1      40.915  35.475  40.427  1.00  0.00     0.049 A 
ATOM     77  H   UNL A   1      38.839  35.773  40.291  1.00  0.00     0.167 HD
ATOM     78  C   UNL A   1      41.918  36.516  38.429  1.00  0.00     0.074 A 
ATOM     79  C   UNL A   1      42.930  37.303  37.736  1.00  0.00     0.031 C 
ATOM     80  C   UNL A   1      41.330  36.660  39.666  1.00  0.00     0.037 A 
BRANCH  67  81
ATOM     81  C   UNL A   1      37.454  32.664  42.669  1.00  0.00     0.058 A 
ATOM     82  C   UNL A   1      37.108  33.362  43.854  1.00  0.00     0.135 A 
ATOM     83  C   UNL A   1      37.279  31.260  42.786  1.00  0.00     0.135 A 
ATOM     84  F   UNL A   1      37.245  34.693  43.935  1.00  0.00    -0.206 F 
ATOM     85  C   UNL A   1      36.613  32.738  45.019  1.00  0.00     0.059 A 
ATOM     86  C   UNL A   1      36.736  30.621  43.917  1.00  0.00     0.059 A 
ATOM     87  F   UNL A   1      37.680  30.417  41.829  1.00  0.00    -0.206 F 
ATOM     88  C   UNL A   1      36.408  31.365  45.037  1.00  0.00     0.060 A 
BRANCH  88  89
ATOM     89  S   UNL A   1      35.691  30.579  46.503  1.00  0.00     0.124 S 
ATOM     90  O   UNL A   1      35.327  29.258  46.001  1.00  0.00    -0.237 OA
ATOM     91  O   UNL A   1      36.802  30.612  47.450  1.00  0.00    -0.237 OA
ATOM     92  O   UNL A   1      34.567  31.449  46.841  1.00  0.00    -0.744 OA
ENDBRANCH  88  89
ENDBRANCH  67  81
BRANCH  68  93
ATOM     93  C   UNL A   1      43.054  34.036  34.172  1.00  0.00     0.058 A 
ATOM     94  C   UNL A   1      42.197  34.738  33.288  1.00  0.00     0.135 A 
ATOM     95  C   UNL A   1      44.364  33.826  33.695  1.00  0.00     0.135 A 
ATOM     96  F   UNL A   1      40.921  34.959  33.648  1.00  0.00    -0.206 F 
ATOM     97  C   UNL A   1      42.659  35.389  32.138  1.00  0.00     0.059 A 
ATOM     98  C   UNL A   1      44.847  34.463  32.532  1.00  0.00     0.059 A 
ATOM     99  F   UNL A   1      45.239  33.123  34.428  1.00  0.00    -0.206 F 
ATOM    100  C   UNL A   1      44.005  35.304  31.805  1.00  0.00     0.060 A 
BRANCH 100 101
ATOM    101  S   UNL A   1      44.670  36.469  30.578  1.00  0.00     0.124 S 
ATOM    102  O   UNL A   1      43.714  37.566  30.650  1.00  0.00    -0.237 OA
ATOM    103  O   UNL A   1      46.005  36.752  31.102  1.00  0.00    -0.237 OA
ATOM    104  O   UNL A   1      44.662  35.682  29.352  1.00  0.00    -0.744 OA
ENDBRANCH 100 101
ENDBRANCH  68  93
BRANCH  80 105
ATOM    105  C   UNL A   1      41.082  37.995  40.347  1.00  0.00     0.058 A 
ATOM    106  C   UNL A   1      42.095  38.705  41.008  1.00  0.00     0.135 A 
ATOM    107  C   UNL A   1      39.885  38.725  40.104  1.00  0.00     0.135 A 
ATOM    108  F   UNL A   1      43.298  38.157  41.231  1.00  0.00    -0.206 F 
ATOM    109  C   UNL A   1      41.929  40.027  41.420  1.00  0.00     0.059 A 
ATOM    110  C   UNL A   1      39.726  40.061  40.444  1.00  0.00     0.059 A 
ATOM    111  F   UNL A   1      38.825  38.172  39.494  1.00  0.00    -0.206 F 
ATOM    112  C   UNL A   1      40.747  40.700  41.123  1.00  0.00     0.060 A 
BRANCH 112 113
ATOM    113  S   UNL A   1      40.557  42.422  41.603  1.00  0.00     0.124 S 
ATOM    114  O   UNL A   1      39.114  42.501  41.804  1.00  0.00    -0.237 OA
ATOM    115  O   UNL A   1      41.371  42.507  42.811  1.00  0.00    -0.237 OA
ATOM    116  O   UNL A   1      41.077  43.153  40.452  1.00  0.00    -0.744 OA
ENDBRANCH 112 113
ENDBRANCH  80 105
ENDBRANCH  54  55
ENDBRANCH  47  49
ENDBRANCH  46  47
ENDBRANCH  45  46
ENDBRANCH  44  45
ENDBRANCH  43  44
ENDBRANCH  42  43
ENDBRANCH  41  42
ENDBRANCH   1  41
TORSDOF 26
ENDMDL
