MODEL 1
REMARK VINA RESULT:      -9.8      0.000      0.000
REMARK SMILES CC(C)(O)CC[NH2+]CC(=O)NCCCCCCNC(=O)c1ccc(-c2c3nc(c(-c4cc(S(=O)(=O)[O-])ccc4F)c4ccc([nH]4)c(-c4cc(S(=O)(=O)[O-])ccc4F)c4nc(c(-c5cc(S(=O)(=O)[O-])ccc5F)c5ccc2[nH]5)C=C4)C=C3)cc1
REMARK SMILES IDX 13 1 12 2 11 3 9 4 10 5 8 7 7 8 6 11 5 12 2 13 1 14 3 15
REMARK SMILES IDX 4 16 14 18 15 19 16 20 17 21 18 22 19 23 20 25 21 26 22 27
REMARK SMILES IDX 83 28 23 29 82 30 24 31 25 32 26 33 76 34 27 35 81 36 75 37
REMARK SMILES IDX 77 38 28 39 80 40 74 41 73 42 29 44 61 45 41 46 60 47 42 48
REMARK SMILES IDX 45 49 59 50 78 51 43 52 44 53 58 55 79 56 46 57 30 58 31 59
REMARK SMILES IDX 39 60 32 61 38 62 40 63 37 64 33 65 34 66 35 67 36 68 62 69
REMARK SMILES IDX 63 70 71 71 64 72 70 73 72 74 69 75 65 76 66 77 67 78 68 79
REMARK SMILES IDX 47 80 48 81 56 82 49 83 55 84 57 85 54 86 50 87 51 88 52 89
REMARK SMILES IDX 53 90
REMARK H PARENT 11 6 7 9 7 10 4 17 18 24 77 43 45 54
REMARK Flexibility Score: inf
ROOT
ATOM      1  C   UNL A   1      31.633  26.026  25.485  1.00  0.00     0.021 C 
ENDROOT
BRANCH   1   2
ATOM      2  C   UNL A   1      30.262  25.347  25.359  1.00  0.00     0.116 C 
BRANCH   2   3
ATOM      3  N   UNL A   1      29.925  24.637  26.582  1.00  0.00    -0.351 N 
ATOM      4  C   UNL A   1      29.978  23.301  26.862  1.00  0.00     0.275 C 
ATOM      5  O   UNL A   1      29.445  22.906  27.903  1.00  0.00    -0.269 OA
ATOM      6  H   UNL A   1      29.609  25.206  27.321  1.00  0.00     0.163 HD
BRANCH   4   7
ATOM      7  C   UNL A   1      30.677  22.313  25.913  1.00  0.00     0.361 C 
BRANCH   7   8
ATOM      8  N   UNL A   1      32.146  22.504  25.890  1.00  0.00    -0.338 N 
ATOM      9  H   UNL A   1      32.360  23.478  26.107  1.00  0.00     0.346 HD
ATOM     10  H   UNL A   1      32.567  21.885  26.583  1.00  0.00     0.346 HD
BRANCH   8  11
ATOM     11  C   UNL A   1      32.693  22.177  24.577  1.00  0.00     0.263 C 
BRANCH  11  12
ATOM     12  C   UNL A   1      32.738  20.696  24.191  1.00  0.00     0.096 C 
BRANCH  12  13
ATOM     13  C   UNL A   1      33.706  19.796  24.991  1.00  0.00     0.064 C 
ATOM     14  C   UNL A   1      35.137  20.337  24.999  1.00  0.00     0.042 C 
ATOM     15  C   UNL A   1      33.689  18.382  24.394  1.00  0.00     0.042 C 
BRANCH  13  16
ATOM     16  O   UNL A   1      33.255  19.686  26.343  1.00  0.00    -0.390 OA
ATOM     17  H   UNL A   1      34.020  19.668  26.938  1.00  0.00     0.211 HD
ENDBRANCH  13  16
ENDBRANCH  12  13
ENDBRANCH  11  12
ENDBRANCH   8  11
ENDBRANCH   7   8
ENDBRANCH   4   7
ENDBRANCH   2   3
ENDBRANCH   1   2
BRANCH   1  18
ATOM     18  C   UNL A   1      32.007  26.458  26.901  1.00  0.00     0.002 C 
BRANCH  18  19
ATOM     19  C   UNL A   1      31.681  27.914  27.241  1.00  0.00     0.002 C 
BRANCH  19  20
ATOM     20  C   UNL A   1      31.524  28.857  26.044  1.00  0.00     0.021 C 
BRANCH  20  21
ATOM     21  C   UNL A   1      32.728  29.753  25.750  1.00  0.00     0.116 C 
BRANCH  21  22
ATOM     22  N   UNL A   1      32.482  31.136  26.120  1.00  0.00    -0.352 N 
ATOM     23  C   UNL A   1      33.067  31.907  27.095  1.00  0.00     0.251 C 
ATOM     24  H   UNL A   1      31.789  31.592  25.590  1.00  0.00     0.163 HD
ATOM     25  O   UNL A   1      32.558  32.982  27.397  1.00  0.00    -0.269 OA
BRANCH  23  26
ATOM     26  C   UNL A   1      34.288  31.442  27.791  1.00  0.00     0.039 A 
ATOM     27  C   UNL A   1      35.326  32.354  28.005  1.00  0.00     0.014 A 
ATOM     28  C   UNL A   1      34.433  30.112  28.195  1.00  0.00     0.014 A 
ATOM     29  C   UNL A   1      36.481  31.945  28.676  1.00  0.00     0.010 A 
ATOM     30  C   UNL A   1      35.559  29.722  28.920  1.00  0.00     0.010 A 
ATOM     31  C   UNL A   1      36.597  30.634  29.166  1.00  0.00    -0.014 A 
BRANCH  31  32
ATOM     32  C   UNL A   1      37.791  30.219  29.948  1.00  0.00     0.031 A 
ATOM     33  C   UNL A   1      38.782  29.242  29.376  1.00  0.00     0.074 A 
ATOM     34  C   UNL A   1      37.958  30.696  31.198  1.00  0.00     0.049 A 
ATOM     35  N   UNL A   1      39.880  28.769  29.908  1.00  0.00    -0.248 NA
ATOM     36  C   UNL A   1      38.482  28.706  28.041  1.00  0.00     0.031 C 
ATOM     37  C   UNL A   1      37.037  31.606  31.882  1.00  0.00     0.029 A 
ATOM     38  N   UNL A   1      38.957  30.483  32.114  1.00  0.00    -0.354 N 
ATOM     39  C   UNL A   1      40.398  27.871  28.980  1.00  0.00     0.074 A 
ATOM     40  C   UNL A   1      39.458  27.825  27.880  1.00  0.00     0.031 C 
ATOM     41  C   UNL A   1      37.532  31.904  33.094  1.00  0.00     0.029 A 
ATOM     42  C   UNL A   1      38.785  31.179  33.288  1.00  0.00     0.049 A 
ATOM     43  H   UNL A   1      39.724  29.890  31.947  1.00  0.00     0.167 HD
ATOM     44  C   UNL A   1      41.559  27.171  29.031  1.00  0.00     0.034 A 
ATOM     45  C   UNL A   1      39.550  31.231  34.395  1.00  0.00     0.034 A 
ATOM     46  C   UNL A   1      42.489  27.236  30.135  1.00  0.00     0.049 A 
ATOM     47  C   UNL A   1      40.829  30.438  34.433  1.00  0.00     0.074 A 
ATOM     48  C   UNL A   1      43.730  26.632  30.258  1.00  0.00     0.029 A 
ATOM     49  N   UNL A   1      42.276  27.938  31.315  1.00  0.00    -0.354 N 
ATOM     50  N   UNL A   1      41.344  29.653  33.516  1.00  0.00    -0.248 NA
ATOM     51  C   UNL A   1      41.636  30.552  35.655  1.00  0.00     0.031 C 
ATOM     52  C   UNL A   1      44.231  26.909  31.535  1.00  0.00     0.029 A 
ATOM     53  C   UNL A   1      43.340  27.749  32.186  1.00  0.00     0.049 A 
ATOM     54  H   UNL A   1      41.484  28.490  31.507  1.00  0.00     0.167 HD
ATOM     55  C   UNL A   1      42.548  29.194  34.043  1.00  0.00     0.074 A 
ATOM     56  C   UNL A   1      42.690  29.812  35.346  1.00  0.00     0.031 C 
ATOM     57  C   UNL A   1      43.455  28.342  33.499  1.00  0.00     0.034 A 
BRANCH  44  58
ATOM     58  C   UNL A   1      41.865  26.250  27.869  1.00  0.00     0.023 A 
ATOM     59  C   UNL A   1      41.459  24.903  27.866  1.00  0.00     0.031 A 
ATOM     60  C   UNL A   1      42.608  26.713  26.769  1.00  0.00     0.131 A 
ATOM     61  C   UNL A   1      41.874  24.048  26.833  1.00  0.00     0.055 A 
ATOM     62  C   UNL A   1      42.943  25.878  25.701  1.00  0.00     0.041 A 
ATOM     63  F   UNL A   1      43.039  27.983  26.720  1.00  0.00    -0.206 F 
ATOM     64  C   UNL A   1      42.592  24.531  25.738  1.00  0.00     0.022 A 
BRANCH  61  65
ATOM     65  S   UNL A   1      41.600  22.264  27.023  1.00  0.00     0.124 S 
ATOM     66  O   UNL A   1      42.521  21.940  28.111  1.00  0.00    -0.237 OA
ATOM     67  O   UNL A   1      40.180  22.196  27.346  1.00  0.00    -0.237 OA
ATOM     68  O   UNL A   1      41.973  21.719  25.720  1.00  0.00    -0.744 OA
ENDBRANCH  61  65
ENDBRANCH  44  58
BRANCH  45  69
ATOM     69  C   UNL A   1      39.137  32.069  35.556  1.00  0.00     0.023 A 
ATOM     70  C   UNL A   1      39.615  33.381  35.702  1.00  0.00     0.031 A 
ATOM     71  C   UNL A   1      38.280  31.562  36.548  1.00  0.00     0.131 A 
ATOM     72  C   UNL A   1      39.264  34.130  36.835  1.00  0.00     0.055 A 
ATOM     73  C   UNL A   1      37.896  32.327  37.651  1.00  0.00     0.041 A 
ATOM     74  F   UNL A   1      37.788  30.317  36.449  1.00  0.00    -0.206 F 
ATOM     75  C   UNL A   1      38.398  33.617  37.804  1.00  0.00     0.022 A 
BRANCH  72  76
ATOM     76  S   UNL A   1      40.005  35.771  37.055  1.00  0.00     0.124 S 
ATOM     77  O   UNL A   1      39.647  36.430  35.805  1.00  0.00    -0.237 OA
ATOM     78  O   UNL A   1      39.324  36.252  38.252  1.00  0.00    -0.237 OA
ATOM     79  O   UNL A   1      41.427  35.481  37.225  1.00  0.00    -0.744 OA
ENDBRANCH  72  76
ENDBRANCH  45  69
BRANCH  57  80
ATOM     80  C   UNL A   1      44.689  28.054  34.320  1.00  0.00     0.023 A 
ATOM     81  C   UNL A   1      44.728  26.989  35.239  1.00  0.00     0.031 A 
ATOM     82  C   UNL A   1      45.822  28.879  34.219  1.00  0.00     0.131 A 
ATOM     83  C   UNL A   1      45.847  26.822  36.069  1.00  0.00     0.055 A 
ATOM     84  C   UNL A   1      46.958  28.669  35.001  1.00  0.00     0.041 A 
ATOM     85  F   UNL A   1      45.840  29.914  33.363  1.00  0.00    -0.206 F 
ATOM     86  C   UNL A   1      46.968  27.645  35.946  1.00  0.00     0.022 A 
BRANCH  83  87
ATOM     87  S   UNL A   1      45.768  25.586  37.395  1.00  0.00     0.124 S 
ATOM     88  O   UNL A   1      45.787  24.334  36.646  1.00  0.00    -0.237 OA
ATOM     89  O   UNL A   1      46.969  25.884  38.170  1.00  0.00    -0.237 OA
ATOM     90  O   UNL A   1      44.505  25.886  38.069  1.00  0.00    -0.744 OA
ENDBRANCH  83  87
ENDBRANCH  57  80
ENDBRANCH  31  32
ENDBRANCH  23  26
ENDBRANCH  21  22
ENDBRANCH  20  21
ENDBRANCH  19  20
ENDBRANCH  18  19
ENDBRANCH   1  18
TORSDOF 21
ENDMDL
MODEL 2
REMARK VINA RESULT:      -9.7      2.570      8.385
REMARK SMILES CC(C)(O)CC[NH2+]CC(=O)NCCCCCCNC(=O)c1ccc(-c2c3nc(c(-c4cc(S(=O)(=O)[O-])ccc4F)c4ccc([nH]4)c(-c4cc(S(=O)(=O)[O-])ccc4F)c4nc(c(-c5cc(S(=O)(=O)[O-])ccc5F)c5ccc2[nH]5)C=C4)C=C3)cc1
REMARK SMILES IDX 13 1 12 2 11 3 9 4 10 5 8 7 7 8 6 11 5 12 2 13 1 14 3 15
REMARK SMILES IDX 4 16 14 18 15 19 16 20 17 21 18 22 19 23 20 25 21 26 22 27
REMARK SMILES IDX 83 28 23 29 82 30 24 31 25 32 26 33 76 34 27 35 81 36 75 37
REMARK SMILES IDX 77 38 28 39 80 40 74 41 73 42 29 44 61 45 41 46 60 47 42 48
REMARK SMILES IDX 45 49 59 50 78 51 43 52 44 53 58 55 79 56 46 57 30 58 31 59
REMARK SMILES IDX 39 60 32 61 38 62 40 63 37 64 33 65 34 66 35 67 36 68 62 69
REMARK SMILES IDX 63 70 71 71 64 72 70 73 72 74 69 75 65 76 66 77 67 78 68 79
REMARK SMILES IDX 47 80 48 81 56 82 49 83 55 84 57 85 54 86 50 87 51 88 52 89
REMARK SMILES IDX 53 90
REMARK H PARENT 11 6 7 9 7 10 4 17 18 24 77 43 45 54
REMARK Flexibility Score: inf
ROOT
ATOM      1  C   UNL A   1      34.148  25.435  24.629  1.00  0.00     0.021 C 
ENDROOT
BRANCH   1   2
ATOM      2  C   UNL A   1      33.928  23.983  25.075  1.00  0.00     0.116 C 
BRANCH   2   3
ATOM      3  N   UNL A   1      33.010  23.924  26.201  1.00  0.00    -0.351 N 
ATOM      4  C   UNL A   1      32.059  22.992  26.507  1.00  0.00     0.275 C 
ATOM      5  O   UNL A   1      31.256  23.258  27.406  1.00  0.00    -0.269 OA
ATOM      6  H   UNL A   1      33.084  24.669  26.839  1.00  0.00     0.163 HD
BRANCH   4   7
ATOM      7  C   UNL A   1      31.984  21.652  25.757  1.00  0.00     0.361 C 
BRANCH   7   8
ATOM      8  N   UNL A   1      33.068  20.725  26.157  1.00  0.00    -0.338 N 
ATOM      9  H   UNL A   1      33.949  21.048  25.756  1.00  0.00     0.346 HD
ATOM     10  H   UNL A   1      33.126  20.711  27.175  1.00  0.00     0.346 HD
BRANCH   8  11
ATOM     11  C   UNL A   1      32.796  19.371  25.685  1.00  0.00     0.263 C 
BRANCH  11  12
ATOM     12  C   UNL A   1      33.642  18.859  24.516  1.00  0.00     0.096 C 
BRANCH  12  13
ATOM     13  C   UNL A   1      33.051  17.700  23.683  1.00  0.00     0.064 C 
ATOM     14  C   UNL A   1      34.113  16.688  23.251  1.00  0.00     0.042 C 
ATOM     15  C   UNL A   1      32.349  18.276  22.445  1.00  0.00     0.042 C 
BRANCH  13  16
ATOM     16  O   UNL A   1      32.056  17.015  24.448  1.00  0.00    -0.390 OA
ATOM     17  H   UNL A   1      31.194  17.107  24.014  1.00  0.00     0.211 HD
ENDBRANCH  13  16
ENDBRANCH  12  13
ENDBRANCH  11  12
ENDBRANCH   8  11
ENDBRANCH   7   8
ENDBRANCH   4   7
ENDBRANCH   2   3
ENDBRANCH   1   2
BRANCH   1  18
ATOM     18  C   UNL A   1      33.751  26.490  25.659  1.00  0.00     0.002 C 
BRANCH  18  19
ATOM     19  C   UNL A   1      32.726  27.517  25.171  1.00  0.00     0.002 C 
BRANCH  19  20
ATOM     20  C   UNL A   1      32.606  28.789  26.017  1.00  0.00     0.021 C 
BRANCH  20  21
ATOM     21  C   UNL A   1      33.930  29.404  26.472  1.00  0.00     0.116 C 
BRANCH  21  22
ATOM     22  N   UNL A   1      33.785  30.800  26.844  1.00  0.00    -0.352 N 
ATOM     23  C   UNL A   1      34.490  31.550  27.753  1.00  0.00     0.251 C 
ATOM     24  H   UNL A   1      33.070  31.285  26.372  1.00  0.00     0.163 HD
ATOM     25  O   UNL A   1      34.063  32.651  28.085  1.00  0.00    -0.269 OA
BRANCH  23  26
ATOM     26  C   UNL A   1      35.745  31.032  28.343  1.00  0.00     0.039 A 
ATOM     27  C   UNL A   1      35.688  29.887  29.145  1.00  0.00     0.014 A 
ATOM     28  C   UNL A   1      36.965  31.684  28.146  1.00  0.00     0.014 A 
ATOM     29  C   UNL A   1      36.860  29.367  29.697  1.00  0.00     0.010 A 
ATOM     30  C   UNL A   1      38.143  31.128  28.646  1.00  0.00     0.010 A 
ATOM     31  C   UNL A   1      38.103  29.964  29.429  1.00  0.00    -0.014 A 
BRANCH  31  32
ATOM     32  C   UNL A   1      39.360  29.368  29.952  1.00  0.00     0.031 A 
ATOM     33  C   UNL A   1      40.015  29.919  31.189  1.00  0.00     0.074 A 
ATOM     34  C   UNL A   1      39.934  28.350  29.281  1.00  0.00     0.049 A 
ATOM     35  N   UNL A   1      41.108  29.526  31.792  1.00  0.00    -0.248 NA
ATOM     36  C   UNL A   1      39.370  31.082  31.813  1.00  0.00     0.031 C 
ATOM     37  C   UNL A   1      39.423  27.764  28.039  1.00  0.00     0.029 A 
ATOM     38  N   UNL A   1      41.070  27.626  29.546  1.00  0.00    -0.354 N 
ATOM     39  C   UNL A   1      41.290  30.400  32.860  1.00  0.00     0.074 A 
ATOM     40  C   UNL A   1      40.225  31.377  32.781  1.00  0.00     0.031 C 
ATOM     41  C   UNL A   1      40.219  26.749  27.671  1.00  0.00     0.029 A 
ATOM     42  C   UNL A   1      41.317  26.633  28.627  1.00  0.00     0.049 A 
ATOM     43  H   UNL A   1      41.652  27.801  30.319  1.00  0.00     0.167 HD
ATOM     44  C   UNL A   1      42.242  30.374  33.827  1.00  0.00     0.034 A 
ATOM     45  C   UNL A   1      42.313  25.728  28.562  1.00  0.00     0.034 A 
ATOM     46  C   UNL A   1      43.293  29.385  33.893  1.00  0.00     0.049 A 
ATOM     47  C   UNL A   1      43.363  25.724  29.641  1.00  0.00     0.074 A 
ATOM     48  C   UNL A   1      44.261  29.216  34.869  1.00  0.00     0.029 A 
ATOM     49  N   UNL A   1      43.524  28.403  32.938  1.00  0.00    -0.354 N 
ATOM     50  N   UNL A   1      43.478  26.509  30.687  1.00  0.00    -0.248 NA
ATOM     51  C   UNL A   1      44.410  24.700  29.534  1.00  0.00     0.031 C 
ATOM     52  C   UNL A   1      45.117  28.183  34.468  1.00  0.00     0.029 A 
ATOM     53  C   UNL A   1      44.641  27.653  33.279  1.00  0.00     0.049 A 
ATOM     54  H   UNL A   1      42.975  28.259  32.133  1.00  0.00     0.167 HD
ATOM     55  C   UNL A   1      44.602  26.059  31.376  1.00  0.00     0.074 A 
ATOM     56  C   UNL A   1      45.110  24.920  30.637  1.00  0.00     0.031 C 
ATOM     57  C   UNL A   1      45.161  26.541  32.516  1.00  0.00     0.034 A 
BRANCH  44  58
ATOM     58  C   UNL A   1      42.201  31.471  34.869  1.00  0.00     0.023 A 
ATOM     59  C   UNL A   1      41.233  31.487  35.889  1.00  0.00     0.031 A 
ATOM     60  C   UNL A   1      43.116  32.537  34.817  1.00  0.00     0.131 A 
ATOM     61  C   UNL A   1      41.147  32.587  36.756  1.00  0.00     0.055 A 
ATOM     62  C   UNL A   1      43.079  33.587  35.737  1.00  0.00     0.041 A 
ATOM     63  F   UNL A   1      44.054  32.589  33.857  1.00  0.00    -0.206 F 
ATOM     64  C   UNL A   1      42.078  33.625  36.703  1.00  0.00     0.022 A 
BRANCH  61  65
ATOM     65  S   UNL A   1      39.702  32.719  37.846  1.00  0.00     0.124 S 
ATOM     66  O   UNL A   1      40.298  32.471  39.157  1.00  0.00    -0.237 OA
ATOM     67  O   UNL A   1      39.245  34.082  37.599  1.00  0.00    -0.237 OA
ATOM     68  O   UNL A   1      38.812  31.664  37.365  1.00  0.00    -0.744 OA
ENDBRANCH  61  65
ENDBRANCH  44  58
BRANCH  45  69
ATOM     69  C   UNL A   1      42.363  24.744  27.445  1.00  0.00     0.023 A 
ATOM     70  C   UNL A   1      41.589  23.573  27.484  1.00  0.00     0.031 A 
ATOM     71  C   UNL A   1      43.204  24.946  26.337  1.00  0.00     0.131 A 
ATOM     72  C   UNL A   1      41.698  22.630  26.451  1.00  0.00     0.055 A 
ATOM     73  C   UNL A   1      43.276  24.027  25.290  1.00  0.00     0.041 A 
ATOM     74  F   UNL A   1      43.957  26.054  26.250  1.00  0.00    -0.206 F 
ATOM     75  C   UNL A   1      42.528  22.854  25.349  1.00  0.00     0.022 A 
BRANCH  72  76
ATOM     76  S   UNL A   1      40.784  21.071  26.598  1.00  0.00     0.124 S 
ATOM     77  O   UNL A   1      41.599  20.169  25.794  1.00  0.00    -0.237 OA
ATOM     78  O   UNL A   1      40.804  20.843  28.039  1.00  0.00    -0.237 OA
ATOM     79  O   UNL A   1      39.472  21.393  26.040  1.00  0.00    -0.744 OA
ENDBRANCH  72  76
ENDBRANCH  45  69
BRANCH  57  80
ATOM     80  C   UNL A   1      46.378  25.812  33.032  1.00  0.00     0.023 A 
ATOM     81  C   UNL A   1      47.663  26.076  32.524  1.00  0.00     0.031 A 
ATOM     82  C   UNL A   1      46.248  24.810  34.008  1.00  0.00     0.131 A 
ATOM     83  C   UNL A   1      48.754  25.299  32.942  1.00  0.00     0.055 A 
ATOM     84  C   UNL A   1      47.347  24.084  34.468  1.00  0.00     0.041 A 
ATOM     85  F   UNL A   1      45.045  24.511  34.526  1.00  0.00    -0.206 F 
ATOM     86  C   UNL A   1      48.607  24.314  33.922  1.00  0.00     0.022 A 
BRANCH  83  87
ATOM     87  S   UNL A   1      50.346  25.511  32.099  1.00  0.00     0.124 S 
ATOM     88  O   UNL A   1      50.066  26.621  31.194  1.00  0.00    -0.237 OA
ATOM     89  O   UNL A   1      51.249  25.805  33.208  1.00  0.00    -0.237 OA
ATOM     90  O   UNL A   1      50.565  24.220  31.448  1.00  0.00    -0.744 OA
ENDBRANCH  83  87
ENDBRANCH  57  80
ENDBRANCH  31  32
ENDBRANCH  23  26
ENDBRANCH  21  22
ENDBRANCH  20  21
ENDBRANCH  19  20
ENDBRANCH  18  19
ENDBRANCH   1  18
TORSDOF 21
ENDMDL
MODEL 3
REMARK VINA RESULT:      -9.5      5.297      8.310
REMARK SMILES CC(C)(O)CC[NH2+]CC(=O)NCCCCCCNC(=O)c1ccc(-c2c3nc(c(-c4cc(S(=O)(=O)[O-])ccc4F)c4ccc([nH]4)c(-c4cc(S(=O)(=O)[O-])ccc4F)c4nc(c(-c5cc(S(=O)(=O)[O-])ccc5F)c5ccc2[nH]5)C=C4)C=C3)cc1
REMARK SMILES IDX 13 1 12 2 11 3 9 4 10 5 8 7 7 8 6 11 5 12 2 13 1 14 3 15
REMARK SMILES IDX 4 16 14 18 15 19 16 20 17 21 18 22 19 23 20 25 21 26 22 27
REMARK SMILES IDX 83 28 23 29 82 30 24 31 25 32 26 33 76 34 27 35 81 36 75 37
REMARK SMILES IDX 77 38 28 39 80 40 74 41 73 42 29 44 61 45 41 46 60 47 42 48
REMARK SMILES IDX 45 49 59 50 78 51 43 52 44 53 58 55 79 56 46 57 30 58 31 59
REMARK SMILES IDX 39 60 32 61 38 62 40 63 37 64 33 65 34 66 35 67 36 68 62 69
REMARK SMILES IDX 63 70 71 71 64 72 70 73 72 74 69 75 65 76 66 77 67 78 68 79
REMARK SMILES IDX 47 80 48 81 56 82 49 83 55 84 57 85 54 86 50 87 51 88 52 89
REMARK SMILES IDX 53 90
REMARK H PARENT 11 6 7 9 7 10 4 17 18 24 77 43 45 54
REMARK Flexibility Score: inf
ROOT
ATOM      1  C   UNL A   1      34.075  24.622  24.806  1.00  0.00     0.021 C 
ENDROOT
BRANCH   1   2
ATOM      2  C   UNL A   1      33.823  26.130  24.931  1.00  0.00     0.116 C 
BRANCH   2   3
ATOM      3  N   UNL A   1      33.009  26.422  26.099  1.00  0.00    -0.351 N 
ATOM      4  C   UNL A   1      31.703  26.814  26.181  1.00  0.00     0.275 C 
ATOM      5  O   UNL A   1      31.283  27.205  27.274  1.00  0.00    -0.269 OA
ATOM      6  H   UNL A   1      33.469  26.322  26.964  1.00  0.00     0.163 HD
BRANCH   4   7
ATOM      7  C   UNL A   1      30.780  26.777  24.951  1.00  0.00     0.361 C 
BRANCH   7   8
ATOM      8  N   UNL A   1      30.636  28.109  24.320  1.00  0.00    -0.338 N 
ATOM      9  H   UNL A   1      30.084  28.711  24.932  1.00  0.00     0.346 HD
ATOM     10  H   UNL A   1      31.565  28.505  24.177  1.00  0.00     0.346 HD
BRANCH   8  11
ATOM     11  C   UNL A   1      29.969  28.004  23.027  1.00  0.00     0.263 C 
BRANCH  11  12
ATOM     12  C   UNL A   1      29.677  29.311  22.285  1.00  0.00     0.096 C 
BRANCH  12  13
ATOM     13  C   UNL A   1      28.221  29.827  22.326  1.00  0.00     0.064 C 
ATOM     14  C   UNL A   1      28.086  31.136  23.105  1.00  0.00     0.042 C 
ATOM     15  C   UNL A   1      27.324  28.753  22.956  1.00  0.00     0.042 C 
BRANCH  13  16
ATOM     16  O   UNL A   1      27.748  30.040  20.994  1.00  0.00    -0.390 OA
ATOM     17  H   UNL A   1      28.411  30.538  20.491  1.00  0.00     0.211 HD
ENDBRANCH  13  16
ENDBRANCH  12  13
ENDBRANCH  11  12
ENDBRANCH   8  11
ENDBRANCH   7   8
ENDBRANCH   4   7
ENDBRANCH   2   3
ENDBRANCH   1   2
BRANCH   1  18
ATOM     18  C   UNL A   1      35.382  24.136  25.429  1.00  0.00     0.002 C 
BRANCH  18  19
ATOM     19  C   UNL A   1      35.312  22.757  26.090  1.00  0.00     0.002 C 
BRANCH  19  20
ATOM     20  C   UNL A   1      35.705  21.573  25.200  1.00  0.00     0.021 C 
BRANCH  20  21
ATOM     21  C   UNL A   1      37.135  21.602  24.661  1.00  0.00     0.116 C 
BRANCH  21  22
ATOM     22  N   UNL A   1      37.958  20.555  25.239  1.00  0.00    -0.352 N 
ATOM     23  C   UNL A   1      39.210  20.624  25.801  1.00  0.00     0.251 C 
ATOM     24  H   UNL A   1      37.558  19.655  25.226  1.00  0.00     0.163 HD
ATOM     25  O   UNL A   1      39.826  19.586  26.025  1.00  0.00    -0.269 OA
BRANCH  23  26
ATOM     26  C   UNL A   1      39.820  21.934  26.120  1.00  0.00     0.039 A 
ATOM     27  C   UNL A   1      38.996  23.063  26.175  1.00  0.00     0.014 A 
ATOM     28  C   UNL A   1      41.196  22.065  26.325  1.00  0.00     0.014 A 
ATOM     29  C   UNL A   1      39.545  24.307  26.492  1.00  0.00     0.010 A 
ATOM     30  C   UNL A   1      41.732  23.295  26.704  1.00  0.00     0.010 A 
ATOM     31  C   UNL A   1      40.912  24.431  26.789  1.00  0.00    -0.014 A 
BRANCH  31  32
ATOM     32  C   UNL A   1      41.483  25.739  27.204  1.00  0.00     0.031 A 
ATOM     33  C   UNL A   1      42.861  26.151  26.762  1.00  0.00     0.074 A 
ATOM     34  C   UNL A   1      40.768  26.542  28.017  1.00  0.00     0.049 A 
ATOM     35  N   UNL A   1      43.520  27.251  27.021  1.00  0.00    -0.248 NA
ATOM     36  C   UNL A   1      43.606  25.182  25.945  1.00  0.00     0.031 C 
ATOM     37  C   UNL A   1      39.442  26.229  28.556  1.00  0.00     0.029 A 
ATOM     38  N   UNL A   1      41.052  27.781  28.533  1.00  0.00    -0.354 N 
ATOM     39  C   UNL A   1      44.761  27.106  26.409  1.00  0.00     0.074 A 
ATOM     40  C   UNL A   1      44.780  25.784  25.820  1.00  0.00     0.031 C 
ATOM     41  C   UNL A   1      39.013  27.264  29.295  1.00  0.00     0.029 A 
ATOM     42  C   UNL A   1      40.044  28.298  29.313  1.00  0.00     0.049 A 
ATOM     43  H   UNL A   1      41.897  28.256  28.361  1.00  0.00     0.167 HD
ATOM     44  C   UNL A   1      45.779  28.000  26.327  1.00  0.00     0.034 A 
ATOM     45  C   UNL A   1      39.958  29.472  29.968  1.00  0.00     0.034 A 
ATOM     46  C   UNL A   1      45.738  29.319  26.916  1.00  0.00     0.049 A 
ATOM     47  C   UNL A   1      41.102  30.445  29.870  1.00  0.00     0.074 A 
ATOM     48  C   UNL A   1      46.677  30.334  26.830  1.00  0.00     0.029 A 
ATOM     49  N   UNL A   1      44.709  29.804  27.714  1.00  0.00    -0.354 N 
ATOM     50  N   UNL A   1      42.239  30.324  29.225  1.00  0.00    -0.248 NA
ATOM     51  C   UNL A   1      40.943  31.719  30.582  1.00  0.00     0.031 C 
ATOM     52  C   UNL A   1      46.250  31.400  27.631  1.00  0.00     0.029 A 
ATOM     53  C   UNL A   1      45.008  31.085  28.159  1.00  0.00     0.049 A 
ATOM     54  H   UNL A   1      43.885  29.311  27.932  1.00  0.00     0.167 HD
ATOM     55  C   UNL A   1      42.923  31.518  29.436  1.00  0.00     0.074 A 
ATOM     56  C   UNL A   1      42.058  32.351  30.248  1.00  0.00     0.031 C 
ATOM     57  C   UNL A   1      44.152  31.893  28.998  1.00  0.00     0.034 A 
BRANCH  44  58
ATOM     58  C   UNL A   1      47.031  27.561  25.601  1.00  0.00     0.023 A 
ATOM     59  C   UNL A   1      47.278  27.922  24.264  1.00  0.00     0.031 A 
ATOM     60  C   UNL A   1      47.973  26.734  26.240  1.00  0.00     0.131 A 
ATOM     61  C   UNL A   1      48.384  27.389  23.585  1.00  0.00     0.055 A 
ATOM     62  C   UNL A   1      49.118  26.276  25.584  1.00  0.00     0.041 A 
ATOM     63  F   UNL A   1      47.787  26.339  27.510  1.00  0.00    -0.206 F 
ATOM     64  C   UNL A   1      49.319  26.588  24.243  1.00  0.00     0.022 A 
BRANCH  61  65
ATOM     65  S   UNL A   1      48.494  27.623  21.789  1.00  0.00     0.124 S 
ATOM     66  O   UNL A   1      49.690  28.455  21.674  1.00  0.00    -0.237 OA
ATOM     67  O   UNL A   1      48.616  26.255  21.299  1.00  0.00    -0.237 OA
ATOM     68  O   UNL A   1      47.241  28.298  21.455  1.00  0.00    -0.744 OA
ENDBRANCH  61  65
ENDBRANCH  44  58
BRANCH  45  69
ATOM     69  C   UNL A   1      38.742  29.801  30.763  1.00  0.00     0.023 A 
ATOM     70  C   UNL A   1      37.764  30.670  30.255  1.00  0.00     0.031 A 
ATOM     71  C   UNL A   1      38.554  29.272  32.052  1.00  0.00     0.131 A 
ATOM     72  C   UNL A   1      36.658  31.016  31.047  1.00  0.00     0.055 A 
ATOM     73  C   UNL A   1      37.429  29.583  32.819  1.00  0.00     0.041 A 
ATOM     74  F   UNL A   1      39.456  28.430  32.579  1.00  0.00    -0.206 F 
ATOM     75  C   UNL A   1      36.478  30.469  32.320  1.00  0.00     0.022 A 
BRANCH  72  76
ATOM     76  S   UNL A   1      35.483  32.242  30.409  1.00  0.00     0.124 S 
ATOM     77  O   UNL A   1      36.347  33.395  30.188  1.00  0.00    -0.237 OA
ATOM     78  O   UNL A   1      34.975  31.580  29.212  1.00  0.00    -0.237 OA
ATOM     79  O   UNL A   1      34.517  32.384  31.497  1.00  0.00    -0.744 OA
ENDBRANCH  72  76
ENDBRANCH  45  69
BRANCH  57  80
ATOM     80  C   UNL A   1      44.613  33.279  29.382  1.00  0.00     0.023 A 
ATOM     81  C   UNL A   1      44.319  34.399  28.582  1.00  0.00     0.031 A 
ATOM     82  C   UNL A   1      45.394  33.477  30.533  1.00  0.00     0.131 A 
ATOM     83  C   UNL A   1      44.862  35.651  28.906  1.00  0.00     0.055 A 
ATOM     84  C   UNL A   1      45.877  34.738  30.886  1.00  0.00     0.041 A 
ATOM     85  F   UNL A   1      45.710  32.445  31.332  1.00  0.00    -0.206 F 
ATOM     86  C   UNL A   1      45.627  35.832  30.061  1.00  0.00     0.022 A 
BRANCH  83  87
ATOM     87  S   UNL A   1      44.654  37.018  27.731  1.00  0.00     0.124 S 
ATOM     88  O   UNL A   1      45.497  38.055  28.319  1.00  0.00    -0.237 OA
ATOM     89  O   UNL A   1      45.138  36.434  26.484  1.00  0.00    -0.237 OA
ATOM     90  O   UNL A   1      43.218  37.290  27.772  1.00  0.00    -0.744 OA
ENDBRANCH  83  87
ENDBRANCH  57  80
ENDBRANCH  31  32
ENDBRANCH  23  26
ENDBRANCH  21  22
ENDBRANCH  20  21
ENDBRANCH  19  20
ENDBRANCH  18  19
ENDBRANCH   1  18
TORSDOF 21
ENDMDL
