MODEL 1
REMARK VINA RESULT:     -12.0      0.000      0.000
REMARK SMILES Cc1cc(C)c2c(O[C@@H](C)C(=O)NCCCCCCNC(=O)c3ccc(-c4c5nc(c(-c6cc(S(=O)(=O)[O-])ccc6F)c6ccc([nH]6)c(-c6cc(S(=O)(=O)[O-])ccc6F)c6nc(c(-c7cc(S(=O)(=O)[O-])ccc7F)c7ccc4[nH]7)C=C6)C=C5)cc3)nsc2n1
REMARK SMILES IDX 17 1 16 2 15 3 14 4 13 5 11 6 12 7 9 9 10 10 8 11 7 12 1 13
REMARK SMILES IDX 2 14 3 15 89 16 4 17 88 18 5 19 6 20 87 21 86 22 18 23 19 24
REMARK SMILES IDX 20 25 21 26 22 28 23 29 24 30 85 31 25 32 84 33 26 34 27 35
REMARK SMILES IDX 28 36 78 37 29 38 83 39 77 40 79 41 30 42 82 43 76 44 75 45
REMARK SMILES IDX 31 47 63 48 43 49 62 50 44 51 47 52 61 53 80 54 45 55 46 56
REMARK SMILES IDX 60 58 81 59 48 60 32 61 33 62 41 63 34 64 40 65 42 66 39 67
REMARK SMILES IDX 35 68 36 69 37 70 38 71 64 72 65 73 73 74 66 75 72 76 74 77
REMARK SMILES IDX 71 78 67 79 68 80 69 81 70 82 49 83 50 84 58 85 51 86 57 87
REMARK SMILES IDX 59 88 56 89 52 90 53 91 54 92 55 93
REMARK H PARENT 13 8 20 27 79 46 47 57
REMARK Flexibility Score: inf
ROOT
ATOM      1  C   UNL A   1      33.523  29.295  26.385  1.00  0.00     0.002 C 
ENDROOT
BRANCH   1   2
ATOM      2  C   UNL A   1      32.580  29.245  25.162  1.00  0.00     0.002 C 
BRANCH   2   3
ATOM      3  C   UNL A   1      31.521  28.140  25.107  1.00  0.00     0.021 C 
BRANCH   3   4
ATOM      4  C   UNL A   1      31.649  27.043  26.149  1.00  0.00     0.116 C 
BRANCH   4   5
ATOM      5  N   UNL A   1      30.503  26.217  26.426  1.00  0.00    -0.353 N 
ATOM      6  C   UNL A   1      30.380  24.880  26.146  1.00  0.00     0.260 C 
ATOM      7  O   UNL A   1      29.668  24.220  26.916  1.00  0.00    -0.271 OA
ATOM      8  H   UNL A   1      29.733  26.655  26.857  1.00  0.00     0.163 HD
BRANCH   6   9
ATOM      9  C   UNL A   1      31.019  24.181  24.877  1.00  0.00     0.260 C 
ATOM     10  C   UNL A   1      30.870  24.948  23.555  1.00  0.00     0.064 C 
BRANCH   9  11
ATOM     11  O   UNL A   1      31.240  22.822  24.657  1.00  0.00    -0.463 OA
BRANCH  11  12
ATOM     12  C   UNL A   1      32.301  22.103  25.096  1.00  0.00     0.235 A 
ATOM     13  C   UNL A   1      37.949  21.572  25.155  1.00  0.00     0.067 C 
ATOM     14  C   UNL A   1      36.484  21.849  25.324  1.00  0.00     0.039 A 
ATOM     15  C   UNL A   1      36.035  23.153  25.444  1.00  0.00     0.027 A 
ATOM     16  N   UNL A   1      35.664  20.797  25.307  1.00  0.00    -0.240 NA
ATOM     17  C   UNL A   1      34.653  23.459  25.422  1.00  0.00    -0.034 A 
ATOM     18  C   UNL A   1      34.351  21.095  25.323  1.00  0.00     0.147 A 
ATOM     19  C   UNL A   1      34.354  24.934  25.488  1.00  0.00     0.045 C 
ATOM     20  C   UNL A   1      33.734  22.358  25.331  1.00  0.00     0.078 A 
ATOM     21  S   UNL A   1      33.202  19.847  25.280  1.00  0.00    -0.012 S 
ATOM     22  N   UNL A   1      31.901  20.835  25.159  1.00  0.00    -0.153 NA
ENDBRANCH  11  12
ENDBRANCH   9  11
ENDBRANCH   6   9
ENDBRANCH   4   5
ENDBRANCH   3   4
ENDBRANCH   2   3
ENDBRANCH   1   2
BRANCH   1  23
ATOM     23  C   UNL A   1      33.305  30.398  27.430  1.00  0.00     0.021 C 
BRANCH  23  24
ATOM     24  C   UNL A   1      34.424  31.416  27.527  1.00  0.00     0.116 C 
BRANCH  24  25
ATOM     25  N   UNL A   1      34.387  32.268  28.716  1.00  0.00    -0.352 N 
ATOM     26  C   UNL A   1      35.196  32.196  29.840  1.00  0.00     0.251 C 
ATOM     27  H   UNL A   1      33.707  32.979  28.717  1.00  0.00     0.163 HD
ATOM     28  O   UNL A   1      34.833  32.754  30.885  1.00  0.00    -0.269 OA
BRANCH  26  29
ATOM     29  C   UNL A   1      36.468  31.439  29.796  1.00  0.00     0.039 A 
ATOM     30  C   UNL A   1      37.722  32.050  29.871  1.00  0.00     0.014 A 
ATOM     31  C   UNL A   1      36.400  30.057  29.661  1.00  0.00     0.014 A 
ATOM     32  C   UNL A   1      38.863  31.243  29.852  1.00  0.00     0.010 A 
ATOM     33  C   UNL A   1      37.480  29.264  29.915  1.00  0.00     0.010 A 
ATOM     34  C   UNL A   1      38.727  29.842  29.883  1.00  0.00    -0.014 A 
BRANCH  34  35
ATOM     35  C   UNL A   1      39.867  28.940  29.964  1.00  0.00     0.031 A 
ATOM     36  C   UNL A   1      40.228  28.596  31.351  1.00  0.00     0.074 A 
ATOM     37  C   UNL A   1      40.444  28.318  28.910  1.00  0.00     0.049 A 
ATOM     38  N   UNL A   1      41.173  29.129  32.048  1.00  0.00    -0.248 NA
ATOM     39  C   UNL A   1      39.319  27.741  32.127  1.00  0.00     0.031 C 
ATOM     40  C   UNL A   1      40.046  28.328  27.496  1.00  0.00     0.029 A 
ATOM     41  N   UNL A   1      41.509  27.467  28.905  1.00  0.00    -0.354 N 
ATOM     42  C   UNL A   1      41.164  28.456  33.257  1.00  0.00     0.074 A 
ATOM     43  C   UNL A   1      39.877  27.818  33.339  1.00  0.00     0.031 C 
ATOM     44  C   UNL A   1      40.733  27.381  26.814  1.00  0.00     0.029 A 
ATOM     45  C   UNL A   1      41.741  26.819  27.693  1.00  0.00     0.049 A 
ATOM     46  H   UNL A   1      42.072  27.321  29.700  1.00  0.00     0.167 HD
ATOM     47  C   UNL A   1      42.329  28.249  33.929  1.00  0.00     0.034 A 
ATOM     48  C   UNL A   1      42.729  25.926  27.413  1.00  0.00     0.034 A 
ATOM     49  C   UNL A   1      43.375  29.122  33.422  1.00  0.00     0.049 A 
ATOM     50  C   UNL A   1      43.824  26.232  28.365  1.00  0.00     0.074 A 
ATOM     51  C   UNL A   1      43.512  30.492  33.281  1.00  0.00     0.029 A 
ATOM     52  N   UNL A   1      44.308  28.575  32.568  1.00  0.00    -0.354 N 
ATOM     53  N   UNL A   1      44.474  27.366  28.369  1.00  0.00    -0.248 NA
ATOM     54  C   UNL A   1      43.874  25.480  29.608  1.00  0.00     0.031 C 
ATOM     55  C   UNL A   1      44.146  30.674  32.014  1.00  0.00     0.029 A 
ATOM     56  C   UNL A   1      44.438  29.414  31.487  1.00  0.00     0.049 A 
ATOM     57  H   UNL A   1      44.796  27.732  32.708  1.00  0.00     0.167 HD
ATOM     58  C   UNL A   1      44.633  27.676  29.711  1.00  0.00     0.074 A 
ATOM     59  C   UNL A   1      44.330  26.435  30.422  1.00  0.00     0.031 C 
ATOM     60  C   UNL A   1      44.731  28.972  30.134  1.00  0.00     0.034 A 
BRANCH  47  61
ATOM     61  C   UNL A   1      42.637  27.002  34.727  1.00  0.00     0.023 A 
ATOM     62  C   UNL A   1      43.442  26.031  34.103  1.00  0.00     0.031 A 
ATOM     63  C   UNL A   1      41.982  26.587  35.910  1.00  0.00     0.131 A 
ATOM     64  C   UNL A   1      43.482  24.710  34.581  1.00  0.00     0.055 A 
ATOM     65  C   UNL A   1      42.071  25.287  36.413  1.00  0.00     0.041 A 
ATOM     66  F   UNL A   1      41.152  27.373  36.602  1.00  0.00    -0.206 F 
ATOM     67  C   UNL A   1      42.796  24.330  35.730  1.00  0.00     0.022 A 
BRANCH  64  68
ATOM     68  S   UNL A   1      44.325  23.466  33.577  1.00  0.00     0.124 S 
ATOM     69  O   UNL A   1      43.996  22.239  34.294  1.00  0.00    -0.237 OA
ATOM     70  O   UNL A   1      43.686  23.645  32.278  1.00  0.00    -0.237 OA
ATOM     71  O   UNL A   1      45.727  23.874  33.641  1.00  0.00    -0.744 OA
ENDBRANCH  64  68
ENDBRANCH  47  61
BRANCH  48  72
ATOM     72  C   UNL A   1      42.626  24.628  26.681  1.00  0.00     0.023 A 
ATOM     73  C   UNL A   1      43.691  24.121  25.897  1.00  0.00     0.031 A 
ATOM     74  C   UNL A   1      41.578  23.728  26.971  1.00  0.00     0.131 A 
ATOM     75  C   UNL A   1      43.690  22.772  25.467  1.00  0.00     0.055 A 
ATOM     76  C   UNL A   1      41.586  22.393  26.548  1.00  0.00     0.041 A 
ATOM     77  F   UNL A   1      40.549  24.087  27.753  1.00  0.00    -0.206 F 
ATOM     78  C   UNL A   1      42.650  21.906  25.807  1.00  0.00     0.022 A 
BRANCH  75  79
ATOM     79  S   UNL A   1      45.113  22.081  24.554  1.00  0.00     0.124 S 
ATOM     80  O   UNL A   1      45.367  23.116  23.557  1.00  0.00    -0.237 OA
ATOM     81  O   UNL A   1      46.119  21.926  25.598  1.00  0.00    -0.237 OA
ATOM     82  O   UNL A   1      44.593  20.824  24.016  1.00  0.00    -0.744 OA
ENDBRANCH  75  79
ENDBRANCH  48  72
BRANCH  60  83
ATOM     83  C   UNL A   1      45.003  30.051  29.102  1.00  0.00     0.023 A 
ATOM     84  C   UNL A   1      46.281  30.482  28.674  1.00  0.00     0.031 A 
ATOM     85  C   UNL A   1      43.882  30.570  28.430  1.00  0.00     0.131 A 
ATOM     86  C   UNL A   1      46.393  31.399  27.605  1.00  0.00     0.055 A 
ATOM     87  C   UNL A   1      43.998  31.460  27.364  1.00  0.00     0.041 A 
ATOM     88  F   UNL A   1      42.644  30.183  28.778  1.00  0.00    -0.206 F 
ATOM     89  C   UNL A   1      45.255  31.878  26.947  1.00  0.00     0.022 A 
BRANCH  86  90
ATOM     90  S   UNL A   1      48.027  31.972  27.026  1.00  0.00     0.124 S 
ATOM     91  O   UNL A   1      47.696  32.965  26.012  1.00  0.00    -0.237 OA
ATOM     92  O   UNL A   1      48.644  32.484  28.247  1.00  0.00    -0.237 OA
ATOM     93  O   UNL A   1      48.653  30.756  26.500  1.00  0.00    -0.744 OA
ENDBRANCH  86  90
ENDBRANCH  60  83
ENDBRANCH  34  35
ENDBRANCH  26  29
ENDBRANCH  24  25
ENDBRANCH  23  24
ENDBRANCH   1  23
TORSDOF 18
ENDMDL
MODEL 2
REMARK VINA RESULT:     -11.9      2.614      7.119
REMARK SMILES Cc1cc(C)c2c(O[C@@H](C)C(=O)NCCCCCCNC(=O)c3ccc(-c4c5nc(c(-c6cc(S(=O)(=O)[O-])ccc6F)c6ccc([nH]6)c(-c6cc(S(=O)(=O)[O-])ccc6F)c6nc(c(-c7cc(S(=O)(=O)[O-])ccc7F)c7ccc4[nH]7)C=C6)C=C5)cc3)nsc2n1
REMARK SMILES IDX 17 1 16 2 15 3 14 4 13 5 11 6 12 7 9 9 10 10 8 11 7 12 1 13
REMARK SMILES IDX 2 14 3 15 89 16 4 17 88 18 5 19 6 20 87 21 86 22 18 23 19 24
REMARK SMILES IDX 20 25 21 26 22 28 23 29 24 30 85 31 25 32 84 33 26 34 27 35
REMARK SMILES IDX 28 36 78 37 29 38 83 39 77 40 79 41 30 42 82 43 76 44 75 45
REMARK SMILES IDX 31 47 63 48 43 49 62 50 44 51 47 52 61 53 80 54 45 55 46 56
REMARK SMILES IDX 60 58 81 59 48 60 32 61 33 62 41 63 34 64 40 65 42 66 39 67
REMARK SMILES IDX 35 68 36 69 37 70 38 71 64 72 65 73 73 74 66 75 72 76 74 77
REMARK SMILES IDX 71 78 67 79 68 80 69 81 70 82 49 83 50 84 58 85 51 86 57 87
REMARK SMILES IDX 59 88 56 89 52 90 53 91 54 92 55 93
REMARK H PARENT 13 8 20 27 79 46 47 57
REMARK Flexibility Score: inf
ROOT
ATOM      1  C   UNL A   1      33.402  29.601  26.098  1.00  0.00     0.002 C 
ENDROOT
BRANCH   1   2
ATOM      2  C   UNL A   1      31.872  29.401  26.023  1.00  0.00     0.002 C 
BRANCH   2   3
ATOM      3  C   UNL A   1      31.230  29.220  24.644  1.00  0.00     0.021 C 
BRANCH   3   4
ATOM      4  C   UNL A   1      30.849  27.798  24.270  1.00  0.00     0.116 C 
BRANCH   4   5
ATOM      5  N   UNL A   1      30.634  26.841  25.324  1.00  0.00    -0.353 N 
ATOM      6  C   UNL A   1      31.572  25.990  25.851  1.00  0.00     0.260 C 
ATOM      7  O   UNL A   1      31.435  25.691  27.046  1.00  0.00    -0.271 OA
ATOM      8  H   UNL A   1      29.726  26.792  25.702  1.00  0.00     0.163 HD
BRANCH   6   9
ATOM      9  C   UNL A   1      32.737  25.328  25.007  1.00  0.00     0.260 C 
ATOM     10  C   UNL A   1      33.755  26.307  24.404  1.00  0.00     0.064 C 
BRANCH   9  11
ATOM     11  O   UNL A   1      32.726  24.114  24.320  1.00  0.00    -0.463 OA
BRANCH  11  12
ATOM     12  C   UNL A   1      33.217  22.936  24.772  1.00  0.00     0.235 A 
ATOM     13  C   UNL A   1      32.400  17.338  25.213  1.00  0.00     0.067 C 
ATOM     14  C   UNL A   1      32.715  18.770  24.893  1.00  0.00     0.039 A 
ATOM     15  C   UNL A   1      32.348  19.302  23.669  1.00  0.00     0.027 A 
ATOM     16  N   UNL A   1      33.310  19.487  25.848  1.00  0.00    -0.240 NA
ATOM     17  C   UNL A   1      32.465  20.689  23.406  1.00  0.00    -0.034 A 
ATOM     18  C   UNL A   1      33.451  20.798  25.575  1.00  0.00     0.147 A 
ATOM     19  C   UNL A   1      31.949  21.098  22.051  1.00  0.00     0.045 C 
ATOM     20  C   UNL A   1      33.036  21.511  24.437  1.00  0.00     0.078 A 
ATOM     21  S   UNL A   1      34.172  21.825  26.719  1.00  0.00    -0.012 S 
ATOM     22  N   UNL A   1      33.894  23.207  25.886  1.00  0.00    -0.153 NA
ENDBRANCH  11  12
ENDBRANCH   9  11
ENDBRANCH   6   9
ENDBRANCH   4   5
ENDBRANCH   3   4
ENDBRANCH   2   3
ENDBRANCH   1   2
BRANCH   1  23
ATOM     23  C   UNL A   1      34.204  28.733  27.078  1.00  0.00     0.021 C 
BRANCH  23  24
ATOM     24  C   UNL A   1      35.515  29.337  27.540  1.00  0.00     0.116 C 
BRANCH  24  25
ATOM     25  N   UNL A   1      35.586  29.646  28.968  1.00  0.00    -0.352 N 
ATOM     26  C   UNL A   1      36.608  29.342  29.855  1.00  0.00     0.251 C 
ATOM     27  H   UNL A   1      34.817  30.131  29.345  1.00  0.00     0.163 HD
ATOM     28  O   UNL A   1      36.383  29.369  31.074  1.00  0.00    -0.269 OA
BRANCH  26  29
ATOM     29  C   UNL A   1      37.948  28.967  29.348  1.00  0.00     0.039 A 
ATOM     30  C   UNL A   1      38.536  29.565  28.231  1.00  0.00     0.014 A 
ATOM     31  C   UNL A   1      38.640  27.963  30.016  1.00  0.00     0.014 A 
ATOM     32  C   UNL A   1      39.820  29.161  27.853  1.00  0.00     0.010 A 
ATOM     33  C   UNL A   1      39.975  27.766  29.818  1.00  0.00     0.010 A 
ATOM     34  C   UNL A   1      40.536  28.261  28.664  1.00  0.00    -0.014 A 
BRANCH  34  35
ATOM     35  C   UNL A   1      41.911  27.871  28.388  1.00  0.00     0.031 A 
ATOM     36  C   UNL A   1      42.008  26.624  27.609  1.00  0.00     0.074 A 
ATOM     37  C   UNL A   1      43.002  28.632  28.639  1.00  0.00     0.049 A 
ATOM     38  N   UNL A   1      42.243  25.447  28.080  1.00  0.00    -0.248 NA
ATOM     39  C   UNL A   1      41.581  26.634  26.203  1.00  0.00     0.031 C 
ATOM     40  C   UNL A   1      43.075  30.006  29.156  1.00  0.00     0.029 A 
ATOM     41  N   UNL A   1      44.313  28.337  28.413  1.00  0.00    -0.354 N 
ATOM     42  C   UNL A   1      42.290  24.611  26.977  1.00  0.00     0.074 A 
ATOM     43  C   UNL A   1      41.637  25.330  25.916  1.00  0.00     0.031 C 
ATOM     44  C   UNL A   1      44.334  30.485  29.022  1.00  0.00     0.029 A 
ATOM     45  C   UNL A   1      45.195  29.404  28.578  1.00  0.00     0.049 A 
ATOM     46  H   UNL A   1      44.614  27.437  28.152  1.00  0.00     0.167 HD
ATOM     47  C   UNL A   1      43.126  23.538  26.974  1.00  0.00     0.034 A 
ATOM     48  C   UNL A   1      46.546  29.388  28.418  1.00  0.00     0.034 A 
ATOM     49  C   UNL A   1      43.574  23.232  28.321  1.00  0.00     0.049 A 
ATOM     50  C   UNL A   1      46.958  27.983  28.652  1.00  0.00     0.074 A 
ATOM     51  C   UNL A   1      42.936  22.933  29.513  1.00  0.00     0.029 A 
ATOM     52  N   UNL A   1      44.842  23.633  28.681  1.00  0.00    -0.354 N 
ATOM     53  N   UNL A   1      46.811  27.374  29.799  1.00  0.00    -0.248 NA
ATOM     54  C   UNL A   1      47.086  27.111  27.496  1.00  0.00     0.031 C 
ATOM     55  C   UNL A   1      43.669  23.640  30.515  1.00  0.00     0.029 A 
ATOM     56  C   UNL A   1      44.759  24.261  29.902  1.00  0.00     0.049 A 
ATOM     57  H   UNL A   1      45.663  23.495  28.157  1.00  0.00     0.167 HD
ATOM     58  C   UNL A   1      46.390  26.096  29.469  1.00  0.00     0.074 A 
ATOM     59  C   UNL A   1      46.670  25.965  28.040  1.00  0.00     0.031 C 
ATOM     60  C   UNL A   1      45.609  25.364  30.319  1.00  0.00     0.034 A 
BRANCH  47  61
ATOM     61  C   UNL A   1      43.858  23.039  25.748  1.00  0.00     0.023 A 
ATOM     62  C   UNL A   1      43.867  21.648  25.536  1.00  0.00     0.031 A 
ATOM     63  C   UNL A   1      44.761  23.785  24.955  1.00  0.00     0.131 A 
ATOM     64  C   UNL A   1      44.803  21.055  24.672  1.00  0.00     0.055 A 
ATOM     65  C   UNL A   1      45.650  23.195  24.054  1.00  0.00     0.041 A 
ATOM     66  F   UNL A   1      44.906  25.110  25.060  1.00  0.00    -0.206 F 
ATOM     67  C   UNL A   1      45.700  21.819  23.932  1.00  0.00     0.022 A 
BRANCH  64  68
ATOM     68  S   UNL A   1      44.924  19.251  24.654  1.00  0.00     0.124 S 
ATOM     69  O   UNL A   1      44.506  18.943  23.291  1.00  0.00    -0.237 OA
ATOM     70  O   UNL A   1      46.336  19.043  24.959  1.00  0.00    -0.237 OA
ATOM     71  O   UNL A   1      43.994  18.840  25.704  1.00  0.00    -0.744 OA
ENDBRANCH  64  68
ENDBRANCH  47  61
BRANCH  48  72
ATOM     72  C   UNL A   1      47.409  30.382  27.711  1.00  0.00     0.023 A 
ATOM     73  C   UNL A   1      46.870  31.534  27.088  1.00  0.00     0.031 A 
ATOM     74  C   UNL A   1      48.809  30.359  27.881  1.00  0.00     0.131 A 
ATOM     75  C   UNL A   1      47.714  32.602  26.695  1.00  0.00     0.055 A 
ATOM     76  C   UNL A   1      49.638  31.420  27.496  1.00  0.00     0.041 A 
ATOM     77  F   UNL A   1      49.417  29.343  28.511  1.00  0.00    -0.206 F 
ATOM     78  C   UNL A   1      49.091  32.552  26.915  1.00  0.00     0.022 A 
BRANCH  75  79
ATOM     79  S   UNL A   1      47.015  34.137  25.996  1.00  0.00     0.124 S 
ATOM     80  O   UNL A   1      45.791  33.655  25.365  1.00  0.00    -0.237 OA
ATOM     81  O   UNL A   1      46.848  34.978  27.175  1.00  0.00    -0.237 OA
ATOM     82  O   UNL A   1      48.050  34.588  25.066  1.00  0.00    -0.744 OA
ENDBRANCH  75  79
ENDBRANCH  48  72
BRANCH  60  83
ATOM     83  C   UNL A   1      45.484  25.820  31.761  1.00  0.00     0.023 A 
ATOM     84  C   UNL A   1      46.445  25.611  32.780  1.00  0.00     0.031 A 
ATOM     85  C   UNL A   1      44.375  26.626  32.068  1.00  0.00     0.131 A 
ATOM     86  C   UNL A   1      46.267  26.208  34.048  1.00  0.00     0.055 A 
ATOM     87  C   UNL A   1      44.212  27.229  33.314  1.00  0.00     0.041 A 
ATOM     88  F   UNL A   1      43.440  26.877  31.136  1.00  0.00    -0.206 F 
ATOM     89  C   UNL A   1      45.159  27.022  34.310  1.00  0.00     0.022 A 
BRANCH  86  90
ATOM     90  S   UNL A   1      47.488  25.961  35.382  1.00  0.00     0.124 S 
ATOM     91  O   UNL A   1      48.309  24.863  34.888  1.00  0.00    -0.237 OA
ATOM     92  O   UNL A   1      48.144  27.263  35.468  1.00  0.00    -0.237 OA
ATOM     93  O   UNL A   1      46.664  25.625  36.546  1.00  0.00    -0.744 OA
ENDBRANCH  86  90
ENDBRANCH  60  83
ENDBRANCH  34  35
ENDBRANCH  26  29
ENDBRANCH  24  25
ENDBRANCH  23  24
ENDBRANCH   1  23
TORSDOF 18
ENDMDL
MODEL 3
REMARK VINA RESULT:     -11.9      3.014      7.866
REMARK SMILES Cc1cc(C)c2c(O[C@@H](C)C(=O)NCCCCCCNC(=O)c3ccc(-c4c5nc(c(-c6cc(S(=O)(=O)[O-])ccc6F)c6ccc([nH]6)c(-c6cc(S(=O)(=O)[O-])ccc6F)c6nc(c(-c7cc(S(=O)(=O)[O-])ccc7F)c7ccc4[nH]7)C=C6)C=C5)cc3)nsc2n1
REMARK SMILES IDX 17 1 16 2 15 3 14 4 13 5 11 6 12 7 9 9 10 10 8 11 7 12 1 13
REMARK SMILES IDX 2 14 3 15 89 16 4 17 88 18 5 19 6 20 87 21 86 22 18 23 19 24
REMARK SMILES IDX 20 25 21 26 22 28 23 29 24 30 85 31 25 32 84 33 26 34 27 35
REMARK SMILES IDX 28 36 78 37 29 38 83 39 77 40 79 41 30 42 82 43 76 44 75 45
REMARK SMILES IDX 31 47 63 48 43 49 62 50 44 51 47 52 61 53 80 54 45 55 46 56
REMARK SMILES IDX 60 58 81 59 48 60 32 61 33 62 41 63 34 64 40 65 42 66 39 67
REMARK SMILES IDX 35 68 36 69 37 70 38 71 64 72 65 73 73 74 66 75 72 76 74 77
REMARK SMILES IDX 71 78 67 79 68 80 69 81 70 82 49 83 50 84 58 85 51 86 57 87
REMARK SMILES IDX 59 88 56 89 52 90 53 91 54 92 55 93
REMARK H PARENT 13 8 20 27 79 46 47 57
REMARK Flexibility Score: inf
ROOT
ATOM      1  C   UNL A   1      38.757  22.228  25.888  1.00  0.00     0.002 C 
ENDROOT
BRANCH   1   2
ATOM      2  C   UNL A   1      37.535  23.137  25.632  1.00  0.00     0.002 C 
BRANCH   2   3
ATOM      3  C   UNL A   1      36.148  22.490  25.569  1.00  0.00     0.021 C 
BRANCH   3   4
ATOM      4  C   UNL A   1      34.967  23.444  25.595  1.00  0.00     0.116 C 
BRANCH   4   5
ATOM      5  N   UNL A   1      34.138  23.483  26.771  1.00  0.00    -0.353 N 
ATOM      6  C   UNL A   1      33.060  22.675  27.032  1.00  0.00     0.260 C 
ATOM      7  O   UNL A   1      32.840  22.419  28.224  1.00  0.00    -0.271 OA
ATOM      8  H   UNL A   1      34.365  24.156  27.453  1.00  0.00     0.163 HD
BRANCH   6   9
ATOM      9  C   UNL A   1      32.068  22.140  25.920  1.00  0.00     0.260 C 
ATOM     10  C   UNL A   1      32.601  20.986  25.058  1.00  0.00     0.064 C 
BRANCH   9  11
ATOM     11  O   UNL A   1      31.039  22.825  25.276  1.00  0.00    -0.463 OA
BRANCH  11  12
ATOM     12  C   UNL A   1      31.062  24.122  24.888  1.00  0.00     0.235 A 
ATOM     13  C   UNL A   1      34.131  28.318  22.615  1.00  0.00     0.067 C 
ATOM     14  C   UNL A   1      33.264  27.155  22.998  1.00  0.00     0.039 A 
ATOM     15  C   UNL A   1      33.452  25.923  22.395  1.00  0.00     0.027 A 
ATOM     16  N   UNL A   1      32.360  27.364  23.957  1.00  0.00    -0.240 NA
ATOM     17  C   UNL A   1      32.780  24.767  22.859  1.00  0.00    -0.034 A 
ATOM     18  C   UNL A   1      31.698  26.267  24.368  1.00  0.00     0.147 A 
ATOM     19  C   UNL A   1      33.164  23.505  22.134  1.00  0.00     0.045 C 
ATOM     20  C   UNL A   1      31.848  24.935  23.941  1.00  0.00     0.078 A 
ATOM     21  S   UNL A   1      30.538  26.393  25.600  1.00  0.00    -0.012 S 
ATOM     22  N   UNL A   1      30.262  24.783  25.722  1.00  0.00    -0.153 NA
ENDBRANCH  11  12
ENDBRANCH   9  11
ENDBRANCH   6   9
ENDBRANCH   4   5
ENDBRANCH   3   4
ENDBRANCH   2   3
ENDBRANCH   1   2
BRANCH   1  23
ATOM     23  C   UNL A   1      38.767  20.826  25.264  1.00  0.00     0.021 C 
BRANCH  23  24
ATOM     24  C   UNL A   1      39.244  19.720  26.185  1.00  0.00     0.116 C 
BRANCH  24  25
ATOM     25  N   UNL A   1      40.506  19.091  25.796  1.00  0.00    -0.352 N 
ATOM     26  C   UNL A   1      41.759  19.679  25.708  1.00  0.00     0.251 C 
ATOM     27  H   UNL A   1      40.462  18.133  25.571  1.00  0.00     0.163 HD
ATOM     28  O   UNL A   1      42.650  19.116  25.055  1.00  0.00    -0.269 OA
BRANCH  26  29
ATOM     29  C   UNL A   1      42.021  20.978  26.369  1.00  0.00     0.039 A 
ATOM     30  C   UNL A   1      42.414  22.123  25.672  1.00  0.00     0.014 A 
ATOM     31  C   UNL A   1      41.877  21.047  27.750  1.00  0.00     0.014 A 
ATOM     32  C   UNL A   1      42.605  23.309  26.387  1.00  0.00     0.010 A 
ATOM     33  C   UNL A   1      41.797  22.244  28.398  1.00  0.00     0.010 A 
ATOM     34  C   UNL A   1      42.283  23.360  27.756  1.00  0.00    -0.014 A 
BRANCH  34  35
ATOM     35  C   UNL A   1      42.363  24.583  28.542  1.00  0.00     0.031 A 
ATOM     36  C   UNL A   1      41.220  25.485  28.316  1.00  0.00     0.074 A 
ATOM     37  C   UNL A   1      43.270  24.823  29.518  1.00  0.00     0.049 A 
ATOM     38  N   UNL A   1      41.204  26.517  27.543  1.00  0.00    -0.248 NA
ATOM     39  C   UNL A   1      39.896  25.087  28.814  1.00  0.00     0.031 C 
ATOM     40  C   UNL A   1      44.304  23.933  30.062  1.00  0.00     0.029 A 
ATOM     41  N   UNL A   1      43.409  25.936  30.291  1.00  0.00    -0.354 N 
ATOM     42  C   UNL A   1      39.944  27.070  27.694  1.00  0.00     0.074 A 
ATOM     43  C   UNL A   1      39.128  26.032  28.265  1.00  0.00     0.031 C 
ATOM     44  C   UNL A   1      44.828  24.466  31.191  1.00  0.00     0.029 A 
ATOM     45  C   UNL A   1      44.299  25.808  31.356  1.00  0.00     0.049 A 
ATOM     46  H   UNL A   1      42.917  26.770  30.109  1.00  0.00     0.167 HD
ATOM     47  C   UNL A   1      39.780  28.418  27.609  1.00  0.00     0.034 A 
ATOM     48  C   UNL A   1      44.626  26.756  32.275  1.00  0.00     0.034 A 
ATOM     49  C   UNL A   1      40.939  29.038  26.989  1.00  0.00     0.049 A 
ATOM     50  C   UNL A   1      44.376  28.058  31.611  1.00  0.00     0.074 A 
ATOM     51  C   UNL A   1      41.593  28.881  25.780  1.00  0.00     0.029 A 
ATOM     52  N   UNL A   1      41.848  29.665  27.813  1.00  0.00    -0.354 N 
ATOM     53  N   UNL A   1      45.033  28.463  30.557  1.00  0.00    -0.248 NA
ATOM     54  C   UNL A   1      43.084  28.691  31.821  1.00  0.00     0.031 C 
ATOM     55  C   UNL A   1      42.984  28.958  26.097  1.00  0.00     0.029 A 
ATOM     56  C   UNL A   1      43.107  29.242  27.459  1.00  0.00     0.049 A 
ATOM     57  H   UNL A   1      41.633  30.305  28.530  1.00  0.00     0.167 HD
ATOM     58  C   UNL A   1      44.075  29.053  29.748  1.00  0.00     0.074 A 
ATOM     59  C   UNL A   1      42.917  29.249  30.619  1.00  0.00     0.031 C 
ATOM     60  C   UNL A   1      44.212  29.082  28.389  1.00  0.00     0.034 A 
BRANCH  47  61
ATOM     61  C   UNL A   1      38.795  29.206  28.445  1.00  0.00     0.023 A 
ATOM     62  C   UNL A   1      38.975  29.170  29.840  1.00  0.00     0.031 A 
ATOM     63  C   UNL A   1      37.563  29.738  27.999  1.00  0.00     0.131 A 
ATOM     64  C   UNL A   1      37.936  29.537  30.711  1.00  0.00     0.055 A 
ATOM     65  C   UNL A   1      36.555  30.157  28.871  1.00  0.00     0.041 A 
ATOM     66  F   UNL A   1      37.218  29.808  26.710  1.00  0.00    -0.206 F 
ATOM     67  C   UNL A   1      36.723  30.026  30.236  1.00  0.00     0.022 A 
BRANCH  64  68
ATOM     68  S   UNL A   1      38.150  29.215  32.478  1.00  0.00     0.124 S 
ATOM     69  O   UNL A   1      39.574  29.480  32.652  1.00  0.00    -0.237 OA
ATOM     70  O   UNL A   1      37.236  30.185  33.072  1.00  0.00    -0.237 OA
ATOM     71  O   UNL A   1      37.749  27.817  32.617  1.00  0.00    -0.744 OA
ENDBRANCH  64  68
ENDBRANCH  47  61
BRANCH  48  72
ATOM     72  C   UNL A   1      44.746  26.609  33.757  1.00  0.00     0.023 A 
ATOM     73  C   UNL A   1      43.616  26.648  34.610  1.00  0.00     0.031 A 
ATOM     74  C   UNL A   1      45.948  26.143  34.332  1.00  0.00     0.131 A 
ATOM     75  C   UNL A   1      43.712  26.210  35.953  1.00  0.00     0.055 A 
ATOM     76  C   UNL A   1      46.035  25.705  35.658  1.00  0.00     0.041 A 
ATOM     77  F   UNL A   1      47.064  26.010  33.598  1.00  0.00    -0.206 F 
ATOM     78  C   UNL A   1      44.912  25.723  36.470  1.00  0.00     0.022 A 
BRANCH  75  79
ATOM     79  S   UNL A   1      42.234  26.151  37.024  1.00  0.00     0.124 S 
ATOM     80  O   UNL A   1      41.427  27.243  36.491  1.00  0.00    -0.237 OA
ATOM     81  O   UNL A   1      41.728  24.802  36.798  1.00  0.00    -0.237 OA
ATOM     82  O   UNL A   1      42.776  26.383  38.363  1.00  0.00    -0.744 OA
ENDBRANCH  75  79
ENDBRANCH  48  72
BRANCH  60  83
ATOM     83  C   UNL A   1      45.571  28.765  27.792  1.00  0.00     0.023 A 
ATOM     84  C   UNL A   1      46.023  27.482  27.399  1.00  0.00     0.031 A 
ATOM     85  C   UNL A   1      46.393  29.865  27.491  1.00  0.00     0.131 A 
ATOM     86  C   UNL A   1      47.259  27.347  26.727  1.00  0.00     0.055 A 
ATOM     87  C   UNL A   1      47.603  29.729  26.812  1.00  0.00     0.041 A 
ATOM     88  F   UNL A   1      46.008  31.109  27.821  1.00  0.00    -0.206 F 
ATOM     89  C   UNL A   1      48.041  28.468  26.427  1.00  0.00     0.022 A 
BRANCH  86  90
ATOM     90  S   UNL A   1      47.869  25.707  26.204  1.00  0.00     0.124 S 
ATOM     91  O   UNL A   1      49.317  25.856  26.254  1.00  0.00    -0.237 OA
ATOM     92  O   UNL A   1      47.281  24.810  27.194  1.00  0.00    -0.237 OA
ATOM     93  O   UNL A   1      47.323  25.552  24.852  1.00  0.00    -0.744 OA
ENDBRANCH  86  90
ENDBRANCH  60  83
ENDBRANCH  34  35
ENDBRANCH  26  29
ENDBRANCH  24  25
ENDBRANCH  23  24
ENDBRANCH   1  23
TORSDOF 18
ENDMDL
