MODEL 1
REMARK VINA RESULT:     -10.8      0.000      0.000
REMARK SMILES Cc1cccc(C[N@@H+](C)C[C@]2(C(=O)NCCCCCCNC(=O)c3ccc(-c4c5nc(c(-c6cc(S(=O)(=O)[O-])ccc6F)c6ccc([nH]6)c(-c6cc(S(=O)(=O)[O-])ccc6F)c6nc(c(-c7cc(S(=O)(=O)[O-])ccc7F)c7ccc4[nH]7)C=C6)C=C5)cc3)CCOC2)n1
REMARK SMILES IDX 17 1 16 2 15 3 14 4 12 5 13 6 11 8 87 9 90 10 88 11 89 12
REMARK SMILES IDX 10 13 8 14 9 15 7 17 6 18 1 19 2 20 3 21 91 22 4 23 5 24
REMARK SMILES IDX 18 25 19 26 20 27 21 28 22 29 23 31 24 32 25 33 86 34 26 35
REMARK SMILES IDX 85 36 27 37 28 38 29 39 79 40 30 41 84 42 78 43 80 44 31 45
REMARK SMILES IDX 83 46 77 47 76 48 32 50 64 51 44 52 63 53 45 54 48 55 62 56
REMARK SMILES IDX 81 57 46 58 47 59 61 61 82 62 49 63 33 64 34 65 42 66 35 67
REMARK SMILES IDX 41 68 43 69 40 70 36 71 37 72 38 73 39 74 65 75 66 76 74 77
REMARK SMILES IDX 67 78 73 79 75 80 72 81 68 82 69 83 70 84 71 85 50 86 51 87
REMARK SMILES IDX 59 88 52 89 58 90 60 91 57 92 53 93 54 94 55 95 56 96
REMARK H PARENT 14 7 8 16 21 30 80 49 48 60
REMARK Flexibility Score: inf
ROOT
ATOM      1  C   UNL A   1      32.221  29.603  27.026  1.00  0.00     0.002 C 
ENDROOT
BRANCH   1   2
ATOM      2  C   UNL A   1      31.565  28.251  27.366  1.00  0.00     0.021 C 
BRANCH   2   3
ATOM      3  C   UNL A   1      32.180  27.038  26.661  1.00  0.00     0.116 C 
BRANCH   3   4
ATOM      4  N   UNL A   1      32.809  27.465  25.432  1.00  0.00    -0.355 N 
ATOM      5  C   UNL A   1      32.563  27.205  24.132  1.00  0.00     0.234 C 
ATOM      6  O   UNL A   1      33.560  27.345  23.425  1.00  0.00    -0.274 OA
ATOM      7  H   UNL A   1      33.575  28.068  25.573  1.00  0.00     0.163 HD
BRANCH   5   8
ATOM      8  C   UNL A   1      31.185  26.833  23.575  1.00  0.00     0.123 C 
ATOM      9  C   UNL A   1      30.015  27.553  24.252  1.00  0.00     0.054 C 
ATOM     10  C   UNL A   1      31.119  27.357  22.118  1.00  0.00     0.183 C 
ATOM     11  C   UNL A   1      29.168  28.059  23.102  1.00  0.00     0.161 C 
ATOM     12  O   UNL A   1      30.080  28.342  22.047  1.00  0.00    -0.380 OA
BRANCH   8  13
ATOM     13  C   UNL A   1      30.969  25.277  23.514  1.00  0.00     0.281 C 
BRANCH  13  14
ATOM     14  N   UNL A   1      32.024  24.250  23.574  1.00  0.00    -0.331 N 
ATOM     15  C   UNL A   1      32.705  23.976  22.319  1.00  0.00     0.333 C 
ATOM     16  H   UNL A   1      32.685  24.735  24.180  1.00  0.00     0.348 HD
BRANCH  14  17
ATOM     17  C   UNL A   1      31.697  22.985  24.278  1.00  0.00     0.319 C 
BRANCH  17  18
ATOM     18  C   UNL A   1      32.632  22.559  25.405  1.00  0.00     0.095 A 
ATOM     19  C   UNL A   1      35.995  21.099  25.619  1.00  0.00     0.067 C 
ATOM     20  C   UNL A   1      34.696  21.704  26.049  1.00  0.00     0.038 A 
ATOM     21  C   UNL A   1      34.406  21.888  27.397  1.00  0.00     0.023 A 
ATOM     22  N   UNL A   1      33.836  22.039  25.059  1.00  0.00    -0.252 NA
ATOM     23  C   UNL A   1      33.168  22.407  27.745  1.00  0.00     0.004 A 
ATOM     24  C   UNL A   1      32.264  22.728  26.740  1.00  0.00     0.030 A 
ENDBRANCH  17  18
ENDBRANCH  14  17
ENDBRANCH  13  14
ENDBRANCH   8  13
ENDBRANCH   5   8
ENDBRANCH   3   4
ENDBRANCH   2   3
ENDBRANCH   1   2
BRANCH   1  25
ATOM     25  C   UNL A   1      31.390  30.553  26.156  1.00  0.00     0.002 C 
BRANCH  25  26
ATOM     26  C   UNL A   1      31.379  32.009  26.614  1.00  0.00     0.021 C 
BRANCH  26  27
ATOM     27  C   UNL A   1      32.753  32.581  26.924  1.00  0.00     0.116 C 
BRANCH  27  28
ATOM     28  N   UNL A   1      32.676  33.882  27.563  1.00  0.00    -0.352 N 
ATOM     29  C   UNL A   1      33.443  34.363  28.598  1.00  0.00     0.251 C 
ATOM     30  H   UNL A   1      31.992  34.495  27.212  1.00  0.00     0.163 HD
ATOM     31  O   UNL A   1      33.148  35.415  29.149  1.00  0.00    -0.269 OA
BRANCH  29  32
ATOM     32  C   UNL A   1      34.604  33.567  29.055  1.00  0.00     0.039 A 
ATOM     33  C   UNL A   1      35.889  34.082  28.875  1.00  0.00     0.014 A 
ATOM     34  C   UNL A   1      34.417  32.339  29.697  1.00  0.00     0.014 A 
ATOM     35  C   UNL A   1      36.986  33.390  29.393  1.00  0.00     0.010 A 
ATOM     36  C   UNL A   1      35.503  31.691  30.277  1.00  0.00     0.010 A 
ATOM     37  C   UNL A   1      36.799  32.205  30.125  1.00  0.00    -0.014 A 
BRANCH  37  38
ATOM     38  C   UNL A   1      37.950  31.476  30.716  1.00  0.00     0.031 A 
ATOM     39  C   UNL A   1      38.409  31.809  32.109  1.00  0.00     0.074 A 
ATOM     40  C   UNL A   1      38.610  30.556  29.985  1.00  0.00     0.049 A 
ATOM     41  N   UNL A   1      39.432  31.343  32.780  1.00  0.00    -0.248 NA
ATOM     42  C   UNL A   1      37.630  32.826  32.832  1.00  0.00     0.031 C 
ATOM     43  C   UNL A   1      38.280  30.174  28.609  1.00  0.00     0.029 A 
ATOM     44  N   UNL A   1      39.699  29.780  30.291  1.00  0.00    -0.354 N 
ATOM     45  C   UNL A   1      39.423  32.014  33.998  1.00  0.00     0.074 A 
ATOM     46  C   UNL A   1      38.337  32.968  33.943  1.00  0.00     0.031 C 
ATOM     47  C   UNL A   1      39.132  29.218  28.202  1.00  0.00     0.029 A 
ATOM     48  C   UNL A   1      40.094  28.950  29.267  1.00  0.00     0.049 A 
ATOM     49  H   UNL A   1      40.155  29.812  31.162  1.00  0.00     0.167 HD
ATOM     50  C   UNL A   1      40.228  31.830  35.075  1.00  0.00     0.034 A 
ATOM     51  C   UNL A   1      41.121  28.080  29.191  1.00  0.00     0.034 A 
ATOM     52  C   UNL A   1      41.300  30.867  35.117  1.00  0.00     0.049 A 
ATOM     53  C   UNL A   1      42.024  27.917  30.390  1.00  0.00     0.074 A 
ATOM     54  C   UNL A   1      42.152  30.568  36.165  1.00  0.00     0.029 A 
ATOM     55  N   UNL A   1      41.671  30.044  34.060  1.00  0.00    -0.354 N 
ATOM     56  N   UNL A   1      41.975  28.529  31.551  1.00  0.00    -0.248 NA
ATOM     57  C   UNL A   1      43.111  26.936  30.271  1.00  0.00     0.031 C 
ATOM     58  C   UNL A   1      43.077  29.615  35.724  1.00  0.00     0.029 A 
ATOM     59  C   UNL A   1      42.755  29.261  34.424  1.00  0.00     0.049 A 
ATOM     60  H   UNL A   1      41.230  30.023  33.180  1.00  0.00     0.167 HD
ATOM     61  C   UNL A   1      43.006  27.980  32.310  1.00  0.00     0.074 A 
ATOM     62  C   UNL A   1      43.647  26.981  31.481  1.00  0.00     0.031 C 
ATOM     63  C   UNL A   1      43.387  28.272  33.580  1.00  0.00     0.034 A 
BRANCH  50  64
ATOM     64  C   UNL A   1      39.981  32.707  36.280  1.00  0.00     0.023 A 
ATOM     65  C   UNL A   1      39.132  32.300  37.325  1.00  0.00     0.031 A 
ATOM     66  C   UNL A   1      40.572  33.979  36.372  1.00  0.00     0.131 A 
ATOM     67  C   UNL A   1      38.833  33.185  38.371  1.00  0.00     0.055 A 
ATOM     68  C   UNL A   1      40.338  34.823  37.461  1.00  0.00     0.041 A 
ATOM     69  F   UNL A   1      41.374  34.433  35.397  1.00  0.00    -0.206 F 
ATOM     70  C   UNL A   1      39.451  34.433  38.461  1.00  0.00     0.022 A 
BRANCH  67  71
ATOM     71  S   UNL A   1      37.512  32.738  39.530  1.00  0.00     0.124 S 
ATOM     72  O   UNL A   1      37.588  33.829  40.498  1.00  0.00    -0.237 OA
ATOM     73  O   UNL A   1      36.331  32.725  38.673  1.00  0.00    -0.237 OA
ATOM     74  O   UNL A   1      37.928  31.433  40.038  1.00  0.00    -0.744 OA
ENDBRANCH  67  71
ENDBRANCH  50  64
BRANCH  51  75
ATOM     75  C   UNL A   1      41.365  27.299  27.945  1.00  0.00     0.023 A 
ATOM     76  C   UNL A   1      41.074  25.926  27.885  1.00  0.00     0.031 A 
ATOM     77  C   UNL A   1      41.943  27.899  26.812  1.00  0.00     0.131 A 
ATOM     78  C   UNL A   1      41.411  25.189  26.739  1.00  0.00     0.055 A 
ATOM     79  C   UNL A   1      42.225  27.172  25.654  1.00  0.00     0.041 A 
ATOM     80  F   UNL A   1      42.237  29.209  26.814  1.00  0.00    -0.206 F 
ATOM     81  C   UNL A   1      41.972  25.805  25.619  1.00  0.00     0.022 A 
BRANCH  78  82
ATOM     82  S   UNL A   1      41.190  23.388  26.771  1.00  0.00     0.124 S 
ATOM     83  O   UNL A   1      41.434  23.084  28.177  1.00  0.00    -0.237 OA
ATOM     84  O   UNL A   1      39.813  23.244  26.312  1.00  0.00    -0.237 OA
ATOM     85  O   UNL A   1      42.210  22.905  25.842  1.00  0.00    -0.744 OA
ENDBRANCH  78  82
ENDBRANCH  51  75
BRANCH  63  86
ATOM     86  C   UNL A   1      44.518  27.459  34.160  1.00  0.00     0.023 A 
ATOM     87  C   UNL A   1      44.291  26.240  34.821  1.00  0.00     0.031 A 
ATOM     88  C   UNL A   1      45.843  27.922  34.059  1.00  0.00     0.131 A 
ATOM     89  C   UNL A   1      45.366  25.553  35.406  1.00  0.00     0.055 A 
ATOM     90  C   UNL A   1      46.914  27.204  34.591  1.00  0.00     0.041 A 
ATOM     91  F   UNL A   1      46.116  29.082  33.440  1.00  0.00    -0.206 F 
ATOM     92  C   UNL A   1      46.677  26.018  35.281  1.00  0.00     0.022 A 
BRANCH  89  93
ATOM     93  S   UNL A   1      45.015  24.085  36.413  1.00  0.00     0.124 S 
ATOM     94  O   UNL A   1      44.048  23.373  35.585  1.00  0.00    -0.237 OA
ATOM     95  O   UNL A   1      46.332  23.467  36.532  1.00  0.00    -0.237 OA
ATOM     96  O   UNL A   1      44.478  24.640  37.655  1.00  0.00    -0.744 OA
ENDBRANCH  89  93
ENDBRANCH  63  86
ENDBRANCH  37  38
ENDBRANCH  29  32
ENDBRANCH  27  28
ENDBRANCH  26  27
ENDBRANCH  25  26
ENDBRANCH   1  25
TORSDOF 20
ENDMDL
MODEL 2
REMARK VINA RESULT:     -10.6      1.188      7.562
REMARK SMILES Cc1cccc(C[N@@H+](C)C[C@]2(C(=O)NCCCCCCNC(=O)c3ccc(-c4c5nc(c(-c6cc(S(=O)(=O)[O-])ccc6F)c6ccc([nH]6)c(-c6cc(S(=O)(=O)[O-])ccc6F)c6nc(c(-c7cc(S(=O)(=O)[O-])ccc7F)c7ccc4[nH]7)C=C6)C=C5)cc3)CCOC2)n1
REMARK SMILES IDX 17 1 16 2 15 3 14 4 12 5 13 6 11 8 87 9 90 10 88 11 89 12
REMARK SMILES IDX 10 13 8 14 9 15 7 17 6 18 1 19 2 20 3 21 91 22 4 23 5 24
REMARK SMILES IDX 18 25 19 26 20 27 21 28 22 29 23 31 24 32 25 33 86 34 26 35
REMARK SMILES IDX 85 36 27 37 28 38 29 39 79 40 30 41 84 42 78 43 80 44 31 45
REMARK SMILES IDX 83 46 77 47 76 48 32 50 64 51 44 52 63 53 45 54 48 55 62 56
REMARK SMILES IDX 81 57 46 58 47 59 61 61 82 62 49 63 33 64 34 65 42 66 35 67
REMARK SMILES IDX 41 68 43 69 40 70 36 71 37 72 38 73 39 74 65 75 66 76 74 77
REMARK SMILES IDX 67 78 73 79 75 80 72 81 68 82 69 83 70 84 71 85 50 86 51 87
REMARK SMILES IDX 59 88 52 89 58 90 60 91 57 92 53 93 54 94 55 95 56 96
REMARK H PARENT 14 7 8 16 21 30 80 49 48 60
REMARK Flexibility Score: inf
ROOT
ATOM      1  C   UNL A   1      32.850  29.297  26.944  1.00  0.00     0.002 C 
ENDROOT
BRANCH   1   2
ATOM      2  C   UNL A   1      32.182  28.090  27.630  1.00  0.00     0.021 C 
BRANCH   2   3
ATOM      3  C   UNL A   1      31.028  27.457  26.846  1.00  0.00     0.116 C 
BRANCH   3   4
ATOM      4  N   UNL A   1      31.377  26.101  26.489  1.00  0.00    -0.355 N 
ATOM      5  C   UNL A   1      31.298  25.401  25.340  1.00  0.00     0.234 C 
ATOM      6  O   UNL A   1      31.233  24.187  25.529  1.00  0.00    -0.274 OA
ATOM      7  H   UNL A   1      31.747  25.581  27.240  1.00  0.00     0.163 HD
BRANCH   5   8
ATOM      8  C   UNL A   1      31.343  26.031  23.944  1.00  0.00     0.123 C 
ATOM      9  C   UNL A   1      30.189  26.993  23.648  1.00  0.00     0.054 C 
ATOM     10  C   UNL A   1      32.587  26.955  23.894  1.00  0.00     0.183 C 
ATOM     11  C   UNL A   1      30.861  28.218  23.063  1.00  0.00     0.161 C 
ATOM     12  O   UNL A   1      32.133  28.300  23.694  1.00  0.00    -0.380 OA
BRANCH   8  13
ATOM     13  C   UNL A   1      31.524  24.955  22.812  1.00  0.00     0.281 C 
BRANCH  13  14
ATOM     14  N   UNL A   1      32.668  24.846  21.890  1.00  0.00    -0.331 N 
ATOM     15  C   UNL A   1      32.533  25.566  20.635  1.00  0.00     0.333 C 
ATOM     16  H   UNL A   1      33.369  25.334  22.448  1.00  0.00     0.348 HD
BRANCH  14  17
ATOM     17  C   UNL A   1      33.222  23.489  21.658  1.00  0.00     0.319 C 
BRANCH  17  18
ATOM     18  C   UNL A   1      33.782  22.754  22.871  1.00  0.00     0.095 A 
ATOM     19  C   UNL A   1      32.639  20.025  25.047  1.00  0.00     0.067 C 
ATOM     20  C   UNL A   1      33.528  21.075  24.460  1.00  0.00     0.038 A 
ATOM     21  C   UNL A   1      34.794  21.314  24.984  1.00  0.00     0.023 A 
ATOM     22  N   UNL A   1      33.023  21.769  23.413  1.00  0.00    -0.252 NA
ATOM     23  C   UNL A   1      35.560  22.330  24.435  1.00  0.00     0.004 A 
ATOM     24  C   UNL A   1      35.042  23.072  23.380  1.00  0.00     0.030 A 
ENDBRANCH  17  18
ENDBRANCH  14  17
ENDBRANCH  13  14
ENDBRANCH   8  13
ENDBRANCH   5   8
ENDBRANCH   3   4
ENDBRANCH   2   3
ENDBRANCH   1   2
BRANCH   1  25
ATOM     25  C   UNL A   1      31.911  30.245  26.189  1.00  0.00     0.002 C 
BRANCH  25  26
ATOM     26  C   UNL A   1      31.669  31.592  26.864  1.00  0.00     0.021 C 
BRANCH  26  27
ATOM     27  C   UNL A   1      32.906  32.467  26.982  1.00  0.00     0.116 C 
BRANCH  27  28
ATOM     28  N   UNL A   1      32.583  33.826  27.380  1.00  0.00    -0.352 N 
ATOM     29  C   UNL A   1      33.102  34.545  28.431  1.00  0.00     0.251 C 
ATOM     30  H   UNL A   1      31.911  34.288  26.831  1.00  0.00     0.163 HD
ATOM     31  O   UNL A   1      32.607  35.617  28.750  1.00  0.00    -0.269 OA
BRANCH  29  32
ATOM     32  C   UNL A   1      34.242  33.980  29.188  1.00  0.00     0.039 A 
ATOM     33  C   UNL A   1      33.996  32.989  30.140  1.00  0.00     0.014 A 
ATOM     34  C   UNL A   1      35.549  34.399  28.922  1.00  0.00     0.014 A 
ATOM     35  C   UNL A   1      35.071  32.376  30.787  1.00  0.00     0.010 A 
ATOM     36  C   UNL A   1      36.620  33.734  29.511  1.00  0.00     0.010 A 
ATOM     37  C   UNL A   1      36.393  32.721  30.455  1.00  0.00    -0.014 A 
BRANCH  37  38
ATOM     38  C   UNL A   1      37.549  32.052  31.104  1.00  0.00     0.031 A 
ATOM     39  C   UNL A   1      38.338  31.020  30.345  1.00  0.00     0.074 A 
ATOM     40  C   UNL A   1      37.856  32.334  32.386  1.00  0.00     0.049 A 
ATOM     41  N   UNL A   1      39.332  30.272  30.749  1.00  0.00    -0.248 NA
ATOM     42  C   UNL A   1      37.931  30.776  28.952  1.00  0.00     0.031 C 
ATOM     43  C   UNL A   1      37.141  33.290  33.236  1.00  0.00     0.029 A 
ATOM     44  N   UNL A   1      38.843  31.840  33.201  1.00  0.00    -0.354 N 
ATOM     45  C   UNL A   1      39.665  29.466  29.666  1.00  0.00     0.074 A 
ATOM     46  C   UNL A   1      38.719  29.767  28.613  1.00  0.00     0.031 C 
ATOM     47  C   UNL A   1      37.730  33.331  34.442  1.00  0.00     0.029 A 
ATOM     48  C   UNL A   1      38.834  32.376  34.469  1.00  0.00     0.049 A 
ATOM     49  H   UNL A   1      39.497  31.166  32.907  1.00  0.00     0.167 HD
ATOM     50  C   UNL A   1      40.684  28.577  29.549  1.00  0.00     0.034 A 
ATOM     51  C   UNL A   1      39.620  32.118  35.533  1.00  0.00     0.034 A 
ATOM     52  C   UNL A   1      41.624  28.296  30.606  1.00  0.00     0.049 A 
ATOM     53  C   UNL A   1      40.726  31.101  35.391  1.00  0.00     0.074 A 
ATOM     54  C   UNL A   1      42.715  27.446  30.586  1.00  0.00     0.029 A 
ATOM     55  N   UNL A   1      41.583  28.857  31.877  1.00  0.00    -0.354 N 
ATOM     56  N   UNL A   1      41.054  30.378  34.345  1.00  0.00    -0.248 NA
ATOM     57  C   UNL A   1      41.574  30.876  36.568  1.00  0.00     0.031 C 
ATOM     58  C   UNL A   1      43.295  27.444  31.860  1.00  0.00     0.029 A 
ATOM     59  C   UNL A   1      42.613  28.351  32.655  1.00  0.00     0.049 A 
ATOM     60  H   UNL A   1      40.919  29.517  32.180  1.00  0.00     0.167 HD
ATOM     61  C   UNL A   1      42.168  29.638  34.731  1.00  0.00     0.074 A 
ATOM     62  C   UNL A   1      42.462  30.014  36.099  1.00  0.00     0.031 C 
ATOM     63  C   UNL A   1      42.887  28.732  34.021  1.00  0.00     0.034 A 
BRANCH  50  64
ATOM     64  C   UNL A   1      40.810  27.840  28.238  1.00  0.00     0.023 A 
ATOM     65  C   UNL A   1      40.342  26.522  28.086  1.00  0.00     0.031 A 
ATOM     66  C   UNL A   1      41.436  28.445  27.134  1.00  0.00     0.131 A 
ATOM     67  C   UNL A   1      40.579  25.826  26.892  1.00  0.00     0.055 A 
ATOM     68  C   UNL A   1      41.592  27.775  25.918  1.00  0.00     0.041 A 
ATOM     69  F   UNL A   1      41.923  29.692  27.222  1.00  0.00    -0.206 F 
ATOM     70  C   UNL A   1      41.176  26.452  25.797  1.00  0.00     0.022 A 
BRANCH  67  71
ATOM     71  S   UNL A   1      40.230  24.047  26.845  1.00  0.00     0.124 S 
ATOM     72  O   UNL A   1      40.285  23.699  28.262  1.00  0.00    -0.237 OA
ATOM     73  O   UNL A   1      38.910  24.000  26.225  1.00  0.00    -0.237 OA
ATOM     74  O   UNL A   1      41.319  23.506  26.035  1.00  0.00    -0.744 OA
ENDBRANCH  67  71
ENDBRANCH  50  64
BRANCH  51  75
ATOM     75  C   UNL A   1      39.397  32.820  36.830  1.00  0.00     0.023 A 
ATOM     76  C   UNL A   1      38.498  32.312  37.782  1.00  0.00     0.031 A 
ATOM     77  C   UNL A   1      40.038  34.039  37.115  1.00  0.00     0.131 A 
ATOM     78  C   UNL A   1      38.225  33.045  38.947  1.00  0.00     0.055 A 
ATOM     79  C   UNL A   1      39.805  34.736  38.301  1.00  0.00     0.041 A 
ATOM     80  F   UNL A   1      40.911  34.568  36.242  1.00  0.00    -0.206 F 
ATOM     81  C   UNL A   1      38.881  34.247  39.219  1.00  0.00     0.022 A 
BRANCH  78  82
ATOM     82  S   UNL A   1      36.922  32.448  40.061  1.00  0.00     0.124 S 
ATOM     83  O   UNL A   1      37.428  31.130  40.429  1.00  0.00    -0.237 OA
ATOM     84  O   UNL A   1      36.937  33.459  41.112  1.00  0.00    -0.237 OA
ATOM     85  O   UNL A   1      35.730  32.445  39.217  1.00  0.00    -0.744 OA
ENDBRANCH  78  82
ENDBRANCH  51  75
BRANCH  63  86
ATOM     86  C   UNL A   1      44.092  28.129  34.700  1.00  0.00     0.023 A 
ATOM     87  C   UNL A   1      44.014  26.915  35.404  1.00  0.00     0.031 A 
ATOM     88  C   UNL A   1      45.333  28.789  34.652  1.00  0.00     0.131 A 
ATOM     89  C   UNL A   1      45.142  26.427  36.080  1.00  0.00     0.055 A 
ATOM     90  C   UNL A   1      46.467  28.267  35.277  1.00  0.00     0.041 A 
ATOM     91  F   UNL A   1      45.463  29.952  33.996  1.00  0.00    -0.206 F 
ATOM     92  C   UNL A   1      46.372  27.086  36.007  1.00  0.00     0.022 A 
BRANCH  89  93
ATOM     93  S   UNL A   1      44.960  24.961  37.134  1.00  0.00     0.124 S 
ATOM     94  O   UNL A   1      44.008  25.425  38.137  1.00  0.00    -0.237 OA
ATOM     95  O   UNL A   1      44.460  23.962  36.194  1.00  0.00    -0.237 OA
ATOM     96  O   UNL A   1      46.315  24.722  37.628  1.00  0.00    -0.744 OA
ENDBRANCH  89  93
ENDBRANCH  63  86
ENDBRANCH  37  38
ENDBRANCH  29  32
ENDBRANCH  27  28
ENDBRANCH  26  27
ENDBRANCH  25  26
ENDBRANCH   1  25
TORSDOF 20
ENDMDL
MODEL 3
REMARK VINA RESULT:     -10.6      6.093     11.394
REMARK SMILES Cc1cccc(C[N@@H+](C)C[C@]2(C(=O)NCCCCCCNC(=O)c3ccc(-c4c5nc(c(-c6cc(S(=O)(=O)[O-])ccc6F)c6ccc([nH]6)c(-c6cc(S(=O)(=O)[O-])ccc6F)c6nc(c(-c7cc(S(=O)(=O)[O-])ccc7F)c7ccc4[nH]7)C=C6)C=C5)cc3)CCOC2)n1
REMARK SMILES IDX 17 1 16 2 15 3 14 4 12 5 13 6 11 8 87 9 90 10 88 11 89 12
REMARK SMILES IDX 10 13 8 14 9 15 7 17 6 18 1 19 2 20 3 21 91 22 4 23 5 24
REMARK SMILES IDX 18 25 19 26 20 27 21 28 22 29 23 31 24 32 25 33 86 34 26 35
REMARK SMILES IDX 85 36 27 37 28 38 29 39 79 40 30 41 84 42 78 43 80 44 31 45
REMARK SMILES IDX 83 46 77 47 76 48 32 50 64 51 44 52 63 53 45 54 48 55 62 56
REMARK SMILES IDX 81 57 46 58 47 59 61 61 82 62 49 63 33 64 34 65 42 66 35 67
REMARK SMILES IDX 41 68 43 69 40 70 36 71 37 72 38 73 39 74 65 75 66 76 74 77
REMARK SMILES IDX 67 78 73 79 75 80 72 81 68 82 69 83 70 84 71 85 50 86 51 87
REMARK SMILES IDX 59 88 52 89 58 90 60 91 57 92 53 93 54 94 55 95 56 96
REMARK H PARENT 14 7 8 16 21 30 80 49 48 60
REMARK Flexibility Score: inf
ROOT
ATOM      1  C   UNL A   1      40.054  22.770  27.063  1.00  0.00     0.002 C 
ENDROOT
BRANCH   1   2
ATOM      2  C   UNL A   1      39.065  22.166  26.047  1.00  0.00     0.021 C 
BRANCH   2   3
ATOM      3  C   UNL A   1      37.708  22.871  25.968  1.00  0.00     0.116 C 
BRANCH   3   4
ATOM      4  N   UNL A   1      37.429  23.226  24.595  1.00  0.00    -0.355 N 
ATOM      5  C   UNL A   1      36.391  22.978  23.772  1.00  0.00     0.234 C 
ATOM      6  O   UNL A   1      36.709  23.018  22.584  1.00  0.00    -0.274 OA
ATOM      7  H   UNL A   1      38.144  23.757  24.175  1.00  0.00     0.163 HD
BRANCH   5   8
ATOM      8  C   UNL A   1      34.955  22.730  24.248  1.00  0.00     0.123 C 
ATOM      9  C   UNL A   1      34.738  21.368  24.915  1.00  0.00     0.054 C 
ATOM     10  C   UNL A   1      34.670  23.729  25.397  1.00  0.00     0.183 C 
ATOM     11  C   UNL A   1      33.975  21.688  26.184  1.00  0.00     0.161 C 
ATOM     12  O   UNL A   1      34.426  22.975  26.592  1.00  0.00    -0.380 OA
BRANCH   8  13
ATOM     13  C   UNL A   1      33.898  23.013  23.119  1.00  0.00     0.281 C 
BRANCH  13  14
ATOM     14  N   UNL A   1      32.641  23.766  23.275  1.00  0.00    -0.331 N 
ATOM     15  C   UNL A   1      31.430  22.964  23.315  1.00  0.00     0.333 C 
ATOM     16  H   UNL A   1      32.793  24.137  24.213  1.00  0.00     0.348 HD
BRANCH  14  17
ATOM     17  C   UNL A   1      32.453  24.954  22.405  1.00  0.00     0.319 C 
BRANCH  17  18
ATOM     18  C   UNL A   1      31.799  26.177  23.038  1.00  0.00     0.095 A 
ATOM     19  C   UNL A   1      31.585  27.586  26.423  1.00  0.00     0.067 C 
ATOM     20  C   UNL A   1      31.421  27.459  24.942  1.00  0.00     0.038 A 
ATOM     21  C   UNL A   1      30.744  28.430  24.212  1.00  0.00     0.023 A 
ATOM     22  N   UNL A   1      31.954  26.351  24.375  1.00  0.00    -0.252 NA
ATOM     23  C   UNL A   1      30.578  28.241  22.849  1.00  0.00     0.004 A 
ATOM     24  C   UNL A   1      31.093  27.094  22.258  1.00  0.00     0.030 A 
ENDBRANCH  17  18
ENDBRANCH  14  17
ENDBRANCH  13  14
ENDBRANCH   8  13
ENDBRANCH   5   8
ENDBRANCH   3   4
ENDBRANCH   2   3
ENDBRANCH   1   2
BRANCH   1  25
ATOM     25  C   UNL A   1      40.939  21.770  27.815  1.00  0.00     0.002 C 
BRANCH  25  26
ATOM     26  C   UNL A   1      40.992  20.369  27.212  1.00  0.00     0.021 C 
BRANCH  26  27
ATOM     27  C   UNL A   1      42.292  19.624  27.466  1.00  0.00     0.116 C 
BRANCH  27  28
ATOM     28  N   UNL A   1      42.910  19.160  26.237  1.00  0.00    -0.352 N 
ATOM     29  C   UNL A   1      43.589  19.902  25.299  1.00  0.00     0.251 C 
ATOM     30  H   UNL A   1      42.833  18.197  26.052  1.00  0.00     0.163 HD
ATOM     31  O   UNL A   1      43.904  19.404  24.227  1.00  0.00    -0.269 OA
BRANCH  29  32
ATOM     32  C   UNL A   1      43.896  21.319  25.597  1.00  0.00     0.039 A 
ATOM     33  C   UNL A   1      43.211  22.320  24.906  1.00  0.00     0.014 A 
ATOM     34  C   UNL A   1      44.825  21.652  26.588  1.00  0.00     0.014 A 
ATOM     35  C   UNL A   1      43.417  23.657  25.250  1.00  0.00     0.010 A 
ATOM     36  C   UNL A   1      44.971  22.979  26.979  1.00  0.00     0.010 A 
ATOM     37  C   UNL A   1      44.275  23.996  26.310  1.00  0.00    -0.014 A 
BRANCH  37  38
ATOM     38  C   UNL A   1      44.476  25.411  26.715  1.00  0.00     0.031 A 
ATOM     39  C   UNL A   1      45.844  26.028  26.619  1.00  0.00     0.074 A 
ATOM     40  C   UNL A   1      43.444  26.120  27.215  1.00  0.00     0.049 A 
ATOM     41  N   UNL A   1      46.246  27.218  26.986  1.00  0.00    -0.248 NA
ATOM     42  C   UNL A   1      46.909  25.179  26.063  1.00  0.00     0.031 C 
ATOM     43  C   UNL A   1      42.079  25.618  27.390  1.00  0.00     0.029 A 
ATOM     44  N   UNL A   1      43.382  27.412  27.673  1.00  0.00    -0.354 N 
ATOM     45  C   UNL A   1      47.609  27.258  26.713  1.00  0.00     0.074 A 
ATOM     46  C   UNL A   1      47.976  25.949  26.217  1.00  0.00     0.031 C 
ATOM     47  C   UNL A   1      41.311  26.599  27.893  1.00  0.00     0.029 A 
ATOM     48  C   UNL A   1      42.134  27.783  28.117  1.00  0.00     0.049 A 
ATOM     49  H   UNL A   1      44.159  28.017  27.684  1.00  0.00     0.167 HD
ATOM     50  C   UNL A   1      48.469  28.300  26.835  1.00  0.00     0.034 A 
ATOM     51  C   UNL A   1      41.705  28.943  28.654  1.00  0.00     0.034 A 
ATOM     52  C   UNL A   1      48.085  29.602  27.323  1.00  0.00     0.049 A 
ATOM     53  C   UNL A   1      42.688  30.078  28.812  1.00  0.00     0.074 A 
ATOM     54  C   UNL A   1      48.862  30.739  27.452  1.00  0.00     0.029 A 
ATOM     55  N   UNL A   1      46.811  29.941  27.764  1.00  0.00    -0.354 N 
ATOM     56  N   UNL A   1      43.965  30.113  28.509  1.00  0.00    -0.248 NA
ATOM     57  C   UNL A   1      42.168  31.331  29.374  1.00  0.00     0.031 C 
ATOM     58  C   UNL A   1      48.079  31.745  28.030  1.00  0.00     0.029 A 
ATOM     59  C   UNL A   1      46.790  31.260  28.191  1.00  0.00     0.049 A 
ATOM     60  H   UNL A   1      46.038  29.332  27.773  1.00  0.00     0.167 HD
ATOM     61  C   UNL A   1      44.390  31.404  28.812  1.00  0.00     0.074 A 
ATOM     62  C   UNL A   1      43.231  32.117  29.308  1.00  0.00     0.031 C 
ATOM     63  C   UNL A   1      45.625  31.954  28.689  1.00  0.00     0.034 A 
BRANCH  50  64
ATOM     64  C   UNL A   1      49.910  28.055  26.453  1.00  0.00     0.023 A 
ATOM     65  C   UNL A   1      50.340  28.136  25.116  1.00  0.00     0.031 A 
ATOM     66  C   UNL A   1      50.859  27.703  27.428  1.00  0.00     0.131 A 
ATOM     67  C   UNL A   1      51.658  27.789  24.781  1.00  0.00     0.055 A 
ATOM     68  C   UNL A   1      52.192  27.442  27.098  1.00  0.00     0.041 A 
ATOM     69  F   UNL A   1      50.506  27.588  28.718  1.00  0.00    -0.206 F 
ATOM     70  C   UNL A   1      52.593  27.470  25.766  1.00  0.00     0.022 A 
BRANCH  67  71
ATOM     71  S   UNL A   1      52.086  27.617  23.028  1.00  0.00     0.124 S 
ATOM     72  O   UNL A   1      50.767  27.504  22.412  1.00  0.00    -0.237 OA
ATOM     73  O   UNL A   1      52.815  28.852  22.758  1.00  0.00    -0.237 OA
ATOM     74  O   UNL A   1      52.890  26.397  22.989  1.00  0.00    -0.744 OA
ENDBRANCH  67  71
ENDBRANCH  50  64
BRANCH  51  75
ATOM     75  C   UNL A   1      40.288  29.101  29.088  1.00  0.00     0.023 A 
ATOM     76  C   UNL A   1      39.932  29.001  30.443  1.00  0.00     0.031 A 
ATOM     77  C   UNL A   1      39.259  29.302  28.151  1.00  0.00     0.131 A 
ATOM     78  C   UNL A   1      38.579  29.046  30.817  1.00  0.00     0.055 A 
ATOM     79  C   UNL A   1      37.920  29.402  28.534  1.00  0.00     0.041 A 
ATOM     80  F   UNL A   1      39.543  29.410  26.843  1.00  0.00    -0.206 F 
ATOM     81  C   UNL A   1      37.573  29.259  29.873  1.00  0.00     0.022 A 
BRANCH  78  82
ATOM     82  S   UNL A   1      38.148  28.726  32.550  1.00  0.00     0.124 S 
ATOM     83  O   UNL A   1      39.182  29.473  33.256  1.00  0.00    -0.237 OA
ATOM     84  O   UNL A   1      36.796  29.269  32.629  1.00  0.00    -0.237 OA
ATOM     85  O   UNL A   1      38.242  27.273  32.660  1.00  0.00    -0.744 OA
ENDBRANCH  78  82
ENDBRANCH  51  75
BRANCH  63  86
ATOM     86  C   UNL A   1      45.765  33.412  29.051  1.00  0.00     0.023 A 
ATOM     87  C   UNL A   1      45.574  34.432  28.103  1.00  0.00     0.031 A 
ATOM     88  C   UNL A   1      46.109  33.783  30.363  1.00  0.00     0.131 A 
ATOM     89  C   UNL A   1      45.784  35.770  28.466  1.00  0.00     0.055 A 
ATOM     90  C   UNL A   1      46.258  35.120  30.733  1.00  0.00     0.041 A 
ATOM     91  F   UNL A   1      46.306  32.850  31.308  1.00  0.00    -0.206 F 
ATOM     92  C   UNL A   1      46.108  36.122  29.779  1.00  0.00     0.022 A 
BRANCH  89  93
ATOM     93  S   UNL A   1      45.715  37.044  27.175  1.00  0.00     0.124 S 
ATOM     94  O   UNL A   1      46.409  38.158  27.811  1.00  0.00    -0.237 OA
ATOM     95  O   UNL A   1      46.416  36.403  26.067  1.00  0.00    -0.237 OA
ATOM     96  O   UNL A   1      44.281  37.244  26.967  1.00  0.00    -0.744 OA
ENDBRANCH  89  93
ENDBRANCH  63  86
ENDBRANCH  37  38
ENDBRANCH  29  32
ENDBRANCH  27  28
ENDBRANCH  26  27
ENDBRANCH  25  26
ENDBRANCH   1  25
TORSDOF 20
ENDMDL
