MODEL 1
REMARK VINA RESULT:     -12.3      0.000      0.000
REMARK SMILES CCc1cc(OC(F)(F)F)cc2c1O[C@@H](C(F)(F)F)C(C(=O)NCCCCCCNC(=O)c1ccc(-c3c4nc(c(-c5cc(S(=O)(=O)[O-])ccc5F)c5ccc([nH]5)c(-c5cc(S(=O)(=O)[O-])ccc5F)c5nc(c(-c6cc(S(=O)(=O)[O-])ccc6F)c6ccc3[nH]6)C=C5)C=C4)cc1)=C2
REMARK SMILES IDX 27 1 26 2 25 3 24 4 23 5 21 6 22 7 20 9 3 10 4 11 13 12 5 13
REMARK SMILES IDX 12 14 14 15 11 16 96 17 15 18 2 19 1 20 6 21 7 22 8 23 9 24
REMARK SMILES IDX 10 25 16 26 17 27 18 28 19 29 28 30 29 31 30 32 31 33 32 35
REMARK SMILES IDX 33 36 34 37 95 38 35 39 94 40 36 41 37 42 38 43 88 44 39 45
REMARK SMILES IDX 93 46 87 47 89 48 40 49 92 50 86 51 85 52 41 54 73 55 53 56
REMARK SMILES IDX 72 57 54 58 57 59 71 60 90 61 55 62 56 63 70 65 91 66 58 67
REMARK SMILES IDX 42 68 43 69 51 70 44 71 50 72 52 73 49 74 45 75 46 76 47 77
REMARK SMILES IDX 48 78 74 79 75 80 83 81 76 82 82 83 84 84 81 85 77 86 78 87
REMARK SMILES IDX 79 88 80 89 59 90 60 91 68 92 61 93 67 94 69 95 66 96 62 97
REMARK SMILES IDX 63 98 64 99 65 100
REMARK H PARENT 23 8 30 34 89 53 57 64
REMARK Flexibility Score: inf
ROOT
ATOM      1  C   UNL A   1      36.943  20.858  25.124  1.00  0.00     0.002 C 
ENDROOT
BRANCH   1   2
ATOM      2  C   UNL A   1      36.872  22.035  24.144  1.00  0.00     0.002 C 
BRANCH   2   3
ATOM      3  C   UNL A   1      35.616  22.907  24.284  1.00  0.00     0.021 C 
BRANCH   3   4
ATOM      4  C   UNL A   1      34.955  23.222  22.936  1.00  0.00     0.116 C 
BRANCH   4   5
ATOM      5  N   UNL A   1      33.604  22.684  22.928  1.00  0.00    -0.352 N 
ATOM      6  C   UNL A   1      32.412  23.177  23.355  1.00  0.00     0.251 C 
ATOM      7  O   UNL A   1      31.468  22.395  23.440  1.00  0.00    -0.270 OA
ATOM      8  H   UNL A   1      33.541  21.784  22.536  1.00  0.00     0.163 HD
BRANCH   6   9
ATOM      9  C   UNL A   1      32.182  24.619  23.627  1.00  0.00     0.067 C 
ATOM     10  C   UNL A   1      31.270  28.555  24.836  1.00  0.00    -0.002 A 
ATOM     11  C   UNL A   1      30.630  29.406  23.912  1.00  0.00     0.054 A 
ATOM     12  C   UNL A   1      31.616  27.254  24.424  1.00  0.00     0.131 A 
ATOM     13  C   UNL A   1      30.301  28.964  22.630  1.00  0.00     0.130 A 
ATOM     14  C   UNL A   1      31.321  26.817  23.133  1.00  0.00     0.021 A 
ATOM     15  O   UNL A   1      32.182  26.430  25.353  1.00  0.00    -0.475 OA
ATOM     16  C   UNL A   1      30.657  27.671  22.246  1.00  0.00     0.058 A 
ATOM     17  C   UNL A   1      31.615  25.448  22.739  1.00  0.00     0.025 C 
ATOM     18  C   UNL A   1      32.769  25.169  24.923  1.00  0.00     0.314 C 
BRANCH  10  19
ATOM     19  C   UNL A   1      31.647  29.051  26.218  1.00  0.00     0.036 C 
ATOM     20  C   UNL A   1      32.103  30.504  26.296  1.00  0.00     0.009 C 
ENDBRANCH  10  19
BRANCH  13  21
ATOM     21  O   UNL A   1      29.638  29.671  21.669  1.00  0.00    -0.406 OA
BRANCH  21  22
ATOM     22  C   UNL A   1      28.285  30.016  21.907  1.00  0.00     0.573 C 
ATOM     23  F   UNL A   1      27.572  28.948  22.327  1.00  0.00    -0.132 F 
ATOM     24  F   UNL A   1      28.197  31.001  22.827  1.00  0.00    -0.132 F 
ATOM     25  F   UNL A   1      27.738  30.464  20.757  1.00  0.00    -0.132 F 
ENDBRANCH  21  22
ENDBRANCH  13  21
BRANCH  18  26
ATOM     26  C   UNL A   1      32.766  24.233  26.155  1.00  0.00     0.429 C 
ATOM     27  F   UNL A   1      31.750  24.490  27.010  1.00  0.00    -0.167 F 
ATOM     28  F   UNL A   1      32.587  22.937  25.776  1.00  0.00    -0.167 F 
ATOM     29  F   UNL A   1      33.927  24.276  26.847  1.00  0.00    -0.167 F 
ENDBRANCH  18  26
ENDBRANCH   6   9
ENDBRANCH   4   5
ENDBRANCH   3   4
ENDBRANCH   2   3
ENDBRANCH   1   2
BRANCH   1  30
ATOM     30  C   UNL A   1      38.180  19.968  24.971  1.00  0.00     0.021 C 
BRANCH  30  31
ATOM     31  C   UNL A   1      39.358  20.382  25.848  1.00  0.00     0.116 C 
BRANCH  31  32
ATOM     32  N   UNL A   1      40.317  19.297  25.994  1.00  0.00    -0.352 N 
ATOM     33  C   UNL A   1      41.683  19.356  26.107  1.00  0.00     0.251 C 
ATOM     34  H   UNL A   1      39.929  18.392  26.016  1.00  0.00     0.163 HD
ATOM     35  O   UNL A   1      42.354  18.342  25.949  1.00  0.00    -0.269 OA
BRANCH  33  36
ATOM     36  C   UNL A   1      42.337  20.649  26.404  1.00  0.00     0.039 A 
ATOM     37  C   UNL A   1      42.795  21.439  25.347  1.00  0.00     0.014 A 
ATOM     38  C   UNL A   1      42.502  21.076  27.725  1.00  0.00     0.014 A 
ATOM     39  C   UNL A   1      43.360  22.688  25.614  1.00  0.00     0.010 A 
ATOM     40  C   UNL A   1      43.002  22.350  27.985  1.00  0.00     0.010 A 
ATOM     41  C   UNL A   1      43.431  23.171  26.931  1.00  0.00    -0.014 A 
BRANCH  41  42
ATOM     42  C   UNL A   1      43.932  24.538  27.226  1.00  0.00     0.031 A 
ATOM     43  C   UNL A   1      42.991  25.595  27.737  1.00  0.00     0.074 A 
ATOM     44  C   UNL A   1      45.218  24.843  26.966  1.00  0.00     0.049 A 
ATOM     45  N   UNL A   1      43.218  26.862  27.966  1.00  0.00    -0.248 NA
ATOM     46  C   UNL A   1      41.608  25.173  28.000  1.00  0.00     0.031 C 
ATOM     47  C   UNL A   1      46.216  23.908  26.438  1.00  0.00     0.029 A 
ATOM     48  N   UNL A   1      45.909  26.021  27.096  1.00  0.00    -0.354 N 
ATOM     49  C   UNL A   1      42.004  27.394  28.391  1.00  0.00     0.074 A 
ATOM     50  C   UNL A   1      41.035  26.320  28.330  1.00  0.00     0.031 C 
ATOM     51  C   UNL A   1      47.391  24.544  26.311  1.00  0.00     0.029 A 
ATOM     52  C   UNL A   1      47.222  25.941  26.694  1.00  0.00     0.049 A 
ATOM     53  H   UNL A   1      45.501  26.847  27.446  1.00  0.00     0.167 HD
ATOM     54  C   UNL A   1      41.732  28.655  28.812  1.00  0.00     0.034 A 
ATOM     55  C   UNL A   1      48.176  26.889  26.623  1.00  0.00     0.034 A 
ATOM     56  C   UNL A   1      42.716  29.711  28.867  1.00  0.00     0.049 A 
ATOM     57  C   UNL A   1      47.837  28.295  27.051  1.00  0.00     0.074 A 
ATOM     58  C   UNL A   1      42.562  31.007  29.327  1.00  0.00     0.029 A 
ATOM     59  N   UNL A   1      44.032  29.597  28.438  1.00  0.00    -0.354 N 
ATOM     60  N   UNL A   1      46.697  28.770  27.499  1.00  0.00    -0.248 NA
ATOM     61  C   UNL A   1      48.915  29.288  26.971  1.00  0.00     0.031 C 
ATOM     62  C   UNL A   1      43.759  31.698  29.103  1.00  0.00     0.029 A 
ATOM     63  C   UNL A   1      44.688  30.811  28.584  1.00  0.00     0.049 A 
ATOM     64  H   UNL A   1      44.441  28.775  28.083  1.00  0.00     0.167 HD
ATOM     65  C   UNL A   1      46.931  30.113  27.779  1.00  0.00     0.074 A 
ATOM     66  C   UNL A   1      48.324  30.364  27.469  1.00  0.00     0.031 C 
ATOM     67  C   UNL A   1      46.074  31.054  28.252  1.00  0.00     0.034 A 
BRANCH  54  68
ATOM     68  C   UNL A   1      40.309  28.963  29.214  1.00  0.00     0.023 A 
ATOM     69  C   UNL A   1      39.897  28.934  30.558  1.00  0.00     0.031 A 
ATOM     70  C   UNL A   1      39.345  29.276  28.239  1.00  0.00     0.131 A 
ATOM     71  C   UNL A   1      38.546  29.136  30.882  1.00  0.00     0.055 A 
ATOM     72  C   UNL A   1      38.019  29.559  28.576  1.00  0.00     0.041 A 
ATOM     73  F   UNL A   1      39.671  29.298  26.937  1.00  0.00    -0.206 F 
ATOM     74  C   UNL A   1      37.610  29.474  29.904  1.00  0.00     0.022 A 
BRANCH  71  75
ATOM     75  S   UNL A   1      38.005  28.804  32.581  1.00  0.00     0.124 S 
ATOM     76  O   UNL A   1      36.639  29.322  32.563  1.00  0.00    -0.237 OA
ATOM     77  O   UNL A   1      38.137  27.354  32.678  1.00  0.00    -0.237 OA
ATOM     78  O   UNL A   1      38.944  29.572  33.396  1.00  0.00    -0.744 OA
ENDBRANCH  71  75
ENDBRANCH  54  68
BRANCH  55  79
ATOM     79  C   UNL A   1      49.536  26.556  26.106  1.00  0.00     0.023 A 
ATOM     80  C   UNL A   1      49.976  27.037  24.863  1.00  0.00     0.031 A 
ATOM     81  C   UNL A   1      50.400  25.715  26.830  1.00  0.00     0.131 A 
ATOM     82  C   UNL A   1      51.222  26.635  24.358  1.00  0.00     0.055 A 
ATOM     83  C   UNL A   1      51.663  25.365  26.350  1.00  0.00     0.041 A 
ATOM     84  F   UNL A   1      50.032  25.229  28.027  1.00  0.00    -0.206 F 
ATOM     85  C   UNL A   1      52.075  25.815  25.099  1.00  0.00     0.022 A 
BRANCH  82  86
ATOM     86  S   UNL A   1      51.674  27.127  22.672  1.00  0.00     0.124 S 
ATOM     87  O   UNL A   1      52.190  28.474  22.885  1.00  0.00    -0.237 OA
ATOM     88  O   UNL A   1      52.657  26.111  22.314  1.00  0.00    -0.237 OA
ATOM     89  O   UNL A   1      50.407  27.050  21.945  1.00  0.00    -0.744 OA
ENDBRANCH  82  86
ENDBRANCH  55  79
BRANCH  67  90
ATOM     90  C   UNL A   1      46.639  32.433  28.495  1.00  0.00     0.023 A 
ATOM     91  C   UNL A   1      46.722  33.389  27.468  1.00  0.00     0.031 A 
ATOM     92  C   UNL A   1      47.115  32.791  29.769  1.00  0.00     0.131 A 
ATOM     93  C   UNL A   1      47.323  34.633  27.716  1.00  0.00     0.055 A 
ATOM     94  C   UNL A   1      47.651  34.053  30.028  1.00  0.00     0.041 A 
ATOM     95  F   UNL A   1      47.065  31.916  30.787  1.00  0.00    -0.206 F 
ATOM     96  C   UNL A   1      47.770  34.977  28.994  1.00  0.00     0.022 A 
BRANCH  93  97
ATOM     97  S   UNL A   1      47.605  35.757  26.322  1.00  0.00     0.124 S 
ATOM     98  O   UNL A   1      48.337  34.906  25.389  1.00  0.00    -0.237 OA
ATOM     99  O   UNL A   1      46.246  36.112  25.927  1.00  0.00    -0.237 OA
ATOM    100  O   UNL A   1      48.384  36.845  26.910  1.00  0.00    -0.744 OA
ENDBRANCH  93  97
ENDBRANCH  67  90
ENDBRANCH  41  42
ENDBRANCH  33  36
ENDBRANCH  31  32
ENDBRANCH  30  31
ENDBRANCH   1  30
TORSDOF 20
ENDMDL
MODEL 2
REMARK VINA RESULT:     -12.2      1.677      2.558
REMARK SMILES CCc1cc(OC(F)(F)F)cc2c1O[C@@H](C(F)(F)F)C(C(=O)NCCCCCCNC(=O)c1ccc(-c3c4nc(c(-c5cc(S(=O)(=O)[O-])ccc5F)c5ccc([nH]5)c(-c5cc(S(=O)(=O)[O-])ccc5F)c5nc(c(-c6cc(S(=O)(=O)[O-])ccc6F)c6ccc3[nH]6)C=C5)C=C4)cc1)=C2
REMARK SMILES IDX 27 1 26 2 25 3 24 4 23 5 21 6 22 7 20 9 3 10 4 11 13 12 5 13
REMARK SMILES IDX 12 14 14 15 11 16 96 17 15 18 2 19 1 20 6 21 7 22 8 23 9 24
REMARK SMILES IDX 10 25 16 26 17 27 18 28 19 29 28 30 29 31 30 32 31 33 32 35
REMARK SMILES IDX 33 36 34 37 95 38 35 39 94 40 36 41 37 42 38 43 88 44 39 45
REMARK SMILES IDX 93 46 87 47 89 48 40 49 92 50 86 51 85 52 41 54 73 55 53 56
REMARK SMILES IDX 72 57 54 58 57 59 71 60 90 61 55 62 56 63 70 65 91 66 58 67
REMARK SMILES IDX 42 68 43 69 51 70 44 71 50 72 52 73 49 74 45 75 46 76 47 77
REMARK SMILES IDX 48 78 74 79 75 80 83 81 76 82 82 83 84 84 81 85 77 86 78 87
REMARK SMILES IDX 79 88 80 89 59 90 60 91 68 92 61 93 67 94 69 95 66 96 62 97
REMARK SMILES IDX 63 98 64 99 65 100
REMARK H PARENT 23 8 30 34 89 53 57 64
REMARK Flexibility Score: inf
ROOT
ATOM      1  C   UNL A   1      36.873  21.901  24.679  1.00  0.00     0.002 C 
ENDROOT
BRANCH   1   2
ATOM      2  C   UNL A   1      36.920  23.034  25.711  1.00  0.00     0.002 C 
BRANCH   2   3
ATOM      3  C   UNL A   1      35.581  23.321  26.406  1.00  0.00     0.021 C 
BRANCH   3   4
ATOM      4  C   UNL A   1      34.403  23.396  25.426  1.00  0.00     0.116 C 
BRANCH   4   5
ATOM      5  N   UNL A   1      33.186  22.985  26.108  1.00  0.00    -0.352 N 
ATOM      6  C   UNL A   1      32.127  23.677  26.602  1.00  0.00     0.251 C 
ATOM      7  O   UNL A   1      31.353  23.081  27.347  1.00  0.00    -0.270 OA
ATOM      8  H   UNL A   1      33.117  22.012  26.236  1.00  0.00     0.163 HD
BRANCH   6   9
ATOM      9  C   UNL A   1      31.819  25.077  26.209  1.00  0.00     0.067 C 
ATOM     10  C   UNL A   1      31.147  28.924  24.618  1.00  0.00    -0.002 A 
ATOM     11  C   UNL A   1      31.654  30.036  25.321  1.00  0.00     0.054 A 
ATOM     12  C   UNL A   1      31.331  27.641  25.167  1.00  0.00     0.131 A 
ATOM     13  C   UNL A   1      32.364  29.875  26.512  1.00  0.00     0.130 A 
ATOM     14  C   UNL A   1      32.009  27.475  26.373  1.00  0.00     0.021 A 
ATOM     15  O   UNL A   1      30.882  26.576  24.440  1.00  0.00    -0.475 OA
ATOM     16  C   UNL A   1      32.530  28.592  27.035  1.00  0.00     0.058 A 
ATOM     17  C   UNL A   1      32.259  26.141  26.895  1.00  0.00     0.025 C 
ATOM     18  C   UNL A   1      30.834  25.259  25.060  1.00  0.00     0.314 C 
BRANCH  10  19
ATOM     19  C   UNL A   1      30.355  29.108  23.339  1.00  0.00     0.036 C 
ATOM     20  C   UNL A   1      29.156  30.047  23.435  1.00  0.00     0.009 C 
ENDBRANCH  10  19
BRANCH  13  21
ATOM     21  O   UNL A   1      32.946  30.861  27.254  1.00  0.00    -0.406 OA
BRANCH  21  22
ATOM     22  C   UNL A   1      34.347  30.803  27.461  1.00  0.00     0.573 C 
ATOM     23  F   UNL A   1      34.955  30.069  26.505  1.00  0.00    -0.132 F 
ATOM     24  F   UNL A   1      34.880  32.045  27.477  1.00  0.00    -0.132 F 
ATOM     25  F   UNL A   1      34.590  30.225  28.657  1.00  0.00    -0.132 F 
ENDBRANCH  21  22
ENDBRANCH  13  21
BRANCH  18  26
ATOM     26  C   UNL A   1      30.885  24.224  23.911  1.00  0.00     0.429 C 
ATOM     27  F   UNL A   1      30.010  24.496  22.917  1.00  0.00    -0.167 F 
ATOM     28  F   UNL A   1      32.109  24.225  23.314  1.00  0.00    -0.167 F 
ATOM     29  F   UNL A   1      30.665  22.959  24.338  1.00  0.00    -0.167 F 
ENDBRANCH  18  26
ENDBRANCH   6   9
ENDBRANCH   4   5
ENDBRANCH   3   4
ENDBRANCH   2   3
ENDBRANCH   1   2
BRANCH   1  30
ATOM     30  C   UNL A   1      37.808  20.725  24.973  1.00  0.00     0.021 C 
BRANCH  30  31
ATOM     31  C   UNL A   1      38.957  21.063  25.919  1.00  0.00     0.116 C 
BRANCH  31  32
ATOM     32  N   UNL A   1      39.899  19.960  26.024  1.00  0.00    -0.352 N 
ATOM     33  C   UNL A   1      41.269  19.993  26.107  1.00  0.00     0.251 C 
ATOM     34  H   UNL A   1      39.497  19.061  26.037  1.00  0.00     0.163 HD
ATOM     35  O   UNL A   1      41.918  18.971  25.916  1.00  0.00    -0.269 OA
BRANCH  33  36
ATOM     36  C   UNL A   1      41.952  21.269  26.413  1.00  0.00     0.039 A 
ATOM     37  C   UNL A   1      42.254  22.146  25.369  1.00  0.00     0.014 A 
ATOM     38  C   UNL A   1      42.298  21.593  27.728  1.00  0.00     0.014 A 
ATOM     39  C   UNL A   1      42.845  23.380  25.654  1.00  0.00     0.010 A 
ATOM     40  C   UNL A   1      42.823  22.850  28.017  1.00  0.00     0.010 A 
ATOM     41  C   UNL A   1      43.097  23.758  26.983  1.00  0.00    -0.014 A 
BRANCH  41  42
ATOM     42  C   UNL A   1      43.627  25.106  27.314  1.00  0.00     0.031 A 
ATOM     43  C   UNL A   1      42.719  26.156  27.893  1.00  0.00     0.074 A 
ATOM     44  C   UNL A   1      44.910  25.402  27.027  1.00  0.00     0.049 A 
ATOM     45  N   UNL A   1      42.972  27.410  28.162  1.00  0.00    -0.248 NA
ATOM     46  C   UNL A   1      41.337  25.745  28.181  1.00  0.00     0.031 C 
ATOM     47  C   UNL A   1      45.877  24.474  26.434  1.00  0.00     0.029 A 
ATOM     48  N   UNL A   1      45.623  26.565  27.181  1.00  0.00    -0.354 N 
ATOM     49  C   UNL A   1      41.780  27.943  28.644  1.00  0.00     0.074 A 
ATOM     50  C   UNL A   1      40.792  26.887  28.572  1.00  0.00     0.031 C 
ATOM     51  C   UNL A   1      47.057  25.097  26.295  1.00  0.00     0.029 A 
ATOM     52  C   UNL A   1      46.922  26.481  26.736  1.00  0.00     0.049 A 
ATOM     53  H   UNL A   1      45.239  27.382  27.573  1.00  0.00     0.167 HD
ATOM     54  C   UNL A   1      41.541  29.191  29.120  1.00  0.00     0.034 A 
ATOM     55  C   UNL A   1      47.888  27.417  26.671  1.00  0.00     0.034 A 
ATOM     56  C   UNL A   1      42.542  30.229  29.186  1.00  0.00     0.049 A 
ATOM     57  C   UNL A   1      47.584  28.810  27.163  1.00  0.00     0.074 A 
ATOM     58  C   UNL A   1      42.422  31.509  29.698  1.00  0.00     0.029 A 
ATOM     59  N   UNL A   1      43.843  30.113  28.713  1.00  0.00    -0.354 N 
ATOM     60  N   UNL A   1      46.465  29.284  27.662  1.00  0.00    -0.248 NA
ATOM     61  C   UNL A   1      48.674  29.790  27.088  1.00  0.00     0.031 C 
ATOM     62  C   UNL A   1      43.622  32.190  29.464  1.00  0.00     0.029 A 
ATOM     63  C   UNL A   1      44.521  31.311  28.884  1.00  0.00     0.049 A 
ATOM     64  H   UNL A   1      44.228  29.299  28.314  1.00  0.00     0.167 HD
ATOM     65  C   UNL A   1      46.728  30.612  27.986  1.00  0.00     0.074 A 
ATOM     66  C   UNL A   1      48.115  30.854  27.644  1.00  0.00     0.031 C 
ATOM     67  C   UNL A   1      45.900  31.546  28.520  1.00  0.00     0.034 A 
BRANCH  54  68
ATOM     68  C   UNL A   1      40.134  29.504  29.577  1.00  0.00     0.023 A 
ATOM     69  C   UNL A   1      39.801  29.588  30.940  1.00  0.00     0.031 A 
ATOM     70  C   UNL A   1      39.109  29.706  28.637  1.00  0.00     0.131 A 
ATOM     71  C   UNL A   1      38.466  29.789  31.324  1.00  0.00     0.055 A 
ATOM     72  C   UNL A   1      37.797  29.990  29.025  1.00  0.00     0.041 A 
ATOM     73  F   UNL A   1      39.360  29.616  27.321  1.00  0.00    -0.206 F 
ATOM     74  C   UNL A   1      37.467  30.018  30.377  1.00  0.00     0.022 A 
BRANCH  71  75
ATOM     75  S   UNL A   1      38.032  29.602  33.075  1.00  0.00     0.124 S 
ATOM     76  O   UNL A   1      37.207  30.786  33.304  1.00  0.00    -0.237 OA
ATOM     77  O   UNL A   1      37.331  28.323  33.092  1.00  0.00    -0.237 OA
ATOM     78  O   UNL A   1      39.326  29.614  33.753  1.00  0.00    -0.744 OA
ENDBRANCH  71  75
ENDBRANCH  54  68
BRANCH  55  79
ATOM     79  C   UNL A   1      49.227  27.084  26.102  1.00  0.00     0.023 A 
ATOM     80  C   UNL A   1      49.580  27.484  24.804  1.00  0.00     0.031 A 
ATOM     81  C   UNL A   1      50.156  26.322  26.833  1.00  0.00     0.131 A 
ATOM     82  C   UNL A   1      50.808  27.080  24.257  1.00  0.00     0.055 A 
ATOM     83  C   UNL A   1      51.401  25.973  26.305  1.00  0.00     0.041 A 
ATOM     84  F   UNL A   1      49.871  25.916  28.080  1.00  0.00    -0.206 F 
ATOM     85  C   UNL A   1      51.727  26.341  25.004  1.00  0.00     0.022 A 
BRANCH  82  86
ATOM     86  S   UNL A   1      51.149  27.459  22.517  1.00  0.00     0.124 S 
ATOM     87  O   UNL A   1      51.131  28.918  22.522  1.00  0.00    -0.237 OA
ATOM     88  O   UNL A   1      52.451  26.833  22.320  1.00  0.00    -0.237 OA
ATOM     89  O   UNL A   1      50.039  26.823  21.807  1.00  0.00    -0.744 OA
ENDBRANCH  82  86
ENDBRANCH  55  79
BRANCH  67  90
ATOM     90  C   UNL A   1      46.493  32.907  28.798  1.00  0.00     0.023 A 
ATOM     91  C   UNL A   1      46.427  33.948  27.856  1.00  0.00     0.031 A 
ATOM     92  C   UNL A   1      47.148  33.160  30.016  1.00  0.00     0.131 A 
ATOM     93  C   UNL A   1      47.058  35.174  28.122  1.00  0.00     0.055 A 
ATOM     94  C   UNL A   1      47.715  34.402  30.304  1.00  0.00     0.041 A 
ATOM     95  F   UNL A   1      47.246  32.201  30.952  1.00  0.00    -0.206 F 
ATOM     96  C   UNL A   1      47.684  35.414  29.347  1.00  0.00     0.022 A 
BRANCH  93  97
ATOM     97  S   UNL A   1      47.134  36.417  26.804  1.00  0.00     0.124 S 
ATOM     98  O   UNL A   1      47.764  35.670  25.720  1.00  0.00    -0.237 OA
ATOM     99  O   UNL A   1      45.728  36.755  26.610  1.00  0.00    -0.237 OA
ATOM    100  O   UNL A   1      47.953  37.481  27.383  1.00  0.00    -0.744 OA
ENDBRANCH  93  97
ENDBRANCH  67  90
ENDBRANCH  41  42
ENDBRANCH  33  36
ENDBRANCH  31  32
ENDBRANCH  30  31
ENDBRANCH   1  30
TORSDOF 20
ENDMDL
MODEL 3
REMARK VINA RESULT:     -12.0      5.905     10.417
REMARK SMILES CCc1cc(OC(F)(F)F)cc2c1O[C@@H](C(F)(F)F)C(C(=O)NCCCCCCNC(=O)c1ccc(-c3c4nc(c(-c5cc(S(=O)(=O)[O-])ccc5F)c5ccc([nH]5)c(-c5cc(S(=O)(=O)[O-])ccc5F)c5nc(c(-c6cc(S(=O)(=O)[O-])ccc6F)c6ccc3[nH]6)C=C5)C=C4)cc1)=C2
REMARK SMILES IDX 27 1 26 2 25 3 24 4 23 5 21 6 22 7 20 9 3 10 4 11 13 12 5 13
REMARK SMILES IDX 12 14 14 15 11 16 96 17 15 18 2 19 1 20 6 21 7 22 8 23 9 24
REMARK SMILES IDX 10 25 16 26 17 27 18 28 19 29 28 30 29 31 30 32 31 33 32 35
REMARK SMILES IDX 33 36 34 37 95 38 35 39 94 40 36 41 37 42 38 43 88 44 39 45
REMARK SMILES IDX 93 46 87 47 89 48 40 49 92 50 86 51 85 52 41 54 73 55 53 56
REMARK SMILES IDX 72 57 54 58 57 59 71 60 90 61 55 62 56 63 70 65 91 66 58 67
REMARK SMILES IDX 42 68 43 69 51 70 44 71 50 72 52 73 49 74 45 75 46 76 47 77
REMARK SMILES IDX 48 78 74 79 75 80 83 81 76 82 82 83 84 84 81 85 77 86 78 87
REMARK SMILES IDX 79 88 80 89 59 90 60 91 68 92 61 93 67 94 69 95 66 96 62 97
REMARK SMILES IDX 63 98 64 99 65 100
REMARK H PARENT 23 8 30 34 89 53 57 64
REMARK Flexibility Score: inf
ROOT
ATOM      1  C   UNL A   1      35.843  32.978  28.118  1.00  0.00     0.002 C 
ENDROOT
BRANCH   1   2
ATOM      2  C   UNL A   1      35.813  31.472  27.833  1.00  0.00     0.002 C 
BRANCH   2   3
ATOM      3  C   UNL A   1      34.406  30.884  27.653  1.00  0.00     0.021 C 
BRANCH   3   4
ATOM      4  C   UNL A   1      34.416  29.367  27.424  1.00  0.00     0.116 C 
BRANCH   4   5
ATOM      5  N   UNL A   1      33.143  28.809  27.852  1.00  0.00    -0.352 N 
ATOM      6  C   UNL A   1      32.275  27.940  27.273  1.00  0.00     0.251 C 
ATOM      7  O   UNL A   1      31.155  27.837  27.767  1.00  0.00    -0.270 OA
ATOM      8  H   UNL A   1      32.854  29.125  28.738  1.00  0.00     0.163 HD
BRANCH   6   9
ATOM      9  C   UNL A   1      32.650  27.053  26.141  1.00  0.00     0.067 C 
ATOM     10  C   UNL A   1      33.250  24.674  22.712  1.00  0.00    -0.002 A 
ATOM     11  C   UNL A   1      33.560  23.310  22.890  1.00  0.00     0.054 A 
ATOM     12  C   UNL A   1      33.091  25.482  23.853  1.00  0.00     0.131 A 
ATOM     13  C   UNL A   1      33.665  22.754  24.166  1.00  0.00     0.130 A 
ATOM     14  C   UNL A   1      33.228  24.941  25.130  1.00  0.00     0.021 A 
ATOM     15  O   UNL A   1      32.734  26.785  23.656  1.00  0.00    -0.475 OA
ATOM     16  C   UNL A   1      33.505  23.578  25.281  1.00  0.00     0.058 A 
ATOM     17  C   UNL A   1      32.990  25.767  26.304  1.00  0.00     0.025 C 
ATOM     18  C   UNL A   1      32.787  27.715  24.775  1.00  0.00     0.314 C 
BRANCH  10  19
ATOM     19  C   UNL A   1      33.163  25.276  21.323  1.00  0.00     0.036 C 
ATOM     20  C   UNL A   1      31.804  25.852  20.938  1.00  0.00     0.009 C 
ENDBRANCH  10  19
BRANCH  13  21
ATOM     21  O   UNL A   1      33.907  21.445  24.468  1.00  0.00    -0.406 OA
BRANCH  21  22
ATOM     22  C   UNL A   1      35.203  21.092  24.917  1.00  0.00     0.573 C 
ATOM     23  F   UNL A   1      36.155  21.809  24.282  1.00  0.00    -0.132 F 
ATOM     24  F   UNL A   1      35.316  21.281  26.250  1.00  0.00    -0.132 F 
ATOM     25  F   UNL A   1      35.415  19.784  24.657  1.00  0.00    -0.132 F 
ENDBRANCH  21  22
ENDBRANCH  13  21
BRANCH  18  26
ATOM     26  C   UNL A   1      31.808  28.867  24.444  1.00  0.00     0.429 C 
ATOM     27  F   UNL A   1      31.792  29.183  23.129  1.00  0.00    -0.167 F 
ATOM     28  F   UNL A   1      30.527  28.510  24.737  1.00  0.00    -0.167 F 
ATOM     29  F   UNL A   1      32.067  29.992  25.150  1.00  0.00    -0.167 F 
ENDBRANCH  18  26
ENDBRANCH   6   9
ENDBRANCH   4   5
ENDBRANCH   3   4
ENDBRANCH   2   3
ENDBRANCH   1   2
BRANCH   1  30
ATOM     30  C   UNL A   1      34.479  33.672  28.049  1.00  0.00     0.021 C 
BRANCH  30  31
ATOM     31  C   UNL A   1      34.517  35.159  28.390  1.00  0.00     0.116 C 
BRANCH  31  32
ATOM     32  N   UNL A   1      33.570  35.485  29.445  1.00  0.00    -0.352 N 
ATOM     33  C   UNL A   1      33.500  35.003  30.728  1.00  0.00     0.251 C 
ATOM     34  H   UNL A   1      32.880  36.146  29.203  1.00  0.00     0.163 HD
ATOM     35  O   UNL A   1      32.484  35.177  31.392  1.00  0.00    -0.269 OA
BRANCH  33  36
ATOM     36  C   UNL A   1      34.648  34.262  31.295  1.00  0.00     0.039 A 
ATOM     37  C   UNL A   1      34.460  32.953  31.742  1.00  0.00     0.014 A 
ATOM     38  C   UNL A   1      35.906  34.865  31.389  1.00  0.00     0.014 A 
ATOM     39  C   UNL A   1      35.550  32.225  32.224  1.00  0.00     0.010 A 
ATOM     40  C   UNL A   1      37.004  34.115  31.803  1.00  0.00     0.010 A 
ATOM     41  C   UNL A   1      36.838  32.786  32.221  1.00  0.00    -0.014 A 
BRANCH  41  42
ATOM     42  C   UNL A   1      38.026  31.993  32.630  1.00  0.00     0.031 A 
ATOM     43  C   UNL A   1      38.743  32.311  33.913  1.00  0.00     0.074 A 
ATOM     44  C   UNL A   1      38.495  31.033  31.810  1.00  0.00     0.049 A 
ATOM     45  N   UNL A   1      39.844  31.795  34.395  1.00  0.00    -0.248 NA
ATOM     46  C   UNL A   1      38.157  33.368  34.750  1.00  0.00     0.031 C 
ATOM     47  C   UNL A   1      37.901  30.657  30.524  1.00  0.00     0.029 A 
ATOM     48  N   UNL A   1      39.584  30.204  31.923  1.00  0.00    -0.354 N 
ATOM     49  C   UNL A   1      40.089  32.469  35.587  1.00  0.00     0.074 A 
ATOM     50  C   UNL A   1      39.052  33.470  35.721  1.00  0.00     0.031 C 
ATOM     51  C   UNL A   1      38.619  29.662  29.981  1.00  0.00     0.029 A 
ATOM     52  C   UNL A   1      39.754  29.363  30.848  1.00  0.00     0.049 A 
ATOM     53  H   UNL A   1      40.186  30.212  32.702  1.00  0.00     0.167 HD
ATOM     54  C   UNL A   1      41.076  32.256  36.493  1.00  0.00     0.034 A 
ATOM     55  C   UNL A   1      40.724  28.468  30.581  1.00  0.00     0.034 A 
ATOM     56  C   UNL A   1      42.100  31.249  36.341  1.00  0.00     0.049 A 
ATOM     57  C   UNL A   1      41.837  28.282  31.581  1.00  0.00     0.074 A 
ATOM     58  C   UNL A   1      43.114  30.912  37.221  1.00  0.00     0.029 A 
ATOM     59  N   UNL A   1      42.250  30.425  35.233  1.00  0.00    -0.354 N 
ATOM     60  N   UNL A   1      42.027  28.893  32.728  1.00  0.00    -0.248 NA
ATOM     61  C   UNL A   1      42.861  27.283  31.253  1.00  0.00     0.031 C 
ATOM     62  C   UNL A   1      43.920  29.944  36.613  1.00  0.00     0.029 A 
ATOM     63  C   UNL A   1      43.362  29.612  35.389  1.00  0.00     0.049 A 
ATOM     64  H   UNL A   1      41.653  30.419  34.450  1.00  0.00     0.167 HD
ATOM     65  C   UNL A   1      43.179  28.330  33.270  1.00  0.00     0.074 A 
ATOM     66  C   UNL A   1      43.625  27.319  32.334  1.00  0.00     0.031 C 
ATOM     67  C   UNL A   1      43.809  28.619  34.438  1.00  0.00     0.034 A 
BRANCH  54  68
ATOM     68  C   UNL A   1      41.109  33.151  37.711  1.00  0.00     0.023 A 
ATOM     69  C   UNL A   1      40.444  32.807  38.900  1.00  0.00     0.031 A 
ATOM     70  C   UNL A   1      41.803  34.374  37.677  1.00  0.00     0.131 A 
ATOM     71  C   UNL A   1      40.421  33.707  39.977  1.00  0.00     0.055 A 
ATOM     72  C   UNL A   1      41.847  35.227  38.782  1.00  0.00     0.041 A 
ATOM     73  F   UNL A   1      42.439  34.768  36.563  1.00  0.00    -0.206 F 
ATOM     74  C   UNL A   1      41.141  34.902  39.936  1.00  0.00     0.022 A 
BRANCH  71  75
ATOM     75  S   UNL A   1      39.319  33.358  41.374  1.00  0.00     0.124 S 
ATOM     76  O   UNL A   1      40.111  33.839  42.503  1.00  0.00    -0.237 OA
ATOM     77  O   UNL A   1      38.133  34.142  41.044  1.00  0.00    -0.237 OA
ATOM     78  O   UNL A   1      39.144  31.908  41.318  1.00  0.00    -0.744 OA
ENDBRANCH  71  75
ENDBRANCH  54  68
BRANCH  55  79
ATOM     79  C   UNL A   1      40.706  27.691  29.306  1.00  0.00     0.023 A 
ATOM     80  C   UNL A   1      41.602  27.987  28.267  1.00  0.00     0.031 A 
ATOM     81  C   UNL A   1      39.762  26.671  29.092  1.00  0.00     0.131 A 
ATOM     82  C   UNL A   1      41.506  27.305  27.045  1.00  0.00     0.055 A 
ATOM     83  C   UNL A   1      39.708  25.956  27.894  1.00  0.00     0.041 A 
ATOM     84  F   UNL A   1      38.883  26.345  30.053  1.00  0.00    -0.206 F 
ATOM     85  C   UNL A   1      40.575  26.281  26.856  1.00  0.00     0.022 A 
BRANCH  82  86
ATOM     86  S   UNL A   1      42.557  27.840  25.667  1.00  0.00     0.124 S 
ATOM     87  O   UNL A   1      42.012  29.161  25.374  1.00  0.00    -0.237 OA
ATOM     88  O   UNL A   1      43.884  27.813  26.272  1.00  0.00    -0.237 OA
ATOM     89  O   UNL A   1      42.319  26.824  24.643  1.00  0.00    -0.744 OA
ENDBRANCH  82  86
ENDBRANCH  55  79
BRANCH  67  90
ATOM     90  C   UNL A   1      45.032  27.800  34.776  1.00  0.00     0.023 A 
ATOM     91  C   UNL A   1      44.940  26.600  35.502  1.00  0.00     0.031 A 
ATOM     92  C   UNL A   1      46.309  28.236  34.380  1.00  0.00     0.131 A 
ATOM     93  C   UNL A   1      46.107  25.909  35.862  1.00  0.00     0.055 A 
ATOM     94  C   UNL A   1      47.462  27.510  34.682  1.00  0.00     0.041 A 
ATOM     95  F   UNL A   1      46.458  29.378  33.688  1.00  0.00    -0.206 F 
ATOM     96  C   UNL A   1      47.365  26.346  35.440  1.00  0.00     0.022 A 
BRANCH  93  97
ATOM     97  S   UNL A   1      45.967  24.485  36.975  1.00  0.00     0.124 S 
ATOM     98  O   UNL A   1      47.119  24.670  37.851  1.00  0.00    -0.237 OA
ATOM     99  O   UNL A   1      44.660  24.695  37.589  1.00  0.00    -0.237 OA
ATOM    100  O   UNL A   1      46.050  23.336  36.075  1.00  0.00    -0.744 OA
ENDBRANCH  93  97
ENDBRANCH  67  90
ENDBRANCH  41  42
ENDBRANCH  33  36
ENDBRANCH  31  32
ENDBRANCH  30  31
ENDBRANCH   1  30
TORSDOF 20
ENDMDL
