MODEL 1
REMARK VINA RESULT:     -11.2      0.000      0.000
REMARK SMILES C[C@@H](Oc1cncc(C(=O)NCCCCCCNC(=O)c2ccc(-c3c4nc(c(-c5cc(S(=O)(=O)[O-])ccc5F)c5ccc([nH]5)c(-c5cc(S(=O)(=O)[O-])ccc5F)c5nc(c(-c6cc(S(=O)(=O)[O-])ccc6F)c6ccc3[nH]6)C=C5)C=C4)cc2)n1)C(F)(F)F
REMARK SMILES IDX 14 1 13 2 12 3 11 4 9 5 10 6 8 8 4 9 5 10 84 11 6 12 7 13
REMARK SMILES IDX 3 14 2 15 1 16 85 17 86 18 87 19 88 20 15 21 16 22 17 23
REMARK SMILES IDX 18 24 19 25 20 27 21 28 22 29 83 30 23 31 82 32 24 33 25 34
REMARK SMILES IDX 26 35 76 36 27 37 81 38 75 39 77 40 28 41 80 42 74 43 73 44
REMARK SMILES IDX 29 46 61 47 41 48 60 49 42 50 45 51 59 52 78 53 43 54 44 55
REMARK SMILES IDX 58 57 79 58 46 59 30 60 31 61 39 62 32 63 38 64 40 65 37 66
REMARK SMILES IDX 33 67 34 68 35 69 36 70 62 71 63 72 71 73 64 74 70 75 72 76
REMARK SMILES IDX 69 77 65 78 66 79 67 80 68 81 47 82 48 83 56 84 49 85 55 86
REMARK SMILES IDX 57 87 54 88 50 89 51 90 52 91 53 92
REMARK H PARENT 11 7 18 26 77 45 45 56
REMARK Flexibility Score: inf
ROOT
ATOM      1  C   UNL A   1      32.417  29.995  26.878  1.00  0.00     0.002 C 
ENDROOT
BRANCH   1   2
ATOM      2  C   UNL A   1      31.761  28.721  27.428  1.00  0.00     0.021 C 
BRANCH   2   3
ATOM      3  C   UNL A   1      32.366  27.429  26.885  1.00  0.00     0.116 C 
BRANCH   3   4
ATOM      4  N   UNL A   1      31.385  26.359  26.915  1.00  0.00    -0.351 N 
ATOM      5  C   UNL A   1      30.567  25.837  25.946  1.00  0.00     0.271 C 
ATOM      6  O   UNL A   1      29.744  24.988  26.300  1.00  0.00    -0.267 OA
ATOM      7  H   UNL A   1      31.287  25.930  27.797  1.00  0.00     0.163 HD
BRANCH   5   8
ATOM      8  C   UNL A   1      30.656  26.198  24.501  1.00  0.00     0.150 A 
ATOM      9  C   UNL A   1      30.181  27.552  22.713  1.00  0.00     0.233 A 
ATOM     10  C   UNL A   1      31.179  26.927  21.976  1.00  0.00     0.179 A 
ATOM     11  N   UNL A   1      29.902  27.203  23.984  1.00  0.00    -0.205 NA
ATOM     12  N   UNL A   1      31.893  25.880  22.449  1.00  0.00    -0.257 NA
ATOM     13  C   UNL A   1      31.614  25.540  23.734  1.00  0.00     0.145 A 
BRANCH   9  14
ATOM     14  O   UNL A   1      29.596  28.703  22.261  1.00  0.00    -0.464 OA
BRANCH  14  15
ATOM     15  C   UNL A   1      28.712  29.317  23.222  1.00  0.00     0.277 C 
ATOM     16  C   UNL A   1      27.289  28.791  23.012  1.00  0.00     0.063 C 
BRANCH  15  17
ATOM     17  C   UNL A   1      28.722  30.835  23.007  1.00  0.00     0.425 C 
ATOM     18  F   UNL A   1      27.481  31.283  22.700  1.00  0.00    -0.167 F 
ATOM     19  F   UNL A   1      29.121  31.492  24.117  1.00  0.00    -0.167 F 
ATOM     20  F   UNL A   1      29.540  31.189  21.990  1.00  0.00    -0.167 F 
ENDBRANCH  15  17
ENDBRANCH  14  15
ENDBRANCH   9  14
ENDBRANCH   5   8
ENDBRANCH   3   4
ENDBRANCH   2   3
ENDBRANCH   1   2
BRANCH   1  21
ATOM     21  C   UNL A   1      31.460  30.964  26.175  1.00  0.00     0.002 C 
BRANCH  21  22
ATOM     22  C   UNL A   1      31.461  32.389  26.734  1.00  0.00     0.021 C 
BRANCH  22  23
ATOM     23  C   UNL A   1      32.803  32.844  27.297  1.00  0.00     0.116 C 
BRANCH  23  24
ATOM     24  N   UNL A   1      32.749  34.214  27.783  1.00  0.00    -0.352 N 
ATOM     25  C   UNL A   1      33.447  34.794  28.812  1.00  0.00     0.251 C 
ATOM     26  H   UNL A   1      32.124  34.806  27.308  1.00  0.00     0.163 HD
ATOM     27  O   UNL A   1      33.108  35.900  29.231  1.00  0.00    -0.269 OA
BRANCH  25  28
ATOM     28  C   UNL A   1      34.586  34.078  29.423  1.00  0.00     0.039 A 
ATOM     29  C   UNL A   1      35.883  34.393  29.013  1.00  0.00     0.014 A 
ATOM     30  C   UNL A   1      34.375  33.101  30.401  1.00  0.00     0.014 A 
ATOM     31  C   UNL A   1      36.972  33.766  29.624  1.00  0.00     0.010 A 
ATOM     32  C   UNL A   1      35.462  32.538  31.063  1.00  0.00     0.010 A 
ATOM     33  C   UNL A   1      36.773  32.860  30.679  1.00  0.00    -0.014 A 
BRANCH  33  34
ATOM     34  C   UNL A   1      37.923  32.235  31.383  1.00  0.00     0.031 A 
ATOM     35  C   UNL A   1      38.671  31.096  30.745  1.00  0.00     0.074 A 
ATOM     36  C   UNL A   1      38.260  32.659  32.617  1.00  0.00     0.049 A 
ATOM     37  N   UNL A   1      39.653  30.376  31.225  1.00  0.00    -0.248 NA
ATOM     38  C   UNL A   1      38.233  30.692  29.401  1.00  0.00     0.031 C 
ATOM     39  C   UNL A   1      37.585  33.729  33.354  1.00  0.00     0.029 A 
ATOM     40  N   UNL A   1      39.247  32.238  33.472  1.00  0.00    -0.354 N 
ATOM     41  C   UNL A   1      39.948  29.435  30.245  1.00  0.00     0.074 A 
ATOM     42  C   UNL A   1      38.988  29.629  29.178  1.00  0.00     0.031 C 
ATOM     43  C   UNL A   1      38.193  33.896  34.539  1.00  0.00     0.029 A 
ATOM     44  C   UNL A   1      39.265  32.915  34.671  1.00  0.00     0.049 A 
ATOM     45  H   UNL A   1      39.884  31.521  33.250  1.00  0.00     0.167 HD
ATOM     46  C   UNL A   1      40.944  28.514  30.223  1.00  0.00     0.034 A 
ATOM     47  C   UNL A   1      40.043  32.752  35.760  1.00  0.00     0.034 A 
ATOM     48  C   UNL A   1      41.889  28.333  31.299  1.00  0.00     0.049 A 
ATOM     49  C   UNL A   1      41.115  31.692  35.736  1.00  0.00     0.074 A 
ATOM     50  C   UNL A   1      42.958  27.457  31.370  1.00  0.00     0.029 A 
ATOM     51  N   UNL A   1      41.871  29.031  32.502  1.00  0.00    -0.354 N 
ATOM     52  N   UNL A   1      41.412  30.839  34.782  1.00  0.00    -0.248 NA
ATOM     53  C   UNL A   1      41.963  31.582  36.928  1.00  0.00     0.031 C 
ATOM     54  C   UNL A   1      43.536  27.570  32.639  1.00  0.00     0.029 A 
ATOM     55  C   UNL A   1      42.888  28.581  33.331  1.00  0.00     0.049 A 
ATOM     56  H   UNL A   1      41.229  29.741  32.732  1.00  0.00     0.167 HD
ATOM     57  C   UNL A   1      42.502  30.111  35.250  1.00  0.00     0.074 A 
ATOM     58  C   UNL A   1      42.818  30.638  36.562  1.00  0.00     0.031 C 
ATOM     59  C   UNL A   1      43.185  29.104  34.647  1.00  0.00     0.034 A 
BRANCH  46  60
ATOM     60  C   UNL A   1      41.035  27.621  29.006  1.00  0.00     0.023 A 
ATOM     61  C   UNL A   1      42.037  27.800  28.035  1.00  0.00     0.031 A 
ATOM     62  C   UNL A   1      40.088  26.606  28.789  1.00  0.00     0.131 A 
ATOM     63  C   UNL A   1      42.015  27.042  26.855  1.00  0.00     0.055 A 
ATOM     64  C   UNL A   1      40.128  25.790  27.655  1.00  0.00     0.041 A 
ATOM     65  F   UNL A   1      39.093  26.398  29.666  1.00  0.00    -0.206 F 
ATOM     66  C   UNL A   1      41.083  26.019  26.670  1.00  0.00     0.022 A 
BRANCH  63  67
ATOM     67  S   UNL A   1      43.110  27.532  25.493  1.00  0.00     0.124 S 
ATOM     68  O   UNL A   1      44.114  28.327  26.195  1.00  0.00    -0.237 OA
ATOM     69  O   UNL A   1      43.560  26.246  24.973  1.00  0.00    -0.237 OA
ATOM     70  O   UNL A   1      42.233  28.293  24.606  1.00  0.00    -0.744 OA
ENDBRANCH  63  67
ENDBRANCH  46  60
BRANCH  47  71
ATOM     71  C   UNL A   1      39.824  33.596  36.971  1.00  0.00     0.023 A 
ATOM     72  C   UNL A   1      39.124  33.104  38.084  1.00  0.00     0.031 A 
ATOM     73  C   UNL A   1      40.293  34.920  37.021  1.00  0.00     0.131 A 
ATOM     74  C   UNL A   1      38.876  33.944  39.180  1.00  0.00     0.055 A 
ATOM     75  C   UNL A   1      40.093  35.734  38.137  1.00  0.00     0.041 A 
ATOM     76  F   UNL A   1      40.970  35.440  35.984  1.00  0.00    -0.206 F 
ATOM     77  C   UNL A   1      39.369  35.250  39.222  1.00  0.00     0.022 A 
BRANCH  74  78
ATOM     78  S   UNL A   1      37.822  33.332  40.525  1.00  0.00     0.124 S 
ATOM     79  O   UNL A   1      36.691  32.779  39.788  1.00  0.00    -0.237 OA
ATOM     80  O   UNL A   1      38.698  32.365  41.180  1.00  0.00    -0.237 OA
ATOM     81  O   UNL A   1      37.532  34.535  41.304  1.00  0.00    -0.744 OA
ENDBRANCH  74  78
ENDBRANCH  47  71
BRANCH  59  82
ATOM     82  C   UNL A   1      44.372  28.536  35.388  1.00  0.00     0.023 A 
ATOM     83  C   UNL A   1      44.259  27.414  36.227  1.00  0.00     0.031 A 
ATOM     84  C   UNL A   1      45.639  29.135  35.256  1.00  0.00     0.131 A 
ATOM     85  C   UNL A   1      45.377  26.963  36.947  1.00  0.00     0.055 A 
ATOM     86  C   UNL A   1      46.761  28.641  35.921  1.00  0.00     0.041 A 
ATOM     87  F   UNL A   1      45.807  30.212  34.472  1.00  0.00    -0.206 F 
ATOM     88  C   UNL A   1      46.631  27.557  36.784  1.00  0.00     0.022 A 
BRANCH  85  89
ATOM     89  S   UNL A   1      45.148  25.653  38.181  1.00  0.00     0.124 S 
ATOM     90  O   UNL A   1      44.026  24.904  37.624  1.00  0.00    -0.237 OA
ATOM     91  O   UNL A   1      46.440  24.976  38.162  1.00  0.00    -0.237 OA
ATOM     92  O   UNL A   1      44.852  26.388  39.410  1.00  0.00    -0.744 OA
ENDBRANCH  85  89
ENDBRANCH  59  82
ENDBRANCH  33  34
ENDBRANCH  25  28
ENDBRANCH  23  24
ENDBRANCH  22  23
ENDBRANCH  21  22
ENDBRANCH   1  21
TORSDOF 19
ENDMDL
MODEL 2
REMARK VINA RESULT:     -11.0      1.516      7.971
REMARK SMILES C[C@@H](Oc1cncc(C(=O)NCCCCCCNC(=O)c2ccc(-c3c4nc(c(-c5cc(S(=O)(=O)[O-])ccc5F)c5ccc([nH]5)c(-c5cc(S(=O)(=O)[O-])ccc5F)c5nc(c(-c6cc(S(=O)(=O)[O-])ccc6F)c6ccc3[nH]6)C=C5)C=C4)cc2)n1)C(F)(F)F
REMARK SMILES IDX 14 1 13 2 12 3 11 4 9 5 10 6 8 8 4 9 5 10 84 11 6 12 7 13
REMARK SMILES IDX 3 14 2 15 1 16 85 17 86 18 87 19 88 20 15 21 16 22 17 23
REMARK SMILES IDX 18 24 19 25 20 27 21 28 22 29 83 30 23 31 82 32 24 33 25 34
REMARK SMILES IDX 26 35 76 36 27 37 81 38 75 39 77 40 28 41 80 42 74 43 73 44
REMARK SMILES IDX 29 46 61 47 41 48 60 49 42 50 45 51 59 52 78 53 43 54 44 55
REMARK SMILES IDX 58 57 79 58 46 59 30 60 31 61 39 62 32 63 38 64 40 65 37 66
REMARK SMILES IDX 33 67 34 68 35 69 36 70 62 71 63 72 71 73 64 74 70 75 72 76
REMARK SMILES IDX 69 77 65 78 66 79 67 80 68 81 47 82 48 83 56 84 49 85 55 86
REMARK SMILES IDX 57 87 54 88 50 89 51 90 52 91 53 92
REMARK H PARENT 11 7 18 26 77 45 45 56
REMARK Flexibility Score: inf
ROOT
ATOM      1  C   UNL A   1      34.950  32.023  28.597  1.00  0.00     0.002 C 
ENDROOT
BRANCH   1   2
ATOM      2  C   UNL A   1      34.965  30.828  27.634  1.00  0.00     0.021 C 
BRANCH   2   3
ATOM      3  C   UNL A   1      33.641  30.601  26.908  1.00  0.00     0.116 C 
BRANCH   3   4
ATOM      4  N   UNL A   1      32.885  29.542  27.553  1.00  0.00    -0.351 N 
ATOM      5  C   UNL A   1      32.011  28.608  27.059  1.00  0.00     0.271 C 
ATOM      6  O   UNL A   1      31.428  27.892  27.879  1.00  0.00    -0.267 OA
ATOM      7  H   UNL A   1      33.026  29.485  28.526  1.00  0.00     0.163 HD
BRANCH   5   8
ATOM      8  C   UNL A   1      31.771  28.381  25.604  1.00  0.00     0.150 A 
ATOM      9  C   UNL A   1      30.875  28.969  23.578  1.00  0.00     0.233 A 
ATOM     10  C   UNL A   1      31.709  28.056  22.945  1.00  0.00     0.179 A 
ATOM     11  N   UNL A   1      30.890  29.151  24.913  1.00  0.00    -0.205 NA
ATOM     12  N   UNL A   1      32.543  27.234  23.622  1.00  0.00    -0.257 NA
ATOM     13  C   UNL A   1      32.562  27.429  24.966  1.00  0.00     0.145 A 
BRANCH   9  14
ATOM     14  O   UNL A   1      30.167  29.888  22.852  1.00  0.00    -0.464 OA
BRANCH  14  15
ATOM     15  C   UNL A   1      28.838  30.126  23.363  1.00  0.00     0.277 C 
ATOM     16  C   UNL A   1      27.827  29.322  22.541  1.00  0.00     0.063 C 
BRANCH  15  17
ATOM     17  C   UNL A   1      28.516  31.620  23.230  1.00  0.00     0.425 C 
ATOM     18  F   UNL A   1      29.316  32.356  24.039  1.00  0.00    -0.167 F 
ATOM     19  F   UNL A   1      28.711  32.060  21.968  1.00  0.00    -0.167 F 
ATOM     20  F   UNL A   1      27.237  31.887  23.578  1.00  0.00    -0.167 F 
ENDBRANCH  15  17
ENDBRANCH  14  15
ENDBRANCH   9  14
ENDBRANCH   5   8
ENDBRANCH   3   4
ENDBRANCH   2   3
ENDBRANCH   1   2
BRANCH   1  21
ATOM     21  C   UNL A   1      35.441  33.344  27.996  1.00  0.00     0.002 C 
BRANCH  21  22
ATOM     22  C   UNL A   1      34.446  34.504  28.090  1.00  0.00     0.021 C 
BRANCH  22  23
ATOM     23  C   UNL A   1      33.169  34.177  28.857  1.00  0.00     0.116 C 
BRANCH  23  24
ATOM     24  N   UNL A   1      32.952  35.099  29.961  1.00  0.00    -0.352 N 
ATOM     25  C   UNL A   1      33.543  35.120  31.199  1.00  0.00     0.251 C 
ATOM     26  H   UNL A   1      32.288  35.806  29.797  1.00  0.00     0.163 HD
ATOM     27  O   UNL A   1      33.072  35.830  32.087  1.00  0.00    -0.269 OA
BRANCH  25  28
ATOM     28  C   UNL A   1      34.725  34.274  31.464  1.00  0.00     0.039 A 
ATOM     29  C   UNL A   1      35.995  34.773  31.168  1.00  0.00     0.014 A 
ATOM     30  C   UNL A   1      34.581  32.993  32.005  1.00  0.00     0.014 A 
ATOM     31  C   UNL A   1      37.125  34.008  31.468  1.00  0.00     0.010 A 
ATOM     32  C   UNL A   1      35.709  32.266  32.376  1.00  0.00     0.010 A 
ATOM     33  C   UNL A   1      36.994  32.763  32.106  1.00  0.00    -0.014 A 
BRANCH  33  34
ATOM     34  C   UNL A   1      38.188  31.967  32.491  1.00  0.00     0.031 A 
ATOM     35  C   UNL A   1      38.917  32.268  33.772  1.00  0.00     0.074 A 
ATOM     36  C   UNL A   1      38.647  31.008  31.662  1.00  0.00     0.049 A 
ATOM     37  N   UNL A   1      40.013  31.736  34.248  1.00  0.00    -0.248 NA
ATOM     38  C   UNL A   1      38.353  33.334  34.614  1.00  0.00     0.031 C 
ATOM     39  C   UNL A   1      38.049  30.651  30.374  1.00  0.00     0.029 A 
ATOM     40  N   UNL A   1      39.724  30.165  31.772  1.00  0.00    -0.354 N 
ATOM     41  C   UNL A   1      40.271  32.401  35.442  1.00  0.00     0.074 A 
ATOM     42  C   UNL A   1      39.259  33.428  35.574  1.00  0.00     0.031 C 
ATOM     43  C   UNL A   1      38.752  29.647  29.826  1.00  0.00     0.029 A 
ATOM     44  C   UNL A   1      39.880  29.323  30.694  1.00  0.00     0.049 A 
ATOM     45  H   UNL A   1      40.329  30.162  32.549  1.00  0.00     0.167 HD
ATOM     46  C   UNL A   1      41.245  32.161  36.356  1.00  0.00     0.034 A 
ATOM     47  C   UNL A   1      40.832  28.408  30.426  1.00  0.00     0.034 A 
ATOM     48  C   UNL A   1      42.248  31.135  36.204  1.00  0.00     0.049 A 
ATOM     49  C   UNL A   1      41.932  28.186  31.432  1.00  0.00     0.074 A 
ATOM     50  C   UNL A   1      43.258  30.780  37.081  1.00  0.00     0.029 A 
ATOM     51  N   UNL A   1      42.380  30.307  35.095  1.00  0.00    -0.354 N 
ATOM     52  N   UNL A   1      42.137  28.792  32.580  1.00  0.00    -0.248 NA
ATOM     53  C   UNL A   1      42.921  27.149  31.115  1.00  0.00     0.031 C 
ATOM     54  C   UNL A   1      44.044  29.795  36.472  1.00  0.00     0.029 A 
ATOM     55  C   UNL A   1      43.473  29.467  35.252  1.00  0.00     0.049 A 
ATOM     56  H   UNL A   1      41.784  30.315  34.311  1.00  0.00     0.167 HD
ATOM     57  C   UNL A   1      43.263  28.188  33.133  1.00  0.00     0.074 A 
ATOM     58  C   UNL A   1      43.679  27.160  32.201  1.00  0.00     0.031 C 
ATOM     59  C   UNL A   1      43.890  28.454  34.307  1.00  0.00     0.034 A 
BRANCH  46  60
ATOM     60  C   UNL A   1      41.276  33.045  37.583  1.00  0.00     0.023 A 
ATOM     61  C   UNL A   1      40.528  32.736  38.733  1.00  0.00     0.031 A 
ATOM     62  C   UNL A   1      42.029  34.232  37.592  1.00  0.00     0.131 A 
ATOM     63  C   UNL A   1      40.475  33.644  39.801  1.00  0.00     0.055 A 
ATOM     64  C   UNL A   1      42.048  35.086  38.698  1.00  0.00     0.041 A 
ATOM     65  F   UNL A   1      42.748  34.596  36.518  1.00  0.00    -0.206 F 
ATOM     66  C   UNL A   1      41.252  34.804  39.804  1.00  0.00     0.022 A 
BRANCH  63  67
ATOM     67  S   UNL A   1      39.244  33.371  41.106  1.00  0.00     0.124 S 
ATOM     68  O   UNL A   1      38.067  34.027  40.541  1.00  0.00    -0.237 OA
ATOM     69  O   UNL A   1      39.189  31.916  41.188  1.00  0.00    -0.237 OA
ATOM     70  O   UNL A   1      39.823  34.042  42.268  1.00  0.00    -0.744 OA
ENDBRANCH  63  67
ENDBRANCH  46  60
BRANCH  47  71
ATOM     71  C   UNL A   1      40.801  27.647  29.142  1.00  0.00     0.023 A 
ATOM     72  C   UNL A   1      41.702  27.934  28.105  1.00  0.00     0.031 A 
ATOM     73  C   UNL A   1      39.848  26.636  28.926  1.00  0.00     0.131 A 
ATOM     74  C   UNL A   1      41.603  27.249  26.884  1.00  0.00     0.055 A 
ATOM     75  C   UNL A   1      39.791  25.917  27.732  1.00  0.00     0.041 A 
ATOM     76  F   UNL A   1      38.964  26.320  29.887  1.00  0.00    -0.206 F 
ATOM     77  C   UNL A   1      40.665  26.231  26.696  1.00  0.00     0.022 A 
BRANCH  74  78
ATOM     78  S   UNL A   1      42.667  27.763  25.508  1.00  0.00     0.124 S 
ATOM     79  O   UNL A   1      42.646  26.578  24.657  1.00  0.00    -0.237 OA
ATOM     80  O   UNL A   1      41.960  28.934  24.998  1.00  0.00    -0.237 OA
ATOM     81  O   UNL A   1      43.947  28.045  26.155  1.00  0.00    -0.744 OA
ENDBRANCH  74  78
ENDBRANCH  47  71
BRANCH  59  82
ATOM     82  C   UNL A   1      45.071  27.585  34.670  1.00  0.00     0.023 A 
ATOM     83  C   UNL A   1      44.917  26.365  35.352  1.00  0.00     0.031 A 
ATOM     84  C   UNL A   1      46.376  27.991  34.332  1.00  0.00     0.131 A 
ATOM     85  C   UNL A   1      46.049  25.625  35.725  1.00  0.00     0.055 A 
ATOM     86  C   UNL A   1      47.493  27.216  34.646  1.00  0.00     0.041 A 
ATOM     87  F   UNL A   1      46.586  29.148  33.685  1.00  0.00    -0.206 F 
ATOM     88  C   UNL A   1      47.335  26.033  35.359  1.00  0.00     0.022 A 
BRANCH  85  89
ATOM     89  S   UNL A   1      45.828  24.171  36.789  1.00  0.00     0.124 S 
ATOM     90  O   UNL A   1      44.534  24.443  37.407  1.00  0.00    -0.237 OA
ATOM     91  O   UNL A   1      45.859  23.073  35.829  1.00  0.00    -0.237 OA
ATOM     92  O   UNL A   1      46.973  24.234  37.696  1.00  0.00    -0.744 OA
ENDBRANCH  85  89
ENDBRANCH  59  82
ENDBRANCH  33  34
ENDBRANCH  25  28
ENDBRANCH  23  24
ENDBRANCH  22  23
ENDBRANCH  21  22
ENDBRANCH   1  21
TORSDOF 19
ENDMDL
MODEL 3
REMARK VINA RESULT:     -11.0      3.592      8.765
REMARK SMILES C[C@@H](Oc1cncc(C(=O)NCCCCCCNC(=O)c2ccc(-c3c4nc(c(-c5cc(S(=O)(=O)[O-])ccc5F)c5ccc([nH]5)c(-c5cc(S(=O)(=O)[O-])ccc5F)c5nc(c(-c6cc(S(=O)(=O)[O-])ccc6F)c6ccc3[nH]6)C=C5)C=C4)cc2)n1)C(F)(F)F
REMARK SMILES IDX 14 1 13 2 12 3 11 4 9 5 10 6 8 8 4 9 5 10 84 11 6 12 7 13
REMARK SMILES IDX 3 14 2 15 1 16 85 17 86 18 87 19 88 20 15 21 16 22 17 23
REMARK SMILES IDX 18 24 19 25 20 27 21 28 22 29 83 30 23 31 82 32 24 33 25 34
REMARK SMILES IDX 26 35 76 36 27 37 81 38 75 39 77 40 28 41 80 42 74 43 73 44
REMARK SMILES IDX 29 46 61 47 41 48 60 49 42 50 45 51 59 52 78 53 43 54 44 55
REMARK SMILES IDX 58 57 79 58 46 59 30 60 31 61 39 62 32 63 38 64 40 65 37 66
REMARK SMILES IDX 33 67 34 68 35 69 36 70 62 71 63 72 71 73 64 74 70 75 72 76
REMARK SMILES IDX 69 77 65 78 66 79 67 80 68 81 47 82 48 83 56 84 49 85 55 86
REMARK SMILES IDX 57 87 54 88 50 89 51 90 52 91 53 92
REMARK H PARENT 11 7 18 26 77 45 45 56
REMARK Flexibility Score: inf
ROOT
ATOM      1  C   UNL A   1      31.893  25.469  26.392  1.00  0.00     0.002 C 
ENDROOT
BRANCH   1   2
ATOM      2  C   UNL A   1      32.195  23.967  26.472  1.00  0.00     0.021 C 
BRANCH   2   3
ATOM      3  C   UNL A   1      31.056  23.080  25.974  1.00  0.00     0.116 C 
BRANCH   3   4
ATOM      4  N   UNL A   1      31.559  22.090  25.038  1.00  0.00    -0.351 N 
ATOM      5  C   UNL A   1      32.102  22.206  23.784  1.00  0.00     0.271 C 
ATOM      6  O   UNL A   1      32.343  21.161  23.174  1.00  0.00    -0.267 OA
ATOM      7  H   UNL A   1      31.497  21.163  25.364  1.00  0.00     0.163 HD
BRANCH   5   8
ATOM      8  C   UNL A   1      32.459  23.510  23.151  1.00  0.00     0.150 A 
ATOM      9  C   UNL A   1      31.931  25.597  22.364  1.00  0.00     0.233 A 
ATOM     10  C   UNL A   1      33.281  25.927  22.338  1.00  0.00     0.179 A 
ATOM     11  N   UNL A   1      31.496  24.389  22.770  1.00  0.00    -0.205 NA
ATOM     12  N   UNL A   1      34.257  25.044  22.648  1.00  0.00    -0.257 NA
ATOM     13  C   UNL A   1      33.811  23.832  23.067  1.00  0.00     0.145 A 
BRANCH   9  14
ATOM     14  O   UNL A   1      30.974  26.560  22.199  1.00  0.00    -0.464 OA
BRANCH  14  15
ATOM     15  C   UNL A   1      30.652  27.268  23.414  1.00  0.00     0.277 C 
ATOM     16  C   UNL A   1      29.185  27.018  23.773  1.00  0.00     0.063 C 
BRANCH  15  17
ATOM     17  C   UNL A   1      30.863  28.770  23.184  1.00  0.00     0.425 C 
ATOM     18  F   UNL A   1      32.143  29.120  23.455  1.00  0.00    -0.167 F 
ATOM     19  F   UNL A   1      30.615  29.115  21.902  1.00  0.00    -0.167 F 
ATOM     20  F   UNL A   1      30.064  29.513  23.983  1.00  0.00    -0.167 F 
ENDBRANCH  15  17
ENDBRANCH  14  15
ENDBRANCH   9  14
ENDBRANCH   5   8
ENDBRANCH   3   4
ENDBRANCH   2   3
ENDBRANCH   1   2
BRANCH   1  21
ATOM     21  C   UNL A   1      33.108  26.360  26.109  1.00  0.00     0.002 C 
BRANCH  21  22
ATOM     22  C   UNL A   1      32.991  27.794  26.629  1.00  0.00     0.021 C 
BRANCH  22  23
ATOM     23  C   UNL A   1      34.066  28.743  26.110  1.00  0.00     0.116 C 
BRANCH  23  24
ATOM     24  N   UNL A   1      33.795  30.122  26.483  1.00  0.00    -0.352 N 
ATOM     25  C   UNL A   1      34.420  30.902  27.423  1.00  0.00     0.251 C 
ATOM     26  H   UNL A   1      33.061  30.556  25.993  1.00  0.00     0.163 HD
ATOM     27  O   UNL A   1      33.912  31.969  27.765  1.00  0.00    -0.269 OA
BRANCH  25  28
ATOM     28  C   UNL A   1      35.687  30.446  28.032  1.00  0.00     0.039 A 
ATOM     29  C   UNL A   1      35.643  29.729  29.230  1.00  0.00     0.014 A 
ATOM     30  C   UNL A   1      36.914  30.723  27.423  1.00  0.00     0.014 A 
ATOM     31  C   UNL A   1      36.827  29.242  29.786  1.00  0.00     0.010 A 
ATOM     32  C   UNL A   1      38.083  30.169  27.936  1.00  0.00     0.010 A 
ATOM     33  C   UNL A   1      38.054  29.426  29.127  1.00  0.00    -0.014 A 
BRANCH  33  34
ATOM     34  C   UNL A   1      39.314  28.857  29.672  1.00  0.00     0.031 A 
ATOM     35  C   UNL A   1      39.985  29.503  30.854  1.00  0.00     0.074 A 
ATOM     36  C   UNL A   1      39.880  27.792  29.071  1.00  0.00     0.049 A 
ATOM     37  N   UNL A   1      41.119  29.199  31.432  1.00  0.00    -0.248 NA
ATOM     38  C   UNL A   1      39.303  30.664  31.445  1.00  0.00     0.031 C 
ATOM     39  C   UNL A   1      39.345  27.105  27.895  1.00  0.00     0.029 A 
ATOM     40  N   UNL A   1      41.034  27.106  29.360  1.00  0.00    -0.354 N 
ATOM     41  C   UNL A   1      41.288  30.132  32.450  1.00  0.00     0.074 A 
ATOM     42  C   UNL A   1      40.177  31.056  32.357  1.00  0.00     0.031 C 
ATOM     43  C   UNL A   1      40.154  26.082  27.578  1.00  0.00     0.029 A 
ATOM     44  C   UNL A   1      41.292  26.070  28.492  1.00  0.00     0.049 A 
ATOM     45  H   UNL A   1      41.621  27.333  30.117  1.00  0.00     0.167 HD
ATOM     46  C   UNL A   1      42.263  30.196  33.391  1.00  0.00     0.034 A 
ATOM     47  C   UNL A   1      42.334  25.218  28.427  1.00  0.00     0.034 A 
ATOM     48  C   UNL A   1      43.366  29.267  33.463  1.00  0.00     0.049 A 
ATOM     49  C   UNL A   1      43.432  25.333  29.454  1.00  0.00     0.074 A 
ATOM     50  C   UNL A   1      44.390  29.215  34.394  1.00  0.00     0.029 A 
ATOM     51  N   UNL A   1      43.600  28.235  32.562  1.00  0.00    -0.354 N 
ATOM     52  N   UNL A   1      43.555  26.192  30.440  1.00  0.00    -0.248 NA
ATOM     53  C   UNL A   1      44.524  24.357  29.367  1.00  0.00     0.031 C 
ATOM     54  C   UNL A   1      45.280  28.206  34.012  1.00  0.00     0.029 A 
ATOM     55  C   UNL A   1      44.767  27.564  32.895  1.00  0.00     0.049 A 
ATOM     56  H   UNL A   1      43.021  28.012  31.798  1.00  0.00     0.167 HD
ATOM     57  C   UNL A   1      44.724  25.839  31.108  1.00  0.00     0.074 A 
ATOM     58  C   UNL A   1      45.258  24.680  30.422  1.00  0.00     0.031 C 
ATOM     59  C   UNL A   1      45.300  26.417  32.194  1.00  0.00     0.034 A 
BRANCH  46  60
ATOM     60  C   UNL A   1      42.184  31.325  34.394  1.00  0.00     0.023 A 
ATOM     61  C   UNL A   1      41.245  31.315  35.441  1.00  0.00     0.031 A 
ATOM     62  C   UNL A   1      43.028  32.443  34.283  1.00  0.00     0.131 A 
ATOM     63  C   UNL A   1      41.109  32.436  36.273  1.00  0.00     0.055 A 
ATOM     64  C   UNL A   1      42.951  33.517  35.174  1.00  0.00     0.041 A 
ATOM     65  F   UNL A   1      43.931  32.525  33.293  1.00  0.00    -0.206 F 
ATOM     66  C   UNL A   1      41.975  33.527  36.165  1.00  0.00     0.022 A 
BRANCH  63  67
ATOM     67  S   UNL A   1      39.674  32.521  37.380  1.00  0.00     0.124 S 
ATOM     68  O   UNL A   1      38.888  31.374  36.932  1.00  0.00    -0.237 OA
ATOM     69  O   UNL A   1      40.285  32.403  38.699  1.00  0.00    -0.237 OA
ATOM     70  O   UNL A   1      39.085  33.825  37.079  1.00  0.00    -0.744 OA
ENDBRANCH  63  67
ENDBRANCH  46  60
BRANCH  47  71
ATOM     71  C   UNL A   1      42.403  24.197  27.340  1.00  0.00     0.023 A 
ATOM     72  C   UNL A   1      41.602  23.045  27.373  1.00  0.00     0.031 A 
ATOM     73  C   UNL A   1      43.296  24.349  26.265  1.00  0.00     0.131 A 
ATOM     74  C   UNL A   1      41.739  22.070  26.372  1.00  0.00     0.055 A 
ATOM     75  C   UNL A   1      43.387  23.404  25.241  1.00  0.00     0.041 A 
ATOM     76  F   UNL A   1      44.084  25.433  26.184  1.00  0.00    -0.206 F 
ATOM     77  C   UNL A   1      42.614  22.249  25.298  1.00  0.00     0.022 A 
BRANCH  74  78
ATOM     78  S   UNL A   1      40.815  20.518  26.536  1.00  0.00     0.124 S 
ATOM     79  O   UNL A   1      39.489  20.912  26.072  1.00  0.00    -0.237 OA
ATOM     80  O   UNL A   1      41.564  19.625  25.658  1.00  0.00    -0.237 OA
ATOM     81  O   UNL A   1      40.913  20.212  27.962  1.00  0.00    -0.744 OA
ENDBRANCH  74  78
ENDBRANCH  47  71
BRANCH  59  82
ATOM     82  C   UNL A   1      46.554  25.771  32.733  1.00  0.00     0.023 A 
ATOM     83  C   UNL A   1      47.822  26.035  32.187  1.00  0.00     0.031 A 
ATOM     84  C   UNL A   1      46.475  24.867  33.810  1.00  0.00     0.131 A 
ATOM     85  C   UNL A   1      48.950  25.360  32.680  1.00  0.00     0.055 A 
ATOM     86  C   UNL A   1      47.610  24.251  34.339  1.00  0.00     0.041 A 
ATOM     87  F   UNL A   1      45.291  24.571  34.369  1.00  0.00    -0.206 F 
ATOM     88  C   UNL A   1      48.855  24.485  33.765  1.00  0.00     0.022 A 
BRANCH  85  89
ATOM     89  S   UNL A   1      50.532  25.561  31.814  1.00  0.00     0.124 S 
ATOM     90  O   UNL A   1      50.752  24.224  31.271  1.00  0.00    -0.237 OA
ATOM     91  O   UNL A   1      50.227  26.603  30.840  1.00  0.00    -0.237 OA
ATOM     92  O   UNL A   1      51.456  25.957  32.876  1.00  0.00    -0.744 OA
ENDBRANCH  85  89
ENDBRANCH  59  82
ENDBRANCH  33  34
ENDBRANCH  25  28
ENDBRANCH  23  24
ENDBRANCH  22  23
ENDBRANCH  21  22
ENDBRANCH   1  21
TORSDOF 19
ENDMDL
