MODEL 1
REMARK VINA RESULT:     -10.7      0.000      0.000
REMARK SMILES CC(C)(C(=O)NCCCCCCNC(=O)c1ccc(-c2c3nc(c(-c4cc(S(=O)(=O)[O-])ccc4F)c4ccc([nH]4)c(-c4cc(S(=O)(=O)[O-])ccc4F)c4nc(c(-c5cc(S(=O)(=O)[O-])ccc5F)c5ccc2[nH]5)C=C4)C=C3)cc1)c1ccc(C(=O)CCCCl)cc1
REMARK SMILES IDX 8 1 7 2 6 3 4 4 5 5 2 7 1 8 3 9 79 10 80 11 90 12 81 13
REMARK SMILES IDX 89 14 82 15 83 16 84 17 85 18 86 19 87 20 88 21 9 22 10 23
REMARK SMILES IDX 11 24 12 25 13 26 14 27 15 29 16 30 17 31 78 32 18 33 77 34
REMARK SMILES IDX 19 35 20 36 21 37 71 38 22 39 76 40 70 41 72 42 23 43 75 44
REMARK SMILES IDX 69 45 68 46 24 48 56 49 36 50 55 51 37 52 40 53 54 54 73 55
REMARK SMILES IDX 38 56 39 57 53 59 74 60 41 61 25 62 26 63 34 64 27 65 33 66
REMARK SMILES IDX 35 67 32 68 28 69 29 70 30 71 31 72 57 73 58 74 66 75 59 76
REMARK SMILES IDX 65 77 67 78 64 79 60 80 61 81 62 82 63 83 42 84 43 85 51 86
REMARK SMILES IDX 44 87 50 88 52 89 49 90 45 91 46 92 47 93 48 94
REMARK H PARENT 6 6 13 28 72 47 40 58
REMARK Flexibility Score: inf
ROOT
ATOM      1  C   UNL A   1      36.666  22.875  24.186  1.00  0.00     0.021 C 
ENDROOT
BRANCH   1   2
ATOM      2  C   UNL A   1      35.169  22.653  24.398  1.00  0.00     0.116 C 
BRANCH   2   3
ATOM      3  N   UNL A   1      34.426  23.328  23.358  1.00  0.00    -0.355 N 
ATOM      4  C   UNL A   1      33.377  24.182  23.412  1.00  0.00     0.230 C 
ATOM      5  O   UNL A   1      32.710  24.241  22.372  1.00  0.00    -0.274 OA
ATOM      6  H   UNL A   1      34.740  23.130  22.445  1.00  0.00     0.163 HD
BRANCH   4   7
ATOM      7  C   UNL A   1      33.056  25.056  24.667  1.00  0.00     0.068 C 
ATOM      8  C   UNL A   1      32.235  24.242  25.686  1.00  0.00     0.026 C 
ATOM      9  C   UNL A   1      34.361  25.548  25.340  1.00  0.00     0.026 C 
BRANCH   7  10
ATOM     10  C   UNL A   1      32.300  26.333  24.207  1.00  0.00    -0.033 A 
ATOM     11  C   UNL A   1      32.936  27.542  23.882  1.00  0.00     0.005 A 
ATOM     12  C   UNL A   1      30.894  26.292  24.124  1.00  0.00     0.005 A 
ATOM     13  C   UNL A   1      32.197  28.642  23.433  1.00  0.00     0.012 A 
ATOM     14  C   UNL A   1      30.156  27.402  23.727  1.00  0.00     0.012 A 
ATOM     15  C   UNL A   1      30.806  28.560  23.318  1.00  0.00     0.018 A 
BRANCH  15  16
ATOM     16  C   UNL A   1      30.067  29.690  22.693  1.00  0.00     0.162 C 
ATOM     17  O   UNL A   1      29.947  29.732  21.469  1.00  0.00    -0.294 OA
BRANCH  16  18
ATOM     18  C   UNL A   1      29.399  30.729  23.579  1.00  0.00     0.082 C 
BRANCH  18  19
ATOM     19  C   UNL A   1      27.867  30.665  23.532  1.00  0.00     0.024 C 
BRANCH  19  20
ATOM     20  C   UNL A   1      27.245  29.586  22.647  1.00  0.00     0.110 C 
ATOM     21  Cl  UNL A   1      26.702  28.178  23.589  1.00  0.00    -0.127 Cl
ENDBRANCH  19  20
ENDBRANCH  18  19
ENDBRANCH  16  18
ENDBRANCH  15  16
ENDBRANCH   7  10
ENDBRANCH   4   7
ENDBRANCH   2   3
ENDBRANCH   1   2
BRANCH   1  22
ATOM     22  C   UNL A   1      37.549  21.949  25.034  1.00  0.00     0.002 C 
BRANCH  22  23
ATOM     23  C   UNL A   1      37.251  20.454  24.867  1.00  0.00     0.002 C 
BRANCH  23  24
ATOM     24  C   UNL A   1      38.462  19.540  25.063  1.00  0.00     0.021 C 
BRANCH  24  25
ATOM     25  C   UNL A   1      39.461  20.042  26.099  1.00  0.00     0.116 C 
BRANCH  25  26
ATOM     26  N   UNL A   1      40.677  19.246  26.099  1.00  0.00    -0.352 N 
ATOM     27  C   UNL A   1      41.984  19.665  26.139  1.00  0.00     0.251 C 
ATOM     28  H   UNL A   1      40.545  18.271  26.068  1.00  0.00     0.163 HD
ATOM     29  O   UNL A   1      42.887  18.875  25.891  1.00  0.00    -0.269 OA
BRANCH  27  30
ATOM     30  C   UNL A   1      42.282  21.078  26.455  1.00  0.00     0.039 A 
ATOM     31  C   UNL A   1      42.526  21.435  27.782  1.00  0.00     0.014 A 
ATOM     32  C   UNL A   1      42.343  22.040  25.441  1.00  0.00     0.014 A 
ATOM     33  C   UNL A   1      42.900  22.745  28.083  1.00  0.00     0.010 A 
ATOM     34  C   UNL A   1      42.790  23.323  25.734  1.00  0.00     0.010 A 
ATOM     35  C   UNL A   1      43.080  23.688  27.057  1.00  0.00    -0.014 A 
BRANCH  35  36
ATOM     36  C   UNL A   1      43.599  25.049  27.349  1.00  0.00     0.031 A 
ATOM     37  C   UNL A   1      42.692  26.105  27.914  1.00  0.00     0.074 A 
ATOM     38  C   UNL A   1      44.877  25.347  27.040  1.00  0.00     0.049 A 
ATOM     39  N   UNL A   1      42.945  27.364  28.165  1.00  0.00    -0.248 NA
ATOM     40  C   UNL A   1      41.312  25.695  28.207  1.00  0.00     0.031 C 
ATOM     41  C   UNL A   1      45.838  24.418  26.444  1.00  0.00     0.029 A 
ATOM     42  N   UNL A   1      45.584  26.516  27.170  1.00  0.00    -0.354 N 
ATOM     43  C   UNL A   1      41.755  27.899  28.647  1.00  0.00     0.074 A 
ATOM     44  C   UNL A   1      40.766  26.843  28.576  1.00  0.00     0.031 C 
ATOM     45  C   UNL A   1      47.012  25.046  26.276  1.00  0.00     0.029 A 
ATOM     46  C   UNL A   1      46.874  26.436  26.700  1.00  0.00     0.049 A 
ATOM     47  H   UNL A   1      45.203  27.336  27.563  1.00  0.00     0.167 HD
ATOM     48  C   UNL A   1      41.518  29.146  29.127  1.00  0.00     0.034 A 
ATOM     49  C   UNL A   1      47.831  27.378  26.595  1.00  0.00     0.034 A 
ATOM     50  C   UNL A   1      42.516  30.188  29.173  1.00  0.00     0.049 A 
ATOM     51  C   UNL A   1      47.535  28.773  27.079  1.00  0.00     0.074 A 
ATOM     52  C   UNL A   1      42.402  31.471  29.678  1.00  0.00     0.029 A 
ATOM     53  N   UNL A   1      43.810  30.076  28.675  1.00  0.00    -0.354 N 
ATOM     54  N   UNL A   1      46.422  29.250  27.590  1.00  0.00    -0.248 NA
ATOM     55  C   UNL A   1      48.622  29.754  26.981  1.00  0.00     0.031 C 
ATOM     56  C   UNL A   1      43.592  32.157  29.411  1.00  0.00     0.029 A 
ATOM     57  C   UNL A   1      44.486  31.278  28.819  1.00  0.00     0.049 A 
ATOM     58  H   UNL A   1      44.192  29.260  28.276  1.00  0.00     0.167 HD
ATOM     59  C   UNL A   1      46.682  30.583  27.889  1.00  0.00     0.074 A 
ATOM     60  C   UNL A   1      48.063  30.826  27.522  1.00  0.00     0.031 C 
ATOM     61  C   UNL A   1      45.856  31.520  28.421  1.00  0.00     0.034 A 
BRANCH  48  62
ATOM     62  C   UNL A   1      40.116  29.444  29.609  1.00  0.00     0.023 A 
ATOM     63  C   UNL A   1      39.818  29.564  30.978  1.00  0.00     0.031 A 
ATOM     64  C   UNL A   1      39.052  29.561  28.697  1.00  0.00     0.131 A 
ATOM     65  C   UNL A   1      38.486  29.688  31.400  1.00  0.00     0.055 A 
ATOM     66  C   UNL A   1      37.739  29.784  29.119  1.00  0.00     0.041 A 
ATOM     67  F   UNL A   1      39.264  29.437  27.377  1.00  0.00    -0.206 F 
ATOM     68  C   UNL A   1      37.447  29.826  30.478  1.00  0.00     0.022 A 
BRANCH  65  69
ATOM     69  S   UNL A   1      38.117  29.472  33.163  1.00  0.00     0.124 S 
ATOM     70  O   UNL A   1      37.752  30.831  33.556  1.00  0.00    -0.237 OA
ATOM     71  O   UNL A   1      37.032  28.499  33.141  1.00  0.00    -0.237 OA
ATOM     72  O   UNL A   1      39.380  28.990  33.720  1.00  0.00    -0.744 OA
ENDBRANCH  65  69
ENDBRANCH  48  62
BRANCH  49  73
ATOM     73  C   UNL A   1      49.143  27.038  25.973  1.00  0.00     0.023 A 
ATOM     74  C   UNL A   1      49.462  27.443  24.667  1.00  0.00     0.031 A 
ATOM     75  C   UNL A   1      50.101  26.291  26.684  1.00  0.00     0.131 A 
ATOM     76  C   UNL A   1      50.692  27.072  24.102  1.00  0.00     0.055 A 
ATOM     77  C   UNL A   1      51.345  25.972  26.137  1.00  0.00     0.041 A 
ATOM     78  F   UNL A   1      49.849  25.881  27.938  1.00  0.00    -0.206 F 
ATOM     79  C   UNL A   1      51.642  26.355  24.834  1.00  0.00     0.022 A 
BRANCH  76  80
ATOM     80  S   UNL A   1      51.012  27.482  22.364  1.00  0.00     0.124 S 
ATOM     81  O   UNL A   1      49.749  27.114  21.736  1.00  0.00    -0.237 OA
ATOM     82  O   UNL A   1      51.299  28.912  22.439  1.00  0.00    -0.237 OA
ATOM     83  O   UNL A   1      52.153  26.637  22.019  1.00  0.00    -0.744 OA
ENDBRANCH  76  80
ENDBRANCH  49  73
BRANCH  61  84
ATOM     84  C   UNL A   1      46.437  32.895  28.657  1.00  0.00     0.023 A 
ATOM     85  C   UNL A   1      46.283  33.932  27.720  1.00  0.00     0.031 A 
ATOM     86  C   UNL A   1      47.158  33.169  29.833  1.00  0.00     0.131 A 
ATOM     87  C   UNL A   1      46.887  35.177  27.950  1.00  0.00     0.055 A 
ATOM     88  C   UNL A   1      47.700  34.430  30.087  1.00  0.00     0.041 A 
ATOM     89  F   UNL A   1      47.342  32.216  30.760  1.00  0.00    -0.206 F 
ATOM     90  C   UNL A   1      47.576  35.439  29.136  1.00  0.00     0.022 A 
BRANCH  87  91
ATOM     91  S   UNL A   1      46.841  36.424  26.633  1.00  0.00     0.124 S 
ATOM     92  O   UNL A   1      47.027  35.607  25.438  1.00  0.00    -0.237 OA
ATOM     93  O   UNL A   1      45.518  37.012  26.804  1.00  0.00    -0.237 OA
ATOM     94  O   UNL A   1      47.959  37.308  26.958  1.00  0.00    -0.744 OA
ENDBRANCH  87  91
ENDBRANCH  61  84
ENDBRANCH  35  36
ENDBRANCH  27  30
ENDBRANCH  25  26
ENDBRANCH  24  25
ENDBRANCH  23  24
ENDBRANCH  22  23
ENDBRANCH   1  22
TORSDOF 21
ENDMDL
MODEL 2
REMARK VINA RESULT:     -10.6      6.299     10.827
REMARK SMILES CC(C)(C(=O)NCCCCCCNC(=O)c1ccc(-c2c3nc(c(-c4cc(S(=O)(=O)[O-])ccc4F)c4ccc([nH]4)c(-c4cc(S(=O)(=O)[O-])ccc4F)c4nc(c(-c5cc(S(=O)(=O)[O-])ccc5F)c5ccc2[nH]5)C=C4)C=C3)cc1)c1ccc(C(=O)CCCCl)cc1
REMARK SMILES IDX 8 1 7 2 6 3 4 4 5 5 2 7 1 8 3 9 79 10 80 11 90 12 81 13
REMARK SMILES IDX 89 14 82 15 83 16 84 17 85 18 86 19 87 20 88 21 9 22 10 23
REMARK SMILES IDX 11 24 12 25 13 26 14 27 15 29 16 30 17 31 78 32 18 33 77 34
REMARK SMILES IDX 19 35 20 36 21 37 71 38 22 39 76 40 70 41 72 42 23 43 75 44
REMARK SMILES IDX 69 45 68 46 24 48 56 49 36 50 55 51 37 52 40 53 54 54 73 55
REMARK SMILES IDX 38 56 39 57 53 59 74 60 41 61 25 62 26 63 34 64 27 65 33 66
REMARK SMILES IDX 35 67 32 68 28 69 29 70 30 71 31 72 57 73 58 74 66 75 59 76
REMARK SMILES IDX 65 77 67 78 64 79 60 80 61 81 62 82 63 83 42 84 43 85 51 86
REMARK SMILES IDX 44 87 50 88 52 89 49 90 45 91 46 92 47 93 48 94
REMARK H PARENT 6 6 13 28 72 47 40 58
REMARK Flexibility Score: inf
ROOT
ATOM      1  C   UNL A   1      35.238  30.317  27.962  1.00  0.00     0.021 C 
ENDROOT
BRANCH   1   2
ATOM      2  C   UNL A   1      34.850  29.047  27.206  1.00  0.00     0.116 C 
BRANCH   2   3
ATOM      3  N   UNL A   1      34.195  29.401  25.967  1.00  0.00    -0.355 N 
ATOM      4  C   UNL A   1      33.239  28.771  25.244  1.00  0.00     0.230 C 
ATOM      5  O   UNL A   1      33.202  29.096  24.051  1.00  0.00    -0.274 OA
ATOM      6  H   UNL A   1      34.500  30.254  25.579  1.00  0.00     0.163 HD
BRANCH   4   7
ATOM      7  C   UNL A   1      32.234  27.751  25.869  1.00  0.00     0.068 C 
ATOM      8  C   UNL A   1      31.866  28.179  27.303  1.00  0.00     0.026 C 
ATOM      9  C   UNL A   1      30.944  27.660  25.017  1.00  0.00     0.026 C 
BRANCH   7  10
ATOM     10  C   UNL A   1      32.873  26.335  25.836  1.00  0.00    -0.033 A 
ATOM     11  C   UNL A   1      34.135  26.061  25.284  1.00  0.00     0.005 A 
ATOM     12  C   UNL A   1      32.146  25.254  26.372  1.00  0.00     0.005 A 
ATOM     13  C   UNL A   1      34.669  24.769  25.326  1.00  0.00     0.012 A 
ATOM     14  C   UNL A   1      32.656  23.960  26.368  1.00  0.00     0.012 A 
ATOM     15  C   UNL A   1      33.945  23.722  25.905  1.00  0.00     0.018 A 
BRANCH  15  16
ATOM     16  C   UNL A   1      34.602  22.398  26.073  1.00  0.00     0.162 C 
ATOM     17  O   UNL A   1      35.787  22.346  26.399  1.00  0.00    -0.294 OA
BRANCH  16  18
ATOM     18  C   UNL A   1      33.778  21.129  25.924  1.00  0.00     0.082 C 
BRANCH  18  19
ATOM     19  C   UNL A   1      33.420  20.810  24.467  1.00  0.00     0.024 C 
BRANCH  19  20
ATOM     20  C   UNL A   1      32.907  19.402  24.170  1.00  0.00     0.110 C 
ATOM     21  Cl  UNL A   1      34.194  18.180  24.296  1.00  0.00    -0.127 Cl
ENDBRANCH  19  20
ENDBRANCH  18  19
ENDBRANCH  16  18
ENDBRANCH  15  16
ENDBRANCH   7  10
ENDBRANCH   4   7
ENDBRANCH   2   3
ENDBRANCH   1   2
BRANCH   1  22
ATOM     22  C   UNL A   1      34.240  31.469  27.780  1.00  0.00     0.002 C 
BRANCH  22  23
ATOM     23  C   UNL A   1      34.457  32.657  28.724  1.00  0.00     0.002 C 
BRANCH  23  24
ATOM     24  C   UNL A   1      33.508  33.834  28.492  1.00  0.00     0.021 C 
BRANCH  24  25
ATOM     25  C   UNL A   1      33.976  35.145  29.113  1.00  0.00     0.116 C 
BRANCH  25  26
ATOM     26  N   UNL A   1      33.057  35.609  30.138  1.00  0.00    -0.352 N 
ATOM     27  C   UNL A   1      33.044  35.321  31.482  1.00  0.00     0.251 C 
ATOM     28  H   UNL A   1      32.346  36.215  29.828  1.00  0.00     0.163 HD
ATOM     29  O   UNL A   1      32.062  35.604  32.157  1.00  0.00    -0.269 OA
BRANCH  27  30
ATOM     30  C   UNL A   1      34.210  34.647  32.089  1.00  0.00     0.039 A 
ATOM     31  C   UNL A   1      34.079  33.323  32.513  1.00  0.00     0.014 A 
ATOM     32  C   UNL A   1      35.434  35.313  32.220  1.00  0.00     0.014 A 
ATOM     33  C   UNL A   1      35.196  32.645  33.002  1.00  0.00     0.010 A 
ATOM     34  C   UNL A   1      36.560  34.612  32.634  1.00  0.00     0.010 A 
ATOM     35  C   UNL A   1      36.455  33.268  33.024  1.00  0.00    -0.014 A 
BRANCH  35  36
ATOM     36  C   UNL A   1      37.674  32.518  33.422  1.00  0.00     0.031 A 
ATOM     37  C   UNL A   1      38.400  32.864  34.692  1.00  0.00     0.074 A 
ATOM     38  C   UNL A   1      38.162  31.569  32.599  1.00  0.00     0.049 A 
ATOM     39  N   UNL A   1      39.516  32.372  35.166  1.00  0.00    -0.248 NA
ATOM     40  C   UNL A   1      37.804  33.921  35.520  1.00  0.00     0.031 C 
ATOM     41  C   UNL A   1      37.571  31.179  31.318  1.00  0.00     0.029 A 
ATOM     42  N   UNL A   1      39.272  30.769  32.708  1.00  0.00    -0.354 N 
ATOM     43  C   UNL A   1      39.758  33.060  36.350  1.00  0.00     0.074 A 
ATOM     44  C   UNL A   1      38.711  34.054  36.475  1.00  0.00     0.031 C 
ATOM     45  C   UNL A   1      38.312  30.205  30.768  1.00  0.00     0.029 A 
ATOM     46  C   UNL A   1      39.460  29.937  31.628  1.00  0.00     0.049 A 
ATOM     47  H   UNL A   1      39.876  30.788  33.486  1.00  0.00     0.167 HD
ATOM     48  C   UNL A   1      40.745  32.862  37.260  1.00  0.00     0.034 A 
ATOM     49  C   UNL A   1      40.457  29.076  31.346  1.00  0.00     0.034 A 
ATOM     50  C   UNL A   1      41.788  31.876  37.106  1.00  0.00     0.049 A 
ATOM     51  C   UNL A   1      41.577  28.909  32.339  1.00  0.00     0.074 A 
ATOM     52  C   UNL A   1      42.811  31.558  37.983  1.00  0.00     0.029 A 
ATOM     53  N   UNL A   1      41.956  31.059  35.993  1.00  0.00    -0.354 N 
ATOM     54  N   UNL A   1      41.761  29.524  33.486  1.00  0.00    -0.248 NA
ATOM     55  C   UNL A   1      42.619  27.931  32.006  1.00  0.00     0.031 C 
ATOM     56  C   UNL A   1      43.641  30.615  37.366  1.00  0.00     0.029 A 
ATOM     57  C   UNL A   1      43.090  30.274  36.140  1.00  0.00     0.049 A 
ATOM     58  H   UNL A   1      41.357  31.042  35.211  1.00  0.00     0.167 HD
ATOM     59  C   UNL A   1      42.931  28.992  34.019  1.00  0.00     0.074 A 
ATOM     60  C   UNL A   1      43.395  27.993  33.077  1.00  0.00     0.031 C 
ATOM     61  C   UNL A   1      43.563  29.301  35.180  1.00  0.00     0.034 A 
BRANCH  48  62
ATOM     62  C   UNL A   1      40.748  33.757  38.480  1.00  0.00     0.023 A 
ATOM     63  C   UNL A   1      39.884  33.525  39.565  1.00  0.00     0.031 A 
ATOM     64  C   UNL A   1      41.586  34.884  38.542  1.00  0.00     0.131 A 
ATOM     65  C   UNL A   1      39.801  34.457  40.609  1.00  0.00     0.055 A 
ATOM     66  C   UNL A   1      41.570  35.757  39.634  1.00  0.00     0.041 A 
ATOM     67  F   UNL A   1      42.420  35.174  37.531  1.00  0.00    -0.206 F 
ATOM     68  C   UNL A   1      40.658  35.557  40.665  1.00  0.00     0.022 A 
BRANCH  65  69
ATOM     69  S   UNL A   1      38.429  34.310  41.788  1.00  0.00     0.124 S 
ATOM     70  O   UNL A   1      37.556  33.358  41.106  1.00  0.00    -0.237 OA
ATOM     71  O   UNL A   1      39.097  33.819  42.988  1.00  0.00    -0.237 OA
ATOM     72  O   UNL A   1      37.906  35.672  41.876  1.00  0.00    -0.744 OA
ENDBRANCH  65  69
ENDBRANCH  48  62
BRANCH  49  73
ATOM     73  C   UNL A   1      40.456  28.336  30.052  1.00  0.00     0.023 A 
ATOM     74  C   UNL A   1      41.343  28.669  29.016  1.00  0.00     0.031 A 
ATOM     75  C   UNL A   1      39.552  27.279  29.831  1.00  0.00     0.131 A 
ATOM     76  C   UNL A   1      41.286  27.975  27.797  1.00  0.00     0.055 A 
ATOM     77  C   UNL A   1      39.537  26.556  28.638  1.00  0.00     0.041 A 
ATOM     78  F   UNL A   1      38.684  26.917  30.790  1.00  0.00    -0.206 F 
ATOM     79  C   UNL A   1      40.402  26.910  27.609  1.00  0.00     0.022 A 
BRANCH  76  80
ATOM     80  S   UNL A   1      42.342  28.527  26.430  1.00  0.00     0.124 S 
ATOM     81  O   UNL A   1      41.368  29.129  25.528  1.00  0.00    -0.237 OA
ATOM     82  O   UNL A   1      43.252  29.449  27.103  1.00  0.00    -0.237 OA
ATOM     83  O   UNL A   1      42.956  27.289  25.953  1.00  0.00    -0.744 OA
ENDBRANCH  76  80
ENDBRANCH  49  73
BRANCH  61  84
ATOM     84  C   UNL A   1      44.819  28.527  35.506  1.00  0.00     0.023 A 
ATOM     85  C   UNL A   1      44.774  27.299  36.190  1.00  0.00     0.031 A 
ATOM     86  C   UNL A   1      46.079  29.028  35.132  1.00  0.00     0.131 A 
ATOM     87  C   UNL A   1      45.966  26.641  36.525  1.00  0.00     0.055 A 
ATOM     88  C   UNL A   1      47.258  28.335  35.409  1.00  0.00     0.041 A 
ATOM     89  F   UNL A   1      46.184  30.199  34.483  1.00  0.00    -0.206 F 
ATOM     90  C   UNL A   1      47.207  27.140  36.120  1.00  0.00     0.022 A 
BRANCH  87  91
ATOM     91  S   UNL A   1      45.881  25.168  37.579  1.00  0.00     0.124 S 
ATOM     92  O   UNL A   1      44.441  24.956  37.685  1.00  0.00    -0.237 OA
ATOM     93  O   UNL A   1      46.615  24.179  36.798  1.00  0.00    -0.237 OA
ATOM     94  O   UNL A   1      46.537  25.592  38.816  1.00  0.00    -0.744 OA
ENDBRANCH  87  91
ENDBRANCH  61  84
ENDBRANCH  35  36
ENDBRANCH  27  30
ENDBRANCH  25  26
ENDBRANCH  24  25
ENDBRANCH  23  24
ENDBRANCH  22  23
ENDBRANCH   1  22
TORSDOF 21
ENDMDL
MODEL 3
REMARK VINA RESULT:     -10.6      5.950     11.913
REMARK SMILES CC(C)(C(=O)NCCCCCCNC(=O)c1ccc(-c2c3nc(c(-c4cc(S(=O)(=O)[O-])ccc4F)c4ccc([nH]4)c(-c4cc(S(=O)(=O)[O-])ccc4F)c4nc(c(-c5cc(S(=O)(=O)[O-])ccc5F)c5ccc2[nH]5)C=C4)C=C3)cc1)c1ccc(C(=O)CCCCl)cc1
REMARK SMILES IDX 8 1 7 2 6 3 4 4 5 5 2 7 1 8 3 9 79 10 80 11 90 12 81 13
REMARK SMILES IDX 89 14 82 15 83 16 84 17 85 18 86 19 87 20 88 21 9 22 10 23
REMARK SMILES IDX 11 24 12 25 13 26 14 27 15 29 16 30 17 31 78 32 18 33 77 34
REMARK SMILES IDX 19 35 20 36 21 37 71 38 22 39 76 40 70 41 72 42 23 43 75 44
REMARK SMILES IDX 69 45 68 46 24 48 56 49 36 50 55 51 37 52 40 53 54 54 73 55
REMARK SMILES IDX 38 56 39 57 53 59 74 60 41 61 25 62 26 63 34 64 27 65 33 66
REMARK SMILES IDX 35 67 32 68 28 69 29 70 30 71 31 72 57 73 58 74 66 75 59 76
REMARK SMILES IDX 65 77 67 78 64 79 60 80 61 81 62 82 63 83 42 84 43 85 51 86
REMARK SMILES IDX 44 87 50 88 52 89 49 90 45 91 46 92 47 93 48 94
REMARK H PARENT 6 6 13 28 72 47 40 58
REMARK Flexibility Score: inf
ROOT
ATOM      1  C   UNL A   1      34.756  30.178  27.573  1.00  0.00     0.021 C 
ENDROOT
BRANCH   1   2
ATOM      2  C   UNL A   1      34.331  28.958  26.757  1.00  0.00     0.116 C 
BRANCH   2   3
ATOM      3  N   UNL A   1      33.824  29.386  25.473  1.00  0.00    -0.355 N 
ATOM      4  C   UNL A   1      33.168  28.714  24.497  1.00  0.00     0.230 C 
ATOM      5  O   UNL A   1      33.253  29.228  23.375  1.00  0.00    -0.274 OA
ATOM      6  H   UNL A   1      33.985  30.336  25.272  1.00  0.00     0.163 HD
BRANCH   4   7
ATOM      7  C   UNL A   1      32.334  27.421  24.767  1.00  0.00     0.068 C 
ATOM      8  C   UNL A   1      31.799  27.427  26.212  1.00  0.00     0.026 C 
ATOM      9  C   UNL A   1      31.143  27.320  23.783  1.00  0.00     0.026 C 
BRANCH   7  10
ATOM     10  C   UNL A   1      33.229  26.181  24.489  1.00  0.00    -0.033 A 
ATOM     11  C   UNL A   1      33.325  25.553  23.237  1.00  0.00     0.005 A 
ATOM     12  C   UNL A   1      33.978  25.638  25.551  1.00  0.00     0.005 A 
ATOM     13  C   UNL A   1      34.184  24.465  23.046  1.00  0.00     0.012 A 
ATOM     14  C   UNL A   1      34.793  24.525  25.373  1.00  0.00     0.012 A 
ATOM     15  C   UNL A   1      34.950  23.973  24.106  1.00  0.00     0.018 A 
BRANCH  15  16
ATOM     16  C   UNL A   1      35.965  22.920  23.835  1.00  0.00     0.162 C 
ATOM     17  O   UNL A   1      36.570  22.923  22.764  1.00  0.00    -0.294 OA
BRANCH  16  18
ATOM     18  C   UNL A   1      36.302  21.908  24.918  1.00  0.00     0.082 C 
BRANCH  18  19
ATOM     19  C   UNL A   1      35.416  20.657  24.870  1.00  0.00     0.024 C 
BRANCH  19  20
ATOM     20  C   UNL A   1      34.085  20.721  25.618  1.00  0.00     0.110 C 
ATOM     21  Cl  UNL A   1      32.707  20.947  24.514  1.00  0.00    -0.127 Cl
ENDBRANCH  19  20
ENDBRANCH  18  19
ENDBRANCH  16  18
ENDBRANCH  15  16
ENDBRANCH   7  10
ENDBRANCH   4   7
ENDBRANCH   2   3
ENDBRANCH   1   2
BRANCH   1  22
ATOM     22  C   UNL A   1      33.682  31.272  27.646  1.00  0.00     0.002 C 
BRANCH  22  23
ATOM     23  C   UNL A   1      34.149  32.584  28.286  1.00  0.00     0.002 C 
BRANCH  23  24
ATOM     24  C   UNL A   1      33.203  33.767  28.074  1.00  0.00     0.021 C 
BRANCH  24  25
ATOM     25  C   UNL A   1      33.722  35.089  28.625  1.00  0.00     0.116 C 
BRANCH  25  26
ATOM     26  N   UNL A   1      33.066  35.444  29.871  1.00  0.00    -0.352 N 
ATOM     27  C   UNL A   1      33.321  34.991  31.143  1.00  0.00     0.251 C 
ATOM     28  H   UNL A   1      32.337  36.102  29.794  1.00  0.00     0.163 HD
ATOM     29  O   UNL A   1      32.520  35.211  32.042  1.00  0.00    -0.269 OA
BRANCH  27  30
ATOM     30  C   UNL A   1      34.553  34.216  31.401  1.00  0.00     0.039 A 
ATOM     31  C   UNL A   1      35.787  34.782  31.076  1.00  0.00     0.014 A 
ATOM     32  C   UNL A   1      34.490  32.946  31.983  1.00  0.00     0.014 A 
ATOM     33  C   UNL A   1      36.961  34.102  31.400  1.00  0.00     0.010 A 
ATOM     34  C   UNL A   1      35.661  32.307  32.374  1.00  0.00     0.010 A 
ATOM     35  C   UNL A   1      36.909  32.881  32.092  1.00  0.00    -0.014 A 
BRANCH  35  36
ATOM     36  C   UNL A   1      38.151  32.209  32.555  1.00  0.00     0.031 A 
ATOM     37  C   UNL A   1      38.765  31.102  31.745  1.00  0.00     0.074 A 
ATOM     38  C   UNL A   1      38.685  32.557  33.742  1.00  0.00     0.049 A 
ATOM     39  N   UNL A   1      39.800  30.352  32.022  1.00  0.00    -0.248 NA
ATOM     40  C   UNL A   1      38.108  30.780  30.471  1.00  0.00     0.031 C 
ATOM     41  C   UNL A   1      38.151  33.584  34.638  1.00  0.00     0.029 A 
ATOM     42  N   UNL A   1      39.786  32.078  34.408  1.00  0.00    -0.354 N 
ATOM     43  C   UNL A   1      39.921  29.467  30.956  1.00  0.00     0.074 A 
ATOM     44  C   UNL A   1      38.805  29.729  30.071  1.00  0.00     0.031 C 
ATOM     45  C   UNL A   1      38.932  33.671  35.726  1.00  0.00     0.029 A 
ATOM     46  C   UNL A   1      39.990  32.669  35.633  1.00  0.00     0.049 A 
ATOM     47  H   UNL A   1      40.373  31.376  34.043  1.00  0.00     0.167 HD
ATOM     48  C   UNL A   1      40.887  28.544  30.725  1.00  0.00     0.034 A 
ATOM     49  C   UNL A   1      40.907  32.419  36.588  1.00  0.00     0.034 A 
ATOM     50  C   UNL A   1      41.983  28.289  31.630  1.00  0.00     0.049 A 
ATOM     51  C   UNL A   1      41.939  31.349  36.342  1.00  0.00     0.074 A 
ATOM     52  C   UNL A   1      43.042  27.410  31.479  1.00  0.00     0.029 A 
ATOM     53  N   UNL A   1      42.152  28.897  32.870  1.00  0.00    -0.354 N 
ATOM     54  N   UNL A   1      42.077  30.561  35.300  1.00  0.00    -0.248 NA
ATOM     55  C   UNL A   1      42.940  31.140  37.394  1.00  0.00     0.031 C 
ATOM     56  C   UNL A   1      43.798  27.426  32.656  1.00  0.00     0.029 A 
ATOM     57  C   UNL A   1      43.268  28.380  33.510  1.00  0.00     0.049 A 
ATOM     58  H   UNL A   1      41.562  29.595  33.240  1.00  0.00     0.167 HD
ATOM     59  C   UNL A   1      43.194  29.774  35.565  1.00  0.00     0.074 A 
ATOM     60  C   UNL A   1      43.701  30.199  36.854  1.00  0.00     0.031 C 
ATOM     61  C   UNL A   1      43.749  28.790  34.811  1.00  0.00     0.034 A 
BRANCH  48  62
ATOM     62  C   UNL A   1      40.772  27.727  29.456  1.00  0.00     0.023 A 
ATOM     63  C   UNL A   1      41.662  27.907  28.382  1.00  0.00     0.031 A 
ATOM     64  C   UNL A   1      39.734  26.794  29.294  1.00  0.00     0.131 A 
ATOM     65  C   UNL A   1      41.438  27.248  27.165  1.00  0.00     0.055 A 
ATOM     66  C   UNL A   1      39.574  26.066  28.112  1.00  0.00     0.041 A 
ATOM     67  F   UNL A   1      38.838  26.588  30.273  1.00  0.00    -0.206 F 
ATOM     68  C   UNL A   1      40.415  26.307  27.031  1.00  0.00     0.022 A 
BRANCH  65  69
ATOM     69  S   UNL A   1      42.381  27.782  25.709  1.00  0.00     0.124 S 
ATOM     70  O   UNL A   1      43.736  27.862  26.250  1.00  0.00    -0.237 OA
ATOM     71  O   UNL A   1      42.133  26.703  24.761  1.00  0.00    -0.237 OA
ATOM     72  O   UNL A   1      41.779  29.069  25.366  1.00  0.00    -0.744 OA
ENDBRANCH  65  69
ENDBRANCH  48  62
BRANCH  49  73
ATOM     73  C   UNL A   1      40.864  33.170  37.875  1.00  0.00     0.023 A 
ATOM     74  C   UNL A   1      40.090  32.724  38.958  1.00  0.00     0.031 A 
ATOM     75  C   UNL A   1      41.601  34.358  38.036  1.00  0.00     0.131 A 
ATOM     76  C   UNL A   1      40.044  33.479  40.141  1.00  0.00     0.055 A 
ATOM     77  C   UNL A   1      41.595  35.075  39.233  1.00  0.00     0.041 A 
ATOM     78  F   UNL A   1      42.361  34.828  37.033  1.00  0.00    -0.206 F 
ATOM     79  C   UNL A   1      40.806  34.640  40.292  1.00  0.00     0.022 A 
BRANCH  76  80
ATOM     80  S   UNL A   1      38.921  32.956  41.465  1.00  0.00     0.124 S 
ATOM     81  O   UNL A   1      38.961  34.106  42.359  1.00  0.00    -0.237 OA
ATOM     82  O   UNL A   1      37.671  32.750  40.738  1.00  0.00    -0.237 OA
ATOM     83  O   UNL A   1      39.546  31.740  41.981  1.00  0.00    -0.744 OA
ENDBRANCH  76  80
ENDBRANCH  49  73
BRANCH  61  84
ATOM     84  C   UNL A   1      44.989  28.121  35.359  1.00  0.00     0.023 A 
ATOM     85  C   UNL A   1      44.916  26.940  36.117  1.00  0.00     0.031 A 
ATOM     86  C   UNL A   1      46.259  28.677  35.123  1.00  0.00     0.131 A 
ATOM     87  C   UNL A   1      46.085  26.382  36.656  1.00  0.00     0.055 A 
ATOM     88  C   UNL A   1      47.424  28.080  35.605  1.00  0.00     0.041 A 
ATOM     89  F   UNL A   1      46.389  29.808  34.411  1.00  0.00    -0.206 F 
ATOM     90  C   UNL A   1      47.340  26.932  36.388  1.00  0.00     0.022 A 
BRANCH  87  91
ATOM     91  S   UNL A   1      45.935  24.977  37.794  1.00  0.00     0.124 S 
ATOM     92  O   UNL A   1      44.688  25.284  38.489  1.00  0.00    -0.237 OA
ATOM     93  O   UNL A   1      45.893  23.839  36.883  1.00  0.00    -0.237 OA
ATOM     94  O   UNL A   1      47.140  25.070  38.616  1.00  0.00    -0.744 OA
ENDBRANCH  87  91
ENDBRANCH  61  84
ENDBRANCH  35  36
ENDBRANCH  27  30
ENDBRANCH  25  26
ENDBRANCH  24  25
ENDBRANCH  23  24
ENDBRANCH  22  23
ENDBRANCH   1  22
TORSDOF 21
ENDMDL
