MODEL 1
REMARK VINA RESULT:     -11.9      0.000      0.000
REMARK SMILES C[N@@H+](Cc1ncccc1C(=O)NCCCCCCNC(=O)c1ccc(-c2c3nc(c(-c4cc(S(=O)(=O)[O-])ccc4F)c4ccc([nH]4)c(-c4cc(S(=O)(=O)[O-])ccc4F)c4nc(c(-c5cc(S(=O)(=O)[O-])ccc5F)c5ccc2[nH]5)C=C4)C=C3)cc1)C[C@@H]1CCN(c2ccccc2)C1
REMARK SMILES IDX 14 1 13 2 12 3 10 4 11 5 9 7 4 8 5 9 6 10 8 11 7 12 3 13
REMARK SMILES IDX 2 14 1 15 85 17 86 18 87 19 96 20 88 21 89 22 90 23 91 24
REMARK SMILES IDX 95 25 92 26 94 27 93 28 15 29 16 30 17 31 18 32 19 33 20 34
REMARK SMILES IDX 21 36 22 37 23 38 84 39 24 40 83 41 25 42 26 43 27 44 77 45
REMARK SMILES IDX 28 46 82 47 76 48 78 49 29 50 81 51 75 52 74 53 30 55 62 56
REMARK SMILES IDX 42 57 61 58 43 59 46 60 60 61 79 62 44 63 45 64 59 66 80 67
REMARK SMILES IDX 47 68 31 69 32 70 40 71 33 72 39 73 41 74 38 75 34 76 35 77
REMARK SMILES IDX 36 78 37 79 63 80 64 81 72 82 65 83 71 84 73 85 70 86 66 87
REMARK SMILES IDX 67 88 68 89 69 90 48 91 49 92 57 93 50 94 56 95 58 96 55 97
REMARK SMILES IDX 51 98 52 99 53 100 54 101
REMARK H PARENT 12 6 2 16 19 35 78 54 46 65
REMARK Flexibility Score: inf
ROOT
ATOM      1  C   UNL A   1      39.441  22.876  26.710  1.00  0.00     0.021 C 
ENDROOT
BRANCH   1   2
ATOM      2  C   UNL A   1      38.605  21.768  26.095  1.00  0.00     0.116 C 
BRANCH   2   3
ATOM      3  N   UNL A   1      37.763  22.212  24.910  1.00  0.00    -0.352 N 
ATOM      4  C   UNL A   1      36.250  22.008  24.457  1.00  0.00     0.253 C 
ATOM      5  O   UNL A   1      36.291  23.032  23.696  1.00  0.00    -0.269 OA
ATOM      6  H   UNL A   1      38.276  22.756  24.268  1.00  0.00     0.163 HD
BRANCH   4   7
ATOM      7  C   UNL A   1      34.812  20.456  24.826  1.00  0.00     0.067 A 
ATOM      8  C   UNL A   1      33.187  20.590  25.052  1.00  0.00     0.107 A 
ATOM      9  N   UNL A   1      32.250  19.575  25.023  1.00  0.00    -0.254 NA
ATOM     10  C   UNL A   1      32.642  18.328  24.742  1.00  0.00     0.111 A 
ATOM     11  C   UNL A   1      34.953  18.955  24.665  1.00  0.00     0.017 A 
ATOM     12  C   UNL A   1      33.948  17.973  24.575  1.00  0.00     0.021 A 
BRANCH   8  13
ATOM     13  C   UNL A   1      32.309  21.994  25.174  1.00  0.00     0.320 C 
BRANCH  13  14
ATOM     14  N   UNL A   1      32.560  23.057  26.236  1.00  0.00    -0.332 N 
ATOM     15  C   UNL A   1      33.102  22.457  27.457  1.00  0.00     0.333 C 
ATOM     16  H   UNL A   1      33.249  23.690  25.828  1.00  0.00     0.348 HD
BRANCH  14  17
ATOM     17  C   UNL A   1      31.371  23.903  26.553  1.00  0.00     0.267 C 
BRANCH  17  18
ATOM     18  C   UNL A   1      31.431  24.931  25.480  1.00  0.00     0.065 C 
ATOM     19  C   UNL A   1      31.851  26.696  26.435  1.00  0.00     0.032 C 
ATOM     20  C   UNL A   1      30.784  25.410  23.628  1.00  0.00     0.126 C 
ATOM     21  C   UNL A   1      31.264  28.157  25.246  1.00  0.00     0.117 C 
ATOM     22  N   UNL A   1      30.580  27.384  23.652  1.00  0.00    -0.371 N 
BRANCH  22  23
ATOM     23  C   UNL A   1      29.710  28.359  23.121  1.00  0.00     0.037 A 
ATOM     24  C   UNL A   1      30.135  29.311  22.163  1.00  0.00     0.026 A 
ATOM     25  C   UNL A   1      28.333  28.307  23.336  1.00  0.00     0.026 A 
ATOM     26  C   UNL A   1      29.294  30.301  21.643  1.00  0.00     0.002 A 
ATOM     27  C   UNL A   1      27.459  29.239  22.746  1.00  0.00     0.002 A 
ATOM     28  C   UNL A   1      27.945  30.268  21.945  1.00  0.00     0.000 A 
ENDBRANCH  22  23
ENDBRANCH  17  18
ENDBRANCH  14  17
ENDBRANCH  13  14
ENDBRANCH   8  13
ENDBRANCH   4   7
ENDBRANCH   2   3
ENDBRANCH   1   2
BRANCH   1  29
ATOM     29  C   UNL A   1      40.918  22.509  26.761  1.00  0.00     0.002 C 
BRANCH  29  30
ATOM     30  C   UNL A   1      41.281  21.453  27.822  1.00  0.00     0.002 C 
BRANCH  30  31
ATOM     31  C   UNL A   1      41.873  20.144  27.274  1.00  0.00     0.021 C 
BRANCH  31  32
ATOM     32  C   UNL A   1      41.766  20.023  25.766  1.00  0.00     0.116 C 
BRANCH  32  33
ATOM     33  N   UNL A   1      43.017  19.531  25.223  1.00  0.00    -0.352 N 
ATOM     34  C   UNL A   1      44.065  20.275  24.760  1.00  0.00     0.251 C 
ATOM     35  H   UNL A   1      43.123  18.554  25.183  1.00  0.00     0.163 HD
ATOM     36  O   UNL A   1      44.824  19.814  23.914  1.00  0.00    -0.269 OA
BRANCH  34  37
ATOM     37  C   UNL A   1      44.257  21.624  25.317  1.00  0.00     0.039 A 
ATOM     38  C   UNL A   1      43.843  22.725  24.574  1.00  0.00     0.014 A 
ATOM     39  C   UNL A   1      44.858  21.788  26.572  1.00  0.00     0.014 A 
ATOM     40  C   UNL A   1      44.034  23.998  25.098  1.00  0.00     0.010 A 
ATOM     41  C   UNL A   1      44.939  23.048  27.141  1.00  0.00     0.010 A 
ATOM     42  C   UNL A   1      44.565  24.167  26.391  1.00  0.00    -0.014 A 
BRANCH  42  43
ATOM     43  C   UNL A   1      44.757  25.526  26.940  1.00  0.00     0.031 A 
ATOM     44  C   UNL A   1      46.104  26.187  26.863  1.00  0.00     0.074 A 
ATOM     45  C   UNL A   1      43.701  26.155  27.487  1.00  0.00     0.049 A 
ATOM     46  N   UNL A   1      46.444  27.401  27.210  1.00  0.00    -0.248 NA
ATOM     47  C   UNL A   1      47.223  25.376  26.357  1.00  0.00     0.031 C 
ATOM     48  C   UNL A   1      42.368  25.569  27.658  1.00  0.00     0.029 A 
ATOM     49  N   UNL A   1      43.567  27.428  27.971  1.00  0.00    -0.354 N 
ATOM     50  C   UNL A   1      47.808  27.498  26.959  1.00  0.00     0.074 A 
ATOM     51  C   UNL A   1      48.249  26.196  26.513  1.00  0.00     0.031 C 
ATOM     52  C   UNL A   1      41.536  26.503  28.139  1.00  0.00     0.029 A 
ATOM     53  C   UNL A   1      42.287  27.733  28.367  1.00  0.00     0.049 A 
ATOM     54  H   UNL A   1      44.317  28.064  28.031  1.00  0.00     0.167 HD
ATOM     55  C   UNL A   1      48.610  28.585  27.063  1.00  0.00     0.034 A 
ATOM     56  C   UNL A   1      41.777  28.879  28.855  1.00  0.00     0.034 A 
ATOM     57  C   UNL A   1      48.139  29.872  27.515  1.00  0.00     0.049 A 
ATOM     58  C   UNL A   1      42.697  30.066  28.986  1.00  0.00     0.074 A 
ATOM     59  C   UNL A   1      48.843  31.056  27.624  1.00  0.00     0.029 A 
ATOM     60  N   UNL A   1      46.844  30.138  27.945  1.00  0.00    -0.354 N 
ATOM     61  N   UNL A   1      43.972  30.162  28.684  1.00  0.00    -0.248 NA
ATOM     62  C   UNL A   1      42.102  31.300  29.508  1.00  0.00     0.031 C 
ATOM     63  C   UNL A   1      48.003  32.011  28.204  1.00  0.00     0.029 A 
ATOM     64  C   UNL A   1      46.741  31.456  28.361  1.00  0.00     0.049 A 
ATOM     65  H   UNL A   1      46.107  29.486  27.954  1.00  0.00     0.167 HD
ATOM     66  C   UNL A   1      44.325  31.481  28.954  1.00  0.00     0.074 A 
ATOM     67  C   UNL A   1      43.120  32.143  29.411  1.00  0.00     0.031 C 
ATOM     68  C   UNL A   1      45.534  32.092  28.835  1.00  0.00     0.034 A 
BRANCH  55  69
ATOM     69  C   UNL A   1      50.069  28.415  26.712  1.00  0.00     0.023 A 
ATOM     70  C   UNL A   1      50.554  28.651  25.412  1.00  0.00     0.031 A 
ATOM     71  C   UNL A   1      50.989  27.986  27.685  1.00  0.00     0.131 A 
ATOM     72  C   UNL A   1      51.897  28.386  25.105  1.00  0.00     0.055 A 
ATOM     73  C   UNL A   1      52.344  27.813  27.395  1.00  0.00     0.041 A 
ATOM     74  F   UNL A   1      50.584  27.715  28.936  1.00  0.00    -0.206 F 
ATOM     75  C   UNL A   1      52.803  27.998  26.095  1.00  0.00     0.022 A 
BRANCH  72  76
ATOM     76  S   UNL A   1      52.409  28.404  23.364  1.00  0.00     0.124 S 
ATOM     77  O   UNL A   1      53.722  29.039  23.450  1.00  0.00    -0.237 OA
ATOM     78  O   UNL A   1      52.405  26.988  23.020  1.00  0.00    -0.237 OA
ATOM     79  O   UNL A   1      51.378  29.208  22.712  1.00  0.00    -0.744 OA
ENDBRANCH  72  76
ENDBRANCH  55  69
BRANCH  56  80
ATOM     80  C   UNL A   1      40.343  28.959  29.254  1.00  0.00     0.023 A 
ATOM     81  C   UNL A   1      39.958  28.916  30.603  1.00  0.00     0.031 A 
ATOM     82  C   UNL A   1      39.329  29.037  28.283  1.00  0.00     0.131 A 
ATOM     83  C   UNL A   1      38.597  28.895  30.941  1.00  0.00     0.055 A 
ATOM     84  C   UNL A   1      37.977  29.085  28.628  1.00  0.00     0.041 A 
ATOM     85  F   UNL A   1      39.639  29.083  26.978  1.00  0.00    -0.206 F 
ATOM     86  C   UNL A   1      37.604  28.996  29.964  1.00  0.00     0.022 A 
BRANCH  83  87
ATOM     87  S   UNL A   1      38.137  28.614  32.674  1.00  0.00     0.124 S 
ATOM     88  O   UNL A   1      36.785  29.156  32.713  1.00  0.00    -0.237 OA
ATOM     89  O   UNL A   1      38.252  27.163  32.785  1.00  0.00    -0.237 OA
ATOM     90  O   UNL A   1      39.138  29.376  33.418  1.00  0.00    -0.744 OA
ENDBRANCH  83  87
ENDBRANCH  56  80
BRANCH  68  91
ATOM     91  C   UNL A   1      45.585  33.563  29.174  1.00  0.00     0.023 A 
ATOM     92  C   UNL A   1      45.486  34.554  28.183  1.00  0.00     0.031 A 
ATOM     93  C   UNL A   1      45.777  33.978  30.505  1.00  0.00     0.131 A 
ATOM     94  C   UNL A   1      45.674  35.902  28.521  1.00  0.00     0.055 A 
ATOM     95  C   UNL A   1      45.873  35.327  30.848  1.00  0.00     0.041 A 
ATOM     96  F   UNL A   1      45.883  33.077  31.495  1.00  0.00    -0.206 F 
ATOM     97  C   UNL A   1      45.844  36.296  29.851  1.00  0.00     0.022 A 
BRANCH  94  98
ATOM     98  S   UNL A   1      45.849  37.113  27.183  1.00  0.00     0.124 S 
ATOM     99  O   UNL A   1      46.196  36.261  26.050  1.00  0.00    -0.237 OA
ATOM    100  O   UNL A   1      44.524  37.723  27.139  1.00  0.00    -0.237 OA
ATOM    101  O   UNL A   1      46.920  37.989  27.653  1.00  0.00    -0.744 OA
ENDBRANCH  94  98
ENDBRANCH  68  91
ENDBRANCH  42  43
ENDBRANCH  34  37
ENDBRANCH  32  33
ENDBRANCH  31  32
ENDBRANCH  30  31
ENDBRANCH  29  30
ENDBRANCH   1  29
TORSDOF 21
ENDMDL
MODEL 2
REMARK VINA RESULT:     -11.8      0.980      7.594
REMARK SMILES C[N@@H+](Cc1ncccc1C(=O)NCCCCCCNC(=O)c1ccc(-c2c3nc(c(-c4cc(S(=O)(=O)[O-])ccc4F)c4ccc([nH]4)c(-c4cc(S(=O)(=O)[O-])ccc4F)c4nc(c(-c5cc(S(=O)(=O)[O-])ccc5F)c5ccc2[nH]5)C=C4)C=C3)cc1)C[C@@H]1CCN(c2ccccc2)C1
REMARK SMILES IDX 14 1 13 2 12 3 10 4 11 5 9 7 4 8 5 9 6 10 8 11 7 12 3 13
REMARK SMILES IDX 2 14 1 15 85 17 86 18 87 19 96 20 88 21 89 22 90 23 91 24
REMARK SMILES IDX 95 25 92 26 94 27 93 28 15 29 16 30 17 31 18 32 19 33 20 34
REMARK SMILES IDX 21 36 22 37 23 38 84 39 24 40 83 41 25 42 26 43 27 44 77 45
REMARK SMILES IDX 28 46 82 47 76 48 78 49 29 50 81 51 75 52 74 53 30 55 62 56
REMARK SMILES IDX 42 57 61 58 43 59 46 60 60 61 79 62 44 63 45 64 59 66 80 67
REMARK SMILES IDX 47 68 31 69 32 70 40 71 33 72 39 73 41 74 38 75 34 76 35 77
REMARK SMILES IDX 36 78 37 79 63 80 64 81 72 82 65 83 71 84 73 85 70 86 66 87
REMARK SMILES IDX 67 88 68 89 69 90 48 91 49 92 57 93 50 94 56 95 58 96 55 97
REMARK SMILES IDX 51 98 52 99 53 100 54 101
REMARK H PARENT 12 6 2 16 19 35 78 54 46 65
REMARK Flexibility Score: inf
ROOT
ATOM      1  C   UNL A   1      39.227  22.884  26.516  1.00  0.00     0.021 C 
ENDROOT
BRANCH   1   2
ATOM      2  C   UNL A   1      38.447  21.817  25.770  1.00  0.00     0.116 C 
BRANCH   2   3
ATOM      3  N   UNL A   1      37.389  22.367  24.828  1.00  0.00    -0.352 N 
ATOM      4  C   UNL A   1      35.838  22.094  24.584  1.00  0.00     0.253 C 
ATOM      5  O   UNL A   1      35.679  23.230  24.023  1.00  0.00    -0.269 OA
ATOM      6  H   UNL A   1      37.747  23.058  24.223  1.00  0.00     0.163 HD
BRANCH   4   7
ATOM      7  C   UNL A   1      34.594  20.370  24.885  1.00  0.00     0.067 A 
ATOM      8  C   UNL A   1      32.971  20.305  25.154  1.00  0.00     0.107 A 
ATOM      9  N   UNL A   1      32.153  19.194  25.081  1.00  0.00    -0.254 NA
ATOM     10  C   UNL A   1      32.674  18.019  24.713  1.00  0.00     0.111 A 
ATOM     11  C   UNL A   1      34.898  18.907  24.626  1.00  0.00     0.017 A 
ATOM     12  C   UNL A   1      34.006  17.825  24.496  1.00  0.00     0.021 A 
BRANCH   8  13
ATOM     13  C   UNL A   1      31.946  21.590  25.384  1.00  0.00     0.320 C 
BRANCH  13  14
ATOM     14  N   UNL A   1      32.291  22.804  26.237  1.00  0.00    -0.332 N 
ATOM     15  C   UNL A   1      32.947  22.397  27.482  1.00  0.00     0.333 C 
ATOM     16  H   UNL A   1      32.937  23.357  25.673  1.00  0.00     0.348 HD
BRANCH  14  17
ATOM     17  C   UNL A   1      31.135  23.702  26.527  1.00  0.00     0.267 C 
BRANCH  17  18
ATOM     18  C   UNL A   1      31.243  24.703  25.432  1.00  0.00     0.065 C 
ATOM     19  C   UNL A   1      31.770  26.461  26.346  1.00  0.00     0.032 C 
ATOM     20  C   UNL A   1      30.606  25.179  23.575  1.00  0.00     0.126 C 
ATOM     21  C   UNL A   1      31.256  27.928  25.131  1.00  0.00     0.117 C 
ATOM     22  N   UNL A   1      30.513  27.161  23.559  1.00  0.00    -0.371 N 
BRANCH  22  23
ATOM     23  C   UNL A   1      29.695  28.173  23.015  1.00  0.00     0.037 A 
ATOM     24  C   UNL A   1      28.308  28.253  23.289  1.00  0.00     0.026 A 
ATOM     25  C   UNL A   1      30.235  29.279  22.358  1.00  0.00     0.026 A 
ATOM     26  C   UNL A   1      27.474  29.233  22.739  1.00  0.00     0.002 A 
ATOM     27  C   UNL A   1      29.421  30.322  21.879  1.00  0.00     0.002 A 
ATOM     28  C   UNL A   1      28.037  30.273  22.021  1.00  0.00     0.000 A 
ENDBRANCH  22  23
ENDBRANCH  17  18
ENDBRANCH  14  17
ENDBRANCH  13  14
ENDBRANCH   8  13
ENDBRANCH   4   7
ENDBRANCH   2   3
ENDBRANCH   1   2
BRANCH   1  29
ATOM     29  C   UNL A   1      40.700  22.520  26.649  1.00  0.00     0.002 C 
BRANCH  29  30
ATOM     30  C   UNL A   1      41.039  21.657  27.878  1.00  0.00     0.002 C 
BRANCH  30  31
ATOM     31  C   UNL A   1      41.508  20.225  27.570  1.00  0.00     0.021 C 
BRANCH  31  32
ATOM     32  C   UNL A   1      41.419  19.869  26.098  1.00  0.00     0.116 C 
BRANCH  32  33
ATOM     33  N   UNL A   1      42.630  19.187  25.684  1.00  0.00    -0.352 N 
ATOM     34  C   UNL A   1      43.731  19.742  25.098  1.00  0.00     0.251 C 
ATOM     35  H   UNL A   1      42.661  18.217  25.843  1.00  0.00     0.163 HD
ATOM     36  O   UNL A   1      44.452  19.066  24.374  1.00  0.00    -0.269 OA
BRANCH  34  37
ATOM     37  C   UNL A   1      44.024  21.159  25.375  1.00  0.00     0.039 A 
ATOM     38  C   UNL A   1      44.654  21.495  26.569  1.00  0.00     0.014 A 
ATOM     39  C   UNL A   1      43.659  22.146  24.451  1.00  0.00     0.014 A 
ATOM     40  C   UNL A   1      44.920  22.833  26.832  1.00  0.00     0.010 A 
ATOM     41  C   UNL A   1      44.031  23.463  24.662  1.00  0.00     0.010 A 
ATOM     42  C   UNL A   1      44.628  23.822  25.874  1.00  0.00    -0.014 A 
BRANCH  42  43
ATOM     43  C   UNL A   1      44.922  25.242  26.164  1.00  0.00     0.031 A 
ATOM     44  C   UNL A   1      43.849  26.138  26.713  1.00  0.00     0.074 A 
ATOM     45  C   UNL A   1      46.168  25.700  25.942  1.00  0.00     0.049 A 
ATOM     46  N   UNL A   1      43.939  27.381  27.108  1.00  0.00    -0.248 NA
ATOM     47  C   UNL A   1      42.491  25.579  26.809  1.00  0.00     0.031 C 
ATOM     48  C   UNL A   1      47.260  24.917  25.355  1.00  0.00     0.029 A 
ATOM     49  N   UNL A   1      46.738  26.916  26.208  1.00  0.00    -0.354 N 
ATOM     50  C   UNL A   1      42.657  27.747  27.502  1.00  0.00     0.074 A 
ATOM     51  C   UNL A   1      41.792  26.625  27.219  1.00  0.00     0.031 C 
ATOM     52  C   UNL A   1      48.384  25.649  25.374  1.00  0.00     0.029 A 
ATOM     53  C   UNL A   1      48.080  26.968  25.916  1.00  0.00     0.049 A 
ATOM     54  H   UNL A   1      46.234  27.680  26.572  1.00  0.00     0.167 HD
ATOM     55  C   UNL A   1      42.250  28.905  28.077  1.00  0.00     0.034 A 
ATOM     56  C   UNL A   1      48.965  27.970  26.074  1.00  0.00     0.034 A 
ATOM     57  C   UNL A   1      43.139  30.008  28.344  1.00  0.00     0.049 A 
ATOM     58  C   UNL A   1      48.480  29.256  26.691  1.00  0.00     0.074 A 
ATOM     59  C   UNL A   1      42.854  31.214  28.957  1.00  0.00     0.029 A 
ATOM     60  N   UNL A   1      44.486  30.045  28.002  1.00  0.00    -0.354 N 
ATOM     61  N   UNL A   1      47.276  29.566  27.119  1.00  0.00    -0.248 NA
ATOM     62  C   UNL A   1      49.476  30.318  26.861  1.00  0.00     0.031 C 
ATOM     63  C   UNL A   1      44.001  32.012  28.904  1.00  0.00     0.029 A 
ATOM     64  C   UNL A   1      45.034  31.269  28.353  1.00  0.00     0.049 A 
ATOM     65  H   UNL A   1      44.980  29.309  27.573  1.00  0.00     0.167 HD
ATOM     66  C   UNL A   1      47.380  30.854  27.636  1.00  0.00     0.074 A 
ATOM     67  C   UNL A   1      48.769  31.243  27.492  1.00  0.00     0.031 C 
ATOM     68  C   UNL A   1      46.418  31.646  28.181  1.00  0.00     0.034 A 
BRANCH  55  69
ATOM     69  C   UNL A   1      40.784  29.037  28.420  1.00  0.00     0.023 A 
ATOM     70  C   UNL A   1      40.318  28.931  29.743  1.00  0.00     0.031 A 
ATOM     71  C   UNL A   1      39.833  29.249  27.406  1.00  0.00     0.131 A 
ATOM     72  C   UNL A   1      38.940  28.962  30.007  1.00  0.00     0.055 A 
ATOM     73  C   UNL A   1      38.471  29.371  27.686  1.00  0.00     0.041 A 
ATOM     74  F   UNL A   1      40.211  29.329  26.120  1.00  0.00    -0.206 F 
ATOM     75  C   UNL A   1      38.015  29.212  28.991  1.00  0.00     0.022 A 
BRANCH  72  76
ATOM     76  S   UNL A   1      38.364  28.515  31.668  1.00  0.00     0.124 S 
ATOM     77  O   UNL A   1      39.274  29.285  32.513  1.00  0.00    -0.237 OA
ATOM     78  O   UNL A   1      36.976  28.959  31.652  1.00  0.00    -0.237 OA
ATOM     79  O   UNL A   1      38.556  27.067  31.719  1.00  0.00    -0.744 OA
ENDBRANCH  72  76
ENDBRANCH  55  69
BRANCH  56  80
ATOM     80  C   UNL A   1      50.383  27.801  25.645  1.00  0.00     0.023 A 
ATOM     81  C   UNL A   1      50.766  27.984  24.307  1.00  0.00     0.031 A 
ATOM     82  C   UNL A   1      51.372  27.408  26.565  1.00  0.00     0.131 A 
ATOM     83  C   UNL A   1      52.088  27.721  23.917  1.00  0.00     0.055 A 
ATOM     84  C   UNL A   1      52.701  27.215  26.184  1.00  0.00     0.041 A 
ATOM     85  F   UNL A   1      51.062  27.219  27.857  1.00  0.00    -0.206 F 
ATOM     86  C   UNL A   1      53.061  27.355  24.849  1.00  0.00     0.022 A 
BRANCH  83  87
ATOM     87  S   UNL A   1      52.492  27.753  22.148  1.00  0.00     0.124 S 
ATOM     88  O   UNL A   1      52.762  26.345  21.882  1.00  0.00    -0.237 OA
ATOM     89  O   UNL A   1      51.268  28.295  21.568  1.00  0.00    -0.237 OA
ATOM     90  O   UNL A   1      53.656  28.635  22.083  1.00  0.00    -0.744 OA
ENDBRANCH  83  87
ENDBRANCH  56  80
BRANCH  68  91
ATOM     91  C   UNL A   1      46.861  32.996  28.692  1.00  0.00     0.023 A 
ATOM     92  C   UNL A   1      46.827  34.142  27.879  1.00  0.00     0.031 A 
ATOM     93  C   UNL A   1      47.363  33.130  30.000  1.00  0.00     0.131 A 
ATOM     94  C   UNL A   1      47.372  35.347  28.347  1.00  0.00     0.055 A 
ATOM     95  C   UNL A   1      47.821  34.353  30.490  1.00  0.00     0.041 A 
ATOM     96  F   UNL A   1      47.424  32.070  30.822  1.00  0.00    -0.206 F 
ATOM     97  C   UNL A   1      47.847  35.465  29.655  1.00  0.00     0.022 A 
BRANCH  94  98
ATOM     98  S   UNL A   1      47.593  36.709  27.170  1.00  0.00     0.124 S 
ATOM     99  O   UNL A   1      47.150  37.858  27.953  1.00  0.00    -0.237 OA
ATOM    100  O   UNL A   1      49.023  36.645  26.884  1.00  0.00    -0.237 OA
ATOM    101  O   UNL A   1      46.721  36.343  26.056  1.00  0.00    -0.744 OA
ENDBRANCH  94  98
ENDBRANCH  68  91
ENDBRANCH  42  43
ENDBRANCH  34  37
ENDBRANCH  32  33
ENDBRANCH  31  32
ENDBRANCH  30  31
ENDBRANCH  29  30
ENDBRANCH   1  29
TORSDOF 21
ENDMDL
MODEL 3
REMARK VINA RESULT:     -11.2      1.661      2.058
REMARK SMILES C[N@@H+](Cc1ncccc1C(=O)NCCCCCCNC(=O)c1ccc(-c2c3nc(c(-c4cc(S(=O)(=O)[O-])ccc4F)c4ccc([nH]4)c(-c4cc(S(=O)(=O)[O-])ccc4F)c4nc(c(-c5cc(S(=O)(=O)[O-])ccc5F)c5ccc2[nH]5)C=C4)C=C3)cc1)C[C@@H]1CCN(c2ccccc2)C1
REMARK SMILES IDX 14 1 13 2 12 3 10 4 11 5 9 7 4 8 5 9 6 10 8 11 7 12 3 13
REMARK SMILES IDX 2 14 1 15 85 17 86 18 87 19 96 20 88 21 89 22 90 23 91 24
REMARK SMILES IDX 95 25 92 26 94 27 93 28 15 29 16 30 17 31 18 32 19 33 20 34
REMARK SMILES IDX 21 36 22 37 23 38 84 39 24 40 83 41 25 42 26 43 27 44 77 45
REMARK SMILES IDX 28 46 82 47 76 48 78 49 29 50 81 51 75 52 74 53 30 55 62 56
REMARK SMILES IDX 42 57 61 58 43 59 46 60 60 61 79 62 44 63 45 64 59 66 80 67
REMARK SMILES IDX 47 68 31 69 32 70 40 71 33 72 39 73 41 74 38 75 34 76 35 77
REMARK SMILES IDX 36 78 37 79 63 80 64 81 72 82 65 83 71 84 73 85 70 86 66 87
REMARK SMILES IDX 67 88 68 89 69 90 48 91 49 92 57 93 50 94 56 95 58 96 55 97
REMARK SMILES IDX 51 98 52 99 53 100 54 101
REMARK H PARENT 12 6 2 16 19 35 78 54 46 65
REMARK Flexibility Score: inf
ROOT
ATOM      1  C   UNL A   1      39.289  23.517  27.030  1.00  0.00     0.021 C 
ENDROOT
BRANCH   1   2
ATOM      2  C   UNL A   1      38.118  23.103  26.157  1.00  0.00     0.116 C 
BRANCH   2   3
ATOM      3  N   UNL A   1      38.086  21.620  25.826  1.00  0.00    -0.352 N 
ATOM      4  C   UNL A   1      37.075  20.651  25.065  1.00  0.00     0.253 C 
ATOM      5  O   UNL A   1      37.991  19.788  24.851  1.00  0.00    -0.269 OA
ATOM      6  H   UNL A   1      38.879  21.142  26.164  1.00  0.00     0.163 HD
BRANCH   4   7
ATOM      7  C   UNL A   1      34.951  20.711  24.752  1.00  0.00     0.067 A 
ATOM      8  C   UNL A   1      34.049  21.885  24.030  1.00  0.00     0.107 A 
ATOM      9  N   UNL A   1      32.738  21.790  23.603  1.00  0.00    -0.254 NA
ATOM     10  C   UNL A   1      32.091  20.627  23.725  1.00  0.00     0.111 A 
ATOM     11  C   UNL A   1      33.930  19.596  24.863  1.00  0.00     0.017 A 
ATOM     12  C   UNL A   1      32.622  19.534  24.345  1.00  0.00     0.021 A 
BRANCH   8  13
ATOM     13  C   UNL A   1      34.581  23.362  23.492  1.00  0.00     0.320 C 
BRANCH  13  14
ATOM     14  N   UNL A   1      33.843  24.670  23.749  1.00  0.00    -0.332 N 
ATOM     15  C   UNL A   1      33.613  25.394  22.496  1.00  0.00     0.333 C 
ATOM     16  H   UNL A   1      32.948  24.400  24.159  1.00  0.00     0.348 HD
BRANCH  14  17
ATOM     17  C   UNL A   1      34.497  25.559  24.753  1.00  0.00     0.267 C 
BRANCH  17  18
ATOM     18  C   UNL A   1      33.799  26.851  24.521  1.00  0.00     0.065 C 
ATOM     19  C   UNL A   1      32.775  27.241  26.253  1.00  0.00     0.032 C 
ATOM     20  C   UNL A   1      33.035  28.072  23.104  1.00  0.00     0.126 C 
ATOM     21  C   UNL A   1      31.322  28.497  25.803  1.00  0.00     0.117 C 
ATOM     22  N   UNL A   1      31.447  28.908  23.952  1.00  0.00    -0.371 N 
BRANCH  22  23
ATOM     23  C   UNL A   1      30.149  29.316  23.582  1.00  0.00     0.037 A 
ATOM     24  C   UNL A   1      29.155  28.395  23.169  1.00  0.00     0.026 A 
ATOM     25  C   UNL A   1      29.696  30.615  23.811  1.00  0.00     0.026 A 
ATOM     26  C   UNL A   1      27.870  28.783  22.775  1.00  0.00     0.002 A 
ATOM     27  C   UNL A   1      28.377  31.000  23.508  1.00  0.00     0.002 A 
ATOM     28  C   UNL A   1      27.481  30.099  22.939  1.00  0.00     0.000 A 
ENDBRANCH  22  23
ENDBRANCH  17  18
ENDBRANCH  14  17
ENDBRANCH  13  14
ENDBRANCH   8  13
ENDBRANCH   4   7
ENDBRANCH   2   3
ENDBRANCH   1   2
BRANCH   1  29
ATOM     29  C   UNL A   1      40.541  22.710  26.716  1.00  0.00     0.002 C 
BRANCH  29  30
ATOM     30  C   UNL A   1      40.994  21.762  27.842  1.00  0.00     0.002 C 
BRANCH  30  31
ATOM     31  C   UNL A   1      41.295  20.318  27.407  1.00  0.00     0.021 C 
BRANCH  31  32
ATOM     32  C   UNL A   1      41.280  20.130  25.902  1.00  0.00     0.116 C 
BRANCH  32  33
ATOM     33  N   UNL A   1      42.524  19.522  25.471  1.00  0.00    -0.352 N 
ATOM     34  C   UNL A   1      43.654  20.162  25.051  1.00  0.00     0.251 C 
ATOM     35  H   UNL A   1      42.557  18.539  25.482  1.00  0.00     0.163 HD
ATOM     36  O   UNL A   1      44.430  19.606  24.282  1.00  0.00    -0.269 OA
BRANCH  34  37
ATOM     37  C   UNL A   1      43.911  21.520  25.560  1.00  0.00     0.039 A 
ATOM     38  C   UNL A   1      43.604  22.611  24.753  1.00  0.00     0.014 A 
ATOM     39  C   UNL A   1      44.466  21.700  26.833  1.00  0.00     0.014 A 
ATOM     40  C   UNL A   1      43.857  23.891  25.232  1.00  0.00     0.010 A 
ATOM     41  C   UNL A   1      44.606  22.977  27.352  1.00  0.00     0.010 A 
ATOM     42  C   UNL A   1      44.340  24.083  26.540  1.00  0.00    -0.014 A 
BRANCH  42  43
ATOM     43  C   UNL A   1      44.599  25.450  27.040  1.00  0.00     0.031 A 
ATOM     44  C   UNL A   1      45.978  26.039  26.947  1.00  0.00     0.074 A 
ATOM     45  C   UNL A   1      43.573  26.151  27.557  1.00  0.00     0.049 A 
ATOM     46  N   UNL A   1      46.377  27.246  27.252  1.00  0.00    -0.248 NA
ATOM     47  C   UNL A   1      47.056  25.154  26.478  1.00  0.00     0.031 C 
ATOM     48  C   UNL A   1      42.212  25.639  27.741  1.00  0.00     0.029 A 
ATOM     49  N   UNL A   1      43.502  27.446  27.994  1.00  0.00    -0.354 N 
ATOM     50  C   UNL A   1      47.745  27.265  27.006  1.00  0.00     0.074 A 
ATOM     51  C   UNL A   1      48.122  25.927  26.610  1.00  0.00     0.031 C 
ATOM     52  C   UNL A   1      41.426  26.632  28.182  1.00  0.00     0.029 A 
ATOM     53  C   UNL A   1      42.237  27.829  28.370  1.00  0.00     0.049 A 
ATOM     54  H   UNL A   1      44.283  28.046  28.035  1.00  0.00     0.167 HD
ATOM     55  C   UNL A   1      48.600  28.314  27.075  1.00  0.00     0.034 A 
ATOM     56  C   UNL A   1      41.784  29.017  28.813  1.00  0.00     0.034 A 
ATOM     57  C   UNL A   1      48.193  29.638  27.477  1.00  0.00     0.049 A 
ATOM     58  C   UNL A   1      42.762  30.160  28.906  1.00  0.00     0.074 A 
ATOM     59  C   UNL A   1      48.956  30.789  27.547  1.00  0.00     0.029 A 
ATOM     60  N   UNL A   1      46.911  29.985  27.889  1.00  0.00    -0.354 N 
ATOM     61  N   UNL A   1      44.041  30.181  28.609  1.00  0.00    -0.248 NA
ATOM     62  C   UNL A   1      42.228  31.441  29.379  1.00  0.00     0.031 C 
ATOM     63  C   UNL A   1      48.162  31.806  28.087  1.00  0.00     0.029 A 
ATOM     64  C   UNL A   1      46.874  31.321  28.255  1.00  0.00     0.049 A 
ATOM     65  H   UNL A   1      46.142  29.371  27.917  1.00  0.00     0.167 HD
ATOM     66  C   UNL A   1      44.459  31.489  28.833  1.00  0.00     0.074 A 
ATOM     67  C   UNL A   1      43.287  32.227  29.258  1.00  0.00     0.031 C 
ATOM     68  C   UNL A   1      45.698  32.034  28.699  1.00  0.00     0.034 A 
BRANCH  55  69
ATOM     69  C   UNL A   1      50.051  28.058  26.739  1.00  0.00     0.023 A 
ATOM     70  C   UNL A   1      51.027  27.886  27.738  1.00  0.00     0.031 A 
ATOM     71  C   UNL A   1      50.472  28.009  25.398  1.00  0.00     0.131 A 
ATOM     72  C   UNL A   1      52.377  27.748  27.384  1.00  0.00     0.055 A 
ATOM     73  C   UNL A   1      51.805  27.779  25.051  1.00  0.00     0.041 A 
ATOM     74  F   UNL A   1      49.595  28.196  24.399  1.00  0.00    -0.206 F 
ATOM     75  C   UNL A   1      52.770  27.663  26.047  1.00  0.00     0.022 A 
BRANCH  72  76
ATOM     76  S   UNL A   1      53.631  27.840  28.692  1.00  0.00     0.124 S 
ATOM     77  O   UNL A   1      53.671  26.457  29.161  1.00  0.00    -0.237 OA
ATOM     78  O   UNL A   1      54.808  28.305  27.970  1.00  0.00    -0.237 OA
ATOM     79  O   UNL A   1      53.065  28.794  29.643  1.00  0.00    -0.744 OA
ENDBRANCH  72  76
ENDBRANCH  55  69
BRANCH  56  80
ATOM     80  C   UNL A   1      40.354  29.184  29.200  1.00  0.00     0.023 A 
ATOM     81  C   UNL A   1      39.949  29.110  30.542  1.00  0.00     0.031 A 
ATOM     82  C   UNL A   1      39.361  29.377  28.222  1.00  0.00     0.131 A 
ATOM     83  C   UNL A   1      38.584  29.173  30.864  1.00  0.00     0.055 A 
ATOM     84  C   UNL A   1      38.012  29.508  28.555  1.00  0.00     0.041 A 
ATOM     85  F   UNL A   1      39.692  29.456  26.924  1.00  0.00    -0.206 F 
ATOM     86  C   UNL A   1      37.615  29.388  29.881  1.00  0.00     0.022 A 
BRANCH  83  87
ATOM     87  S   UNL A   1      38.082  28.852  32.578  1.00  0.00     0.124 S 
ATOM     88  O   UNL A   1      39.017  29.686  33.322  1.00  0.00    -0.237 OA
ATOM     89  O   UNL A   1      36.691  29.292  32.572  1.00  0.00    -0.237 OA
ATOM     90  O   UNL A   1      38.277  27.411  32.723  1.00  0.00    -0.744 OA
ENDBRANCH  83  87
ENDBRANCH  56  80
BRANCH  68  91
ATOM     91  C   UNL A   1      45.822  33.512  28.985  1.00  0.00     0.023 A 
ATOM     92  C   UNL A   1      45.797  34.468  27.955  1.00  0.00     0.031 A 
ATOM     93  C   UNL A   1      46.010  33.966  30.303  1.00  0.00     0.131 A 
ATOM     94  C   UNL A   1      46.050  35.816  28.248  1.00  0.00     0.055 A 
ATOM     95  C   UNL A   1      46.171  35.320  30.598  1.00  0.00     0.041 A 
ATOM     96  F   UNL A   1      46.047  33.099  31.327  1.00  0.00    -0.206 F 
ATOM     97  C   UNL A   1      46.214  36.251  29.565  1.00  0.00     0.022 A 
BRANCH  94  98
ATOM     98  S   UNL A   1      46.318  36.964  26.870  1.00  0.00     0.124 S 
ATOM     99  O   UNL A   1      45.059  37.701  26.843  1.00  0.00    -0.237 OA
ATOM    100  O   UNL A   1      47.488  37.716  27.313  1.00  0.00    -0.237 OA
ATOM    101  O   UNL A   1      46.546  36.080  25.728  1.00  0.00    -0.744 OA
ENDBRANCH  94  98
ENDBRANCH  68  91
ENDBRANCH  42  43
ENDBRANCH  34  37
ENDBRANCH  32  33
ENDBRANCH  31  32
ENDBRANCH  30  31
ENDBRANCH  29  30
ENDBRANCH   1  29
TORSDOF 21
ENDMDL
