MODEL 1
REMARK VINA RESULT:     -12.3      0.000      0.000
REMARK SMILES Cc1cc(C)n(C)c(=O)c1C(=O)N1CCC2(CC1)C[NH2+][C@@H](C(=O)NCCCCCCNC(=O)c1ccc(-c3c4nc(c(-c5cc(S(=O)(=O)[O-])ccc5F)c5ccc([nH]5)c(-c5cc(S(=O)(=O)[O-])ccc5F)c5nc(c(-c6cc(S(=O)(=O)[O-])ccc6F)c6ccc3[nH]6)C=C5)C=C4)cc1)C2
REMARK SMILES IDX 28 1 27 2 26 3 25 4 24 5 22 6 23 7 21 9 11 10 12 11 13 12
REMARK SMILES IDX 14 13 18 14 15 15 17 16 16 17 19 18 97 19 20 20 10 23 1 24
REMARK SMILES IDX 2 25 3 26 4 27 8 28 5 29 6 30 9 31 7 32 29 33 30 34 31 35
REMARK SMILES IDX 32 36 33 38 34 39 35 40 96 41 36 42 95 43 37 44 38 45 39 46
REMARK SMILES IDX 89 47 40 48 94 49 88 50 90 51 41 52 93 53 87 54 86 55 42 57
REMARK SMILES IDX 74 58 54 59 73 60 55 61 58 62 72 63 91 64 56 65 57 66 71 68
REMARK SMILES IDX 92 69 59 70 43 71 44 72 52 73 45 74 51 75 53 76 50 77 46 78
REMARK SMILES IDX 47 79 48 80 49 81 75 82 76 83 84 84 77 85 83 86 85 87 82 88
REMARK SMILES IDX 78 89 79 90 80 91 81 92 60 93 61 94 69 95 62 96 68 97 70 98
REMARK SMILES IDX 67 99 63 100 64 101 65 102 66 103
REMARK H PARENT 24 8 20 21 20 22 31 37 90 56 58 67
REMARK Flexibility Score: inf
ROOT
ATOM      1  C   UNL A   1      38.355  21.807  25.757  1.00  0.00     0.002 C 
ENDROOT
BRANCH   1   2
ATOM      2  C   UNL A   1      37.402  22.305  24.666  1.00  0.00     0.002 C 
BRANCH   2   3
ATOM      3  C   UNL A   1      36.205  21.388  24.402  1.00  0.00     0.021 C 
BRANCH   3   4
ATOM      4  C   UNL A   1      35.651  20.733  25.663  1.00  0.00     0.116 C 
BRANCH   4   5
ATOM      5  N   UNL A   1      34.300  20.243  25.452  1.00  0.00    -0.351 N 
ATOM      6  C   UNL A   1      33.106  20.880  25.626  1.00  0.00     0.278 C 
ATOM      7  O   UNL A   1      32.071  20.247  25.395  1.00  0.00    -0.268 OA
ATOM      8  H   UNL A   1      34.237  19.313  25.135  1.00  0.00     0.163 HD
BRANCH   6   9
ATOM      9  C   UNL A   1      33.039  22.332  26.111  1.00  0.00     0.273 C 
ATOM     10  C   UNL A   1      32.505  28.407  23.583  1.00  0.00     0.259 C 
ATOM     11  O   UNL A   1      33.580  28.956  23.324  1.00  0.00    -0.269 OA
ATOM     12  N   UNL A   1      32.524  27.069  23.943  1.00  0.00    -0.338 N 
ATOM     13  C   UNL A   1      33.698  26.596  24.651  1.00  0.00     0.120 C 
ATOM     14  C   UNL A   1      31.772  26.015  23.278  1.00  0.00     0.120 C 
ATOM     15  C   UNL A   1      33.224  25.775  25.831  1.00  0.00     0.034 C 
ATOM     16  C   UNL A   1      31.358  24.896  24.250  1.00  0.00     0.034 C 
ATOM     17  C   UNL A   1      32.357  24.569  25.408  1.00  0.00     0.029 C 
ATOM     18  C   UNL A   1      31.609  24.082  26.676  1.00  0.00     0.268 C 
ATOM     19  C   UNL A   1      33.255  23.371  25.016  1.00  0.00     0.088 C 
ATOM     20  N   UNL A   1      31.715  22.635  26.679  1.00  0.00    -0.336 N 
ATOM     21  H   UNL A   1      30.979  22.223  26.106  1.00  0.00     0.346 HD
ATOM     22  H   UNL A   1      31.612  22.251  27.619  1.00  0.00     0.346 HD
BRANCH  10  23
ATOM     23  C   UNL A   1      31.234  29.235  23.725  1.00  0.00     0.108 A 
ATOM     24  C   UNL A   1      31.776  30.515  25.891  1.00  0.00     0.045 C 
ATOM     25  C   UNL A   1      30.955  30.137  24.699  1.00  0.00    -0.031 A 
ATOM     26  C   UNL A   1      29.764  30.961  24.638  1.00  0.00     0.026 A 
ATOM     27  C   UNL A   1      28.981  31.012  23.556  1.00  0.00     0.018 A 
ATOM     28  C   UNL A   1      30.254  29.182  22.552  1.00  0.00     0.263 A 
ATOM     29  C   UNL A   1      27.838  31.991  23.544  1.00  0.00     0.064 C 
ATOM     30  N   UNL A   1      29.239  30.156  22.499  1.00  0.00    -0.315 N 
ATOM     31  O   UNL A   1      30.356  28.324  21.674  1.00  0.00    -0.268 OA
ATOM     32  C   UNL A   1      28.407  30.196  21.303  1.00  0.00     0.153 C 
ENDBRANCH  10  23
ENDBRANCH   6   9
ENDBRANCH   4   5
ENDBRANCH   3   4
ENDBRANCH   2   3
ENDBRANCH   1   2
BRANCH   1  33
ATOM     33  C   UNL A   1      39.200  20.593  25.363  1.00  0.00     0.021 C 
BRANCH  33  34
ATOM     34  C   UNL A   1      39.956  19.957  26.523  1.00  0.00     0.116 C 
BRANCH  34  35
ATOM     35  N   UNL A   1      41.180  19.312  26.076  1.00  0.00    -0.352 N 
ATOM     36  C   UNL A   1      42.394  19.876  25.764  1.00  0.00     0.251 C 
ATOM     37  H   UNL A   1      41.132  18.333  25.984  1.00  0.00     0.163 HD
ATOM     38  O   UNL A   1      43.243  19.219  25.178  1.00  0.00    -0.269 OA
BRANCH  36  39
ATOM     39  C   UNL A   1      42.648  21.286  26.129  1.00  0.00     0.039 A 
ATOM     40  C   UNL A   1      42.880  21.610  27.466  1.00  0.00     0.014 A 
ATOM     41  C   UNL A   1      42.661  22.281  25.147  1.00  0.00     0.014 A 
ATOM     42  C   UNL A   1      43.184  22.927  27.811  1.00  0.00     0.010 A 
ATOM     43  C   UNL A   1      43.039  23.577  25.480  1.00  0.00     0.010 A 
ATOM     44  C   UNL A   1      43.296  23.914  26.817  1.00  0.00    -0.014 A 
BRANCH  44  45
ATOM     45  C   UNL A   1      43.656  25.312  27.163  1.00  0.00     0.031 A 
ATOM     46  C   UNL A   1      45.049  25.812  26.899  1.00  0.00     0.074 A 
ATOM     47  C   UNL A   1      42.740  26.119  27.732  1.00  0.00     0.049 A 
ATOM     48  N   UNL A   1      45.572  26.979  27.171  1.00  0.00    -0.248 NA
ATOM     49  C   UNL A   1      45.981  24.869  26.262  1.00  0.00     0.031 C 
ATOM     50  C   UNL A   1      41.359  25.742  28.042  1.00  0.00     0.029 A 
ATOM     51  N   UNL A   1      42.827  27.425  28.141  1.00  0.00    -0.354 N 
ATOM     52  C   UNL A   1      46.888  26.916  26.729  1.00  0.00     0.074 A 
ATOM     53  C   UNL A   1      47.105  25.570  26.244  1.00  0.00     0.031 C 
ATOM     54  C   UNL A   1      40.715  26.809  28.542  1.00  0.00     0.029 A 
ATOM     55  C   UNL A   1      41.647  27.930  28.635  1.00  0.00     0.049 A 
ATOM     56  H   UNL A   1      43.656  27.954  28.083  1.00  0.00     0.167 HD
ATOM     57  C   UNL A   1      47.820  27.898  26.696  1.00  0.00     0.034 A 
ATOM     58  C   UNL A   1      41.349  29.155  29.109  1.00  0.00     0.034 A 
ATOM     59  C   UNL A   1      47.591  29.237  27.176  1.00  0.00     0.049 A 
ATOM     60  C   UNL A   1      42.425  30.209  29.140  1.00  0.00     0.074 A 
ATOM     61  C   UNL A   1      48.466  30.310  27.181  1.00  0.00     0.029 A 
ATOM     62  N   UNL A   1      46.403  29.689  27.732  1.00  0.00    -0.354 N 
ATOM     63  N   UNL A   1      43.668  30.127  28.729  1.00  0.00    -0.248 NA
ATOM     64  C   UNL A   1      42.059  31.515  29.703  1.00  0.00     0.031 C 
ATOM     65  C   UNL A   1      47.827  31.390  27.797  1.00  0.00     0.029 A 
ATOM     66  C   UNL A   1      46.530  31.016  28.111  1.00  0.00     0.049 A 
ATOM     67  H   UNL A   1      45.588  29.147  27.842  1.00  0.00     0.167 HD
ATOM     68  C   UNL A   1      44.226  31.381  28.960  1.00  0.00     0.074 A 
ATOM     69  C   UNL A   1      43.182  32.200  29.542  1.00  0.00     0.031 C 
ATOM     70  C   UNL A   1      45.487  31.815  28.707  1.00  0.00     0.034 A 
BRANCH  57  71
ATOM     71  C   UNL A   1      49.170  27.554  26.122  1.00  0.00     0.023 A 
ATOM     72  C   UNL A   1      49.465  27.790  24.768  1.00  0.00     0.031 A 
ATOM     73  C   UNL A   1      50.169  26.986  26.928  1.00  0.00     0.131 A 
ATOM     74  C   UNL A   1      50.710  27.408  24.247  1.00  0.00     0.055 A 
ATOM     75  C   UNL A   1      51.432  26.673  26.421  1.00  0.00     0.041 A 
ATOM     76  F   UNL A   1      49.935  26.719  28.223  1.00  0.00    -0.206 F 
ATOM     77  C   UNL A   1      51.705  26.875  25.070  1.00  0.00     0.022 A 
BRANCH  74  78
ATOM     78  S   UNL A   1      50.973  27.525  22.458  1.00  0.00     0.124 S 
ATOM     79  O   UNL A   1      49.812  26.802  21.943  1.00  0.00    -0.237 OA
ATOM     80  O   UNL A   1      50.979  28.966  22.232  1.00  0.00    -0.237 OA
ATOM     81  O   UNL A   1      52.256  26.857  22.256  1.00  0.00    -0.744 OA
ENDBRANCH  74  78
ENDBRANCH  57  71
BRANCH  58  82
ATOM     82  C   UNL A   1      39.968  29.457  29.573  1.00  0.00     0.023 A 
ATOM     83  C   UNL A   1      39.659  29.461  30.943  1.00  0.00     0.031 A 
ATOM     84  C   UNL A   1      38.941  29.761  28.663  1.00  0.00     0.131 A 
ATOM     85  C   UNL A   1      38.351  29.744  31.363  1.00  0.00     0.055 A 
ATOM     86  C   UNL A   1      37.651  30.080  29.086  1.00  0.00     0.041 A 
ATOM     87  F   UNL A   1      39.189  29.780  27.342  1.00  0.00    -0.206 F 
ATOM     88  C   UNL A   1      37.348  30.068  30.445  1.00  0.00     0.022 A 
BRANCH  85  89
ATOM     89  S   UNL A   1      37.969  29.664  33.134  1.00  0.00     0.124 S 
ATOM     90  O   UNL A   1      39.303  29.621  33.722  1.00  0.00    -0.237 OA
ATOM     91  O   UNL A   1      37.215  30.896  33.340  1.00  0.00    -0.237 OA
ATOM     92  O   UNL A   1      37.190  28.433  33.258  1.00  0.00    -0.744 OA
ENDBRANCH  85  89
ENDBRANCH  58  82
BRANCH  70  93
ATOM     93  C   UNL A   1      45.809  33.248  29.041  1.00  0.00     0.023 A 
ATOM     94  C   UNL A   1      45.696  34.266  28.080  1.00  0.00     0.031 A 
ATOM     95  C   UNL A   1      46.182  33.604  30.348  1.00  0.00     0.131 A 
ATOM     96  C   UNL A   1      45.983  35.593  28.434  1.00  0.00     0.055 A 
ATOM     97  C   UNL A   1      46.416  34.932  30.709  1.00  0.00     0.041 A 
ATOM     98  F   UNL A   1      46.300  32.669  31.304  1.00  0.00    -0.206 F 
ATOM     99  C   UNL A   1      46.324  35.934  29.747  1.00  0.00     0.022 A 
BRANCH  96 100
ATOM    100  S   UNL A   1      45.945  36.866  27.145  1.00  0.00     0.124 S 
ATOM    101  O   UNL A   1      46.890  37.850  27.663  1.00  0.00    -0.237 OA
ATOM    102  O   UNL A   1      46.377  36.129  25.962  1.00  0.00    -0.237 OA
ATOM    103  O   UNL A   1      44.548  37.296  27.128  1.00  0.00    -0.744 OA
ENDBRANCH  96 100
ENDBRANCH  70  93
ENDBRANCH  44  45
ENDBRANCH  36  39
ENDBRANCH  34  35
ENDBRANCH  33  34
ENDBRANCH   1  33
TORSDOF 17
ENDMDL
MODEL 2
REMARK VINA RESULT:     -12.3      1.483      2.011
REMARK SMILES Cc1cc(C)n(C)c(=O)c1C(=O)N1CCC2(CC1)C[NH2+][C@@H](C(=O)NCCCCCCNC(=O)c1ccc(-c3c4nc(c(-c5cc(S(=O)(=O)[O-])ccc5F)c5ccc([nH]5)c(-c5cc(S(=O)(=O)[O-])ccc5F)c5nc(c(-c6cc(S(=O)(=O)[O-])ccc6F)c6ccc3[nH]6)C=C5)C=C4)cc1)C2
REMARK SMILES IDX 28 1 27 2 26 3 25 4 24 5 22 6 23 7 21 9 11 10 12 11 13 12
REMARK SMILES IDX 14 13 18 14 15 15 17 16 16 17 19 18 97 19 20 20 10 23 1 24
REMARK SMILES IDX 2 25 3 26 4 27 8 28 5 29 6 30 9 31 7 32 29 33 30 34 31 35
REMARK SMILES IDX 32 36 33 38 34 39 35 40 96 41 36 42 95 43 37 44 38 45 39 46
REMARK SMILES IDX 89 47 40 48 94 49 88 50 90 51 41 52 93 53 87 54 86 55 42 57
REMARK SMILES IDX 74 58 54 59 73 60 55 61 58 62 72 63 91 64 56 65 57 66 71 68
REMARK SMILES IDX 92 69 59 70 43 71 44 72 52 73 45 74 51 75 53 76 50 77 46 78
REMARK SMILES IDX 47 79 48 80 49 81 75 82 76 83 84 84 77 85 83 86 85 87 82 88
REMARK SMILES IDX 78 89 79 90 80 91 81 92 60 93 61 94 69 95 62 96 68 97 70 98
REMARK SMILES IDX 67 99 63 100 64 101 65 102 66 103
REMARK H PARENT 24 8 20 21 20 22 31 37 90 56 58 67
REMARK Flexibility Score: inf
ROOT
ATOM      1  C   UNL A   1      41.683  21.059  27.752  1.00  0.00     0.002 C 
ENDROOT
BRANCH   1   2
ATOM      2  C   UNL A   1      41.084  22.049  26.748  1.00  0.00     0.002 C 
BRANCH   2   3
ATOM      3  C   UNL A   1      39.863  22.814  27.264  1.00  0.00     0.021 C 
BRANCH   3   4
ATOM      4  C   UNL A   1      38.920  23.272  26.156  1.00  0.00     0.116 C 
BRANCH   4   5
ATOM      5  N   UNL A   1      38.189  22.152  25.591  1.00  0.00    -0.351 N 
ATOM      6  C   UNL A   1      36.843  21.967  25.460  1.00  0.00     0.278 C 
ATOM      7  O   UNL A   1      36.447  20.912  24.955  1.00  0.00    -0.268 OA
ATOM      8  H   UNL A   1      38.747  21.416  25.250  1.00  0.00     0.163 HD
BRANCH   6   9
ATOM      9  C   UNL A   1      35.843  23.024  25.939  1.00  0.00     0.273 C 
ATOM     10  C   UNL A   1      32.225  27.951  23.442  1.00  0.00     0.259 C 
ATOM     11  O   UNL A   1      32.785  29.051  23.435  1.00  0.00    -0.269 OA
ATOM     12  N   UNL A   1      32.978  26.837  23.779  1.00  0.00    -0.338 N 
ATOM     13  C   UNL A   1      34.062  27.037  24.722  1.00  0.00     0.120 C 
ATOM     14  C   UNL A   1      33.129  25.651  22.950  1.00  0.00     0.120 C 
ATOM     15  C   UNL A   1      33.981  25.935  25.756  1.00  0.00     0.034 C 
ATOM     16  C   UNL A   1      33.307  24.373  23.790  1.00  0.00     0.034 C 
ATOM     17  C   UNL A   1      34.091  24.525  25.135  1.00  0.00     0.029 C 
ATOM     18  C   UNL A   1      33.581  23.520  26.201  1.00  0.00     0.268 C 
ATOM     19  C   UNL A   1      35.577  24.140  24.933  1.00  0.00     0.088 C 
ATOM     20  N   UNL A   1      34.527  22.420  26.206  1.00  0.00    -0.336 N 
ATOM     21  H   UNL A   1      34.292  21.744  25.479  1.00  0.00     0.346 HD
ATOM     22  H   UNL A   1      34.517  21.918  27.094  1.00  0.00     0.346 HD
BRANCH  10  23
ATOM     23  C   UNL A   1      30.711  27.859  23.313  1.00  0.00     0.108 A 
ATOM     24  C   UNL A   1      30.228  26.012  25.039  1.00  0.00     0.045 C 
ATOM     25  C   UNL A   1      29.882  27.045  24.014  1.00  0.00    -0.031 A 
ATOM     26  C   UNL A   1      28.441  27.158  23.893  1.00  0.00     0.026 A 
ATOM     27  C   UNL A   1      27.854  28.165  23.239  1.00  0.00     0.018 A 
ATOM     28  C   UNL A   1      30.037  28.920  22.441  1.00  0.00     0.263 A 
ATOM     29  C   UNL A   1      26.352  28.262  23.274  1.00  0.00     0.064 C 
ATOM     30  N   UNL A   1      28.641  29.067  22.544  1.00  0.00    -0.315 N 
ATOM     31  O   UNL A   1      30.695  29.633  21.683  1.00  0.00    -0.268 OA
ATOM     32  C   UNL A   1      28.027  30.179  21.830  1.00  0.00     0.153 C 
ENDBRANCH  10  23
ENDBRANCH   6   9
ENDBRANCH   4   5
ENDBRANCH   3   4
ENDBRANCH   2   3
ENDBRANCH   1   2
BRANCH   1  33
ATOM     33  C   UNL A   1      42.049  19.694  27.163  1.00  0.00     0.021 C 
BRANCH  33  34
ATOM     34  C   UNL A   1      41.966  19.629  25.643  1.00  0.00     0.116 C 
BRANCH  34  35
ATOM     35  N   UNL A   1      43.240  19.254  25.052  1.00  0.00    -0.352 N 
ATOM     36  C   UNL A   1      44.324  20.045  24.753  1.00  0.00     0.251 C 
ATOM     37  H   UNL A   1      43.341  18.300  24.833  1.00  0.00     0.163 HD
ATOM     38  O   UNL A   1      45.221  19.614  24.042  1.00  0.00    -0.269 OA
BRANCH  36  39
ATOM     39  C   UNL A   1      44.379  21.423  25.288  1.00  0.00     0.039 A 
ATOM     40  C   UNL A   1      44.948  21.641  26.543  1.00  0.00     0.014 A 
ATOM     41  C   UNL A   1      43.874  22.493  24.543  1.00  0.00     0.014 A 
ATOM     42  C   UNL A   1      45.063  22.945  27.027  1.00  0.00     0.010 A 
ATOM     43  C   UNL A   1      44.058  23.795  24.993  1.00  0.00     0.010 A 
ATOM     44  C   UNL A   1      44.647  24.034  26.243  1.00  0.00    -0.014 A 
BRANCH  44  45
ATOM     45  C   UNL A   1      44.797  25.428  26.727  1.00  0.00     0.031 A 
ATOM     46  C   UNL A   1      46.133  26.111  26.638  1.00  0.00     0.074 A 
ATOM     47  C   UNL A   1      43.741  26.068  27.265  1.00  0.00     0.049 A 
ATOM     48  N   UNL A   1      46.480  27.304  27.047  1.00  0.00    -0.248 NA
ATOM     49  C   UNL A   1      47.229  25.344  26.025  1.00  0.00     0.031 C 
ATOM     50  C   UNL A   1      42.397  25.505  27.410  1.00  0.00     0.029 A 
ATOM     51  N   UNL A   1      43.626  27.335  27.778  1.00  0.00    -0.354 N 
ATOM     52  C   UNL A   1      47.826  27.435  26.732  1.00  0.00     0.074 A 
ATOM     53  C   UNL A   1      48.252  26.172  26.169  1.00  0.00     0.031 C 
ATOM     54  C   UNL A   1      41.583  26.440  27.925  1.00  0.00     0.029 A 
ATOM     55  C   UNL A   1      42.354  27.651  28.193  1.00  0.00     0.049 A 
ATOM     56  H   UNL A   1      44.385  27.961  27.842  1.00  0.00     0.167 HD
ATOM     57  C   UNL A   1      48.626  28.520  26.863  1.00  0.00     0.034 A 
ATOM     58  C   UNL A   1      41.864  28.786  28.729  1.00  0.00     0.034 A 
ATOM     59  C   UNL A   1      48.190  29.776  27.420  1.00  0.00     0.049 A 
ATOM     60  C   UNL A   1      42.792  29.953  28.943  1.00  0.00     0.074 A 
ATOM     61  C   UNL A   1      48.919  30.939  27.592  1.00  0.00     0.029 A 
ATOM     62  N   UNL A   1      46.910  30.033  27.891  1.00  0.00    -0.354 N 
ATOM     63  N   UNL A   1      44.067  30.056  28.649  1.00  0.00    -0.248 NA
ATOM     64  C   UNL A   1      42.217  31.152  29.566  1.00  0.00     0.031 C 
ATOM     65  C   UNL A   1      48.098  31.879  28.223  1.00  0.00     0.029 A 
ATOM     66  C   UNL A   1      46.836  31.328  28.381  1.00  0.00     0.049 A 
ATOM     67  H   UNL A   1      46.164  29.391  27.880  1.00  0.00     0.167 HD
ATOM     68  C   UNL A   1      44.440  31.342  29.028  1.00  0.00     0.074 A 
ATOM     69  C   UNL A   1      43.255  31.977  29.568  1.00  0.00     0.031 C 
ATOM     70  C   UNL A   1      45.653  31.942  28.932  1.00  0.00     0.034 A 
BRANCH  57  71
ATOM     71  C   UNL A   1      50.053  28.390  26.398  1.00  0.00     0.023 A 
ATOM     72  C   UNL A   1      50.393  28.550  25.044  1.00  0.00     0.031 A 
ATOM     73  C   UNL A   1      51.082  28.103  27.310  1.00  0.00     0.131 A 
ATOM     74  C   UNL A   1      51.721  28.368  24.630  1.00  0.00     0.055 A 
ATOM     75  C   UNL A   1      52.414  27.994  26.903  1.00  0.00     0.041 A 
ATOM     76  F   UNL A   1      50.812  27.920  28.612  1.00  0.00    -0.206 F 
ATOM     77  C   UNL A   1      52.738  28.116  25.554  1.00  0.00     0.022 A 
BRANCH  74  78
ATOM     78  S   UNL A   1      52.081  28.363  22.854  1.00  0.00     0.124 S 
ATOM     79  O   UNL A   1      51.407  29.582  22.415  1.00  0.00    -0.237 OA
ATOM     80  O   UNL A   1      53.539  28.395  22.827  1.00  0.00    -0.237 OA
ATOM     81  O   UNL A   1      51.475  27.119  22.385  1.00  0.00    -0.744 OA
ENDBRANCH  74  78
ENDBRANCH  57  71
BRANCH  58  82
ATOM     82  C   UNL A   1      40.421  28.881  29.079  1.00  0.00     0.023 A 
ATOM     83  C   UNL A   1      40.004  28.806  30.418  1.00  0.00     0.031 A 
ATOM     84  C   UNL A   1      39.439  29.062  28.089  1.00  0.00     0.131 A 
ATOM     85  C   UNL A   1      38.639  28.894  30.729  1.00  0.00     0.055 A 
ATOM     86  C   UNL A   1      38.087  29.187  28.407  1.00  0.00     0.041 A 
ATOM     87  F   UNL A   1      39.789  29.149  26.795  1.00  0.00    -0.206 F 
ATOM     88  C   UNL A   1      37.679  29.098  29.735  1.00  0.00     0.022 A 
BRANCH  85  89
ATOM     89  S   UNL A   1      38.129  28.716  32.461  1.00  0.00     0.124 S 
ATOM     90  O   UNL A   1      38.169  27.268  32.633  1.00  0.00    -0.237 OA
ATOM     91  O   UNL A   1      39.157  29.476  33.162  1.00  0.00    -0.237 OA
ATOM     92  O   UNL A   1      36.794  29.311  32.483  1.00  0.00    -0.744 OA
ENDBRANCH  85  89
ENDBRANCH  58  82
BRANCH  70  93
ATOM     93  C   UNL A   1      45.761  33.369  29.404  1.00  0.00     0.023 A 
ATOM     94  C   UNL A   1      45.507  34.446  28.541  1.00  0.00     0.031 A 
ATOM     95  C   UNL A   1      46.074  33.649  30.746  1.00  0.00     0.131 A 
ATOM     96  C   UNL A   1      45.596  35.761  29.022  1.00  0.00     0.055 A 
ATOM     97  C   UNL A   1      46.111  34.957  31.232  1.00  0.00     0.041 A 
ATOM     98  F   UNL A   1      46.322  32.654  31.612  1.00  0.00    -0.206 F 
ATOM     99  C   UNL A   1      45.877  36.022  30.367  1.00  0.00     0.022 A 
BRANCH  96 100
ATOM    100  S   UNL A   1      45.378  37.131  27.856  1.00  0.00     0.124 S 
ATOM    101  O   UNL A   1      46.746  37.363  27.403  1.00  0.00    -0.237 OA
ATOM    102  O   UNL A   1      44.467  36.563  26.868  1.00  0.00    -0.237 OA
ATOM    103  O   UNL A   1      44.809  38.196  28.679  1.00  0.00    -0.744 OA
ENDBRANCH  96 100
ENDBRANCH  70  93
ENDBRANCH  44  45
ENDBRANCH  36  39
ENDBRANCH  34  35
ENDBRANCH  33  34
ENDBRANCH   1  33
TORSDOF 17
ENDMDL
MODEL 3
REMARK VINA RESULT:     -12.2      0.528      7.430
REMARK SMILES Cc1cc(C)n(C)c(=O)c1C(=O)N1CCC2(CC1)C[NH2+][C@@H](C(=O)NCCCCCCNC(=O)c1ccc(-c3c4nc(c(-c5cc(S(=O)(=O)[O-])ccc5F)c5ccc([nH]5)c(-c5cc(S(=O)(=O)[O-])ccc5F)c5nc(c(-c6cc(S(=O)(=O)[O-])ccc6F)c6ccc3[nH]6)C=C5)C=C4)cc1)C2
REMARK SMILES IDX 28 1 27 2 26 3 25 4 24 5 22 6 23 7 21 9 11 10 12 11 13 12
REMARK SMILES IDX 14 13 18 14 15 15 17 16 16 17 19 18 97 19 20 20 10 23 1 24
REMARK SMILES IDX 2 25 3 26 4 27 8 28 5 29 6 30 9 31 7 32 29 33 30 34 31 35
REMARK SMILES IDX 32 36 33 38 34 39 35 40 96 41 36 42 95 43 37 44 38 45 39 46
REMARK SMILES IDX 89 47 40 48 94 49 88 50 90 51 41 52 93 53 87 54 86 55 42 57
REMARK SMILES IDX 74 58 54 59 73 60 55 61 58 62 72 63 91 64 56 65 57 66 71 68
REMARK SMILES IDX 92 69 59 70 43 71 44 72 52 73 45 74 51 75 53 76 50 77 46 78
REMARK SMILES IDX 47 79 48 80 49 81 75 82 76 83 84 84 77 85 83 86 85 87 82 88
REMARK SMILES IDX 78 89 79 90 80 91 81 92 60 93 61 94 69 95 62 96 68 97 70 98
REMARK SMILES IDX 67 99 63 100 64 101 65 102 66 103
REMARK H PARENT 24 8 20 21 20 22 31 37 90 56 58 67
REMARK Flexibility Score: inf
ROOT
ATOM      1  C   UNL A   1      38.577  21.917  25.858  1.00  0.00     0.002 C 
ENDROOT
BRANCH   1   2
ATOM      2  C   UNL A   1      37.474  22.416  24.919  1.00  0.00     0.002 C 
BRANCH   2   3
ATOM      3  C   UNL A   1      36.404  21.373  24.587  1.00  0.00     0.021 C 
BRANCH   3   4
ATOM      4  C   UNL A   1      35.725  20.785  25.819  1.00  0.00     0.116 C 
BRANCH   4   5
ATOM      5  N   UNL A   1      34.389  20.308  25.507  1.00  0.00    -0.351 N 
ATOM      6  C   UNL A   1      33.190  20.952  25.598  1.00  0.00     0.278 C 
ATOM      7  O   UNL A   1      32.170  20.330  25.288  1.00  0.00    -0.268 OA
ATOM      8  H   UNL A   1      34.342  19.380  25.179  1.00  0.00     0.163 HD
BRANCH   6   9
ATOM      9  C   UNL A   1      33.100  22.401  26.088  1.00  0.00     0.273 C 
ATOM     10  C   UNL A   1      32.462  28.476  23.580  1.00  0.00     0.259 C 
ATOM     11  O   UNL A   1      33.528  29.043  23.323  1.00  0.00    -0.269 OA
ATOM     12  N   UNL A   1      32.504  27.136  23.936  1.00  0.00    -0.338 N 
ATOM     13  C   UNL A   1      33.687  26.681  24.642  1.00  0.00     0.120 C 
ATOM     14  C   UNL A   1      31.770  26.073  23.268  1.00  0.00     0.120 C 
ATOM     15  C   UNL A   1      33.227  25.849  25.819  1.00  0.00     0.034 C 
ATOM     16  C   UNL A   1      31.374  24.943  24.237  1.00  0.00     0.034 C 
ATOM     17  C   UNL A   1      32.380  24.629  25.393  1.00  0.00     0.029 C 
ATOM     18  C   UNL A   1      31.641  24.126  26.660  1.00  0.00     0.268 C 
ATOM     19  C   UNL A   1      33.298  23.448  24.996  1.00  0.00     0.088 C 
ATOM     20  N   UNL A   1      31.771  22.681  26.659  1.00  0.00    -0.336 N 
ATOM     21  H   UNL A   1      31.042  22.258  26.085  1.00  0.00     0.346 HD
ATOM     22  H   UNL A   1      31.676  22.293  27.597  1.00  0.00     0.346 HD
BRANCH  10  23
ATOM     23  C   UNL A   1      31.178  29.281  23.726  1.00  0.00     0.108 A 
ATOM     24  C   UNL A   1      31.710  30.582  25.882  1.00  0.00     0.045 C 
ATOM     25  C   UNL A   1      30.889  30.183  24.697  1.00  0.00    -0.031 A 
ATOM     26  C   UNL A   1      29.683  30.986  24.640  1.00  0.00     0.026 A 
ATOM     27  C   UNL A   1      28.893  31.017  23.562  1.00  0.00     0.018 A 
ATOM     28  C   UNL A   1      30.192  29.205  22.559  1.00  0.00     0.263 A 
ATOM     29  C   UNL A   1      27.733  31.976  23.552  1.00  0.00     0.064 C 
ATOM     30  N   UNL A   1      29.159  30.160  22.507  1.00  0.00    -0.315 N 
ATOM     31  O   UNL A   1      30.303  28.345  21.686  1.00  0.00    -0.268 OA
ATOM     32  C   UNL A   1      28.320  30.180  21.316  1.00  0.00     0.153 C 
ENDBRANCH  10  23
ENDBRANCH   6   9
ENDBRANCH   4   5
ENDBRANCH   3   4
ENDBRANCH   2   3
ENDBRANCH   1   2
BRANCH   1  33
ATOM     33  C   UNL A   1      39.186  20.567  25.469  1.00  0.00     0.021 C 
BRANCH  33  34
ATOM     34  C   UNL A   1      39.975  19.895  26.586  1.00  0.00     0.116 C 
BRANCH  34  35
ATOM     35  N   UNL A   1      41.141  19.194  26.072  1.00  0.00    -0.352 N 
ATOM     36  C   UNL A   1      42.358  19.702  25.686  1.00  0.00     0.251 C 
ATOM     37  H   UNL A   1      41.045  18.218  25.989  1.00  0.00     0.163 HD
ATOM     38  O   UNL A   1      43.141  19.005  25.055  1.00  0.00    -0.269 OA
BRANCH  36  39
ATOM     39  C   UNL A   1      42.695  21.100  26.026  1.00  0.00     0.039 A 
ATOM     40  C   UNL A   1      42.992  21.424  27.351  1.00  0.00     0.014 A 
ATOM     41  C   UNL A   1      42.723  22.085  25.034  1.00  0.00     0.014 A 
ATOM     42  C   UNL A   1      43.374  22.727  27.671  1.00  0.00     0.010 A 
ATOM     43  C   UNL A   1      43.177  23.363  25.340  1.00  0.00     0.010 A 
ATOM     44  C   UNL A   1      43.500  23.698  26.664  1.00  0.00    -0.014 A 
BRANCH  44  45
ATOM     45  C   UNL A   1      43.942  25.079  26.981  1.00  0.00     0.031 A 
ATOM     46  C   UNL A   1      42.956  26.072  27.532  1.00  0.00     0.074 A 
ATOM     47  C   UNL A   1      45.218  25.442  26.753  1.00  0.00     0.049 A 
ATOM     48  N   UNL A   1      43.134  27.333  27.827  1.00  0.00    -0.248 NA
ATOM     49  C   UNL A   1      41.587  25.587  27.763  1.00  0.00     0.031 C 
ATOM     50  C   UNL A   1      46.262  24.567  26.215  1.00  0.00     0.029 A 
ATOM     51  N   UNL A   1      45.860  26.638  26.955  1.00  0.00    -0.354 N 
ATOM     52  C   UNL A   1      41.905  27.789  28.289  1.00  0.00     0.074 A 
ATOM     53  C   UNL A   1      40.972  26.691  28.160  1.00  0.00     0.031 C 
ATOM     54  C   UNL A   1      47.424  25.240  26.181  1.00  0.00     0.029 A 
ATOM     55  C   UNL A   1      47.200  26.607  26.645  1.00  0.00     0.049 A 
ATOM     56  H   UNL A   1      45.404  27.444  27.292  1.00  0.00     0.167 HD
ATOM     57  C   UNL A   1      41.590  29.000  28.808  1.00  0.00     0.034 A 
ATOM     58  C   UNL A   1      48.140  27.568  26.726  1.00  0.00     0.034 A 
ATOM     59  C   UNL A   1      42.529  30.086  28.937  1.00  0.00     0.049 A 
ATOM     60  C   UNL A   1      47.748  28.933  27.229  1.00  0.00     0.074 A 
ATOM     61  C   UNL A   1      42.314  31.351  29.456  1.00  0.00     0.029 A 
ATOM     62  N   UNL A   1      43.860  30.035  28.549  1.00  0.00    -0.354 N 
ATOM     63  N   UNL A   1      46.578  29.350  27.650  1.00  0.00    -0.248 NA
ATOM     64  C   UNL A   1      48.802  29.956  27.260  1.00  0.00     0.031 C 
ATOM     65  C   UNL A   1      43.498  32.083  29.324  1.00  0.00     0.029 A 
ATOM     66  C   UNL A   1      44.472  31.255  28.789  1.00  0.00     0.049 A 
ATOM     67  H   UNL A   1      44.306  29.248  28.159  1.00  0.00     0.167 HD
ATOM     68  C   UNL A   1      46.761  30.679  28.022  1.00  0.00     0.074 A 
ATOM     69  C   UNL A   1      48.155  30.991  27.778  1.00  0.00     0.031 C 
ATOM     70  C   UNL A   1      45.858  31.557  28.525  1.00  0.00     0.034 A 
BRANCH  57  71
ATOM     71  C   UNL A   1      40.172  29.209  29.270  1.00  0.00     0.023 A 
ATOM     72  C   UNL A   1      39.825  29.088  30.627  1.00  0.00     0.031 A 
ATOM     73  C   UNL A   1      39.158  29.530  28.353  1.00  0.00     0.131 A 
ATOM     74  C   UNL A   1      38.486  29.232  31.021  1.00  0.00     0.055 A 
ATOM     75  C   UNL A   1      37.839  29.743  28.762  1.00  0.00     0.041 A 
ATOM     76  F   UNL A   1      39.429  29.638  27.042  1.00  0.00    -0.206 F 
ATOM     77  C   UNL A   1      37.496  29.584  30.102  1.00  0.00     0.022 A 
BRANCH  74  78
ATOM     78  S   UNL A   1      38.044  28.851  32.737  1.00  0.00     0.124 S 
ATOM     79  O   UNL A   1      39.081  29.570  33.473  1.00  0.00    -0.237 OA
ATOM     80  O   UNL A   1      36.694  29.393  32.843  1.00  0.00    -0.237 OA
ATOM     81  O   UNL A   1      38.139  27.394  32.800  1.00  0.00    -0.744 OA
ENDBRANCH  74  78
ENDBRANCH  57  71
BRANCH  58  82
ATOM     82  C   UNL A   1      49.546  27.267  26.343  1.00  0.00     0.023 A 
ATOM     83  C   UNL A   1      49.986  27.471  25.025  1.00  0.00     0.031 A 
ATOM     84  C   UNL A   1      50.473  26.788  27.284  1.00  0.00     0.131 A 
ATOM     85  C   UNL A   1      51.314  27.179  24.680  1.00  0.00     0.055 A 
ATOM     86  C   UNL A   1      51.803  26.536  26.945  1.00  0.00     0.041 A 
ATOM     87  F   UNL A   1      50.103  26.586  28.559  1.00  0.00    -0.206 F 
ATOM     88  C   UNL A   1      52.229  26.726  25.633  1.00  0.00     0.022 A 
BRANCH  85  89
ATOM     89  S   UNL A   1      51.829  27.380  22.952  1.00  0.00     0.124 S 
ATOM     90  O   UNL A   1      52.225  28.784  22.924  1.00  0.00    -0.237 OA
ATOM     91  O   UNL A   1      52.907  26.404  22.839  1.00  0.00    -0.237 OA
ATOM     92  O   UNL A   1      50.619  27.057  22.198  1.00  0.00    -0.744 OA
ENDBRANCH  85  89
ENDBRANCH  58  82
BRANCH  70  93
ATOM     93  C   UNL A   1      46.349  32.940  28.865  1.00  0.00     0.023 A 
ATOM     94  C   UNL A   1      46.254  33.997  27.945  1.00  0.00     0.031 A 
ATOM     95  C   UNL A   1      46.870  33.214  30.142  1.00  0.00     0.131 A 
ATOM     96  C   UNL A   1      46.701  35.277  28.305  1.00  0.00     0.055 A 
ATOM     97  C   UNL A   1      47.266  34.499  30.513  1.00  0.00     0.041 A 
ATOM     98  F   UNL A   1      46.977  32.239  31.059  1.00  0.00    -0.206 F 
ATOM     99  C   UNL A   1      47.188  35.538  29.590  1.00  0.00     0.022 A 
BRANCH  96 100
ATOM    100  S   UNL A   1      46.676  36.591  27.057  1.00  0.00     0.124 S 
ATOM    101  O   UNL A   1      45.388  37.227  27.314  1.00  0.00    -0.237 OA
ATOM    102  O   UNL A   1      47.855  37.378  27.404  1.00  0.00    -0.237 OA
ATOM    103  O   UNL A   1      46.768  35.866  25.792  1.00  0.00    -0.744 OA
ENDBRANCH  96 100
ENDBRANCH  70  93
ENDBRANCH  44  45
ENDBRANCH  36  39
ENDBRANCH  34  35
ENDBRANCH  33  34
ENDBRANCH   1  33
TORSDOF 17
ENDMDL
