MODEL 1
REMARK VINA RESULT:      -9.9      0.000      0.000
REMARK SMILES O=C(CNC(=O)CN1C(=O)S/C(=C\c2cccc(Br)c2)C1=O)NCCCCCCNC(=O)c1ccc(-c2c3nc(c(-c4cc(S(=O)(=O)[O-])ccc4F)c4ccc([nH]4)c(-c4cc(S(=O)(=O)[O-])ccc4F)c4nc(c(-c5cc(S(=O)(=O)[O-])ccc5F)c5ccc2[nH]5)C=C4)C=C3)cc1
REMARK SMILES IDX 26 1 25 2 24 3 23 4 1 5 2 6 3 8 4 9 5 10 6 12 7 13 8 14 9 15
REMARK SMILES IDX 21 16 10 17 11 18 12 19 22 20 13 21 14 22 15 23 20 24 16 25
REMARK SMILES IDX 18 26 17 27 19 28 27 29 28 30 29 31 30 32 31 33 32 35 33 36
REMARK SMILES IDX 34 37 95 38 35 39 94 40 36 41 37 42 38 43 88 44 39 45 93 46
REMARK SMILES IDX 87 47 89 48 40 49 92 50 86 51 85 52 41 54 73 55 53 56 72 57
REMARK SMILES IDX 54 58 57 59 71 60 90 61 55 62 56 63 70 65 91 66 58 67 42 68
REMARK SMILES IDX 43 69 51 70 44 71 50 72 52 73 49 74 45 75 46 76 47 77 48 78
REMARK SMILES IDX 74 79 75 80 83 81 76 82 82 83 84 84 81 85 77 86 78 87 79 88
REMARK SMILES IDX 80 89 59 90 60 91 68 92 61 93 67 94 69 95 66 96 62 97 63 98
REMARK SMILES IDX 64 99 65 100
REMARK H PARENT 23 7 4 11 30 34 89 53 57 64
REMARK Flexibility Score: inf
ROOT
ATOM      1  C   UNL A   1      39.433  21.940  26.697  1.00  0.00     0.002 C 
ENDROOT
BRANCH   1   2
ATOM      2  C   UNL A   1      39.272  23.449  26.520  1.00  0.00     0.021 C 
BRANCH   2   3
ATOM      3  C   UNL A   1      37.865  23.868  26.101  1.00  0.00     0.116 C 
BRANCH   3   4
ATOM      4  N   UNL A   1      36.896  22.822  26.384  1.00  0.00    -0.355 N 
ATOM      5  O   UNL A   1      35.056  23.913  25.549  1.00  0.00    -0.273 OA
ATOM      6  C   UNL A   1      35.551  22.945  26.117  1.00  0.00     0.239 C 
ATOM      7  H   UNL A   1      37.218  21.983  26.786  1.00  0.00     0.163 HD
BRANCH   6   8
ATOM      8  C   UNL A   1      34.682  21.821  26.701  1.00  0.00     0.216 C 
BRANCH   8   9
ATOM      9  N   UNL A   1      34.612  20.649  25.839  1.00  0.00    -0.345 N 
ATOM     10  C   UNL A   1      33.595  20.162  25.082  1.00  0.00     0.240 C 
ATOM     11  H   UNL A   1      35.443  20.121  25.799  1.00  0.00     0.164 HD
ATOM     12  O   UNL A   1      33.894  19.299  24.250  1.00  0.00    -0.273 OA
BRANCH  10  13
ATOM     13  C   UNL A   1      32.184  20.756  25.111  1.00  0.00     0.229 C 
BRANCH  13  14
ATOM     14  N   UNL A   1      32.051  22.138  24.677  1.00  0.00    -0.259 N 
ATOM     15  C   UNL A   1      32.185  22.479  23.357  1.00  0.00     0.294 C 
ATOM     16  C   UNL A   1      31.533  23.103  25.508  1.00  0.00     0.268 C 
ATOM     17  O   UNL A   1      32.482  21.734  22.439  1.00  0.00    -0.261 OA
ATOM     18  S   UNL A   1      31.815  24.177  23.126  1.00  0.00    -0.022 SA
ATOM     19  C   UNL A   1      31.349  24.388  24.767  1.00  0.00     0.083 C 
ATOM     20  O   UNL A   1      31.267  22.952  26.692  1.00  0.00    -0.268 OA
ATOM     21  C   UNL A   1      30.910  25.514  25.350  1.00  0.00     0.029 C 
BRANCH  21  22
ATOM     22  C   UNL A   1      30.757  26.827  24.699  1.00  0.00    -0.023 A 
ATOM     23  C   UNL A   1      31.835  27.710  24.647  1.00  0.00     0.008 A 
ATOM     24  C   UNL A   1      29.547  27.222  24.114  1.00  0.00     0.023 A 
ATOM     25  C   UNL A   1      31.701  28.954  24.016  1.00  0.00     0.002 A 
ATOM     26  C   UNL A   1      29.414  28.460  23.489  1.00  0.00     0.018 A 
ATOM     27  C   UNL A   1      30.491  29.329  23.432  1.00  0.00     0.016 A 
ATOM     28  Br  UNL A   1      27.744  28.953  22.751  1.00  0.00    -0.051 Br
ENDBRANCH  21  22
ENDBRANCH  13  14
ENDBRANCH  10  13
ENDBRANCH   8   9
ENDBRANCH   6   8
ENDBRANCH   3   4
ENDBRANCH   2   3
ENDBRANCH   1   2
BRANCH   1  29
ATOM     29  C   UNL A   1      40.828  21.320  26.639  1.00  0.00     0.002 C 
BRANCH  29  30
ATOM     30  C   UNL A   1      41.016  20.008  25.869  1.00  0.00     0.021 C 
BRANCH  30  31
ATOM     31  C   UNL A   1      42.270  19.163  26.133  1.00  0.00     0.116 C 
BRANCH  31  32
ATOM     32  N   UNL A   1      43.251  19.145  25.057  1.00  0.00    -0.352 N 
ATOM     33  C   UNL A   1      44.096  20.148  24.624  1.00  0.00     0.251 C 
ATOM     34  H   UNL A   1      43.323  18.294  24.566  1.00  0.00     0.163 HD
ATOM     35  O   UNL A   1      44.843  19.941  23.672  1.00  0.00    -0.269 OA
BRANCH  33  36
ATOM     36  C   UNL A   1      44.067  21.489  25.262  1.00  0.00     0.039 A 
ATOM     37  C   UNL A   1      44.691  21.664  26.501  1.00  0.00     0.014 A 
ATOM     38  C   UNL A   1      43.453  22.578  24.641  1.00  0.00     0.014 A 
ATOM     39  C   UNL A   1      44.788  22.945  27.058  1.00  0.00     0.010 A 
ATOM     40  C   UNL A   1      43.602  23.863  25.167  1.00  0.00     0.010 A 
ATOM     41  C   UNL A   1      44.297  24.067  26.368  1.00  0.00    -0.014 A 
BRANCH  41  42
ATOM     42  C   UNL A   1      44.590  25.447  26.852  1.00  0.00     0.031 A 
ATOM     43  C   UNL A   1      43.560  26.257  27.591  1.00  0.00     0.074 A 
ATOM     44  C   UNL A   1      45.790  25.994  26.568  1.00  0.00     0.049 A 
ATOM     45  N   UNL A   1      43.668  27.456  28.111  1.00  0.00    -0.248 NA
ATOM     46  C   UNL A   1      42.229  25.656  27.742  1.00  0.00     0.031 C 
ATOM     47  C   UNL A   1      46.851  25.339  25.797  1.00  0.00     0.029 A 
ATOM     48  N   UNL A   1      46.329  27.214  26.896  1.00  0.00    -0.354 N 
ATOM     49  C   UNL A   1      42.420  27.755  28.649  1.00  0.00     0.074 A 
ATOM     50  C   UNL A   1      41.557  26.635  28.332  1.00  0.00     0.031 C 
ATOM     51  C   UNL A   1      47.928  26.137  25.762  1.00  0.00     0.029 A 
ATOM     52  C   UNL A   1      47.626  27.380  26.464  1.00  0.00     0.049 A 
ATOM     53  H   UNL A   1      45.835  27.905  27.392  1.00  0.00     0.167 HD
ATOM     54  C   UNL A   1      42.038  28.850  29.356  1.00  0.00     0.034 A 
ATOM     55  C   UNL A   1      48.481  28.410  26.621  1.00  0.00     0.034 A 
ATOM     56  C   UNL A   1      42.911  29.962  29.653  1.00  0.00     0.049 A 
ATOM     57  C   UNL A   1      48.026  29.622  27.391  1.00  0.00     0.074 A 
ATOM     58  C   UNL A   1      42.650  31.084  30.423  1.00  0.00     0.029 A 
ATOM     59  N   UNL A   1      44.209  30.111  29.176  1.00  0.00    -0.354 N 
ATOM     60  N   UNL A   1      46.872  29.848  27.976  1.00  0.00    -0.248 NA
ATOM     61  C   UNL A   1      48.999  30.712  27.533  1.00  0.00     0.031 C 
ATOM     62  C   UNL A   1      43.749  31.947  30.337  1.00  0.00     0.029 A 
ATOM     63  C   UNL A   1      44.740  31.325  29.593  1.00  0.00     0.049 A 
ATOM     64  H   UNL A   1      44.684  29.451  28.622  1.00  0.00     0.167 HD
ATOM     65  C   UNL A   1      46.993  31.095  28.581  1.00  0.00     0.074 A 
ATOM     66  C   UNL A   1      48.341  31.555  28.313  1.00  0.00     0.031 C 
ATOM     67  C   UNL A   1      46.073  31.797  29.294  1.00  0.00     0.034 A 
BRANCH  54  68
ATOM     68  C   UNL A   1      40.598  28.910  29.823  1.00  0.00     0.023 A 
ATOM     69  C   UNL A   1      39.589  29.504  29.044  1.00  0.00     0.031 A 
ATOM     70  C   UNL A   1      40.232  28.391  31.078  1.00  0.00     0.131 A 
ATOM     71  C   UNL A   1      38.293  29.647  29.561  1.00  0.00     0.055 A 
ATOM     72  C   UNL A   1      38.918  28.453  31.549  1.00  0.00     0.041 A 
ATOM     73  F   UNL A   1      41.149  27.828  31.881  1.00  0.00    -0.206 F 
ATOM     74  C   UNL A   1      37.943  29.101  30.797  1.00  0.00     0.022 A 
BRANCH  71  75
ATOM     75  S   UNL A   1      37.116  30.705  28.672  1.00  0.00     0.124 S 
ATOM     76  O   UNL A   1      35.904  30.534  29.471  1.00  0.00    -0.237 OA
ATOM     77  O   UNL A   1      37.751  32.015  28.747  1.00  0.00    -0.237 OA
ATOM     78  O   UNL A   1      37.061  30.111  27.338  1.00  0.00    -0.744 OA
ENDBRANCH  71  75
ENDBRANCH  54  68
BRANCH  55  79
ATOM     79  C   UNL A   1      49.861  28.342  26.055  1.00  0.00     0.023 A 
ATOM     80  C   UNL A   1      50.092  28.571  24.689  1.00  0.00     0.031 A 
ATOM     81  C   UNL A   1      50.963  28.010  26.863  1.00  0.00     0.131 A 
ATOM     82  C   UNL A   1      51.384  28.420  24.162  1.00  0.00     0.055 A 
ATOM     83  C   UNL A   1      52.256  27.917  26.344  1.00  0.00     0.041 A 
ATOM     84  F   UNL A   1      50.800  27.783  28.176  1.00  0.00    -0.206 F 
ATOM     85  C   UNL A   1      52.470  28.110  24.983  1.00  0.00     0.022 A 
BRANCH  82  86
ATOM     86  S   UNL A   1      51.611  28.553  22.367  1.00  0.00     0.124 S 
ATOM     87  O   UNL A   1      52.645  29.576  22.273  1.00  0.00    -0.237 OA
ATOM     88  O   UNL A   1      52.014  27.196  22.010  1.00  0.00    -0.237 OA
ATOM     89  O   UNL A   1      50.290  28.954  21.887  1.00  0.00    -0.744 OA
ENDBRANCH  82  86
ENDBRANCH  55  79
BRANCH  67  90
ATOM     90  C   UNL A   1      46.520  33.129  29.855  1.00  0.00     0.023 A 
ATOM     91  C   UNL A   1      46.361  34.327  29.132  1.00  0.00     0.031 A 
ATOM     92  C   UNL A   1      47.165  33.199  31.104  1.00  0.00     0.131 A 
ATOM     93  C   UNL A   1      46.918  35.519  29.619  1.00  0.00     0.055 A 
ATOM     94  C   UNL A   1      47.644  34.404  31.620  1.00  0.00     0.041 A 
ATOM     95  F   UNL A   1      47.353  32.092  31.839  1.00  0.00    -0.206 F 
ATOM     96  C   UNL A   1      47.540  35.570  30.867  1.00  0.00     0.022 A 
BRANCH  93  97
ATOM     97  S   UNL A   1      46.949  36.970  28.529  1.00  0.00     0.124 S 
ATOM     98  O   UNL A   1      46.268  37.972  29.341  1.00  0.00    -0.237 OA
ATOM     99  O   UNL A   1      48.379  37.178  28.326  1.00  0.00    -0.237 OA
ATOM    100  O   UNL A   1      46.213  36.525  27.346  1.00  0.00    -0.744 OA
ENDBRANCH  93  97
ENDBRANCH  67  90
ENDBRANCH  41  42
ENDBRANCH  33  36
ENDBRANCH  31  32
ENDBRANCH  30  31
ENDBRANCH  29  30
ENDBRANCH   1  29
TORSDOF 20
ENDMDL
MODEL 2
REMARK VINA RESULT:      -9.8      6.609     11.936
REMARK SMILES O=C(CNC(=O)CN1C(=O)S/C(=C\c2cccc(Br)c2)C1=O)NCCCCCCNC(=O)c1ccc(-c2c3nc(c(-c4cc(S(=O)(=O)[O-])ccc4F)c4ccc([nH]4)c(-c4cc(S(=O)(=O)[O-])ccc4F)c4nc(c(-c5cc(S(=O)(=O)[O-])ccc5F)c5ccc2[nH]5)C=C4)C=C3)cc1
REMARK SMILES IDX 26 1 25 2 24 3 23 4 1 5 2 6 3 8 4 9 5 10 6 12 7 13 8 14 9 15
REMARK SMILES IDX 21 16 10 17 11 18 12 19 22 20 13 21 14 22 15 23 20 24 16 25
REMARK SMILES IDX 18 26 17 27 19 28 27 29 28 30 29 31 30 32 31 33 32 35 33 36
REMARK SMILES IDX 34 37 95 38 35 39 94 40 36 41 37 42 38 43 88 44 39 45 93 46
REMARK SMILES IDX 87 47 89 48 40 49 92 50 86 51 85 52 41 54 73 55 53 56 72 57
REMARK SMILES IDX 54 58 57 59 71 60 90 61 55 62 56 63 70 65 91 66 58 67 42 68
REMARK SMILES IDX 43 69 51 70 44 71 50 72 52 73 49 74 45 75 46 76 47 77 48 78
REMARK SMILES IDX 74 79 75 80 83 81 76 82 82 83 84 84 81 85 77 86 78 87 79 88
REMARK SMILES IDX 80 89 59 90 60 91 68 92 61 93 67 94 69 95 66 96 62 97 63 98
REMARK SMILES IDX 64 99 65 100
REMARK H PARENT 23 7 4 11 30 34 89 53 57 64
REMARK Flexibility Score: inf
ROOT
ATOM      1  C   UNL A   1      33.626  29.613  27.386  1.00  0.00     0.002 C 
ENDROOT
BRANCH   1   2
ATOM      2  C   UNL A   1      32.105  29.472  27.384  1.00  0.00     0.021 C 
BRANCH   2   3
ATOM      3  C   UNL A   1      31.627  28.026  27.500  1.00  0.00     0.116 C 
BRANCH   3   4
ATOM      4  N   UNL A   1      32.329  27.162  26.567  1.00  0.00    -0.355 N 
ATOM      5  O   UNL A   1      31.125  27.734  24.696  1.00  0.00    -0.273 OA
ATOM      6  C   UNL A   1      31.994  27.055  25.235  1.00  0.00     0.239 C 
ATOM      7  H   UNL A   1      33.082  26.625  26.903  1.00  0.00     0.163 HD
BRANCH   6   8
ATOM      8  C   UNL A   1      32.712  25.922  24.488  1.00  0.00     0.216 C 
BRANCH   8   9
ATOM      9  N   UNL A   1      31.818  25.140  23.645  1.00  0.00    -0.345 N 
ATOM     10  C   UNL A   1      31.149  23.983  23.891  1.00  0.00     0.240 C 
ATOM     11  H   UNL A   1      31.674  25.513  22.744  1.00  0.00     0.164 HD
ATOM     12  O   UNL A   1      30.260  23.682  23.088  1.00  0.00    -0.273 OA
BRANCH  10  13
ATOM     13  C   UNL A   1      31.342  23.173  25.176  1.00  0.00     0.229 C 
BRANCH  13  14
ATOM     14  N   UNL A   1      32.706  22.794  25.508  1.00  0.00    -0.259 N 
ATOM     15  C   UNL A   1      33.082  22.578  26.807  1.00  0.00     0.294 C 
ATOM     16  C   UNL A   1      33.592  22.384  24.539  1.00  0.00     0.268 C 
ATOM     17  O   UNL A   1      32.392  22.731  27.800  1.00  0.00    -0.261 OA
ATOM     18  S   UNL A   1      34.730  21.984  26.874  1.00  0.00    -0.022 SA
ATOM     19  C   UNL A   1      34.860  21.895  25.162  1.00  0.00     0.083 C 
ATOM     20  O   UNL A   1      33.391  22.420  23.333  1.00  0.00    -0.268 OA
ATOM     21  C   UNL A   1      35.917  21.485  24.446  1.00  0.00     0.029 C 
BRANCH  21  22
ATOM     22  C   UNL A   1      37.215  21.044  24.986  1.00  0.00    -0.023 A 
ATOM     23  C   UNL A   1      37.595  19.706  24.886  1.00  0.00     0.008 A 
ATOM     24  C   UNL A   1      38.098  21.940  25.603  1.00  0.00     0.023 A 
ATOM     25  C   UNL A   1      38.834  19.283  25.384  1.00  0.00     0.002 A 
ATOM     26  C   UNL A   1      39.329  21.518  26.100  1.00  0.00     0.018 A 
ATOM     27  C   UNL A   1      39.706  20.189  25.988  1.00  0.00     0.016 A 
ATOM     28  Br  UNL A   1      40.463  22.767  26.955  1.00  0.00    -0.051 Br
ENDBRANCH  21  22
ENDBRANCH  13  14
ENDBRANCH  10  13
ENDBRANCH   8   9
ENDBRANCH   6   8
ENDBRANCH   3   4
ENDBRANCH   2   3
ENDBRANCH   1   2
BRANCH   1  29
ATOM     29  C   UNL A   1      34.253  30.997  27.546  1.00  0.00     0.002 C 
BRANCH  29  30
ATOM     30  C   UNL A   1      33.353  32.230  27.404  1.00  0.00     0.021 C 
BRANCH  30  31
ATOM     31  C   UNL A   1      33.939  33.618  27.700  1.00  0.00     0.116 C 
BRANCH  31  32
ATOM     32  N   UNL A   1      33.083  34.508  28.471  1.00  0.00    -0.352 N 
ATOM     33  C   UNL A   1      33.201  34.918  29.785  1.00  0.00     0.251 C 
ATOM     34  H   UNL A   1      32.306  34.870  27.986  1.00  0.00     0.163 HD
ATOM     35  O   UNL A   1      32.351  35.662  30.266  1.00  0.00    -0.269 OA
BRANCH  33  36
ATOM     36  C   UNL A   1      34.314  34.422  30.635  1.00  0.00     0.039 A 
ATOM     37  C   UNL A   1      34.093  33.321  31.468  1.00  0.00     0.014 A 
ATOM     38  C   UNL A   1      35.577  35.014  30.598  1.00  0.00     0.014 A 
ATOM     39  C   UNL A   1      35.161  32.758  32.178  1.00  0.00     0.010 A 
ATOM     40  C   UNL A   1      36.654  34.418  31.259  1.00  0.00     0.010 A 
ATOM     41  C   UNL A   1      36.464  33.264  32.034  1.00  0.00    -0.014 A 
BRANCH  41  42
ATOM     42  C   UNL A   1      37.631  32.538  32.614  1.00  0.00     0.031 A 
ATOM     43  C   UNL A   1      38.301  31.410  31.879  1.00  0.00     0.074 A 
ATOM     44  C   UNL A   1      38.053  32.871  33.852  1.00  0.00     0.049 A 
ATOM     45  N   UNL A   1      39.348  30.702  32.228  1.00  0.00    -0.248 NA
ATOM     46  C   UNL A   1      37.703  31.005  30.601  1.00  0.00     0.031 C 
ATOM     47  C   UNL A   1      37.443  33.901  34.700  1.00  0.00     0.029 A 
ATOM     48  N   UNL A   1      39.093  32.394  34.613  1.00  0.00    -0.354 N 
ATOM     49  C   UNL A   1      39.533  29.766  31.215  1.00  0.00     0.074 A 
ATOM     50  C   UNL A   1      38.449  29.960  30.274  1.00  0.00     0.031 C 
ATOM     51  C   UNL A   1      38.153  34.017  35.832  1.00  0.00     0.029 A 
ATOM     52  C   UNL A   1      39.238  33.042  35.819  1.00  0.00     0.049 A 
ATOM     53  H   UNL A   1      39.678  31.658  34.322  1.00  0.00     0.167 HD
ATOM     54  C   UNL A   1      40.524  28.848  31.074  1.00  0.00     0.034 A 
ATOM     55  C   UNL A   1      40.146  32.878  36.801  1.00  0.00     0.034 A 
ATOM     56  C   UNL A   1      41.592  28.663  32.030  1.00  0.00     0.049 A 
ATOM     57  C   UNL A   1      41.223  31.839  36.632  1.00  0.00     0.074 A 
ATOM     58  C   UNL A   1      42.686  27.816  31.950  1.00  0.00     0.029 A 
ATOM     59  N   UNL A   1      41.692  29.315  33.254  1.00  0.00    -0.354 N 
ATOM     60  N   UNL A   1      41.440  31.027  35.622  1.00  0.00    -0.248 NA
ATOM     61  C   UNL A   1      42.186  31.706  37.731  1.00  0.00     0.031 C 
ATOM     62  C   UNL A   1      43.392  27.889  33.157  1.00  0.00     0.029 A 
ATOM     63  C   UNL A   1      42.799  28.853  33.957  1.00  0.00     0.049 A 
ATOM     64  H   UNL A   1      41.069  30.005  33.578  1.00  0.00     0.167 HD
ATOM     65  C   UNL A   1      42.585  30.308  35.955  1.00  0.00     0.074 A 
ATOM     66  C   UNL A   1      43.024  30.805  37.244  1.00  0.00     0.031 C 
ATOM     67  C   UNL A   1      43.215  29.326  35.258  1.00  0.00     0.034 A 
BRANCH  54  68
ATOM     68  C   UNL A   1      40.473  27.949  29.856  1.00  0.00     0.023 A 
ATOM     69  C   UNL A   1      41.337  28.132  28.761  1.00  0.00     0.031 A 
ATOM     70  C   UNL A   1      39.529  26.910  29.775  1.00  0.00     0.131 A 
ATOM     71  C   UNL A   1      41.181  27.356  27.603  1.00  0.00     0.055 A 
ATOM     72  C   UNL A   1      39.440  26.078  28.655  1.00  0.00     0.041 A 
ATOM     73  F   UNL A   1      38.661  26.692  30.775  1.00  0.00    -0.206 F 
ATOM     74  C   UNL A   1      40.256  26.311  27.552  1.00  0.00     0.022 A 
BRANCH  71  75
ATOM     75  S   UNL A   1      42.084  27.841  26.105  1.00  0.00     0.124 S 
ATOM     76  O   UNL A   1      41.394  29.075  25.732  1.00  0.00    -0.237 OA
ATOM     77  O   UNL A   1      43.448  27.995  26.595  1.00  0.00    -0.237 OA
ATOM     78  O   UNL A   1      41.868  26.718  25.196  1.00  0.00    -0.744 OA
ENDBRANCH  71  75
ENDBRANCH  54  68
BRANCH  55  79
ATOM     79  C   UNL A   1      40.094  33.726  38.029  1.00  0.00     0.023 A 
ATOM     80  C   UNL A   1      39.219  33.416  39.083  1.00  0.00     0.031 A 
ATOM     81  C   UNL A   1      40.890  34.878  38.152  1.00  0.00     0.131 A 
ATOM     82  C   UNL A   1      39.125  34.272  40.191  1.00  0.00     0.055 A 
ATOM     83  C   UNL A   1      40.835  35.696  39.283  1.00  0.00     0.041 A 
ATOM     84  F   UNL A   1      41.746  35.220  37.176  1.00  0.00    -0.206 F 
ATOM     85  C   UNL A   1      39.939  35.401  40.305  1.00  0.00     0.022 A 
BRANCH  82  86
ATOM     86  S   UNL A   1      37.861  33.932  41.447  1.00  0.00     0.124 S 
ATOM     87  O   UNL A   1      37.591  35.268  41.966  1.00  0.00    -0.237 OA
ATOM     88  O   UNL A   1      36.799  33.325  40.652  1.00  0.00    -0.237 OA
ATOM     89  O   UNL A   1      38.538  33.027  42.373  1.00  0.00    -0.744 OA
ENDBRANCH  82  86
ENDBRANCH  55  79
BRANCH  67  90
ATOM     90  C   UNL A   1      44.469  28.750  35.879  1.00  0.00     0.023 A 
ATOM     91  C   UNL A   1      44.419  27.675  36.786  1.00  0.00     0.031 A 
ATOM     92  C   UNL A   1      45.727  29.318  35.606  1.00  0.00     0.131 A 
ATOM     93  C   UNL A   1      45.583  27.264  37.452  1.00  0.00     0.055 A 
ATOM     94  C   UNL A   1      46.894  28.849  36.210  1.00  0.00     0.041 A 
ATOM     95  F   UNL A   1      45.842  30.349  34.754  1.00  0.00    -0.206 F 
ATOM     96  C   UNL A   1      46.824  27.830  37.154  1.00  0.00     0.022 A 
BRANCH  93  97
ATOM     97  S   UNL A   1      45.428  26.081  38.820  1.00  0.00     0.124 S 
ATOM     98  O   UNL A   1      44.685  24.992  38.195  1.00  0.00    -0.237 OA
ATOM     99  O   UNL A   1      46.821  25.798  39.147  1.00  0.00    -0.237 OA
ATOM    100  O   UNL A   1      44.693  26.830  39.838  1.00  0.00    -0.744 OA
ENDBRANCH  93  97
ENDBRANCH  67  90
ENDBRANCH  41  42
ENDBRANCH  33  36
ENDBRANCH  31  32
ENDBRANCH  30  31
ENDBRANCH  29  30
ENDBRANCH   1  29
TORSDOF 20
ENDMDL
MODEL 3
REMARK VINA RESULT:      -9.8      3.381      9.085
REMARK SMILES O=C(CNC(=O)CN1C(=O)S/C(=C\c2cccc(Br)c2)C1=O)NCCCCCCNC(=O)c1ccc(-c2c3nc(c(-c4cc(S(=O)(=O)[O-])ccc4F)c4ccc([nH]4)c(-c4cc(S(=O)(=O)[O-])ccc4F)c4nc(c(-c5cc(S(=O)(=O)[O-])ccc5F)c5ccc2[nH]5)C=C4)C=C3)cc1
REMARK SMILES IDX 26 1 25 2 24 3 23 4 1 5 2 6 3 8 4 9 5 10 6 12 7 13 8 14 9 15
REMARK SMILES IDX 21 16 10 17 11 18 12 19 22 20 13 21 14 22 15 23 20 24 16 25
REMARK SMILES IDX 18 26 17 27 19 28 27 29 28 30 29 31 30 32 31 33 32 35 33 36
REMARK SMILES IDX 34 37 95 38 35 39 94 40 36 41 37 42 38 43 88 44 39 45 93 46
REMARK SMILES IDX 87 47 89 48 40 49 92 50 86 51 85 52 41 54 73 55 53 56 72 57
REMARK SMILES IDX 54 58 57 59 71 60 90 61 55 62 56 63 70 65 91 66 58 67 42 68
REMARK SMILES IDX 43 69 51 70 44 71 50 72 52 73 49 74 45 75 46 76 47 77 48 78
REMARK SMILES IDX 74 79 75 80 83 81 76 82 82 83 84 84 81 85 77 86 78 87 79 88
REMARK SMILES IDX 80 89 59 90 60 91 68 92 61 93 67 94 69 95 66 96 62 97 63 98
REMARK SMILES IDX 64 99 65 100
REMARK H PARENT 23 7 4 11 30 34 89 53 57 64
REMARK Flexibility Score: inf
ROOT
ATOM      1  C   UNL A   1      35.407  33.776  28.327  1.00  0.00     0.002 C 
ENDROOT
BRANCH   1   2
ATOM      2  C   UNL A   1      34.550  32.711  27.644  1.00  0.00     0.021 C 
BRANCH   2   3
ATOM      3  C   UNL A   1      34.834  31.294  28.135  1.00  0.00     0.116 C 
BRANCH   3   4
ATOM      4  N   UNL A   1      33.701  30.416  27.898  1.00  0.00    -0.355 N 
ATOM      5  O   UNL A   1      34.719  29.057  26.351  1.00  0.00    -0.273 OA
ATOM      6  C   UNL A   1      33.722  29.382  26.989  1.00  0.00     0.239 C 
ATOM      7  H   UNL A   1      32.877  30.568  28.414  1.00  0.00     0.163 HD
BRANCH   6   8
ATOM      8  C   UNL A   1      32.355  28.731  26.735  1.00  0.00     0.216 C 
BRANCH   8   9
ATOM      9  N   UNL A   1      32.314  27.954  25.503  1.00  0.00    -0.345 N 
ATOM     10  C   UNL A   1      32.470  26.622  25.286  1.00  0.00     0.240 C 
ATOM     11  H   UNL A   1      32.145  28.485  24.690  1.00  0.00     0.164 HD
ATOM     12  O   UNL A   1      32.128  26.203  24.176  1.00  0.00    -0.273 OA
BRANCH  10  13
ATOM     13  C   UNL A   1      32.873  25.645  26.394  1.00  0.00     0.229 C 
BRANCH  13  14
ATOM     14  N   UNL A   1      33.292  24.318  25.971  1.00  0.00    -0.259 N 
ATOM     15  C   UNL A   1      34.604  24.051  25.686  1.00  0.00     0.294 C 
ATOM     16  C   UNL A   1      32.459  23.231  26.093  1.00  0.00     0.268 C 
ATOM     17  O   UNL A   1      35.526  24.849  25.680  1.00  0.00    -0.261 OA
ATOM     18  S   UNL A   1      34.822  22.342  25.363  1.00  0.00    -0.022 SA
ATOM     19  C   UNL A   1      33.188  21.972  25.747  1.00  0.00     0.083 C 
ATOM     20  O   UNL A   1      31.283  23.272  26.424  1.00  0.00    -0.268 OA
ATOM     21  C   UNL A   1      32.600  20.766  25.730  1.00  0.00     0.029 C 
BRANCH  21  22
ATOM     22  C   UNL A   1      33.237  19.495  25.346  1.00  0.00    -0.023 A 
ATOM     23  C   UNL A   1      34.461  19.500  24.677  1.00  0.00     0.008 A 
ATOM     24  C   UNL A   1      32.649  18.258  25.643  1.00  0.00     0.023 A 
ATOM     25  C   UNL A   1      35.080  18.294  24.324  1.00  0.00     0.002 A 
ATOM     26  C   UNL A   1      33.264  17.059  25.290  1.00  0.00     0.018 A 
ATOM     27  C   UNL A   1      34.485  17.071  24.634  1.00  0.00     0.016 A 
ATOM     28  Br  UNL A   1      32.403  15.422  25.683  1.00  0.00    -0.051 Br
ENDBRANCH  21  22
ENDBRANCH  13  14
ENDBRANCH  10  13
ENDBRANCH   8   9
ENDBRANCH   6   8
ENDBRANCH   3   4
ENDBRANCH   2   3
ENDBRANCH   1   2
BRANCH   1  29
ATOM     29  C   UNL A   1      36.049  33.472  29.680  1.00  0.00     0.002 C 
BRANCH  29  30
ATOM     30  C   UNL A   1      35.169  33.514  30.935  1.00  0.00     0.021 C 
BRANCH  30  31
ATOM     31  C   UNL A   1      34.998  32.236  31.768  1.00  0.00     0.116 C 
BRANCH  31  32
ATOM     32  N   UNL A   1      35.526  32.297  33.124  1.00  0.00    -0.352 N 
ATOM     33  C   UNL A   1      36.715  31.803  33.624  1.00  0.00     0.251 C 
ATOM     34  H   UNL A   1      34.952  32.755  33.779  1.00  0.00     0.163 HD
ATOM     35  O   UNL A   1      36.970  31.936  34.818  1.00  0.00    -0.269 OA
BRANCH  33  36
ATOM     36  C   UNL A   1      37.658  31.066  32.744  1.00  0.00     0.039 A 
ATOM     37  C   UNL A   1      37.697  31.375  31.381  1.00  0.00     0.014 A 
ATOM     38  C   UNL A   1      38.519  30.093  33.254  1.00  0.00     0.014 A 
ATOM     39  C   UNL A   1      38.666  30.787  30.560  1.00  0.00     0.010 A 
ATOM     40  C   UNL A   1      39.524  29.551  32.448  1.00  0.00     0.010 A 
ATOM     41  C   UNL A   1      39.628  29.913  31.097  1.00  0.00    -0.014 A 
BRANCH  41  42
ATOM     42  C   UNL A   1      40.785  29.458  30.275  1.00  0.00     0.031 A 
ATOM     43  C   UNL A   1      40.738  28.176  29.490  1.00  0.00     0.074 A 
ATOM     44  C   UNL A   1      41.919  30.191  30.286  1.00  0.00     0.049 A 
ATOM     45  N   UNL A   1      41.645  27.657  28.697  1.00  0.00    -0.248 NA
ATOM     46  C   UNL A   1      39.530  27.355  29.635  1.00  0.00     0.031 C 
ATOM     47  C   UNL A   1      42.118  31.419  31.063  1.00  0.00     0.029 A 
ATOM     48  N   UNL A   1      43.110  30.025  29.624  1.00  0.00    -0.354 N 
ATOM     49  C   UNL A   1      41.118  26.450  28.250  1.00  0.00     0.074 A 
ATOM     50  C   UNL A   1      39.841  26.287  28.915  1.00  0.00     0.031 C 
ATOM     51  C   UNL A   1      43.330  31.923  30.788  1.00  0.00     0.029 A 
ATOM     52  C   UNL A   1      44.017  31.036  29.855  1.00  0.00     0.049 A 
ATOM     53  H   UNL A   1      43.299  29.256  29.040  1.00  0.00     0.167 HD
ATOM     54  C   UNL A   1      41.641  25.571  27.356  1.00  0.00     0.034 A 
ATOM     55  C   UNL A   1      45.257  31.233  29.367  1.00  0.00     0.034 A 
ATOM     56  C   UNL A   1      42.923  25.746  26.710  1.00  0.00     0.049 A 
ATOM     57  C   UNL A   1      45.824  30.234  28.393  1.00  0.00     0.074 A 
ATOM     58  C   UNL A   1      43.513  24.959  25.735  1.00  0.00     0.029 A 
ATOM     59  N   UNL A   1      43.827  26.765  26.990  1.00  0.00    -0.354 N 
ATOM     60  N   UNL A   1      45.273  29.146  27.906  1.00  0.00    -0.248 NA
ATOM     61  C   UNL A   1      47.177  30.502  27.891  1.00  0.00     0.031 C 
ATOM     62  C   UNL A   1      44.803  25.446  25.493  1.00  0.00     0.029 A 
ATOM     63  C   UNL A   1      44.987  26.597  26.243  1.00  0.00     0.049 A 
ATOM     64  H   UNL A   1      43.669  27.500  27.624  1.00  0.00     0.167 HD
ATOM     65  C   UNL A   1      46.204  28.615  27.018  1.00  0.00     0.074 A 
ATOM     66  C   UNL A   1      47.336  29.521  27.017  1.00  0.00     0.031 C 
ATOM     67  C   UNL A   1      46.129  27.483  26.271  1.00  0.00     0.034 A 
BRANCH  54  68
ATOM     68  C   UNL A   1      40.839  24.323  27.054  1.00  0.00     0.023 A 
ATOM     69  C   UNL A   1      41.411  23.039  27.117  1.00  0.00     0.031 A 
ATOM     70  C   UNL A   1      39.489  24.416  26.670  1.00  0.00     0.131 A 
ATOM     71  C   UNL A   1      40.670  21.917  26.716  1.00  0.00     0.055 A 
ATOM     72  C   UNL A   1      38.728  23.285  26.361  1.00  0.00     0.041 A 
ATOM     73  F   UNL A   1      38.886  25.611  26.570  1.00  0.00    -0.206 F 
ATOM     74  C   UNL A   1      39.324  22.028  26.364  1.00  0.00     0.022 A 
BRANCH  71  75
ATOM     75  S   UNL A   1      41.538  20.338  26.496  1.00  0.00     0.124 S 
ATOM     76  O   UNL A   1      42.631  20.724  25.605  1.00  0.00    -0.237 OA
ATOM     77  O   UNL A   1      41.917  19.994  27.860  1.00  0.00    -0.237 OA
ATOM     78  O   UNL A   1      40.529  19.474  25.889  1.00  0.00    -0.744 OA
ENDBRANCH  71  75
ENDBRANCH  54  68
BRANCH  55  79
ATOM     79  C   UNL A   1      46.048  32.433  29.772  1.00  0.00     0.023 A 
ATOM     80  C   UNL A   1      45.968  33.630  29.040  1.00  0.00     0.031 A 
ATOM     81  C   UNL A   1      46.923  32.391  30.871  1.00  0.00     0.131 A 
ATOM     82  C   UNL A   1      46.782  34.719  29.387  1.00  0.00     0.055 A 
ATOM     83  C   UNL A   1      47.689  33.498  31.247  1.00  0.00     0.041 A 
ATOM     84  F   UNL A   1      47.038  31.275  31.607  1.00  0.00    -0.206 F 
ATOM     85  C   UNL A   1      47.630  34.666  30.495  1.00  0.00     0.022 A 
BRANCH  82  86
ATOM     86  S   UNL A   1      46.777  36.183  28.315  1.00  0.00     0.124 S 
ATOM     87  O   UNL A   1      47.735  35.799  27.284  1.00  0.00    -0.237 OA
ATOM     88  O   UNL A   1      45.380  36.251  27.900  1.00  0.00    -0.237 OA
ATOM     89  O   UNL A   1      47.214  37.256  29.205  1.00  0.00    -0.744 OA
ENDBRANCH  82  86
ENDBRANCH  55  79
BRANCH  67  90
ATOM     90  C   UNL A   1      47.307  27.185  25.369  1.00  0.00     0.023 A 
ATOM     91  C   UNL A   1      47.390  27.708  24.064  1.00  0.00     0.031 A 
ATOM     92  C   UNL A   1      48.334  26.324  25.795  1.00  0.00     0.131 A 
ATOM     93  C   UNL A   1      48.420  27.294  23.207  1.00  0.00     0.055 A 
ATOM     94  C   UNL A   1      49.402  25.981  24.964  1.00  0.00     0.041 A 
ATOM     95  F   UNL A   1      48.311  25.788  27.026  1.00  0.00    -0.206 F 
ATOM     96  C   UNL A   1      49.438  26.450  23.655  1.00  0.00     0.022 A 
BRANCH  93  97
ATOM     97  S   UNL A   1      48.328  27.756  21.454  1.00  0.00     0.124 S 
ATOM     98  O   UNL A   1      48.575  26.479  20.792  1.00  0.00    -0.237 OA
ATOM     99  O   UNL A   1      46.972  28.281  21.341  1.00  0.00    -0.237 OA
ATOM    100  O   UNL A   1      49.392  28.748  21.305  1.00  0.00    -0.744 OA
ENDBRANCH  93  97
ENDBRANCH  67  90
ENDBRANCH  41  42
ENDBRANCH  33  36
ENDBRANCH  31  32
ENDBRANCH  30  31
ENDBRANCH  29  30
ENDBRANCH   1  29
TORSDOF 20
ENDMDL
