MODEL 1
REMARK VINA RESULT:     -13.2      0.000      0.000
REMARK SMILES CC(=O)O[C@@H]1CC[C@@]23C(=O)O[C@]4(CC[C@]2(O)C1)[C@H]3CC[C@]1(C)[C@H](C(=O)NCCCCCCNC(=O)c2ccc(-c3c5nc(c(-c6cc(S(=O)(=O)[O-])ccc6F)c6ccc([nH]6)c(-c6cc(S(=O)(=O)[O-])ccc6F)c6nc(c(-c7cc(S(=O)(=O)[O-])ccc7F)c7ccc3[nH]7)C=C6)C=C5)cc2)CC[C@@H]14
REMARK SMILES IDX 30 1 29 2 28 3 27 4 26 5 24 6 25 7 23 9 5 10 6 11 17 12 7 13
REMARK SMILES IDX 15 14 8 15 14 16 9 17 18 18 13 19 10 20 11 21 12 22 19 23
REMARK SMILES IDX 101 24 20 25 21 26 100 27 22 28 99 29 4 30 2 31 1 32 3 33
REMARK SMILES IDX 16 34 31 36 32 37 33 38 34 39 35 41 36 42 37 43 98 44 38 45
REMARK SMILES IDX 97 46 39 47 40 48 41 49 91 50 42 51 96 52 90 53 92 54 43 55
REMARK SMILES IDX 95 56 89 57 88 58 44 60 76 61 56 62 75 63 57 64 60 65 74 66
REMARK SMILES IDX 93 67 58 68 59 69 73 71 94 72 61 73 45 74 46 75 54 76 47 77
REMARK SMILES IDX 53 78 55 79 52 80 48 81 49 82 50 83 51 84 77 85 78 86 86 87
REMARK SMILES IDX 79 88 85 89 87 90 84 91 80 92 81 93 82 94 83 95 62 96 63 97
REMARK SMILES IDX 71 98 64 99 70 100 72 101 69 102 65 103 66 104 67 105 68 106
REMARK H PARENT 26 8 16 35 33 40 92 59 60 70
REMARK Flexibility Score: inf
ROOT
ATOM      1  C   UNL A   1      37.337  20.705  24.627  1.00  0.00     0.002 C 
ENDROOT
BRANCH   1   2
ATOM      2  C   UNL A   1      36.013  20.657  25.393  1.00  0.00     0.002 C 
BRANCH   2   3
ATOM      3  C   UNL A   1      34.783  20.458  24.507  1.00  0.00     0.021 C 
BRANCH   3   4
ATOM      4  C   UNL A   1      33.767  19.445  25.062  1.00  0.00     0.116 C 
BRANCH   4   5
ATOM      5  N   UNL A   1      32.513  20.125  25.312  1.00  0.00    -0.356 N 
ATOM      6  C   UNL A   1      32.186  21.430  25.440  1.00  0.00     0.223 C 
ATOM      7  O   UNL A   1      31.088  21.650  25.972  1.00  0.00    -0.275 OA
ATOM      8  H   UNL A   1      31.746  19.515  25.408  1.00  0.00     0.163 HD
BRANCH   6   9
ATOM      9  C   UNL A   1      32.983  22.622  24.898  1.00  0.00     0.085 C 
ATOM     10  C   UNL A   1      32.007  30.256  26.728  1.00  0.00     0.179 C 
ATOM     11  C   UNL A   1      31.649  28.966  27.427  1.00  0.00     0.047 C 
ATOM     12  C   UNL A   1      31.229  30.240  25.391  1.00  0.00     0.081 C 
ATOM     13  C   UNL A   1      32.132  27.825  26.560  1.00  0.00     0.026 C 
ATOM     14  C   UNL A   1      31.349  28.947  24.515  1.00  0.00     0.085 C 
ATOM     15  C   UNL A   1      31.163  27.620  25.184  1.00  0.00     0.103 C 
ATOM     16  C   UNL A   1      32.811  28.831  23.899  1.00  0.00     0.041 C 
ATOM     17  C   UNL A   1      30.748  26.354  25.735  1.00  0.00     0.316 C 
ATOM     18  C   UNL A   1      31.455  26.587  23.747  1.00  0.00     0.054 C 
ATOM     19  C   UNL A   1      33.574  27.413  24.111  1.00  0.00     0.052 C 
ATOM     20  O   UNL A   1      29.775  26.007  26.391  1.00  0.00    -0.251 OA
ATOM     21  O   UNL A   1      31.973  25.663  25.581  1.00  0.00    -0.458 OA
ATOM     22  C   UNL A   1      32.683  26.099  24.353  1.00  0.00     0.120 C 
ATOM     23  C   UNL A   1      30.586  25.395  23.239  1.00  0.00     0.009 C 
ATOM     24  C   UNL A   1      33.438  24.853  23.940  1.00  0.00     0.040 C 
ATOM     25  C   UNL A   1      31.030  23.959  23.642  1.00  0.00     0.008 C 
ATOM     26  C   UNL A   1      32.537  23.596  23.733  1.00  0.00    -0.014 C 
ATOM     27  C   UNL A   1      34.392  24.501  25.118  1.00  0.00     0.009 C 
ATOM     28  C   UNL A   1      32.950  22.916  22.405  1.00  0.00     0.012 C 
ATOM     29  C   UNL A   1      33.644  23.477  25.968  1.00  0.00     0.014 C 
BRANCH  10  30
ATOM     30  O   UNL A   1      33.430  30.479  26.464  1.00  0.00    -0.462 OA
BRANCH  30  31
ATOM     31  C   UNL A   1      34.382  30.478  27.439  1.00  0.00     0.302 C 
ATOM     32  C   UNL A   1      35.301  29.298  27.310  1.00  0.00     0.139 C 
ATOM     33  O   UNL A   1      34.523  31.305  28.329  1.00  0.00    -0.253 OA
ENDBRANCH  30  31
ENDBRANCH  10  30
BRANCH  14  34
ATOM     34  O   UNL A   1      30.383  29.071  23.466  1.00  0.00    -0.389 OA
ATOM     35  H   UNL A   1      29.827  28.277  23.443  1.00  0.00     0.211 HD
ENDBRANCH  14  34
ENDBRANCH   6   9
ENDBRANCH   4   5
ENDBRANCH   3   4
ENDBRANCH   2   3
ENDBRANCH   1   2
BRANCH   1  36
ATOM     36  C   UNL A   1      38.354  19.631  25.025  1.00  0.00     0.021 C 
BRANCH  36  37
ATOM     37  C   UNL A   1      39.424  20.098  26.009  1.00  0.00     0.116 C 
BRANCH  37  38
ATOM     38  N   UNL A   1      40.567  19.198  26.024  1.00  0.00    -0.352 N 
ATOM     39  C   UNL A   1      41.906  19.497  26.030  1.00  0.00     0.251 C 
ATOM     40  H   UNL A   1      40.349  18.239  26.031  1.00  0.00     0.163 HD
ATOM     41  O   UNL A   1      42.729  18.624  25.774  1.00  0.00    -0.269 OA
BRANCH  39  42
ATOM     42  C   UNL A   1      42.345  20.875  26.336  1.00  0.00     0.039 A 
ATOM     43  C   UNL A   1      42.572  21.238  27.665  1.00  0.00     0.014 A 
ATOM     44  C   UNL A   1      42.518  21.809  25.311  1.00  0.00     0.014 A 
ATOM     45  C   UNL A   1      43.023  22.525  27.961  1.00  0.00     0.010 A 
ATOM     46  C   UNL A   1      43.034  23.069  25.601  1.00  0.00     0.010 A 
ATOM     47  C   UNL A   1      43.286  23.442  26.929  1.00  0.00    -0.014 A 
BRANCH  47  48
ATOM     48  C   UNL A   1      43.813  24.800  27.222  1.00  0.00     0.031 A 
ATOM     49  C   UNL A   1      42.901  25.854  27.786  1.00  0.00     0.074 A 
ATOM     50  C   UNL A   1      45.094  25.096  26.927  1.00  0.00     0.049 A 
ATOM     51  N   UNL A   1      43.147  27.115  28.042  1.00  0.00    -0.248 NA
ATOM     52  C   UNL A   1      41.519  25.443  28.074  1.00  0.00     0.031 C 
ATOM     53  C   UNL A   1      46.063  24.165  26.347  1.00  0.00     0.029 A 
ATOM     54  N   UNL A   1      45.801  26.264  27.068  1.00  0.00    -0.354 N 
ATOM     55  C   UNL A   1      41.952  27.647  28.512  1.00  0.00     0.074 A 
ATOM     56  C   UNL A   1      40.967  26.589  28.440  1.00  0.00     0.031 C 
ATOM     57  C   UNL A   1      47.245  24.789  26.208  1.00  0.00     0.029 A 
ATOM     58  C   UNL A   1      47.105  26.176  26.642  1.00  0.00     0.049 A 
ATOM     59  H   UNL A   1      45.410  27.088  27.439  1.00  0.00     0.167 HD
ATOM     60  C   UNL A   1      41.705  28.895  28.983  1.00  0.00     0.034 A 
ATOM     61  C   UNL A   1      48.076  27.110  26.595  1.00  0.00     0.034 A 
ATOM     62  C   UNL A   1      42.702  29.936  29.049  1.00  0.00     0.049 A 
ATOM     63  C   UNL A   1      47.768  28.503  27.083  1.00  0.00     0.074 A 
ATOM     64  C   UNL A   1      42.577  31.221  29.547  1.00  0.00     0.029 A 
ATOM     65  N   UNL A   1      44.011  29.814  28.596  1.00  0.00    -0.354 N 
ATOM     66  N   UNL A   1      46.643  28.981  27.564  1.00  0.00    -0.248 NA
ATOM     67  C   UNL A   1      48.862  29.480  27.028  1.00  0.00     0.031 C 
ATOM     68  C   UNL A   1      43.783  31.897  29.329  1.00  0.00     0.029 A 
ATOM     69  C   UNL A   1      44.691  31.010  28.773  1.00  0.00     0.049 A 
ATOM     70  H   UNL A   1      44.399  28.997  28.207  1.00  0.00     0.167 HD
ATOM     71  C   UNL A   1      46.907  30.305  27.904  1.00  0.00     0.074 A 
ATOM     72  C   UNL A   1      48.300  30.544  27.583  1.00  0.00     0.031 C 
ATOM     73  C   UNL A   1      46.078  31.237  28.437  1.00  0.00     0.034 A 
BRANCH  60  74
ATOM     74  C   UNL A   1      40.295  29.201  29.434  1.00  0.00     0.023 A 
ATOM     75  C   UNL A   1      39.911  29.086  30.782  1.00  0.00     0.031 A 
ATOM     76  C   UNL A   1      39.310  29.575  28.502  1.00  0.00     0.131 A 
ATOM     77  C   UNL A   1      38.567  29.260  31.147  1.00  0.00     0.055 A 
ATOM     78  C   UNL A   1      37.993  29.833  28.885  1.00  0.00     0.041 A 
ATOM     79  F   UNL A   1      39.609  29.680  27.197  1.00  0.00    -0.206 F 
ATOM     80  C   UNL A   1      37.610  29.659  30.211  1.00  0.00     0.022 A 
BRANCH  77  81
ATOM     81  S   UNL A   1      38.061  28.802  32.827  1.00  0.00     0.124 S 
ATOM     82  O   UNL A   1      36.687  29.295  32.866  1.00  0.00    -0.237 OA
ATOM     83  O   UNL A   1      38.221  27.353  32.821  1.00  0.00    -0.237 OA
ATOM     84  O   UNL A   1      39.001  29.530  33.678  1.00  0.00    -0.744 OA
ENDBRANCH  77  81
ENDBRANCH  60  74
BRANCH  61  85
ATOM     85  C   UNL A   1      49.428  26.771  26.064  1.00  0.00     0.023 A 
ATOM     86  C   UNL A   1      49.829  27.199  24.788  1.00  0.00     0.031 A 
ATOM     87  C   UNL A   1      50.324  25.978  26.805  1.00  0.00     0.131 A 
ATOM     88  C   UNL A   1      51.069  26.792  24.271  1.00  0.00     0.055 A 
ATOM     89  C   UNL A   1      51.579  25.625  26.309  1.00  0.00     0.041 A 
ATOM     90  F   UNL A   1      49.992  25.543  28.031  1.00  0.00    -0.206 F 
ATOM     91  C   UNL A   1      51.953  26.021  25.028  1.00  0.00     0.022 A 
BRANCH  88  92
ATOM     92  S   UNL A   1      51.471  27.211  22.553  1.00  0.00     0.124 S 
ATOM     93  O   UNL A   1      52.614  26.342  22.295  1.00  0.00    -0.237 OA
ATOM     94  O   UNL A   1      50.234  26.868  21.860  1.00  0.00    -0.237 OA
ATOM     95  O   UNL A   1      51.774  28.639  22.614  1.00  0.00    -0.744 OA
ENDBRANCH  88  92
ENDBRANCH  61  85
BRANCH  73  96
ATOM     96  C   UNL A   1      46.676  32.588  28.750  1.00  0.00     0.023 A 
ATOM     97  C   UNL A   1      46.674  33.636  27.814  1.00  0.00     0.031 A 
ATOM     98  C   UNL A   1      47.269  32.823  30.004  1.00  0.00     0.131 A 
ATOM     99  C   UNL A   1      47.302  34.851  28.123  1.00  0.00     0.055 A 
ATOM    100  C   UNL A   1      47.837  34.056  30.329  1.00  0.00     0.041 A 
ATOM    101  F   UNL A   1      47.302  31.858  30.936  1.00  0.00    -0.206 F 
ATOM    102  C   UNL A   1      47.868  35.074  29.381  1.00  0.00     0.022 A 
BRANCH  99 103
ATOM    103  S   UNL A   1      47.455  36.110  26.825  1.00  0.00     0.124 S 
ATOM    104  O   UNL A   1      46.429  35.691  25.875  1.00  0.00    -0.237 OA
ATOM    105  O   UNL A   1      47.182  37.345  27.553  1.00  0.00    -0.237 OA
ATOM    106  O   UNL A   1      48.831  35.957  26.359  1.00  0.00    -0.744 OA
ENDBRANCH  99 103
ENDBRANCH  73  96
ENDBRANCH  47  48
ENDBRANCH  39  42
ENDBRANCH  37  38
ENDBRANCH  36  37
ENDBRANCH   1  36
TORSDOF 19
ENDMDL
MODEL 2
REMARK VINA RESULT:     -13.0      1.482      7.443
REMARK SMILES CC(=O)O[C@@H]1CC[C@@]23C(=O)O[C@]4(CC[C@]2(O)C1)[C@H]3CC[C@]1(C)[C@H](C(=O)NCCCCCCNC(=O)c2ccc(-c3c5nc(c(-c6cc(S(=O)(=O)[O-])ccc6F)c6ccc([nH]6)c(-c6cc(S(=O)(=O)[O-])ccc6F)c6nc(c(-c7cc(S(=O)(=O)[O-])ccc7F)c7ccc3[nH]7)C=C6)C=C5)cc2)CC[C@@H]14
REMARK SMILES IDX 30 1 29 2 28 3 27 4 26 5 24 6 25 7 23 9 5 10 6 11 17 12 7 13
REMARK SMILES IDX 15 14 8 15 14 16 9 17 18 18 13 19 10 20 11 21 12 22 19 23
REMARK SMILES IDX 101 24 20 25 21 26 100 27 22 28 99 29 4 30 2 31 1 32 3 33
REMARK SMILES IDX 16 34 31 36 32 37 33 38 34 39 35 41 36 42 37 43 98 44 38 45
REMARK SMILES IDX 97 46 39 47 40 48 41 49 91 50 42 51 96 52 90 53 92 54 43 55
REMARK SMILES IDX 95 56 89 57 88 58 44 60 76 61 56 62 75 63 57 64 60 65 74 66
REMARK SMILES IDX 93 67 58 68 59 69 73 71 94 72 61 73 45 74 46 75 54 76 47 77
REMARK SMILES IDX 53 78 55 79 52 80 48 81 49 82 50 83 51 84 77 85 78 86 86 87
REMARK SMILES IDX 79 88 85 89 87 90 84 91 80 92 81 93 82 94 83 95 62 96 63 97
REMARK SMILES IDX 71 98 64 99 70 100 72 101 69 102 65 103 66 104 67 105 68 106
REMARK H PARENT 26 8 16 35 33 40 92 59 60 70
REMARK Flexibility Score: inf
ROOT
ATOM      1  C   UNL A   1      37.424  19.803  24.766  1.00  0.00     0.002 C 
ENDROOT
BRANCH   1   2
ATOM      2  C   UNL A   1      36.084  19.070  24.847  1.00  0.00     0.002 C 
BRANCH   2   3
ATOM      3  C   UNL A   1      34.865  19.993  24.901  1.00  0.00     0.021 C 
BRANCH   3   4
ATOM      4  C   UNL A   1      33.584  19.375  24.316  1.00  0.00     0.116 C 
BRANCH   4   5
ATOM      5  N   UNL A   1      32.437  20.098  24.826  1.00  0.00    -0.356 N 
ATOM      6  C   UNL A   1      32.252  21.387  25.188  1.00  0.00     0.223 C 
ATOM      7  O   UNL A   1      31.249  21.600  25.885  1.00  0.00    -0.275 OA
ATOM      8  H   UNL A   1      31.633  19.540  24.929  1.00  0.00     0.163 HD
BRANCH   6   9
ATOM      9  C   UNL A   1      33.088  22.587  24.730  1.00  0.00     0.085 C 
ATOM     10  C   UNL A   1      32.172  30.148  26.869  1.00  0.00     0.179 C 
ATOM     11  C   UNL A   1      31.766  28.834  27.495  1.00  0.00     0.047 C 
ATOM     12  C   UNL A   1      31.445  30.206  25.504  1.00  0.00     0.081 C 
ATOM     13  C   UNL A   1      32.262  27.725  26.595  1.00  0.00     0.026 C 
ATOM     14  C   UNL A   1      31.576  28.952  24.576  1.00  0.00     0.085 C 
ATOM     15  C   UNL A   1      31.343  27.599  25.176  1.00  0.00     0.103 C 
ATOM     16  C   UNL A   1      33.057  28.836  24.009  1.00  0.00     0.041 C 
ATOM     17  C   UNL A   1      30.886  26.318  25.654  1.00  0.00     0.316 C 
ATOM     18  C   UNL A   1      31.671  26.627  23.705  1.00  0.00     0.054 C 
ATOM     19  C   UNL A   1      33.788  27.397  24.185  1.00  0.00     0.052 C 
ATOM     20  O   UNL A   1      29.884  25.960  26.257  1.00  0.00    -0.251 OA
ATOM     21  O   UNL A   1      32.104  25.612  25.514  1.00  0.00    -0.458 OA
ATOM     22  C   UNL A   1      32.867  26.090  24.333  1.00  0.00     0.120 C 
ATOM     23  C   UNL A   1      30.802  25.475  23.112  1.00  0.00     0.009 C 
ATOM     24  C   UNL A   1      33.616  24.850  23.893  1.00  0.00     0.040 C 
ATOM     25  C   UNL A   1      31.206  24.015  23.466  1.00  0.00     0.008 C 
ATOM     26  C   UNL A   1      32.703  23.620  23.595  1.00  0.00    -0.014 C 
ATOM     27  C   UNL A   1      34.519  24.428  25.087  1.00  0.00     0.009 C 
ATOM     28  C   UNL A   1      33.154  22.992  22.254  1.00  0.00     0.012 C 
ATOM     29  C   UNL A   1      33.722  23.381  25.862  1.00  0.00     0.014 C 
BRANCH  10  30
ATOM     30  O   UNL A   1      33.607  30.356  26.667  1.00  0.00    -0.462 OA
BRANCH  30  31
ATOM     31  C   UNL A   1      34.482  30.582  27.688  1.00  0.00     0.302 C 
ATOM     32  C   UNL A   1      35.537  29.516  27.753  1.00  0.00     0.139 C 
ATOM     33  O   UNL A   1      34.463  31.514  28.479  1.00  0.00    -0.253 OA
ENDBRANCH  30  31
ENDBRANCH  10  30
BRANCH  14  34
ATOM     34  O   UNL A   1      30.652  29.140  23.499  1.00  0.00    -0.389 OA
ATOM     35  H   UNL A   1      30.543  28.306  23.017  1.00  0.00     0.211 HD
ENDBRANCH  14  34
ENDBRANCH   6   9
ENDBRANCH   4   5
ENDBRANCH   3   4
ENDBRANCH   2   3
ENDBRANCH   1   2
BRANCH   1  36
ATOM     36  C   UNL A   1      37.331  21.331  24.831  1.00  0.00     0.021 C 
BRANCH  36  37
ATOM     37  C   UNL A   1      38.369  21.996  25.731  1.00  0.00     0.116 C 
BRANCH  37  38
ATOM     38  N   UNL A   1      39.130  21.014  26.488  1.00  0.00    -0.352 N 
ATOM     39  C   UNL A   1      40.367  21.135  27.070  1.00  0.00     0.251 C 
ATOM     40  H   UNL A   1      38.695  20.138  26.599  1.00  0.00     0.163 HD
ATOM     41  O   UNL A   1      40.972  20.133  27.437  1.00  0.00    -0.269 OA
BRANCH  39  42
ATOM     42  C   UNL A   1      40.966  22.476  27.240  1.00  0.00     0.039 A 
ATOM     43  C   UNL A   1      40.811  23.424  26.226  1.00  0.00     0.014 A 
ATOM     44  C   UNL A   1      41.692  22.789  28.393  1.00  0.00     0.014 A 
ATOM     45  C   UNL A   1      41.340  24.705  26.394  1.00  0.00     0.010 A 
ATOM     46  C   UNL A   1      42.157  24.086  28.588  1.00  0.00     0.010 A 
ATOM     47  C   UNL A   1      41.992  25.055  27.588  1.00  0.00    -0.014 A 
BRANCH  47  48
ATOM     48  C   UNL A   1      42.519  26.428  27.803  1.00  0.00     0.031 A 
ATOM     49  C   UNL A   1      43.916  26.773  27.367  1.00  0.00     0.074 A 
ATOM     50  C   UNL A   1      41.761  27.341  28.441  1.00  0.00     0.049 A 
ATOM     51  N   UNL A   1      44.585  27.887  27.529  1.00  0.00    -0.248 NA
ATOM     52  C   UNL A   1      44.672  25.714  26.681  1.00  0.00     0.031 C 
ATOM     53  C   UNL A   1      40.404  27.110  28.940  1.00  0.00     0.029 A 
ATOM     54  N   UNL A   1      42.023  28.643  28.786  1.00  0.00    -0.354 N 
ATOM     55  C   UNL A   1      45.840  27.660  26.974  1.00  0.00     0.074 A 
ATOM     56  C   UNL A   1      45.859  26.281  26.535  1.00  0.00     0.031 C 
ATOM     57  C   UNL A   1      39.943  28.241  29.499  1.00  0.00     0.029 A 
ATOM     58  C   UNL A   1      40.986  29.260  29.445  1.00  0.00     0.049 A 
ATOM     59  H   UNL A   1      42.874  29.093  28.580  1.00  0.00     0.167 HD
ATOM     60  C   UNL A   1      46.871  28.528  26.823  1.00  0.00     0.034 A 
ATOM     61  C   UNL A   1      40.892  30.503  29.959  1.00  0.00     0.034 A 
ATOM     62  C   UNL A   1      46.831  29.902  27.266  1.00  0.00     0.049 A 
ATOM     63  C   UNL A   1      42.067  31.438  29.819  1.00  0.00     0.074 A 
ATOM     64  C   UNL A   1      47.798  30.882  27.127  1.00  0.00     0.029 A 
ATOM     65  N   UNL A   1      45.768  30.489  27.942  1.00  0.00    -0.354 N 
ATOM     66  N   UNL A   1      43.233  31.223  29.254  1.00  0.00    -0.248 NA
ATOM     67  C   UNL A   1      41.908  32.786  30.378  1.00  0.00     0.031 C 
ATOM     68  C   UNL A   1      47.351  32.036  27.780  1.00  0.00     0.029 A 
ATOM     69  C   UNL A   1      46.070  31.806  28.255  1.00  0.00     0.049 A 
ATOM     70  H   UNL A   1      44.923  30.036  28.166  1.00  0.00     0.167 HD
ATOM     71  C   UNL A   1      43.933  32.422  29.359  1.00  0.00     0.074 A 
ATOM     72  C   UNL A   1      43.052  33.357  30.030  1.00  0.00     0.031 C 
ATOM     73  C   UNL A   1      45.186  32.724  28.935  1.00  0.00     0.034 A 
BRANCH  60  74
ATOM     74  C   UNL A   1      48.133  28.003  26.177  1.00  0.00     0.023 A 
ATOM     75  C   UNL A   1      48.311  28.024  24.782  1.00  0.00     0.031 A 
ATOM     76  C   UNL A   1      49.156  27.439  26.960  1.00  0.00     0.131 A 
ATOM     77  C   UNL A   1      49.439  27.419  24.209  1.00  0.00     0.055 A 
ATOM     78  C   UNL A   1      50.319  26.918  26.388  1.00  0.00     0.041 A 
ATOM     79  F   UNL A   1      49.036  27.369  28.295  1.00  0.00    -0.206 F 
ATOM     80  C   UNL A   1      50.458  26.889  25.004  1.00  0.00     0.022 A 
BRANCH  77  81
ATOM     81  S   UNL A   1      49.479  27.193  22.409  1.00  0.00     0.124 S 
ATOM     82  O   UNL A   1      50.901  26.952  22.174  1.00  0.00    -0.237 OA
ATOM     83  O   UNL A   1      48.595  26.050  22.216  1.00  0.00    -0.237 OA
ATOM     84  O   UNL A   1      48.977  28.465  21.893  1.00  0.00    -0.744 OA
ENDBRANCH  77  81
ENDBRANCH  60  74
BRANCH  61  85
ATOM     85  C   UNL A   1      39.649  30.940  30.658  1.00  0.00     0.023 A 
ATOM     86  C   UNL A   1      39.607  31.040  32.057  1.00  0.00     0.031 A 
ATOM     87  C   UNL A   1      38.472  31.224  29.942  1.00  0.00     0.131 A 
ATOM     88  C   UNL A   1      38.402  31.365  32.701  1.00  0.00     0.055 A 
ATOM     89  C   UNL A   1      37.292  31.603  30.582  1.00  0.00     0.041 A 
ATOM     90  F   UNL A   1      38.456  31.145  28.601  1.00  0.00    -0.206 F 
ATOM     91  C   UNL A   1      37.249  31.662  31.972  1.00  0.00     0.022 A 
BRANCH  88  92
ATOM     92  S   UNL A   1      38.342  31.305  34.512  1.00  0.00     0.124 S 
ATOM     93  O   UNL A   1      37.107  32.027  34.792  1.00  0.00    -0.237 OA
ATOM     94  O   UNL A   1      38.318  29.868  34.766  1.00  0.00    -0.237 OA
ATOM     95  O   UNL A   1      39.570  31.987  34.915  1.00  0.00    -0.744 OA
ENDBRANCH  88  92
ENDBRANCH  61  85
BRANCH  73  96
ATOM     96  C   UNL A   1      45.655  34.144  29.145  1.00  0.00     0.023 A 
ATOM     97  C   UNL A   1      45.348  35.170  28.234  1.00  0.00     0.031 A 
ATOM     98  C   UNL A   1      46.433  34.471  30.270  1.00  0.00     0.131 A 
ATOM     99  C   UNL A   1      45.863  36.459  28.433  1.00  0.00     0.055 A 
ATOM    100  C   UNL A   1      46.891  35.770  30.496  1.00  0.00     0.041 A 
ATOM    101  F   UNL A   1      46.759  33.532  31.172  1.00  0.00    -0.206 F 
ATOM    102  C   UNL A   1      46.618  36.770  29.567  1.00  0.00     0.022 A 
BRANCH  99 103
ATOM    103  S   UNL A   1      45.615  37.707  27.140  1.00  0.00     0.124 S 
ATOM    104  O   UNL A   1      44.195  37.553  26.838  1.00  0.00    -0.237 OA
ATOM    105  O   UNL A   1      45.990  38.942  27.821  1.00  0.00    -0.237 OA
ATOM    106  O   UNL A   1      46.524  37.286  26.076  1.00  0.00    -0.744 OA
ENDBRANCH  99 103
ENDBRANCH  73  96
ENDBRANCH  47  48
ENDBRANCH  39  42
ENDBRANCH  37  38
ENDBRANCH  36  37
ENDBRANCH   1  36
TORSDOF 19
ENDMDL
MODEL 3
REMARK VINA RESULT:     -12.9      5.397      9.810
REMARK SMILES CC(=O)O[C@@H]1CC[C@@]23C(=O)O[C@]4(CC[C@]2(O)C1)[C@H]3CC[C@]1(C)[C@H](C(=O)NCCCCCCNC(=O)c2ccc(-c3c5nc(c(-c6cc(S(=O)(=O)[O-])ccc6F)c6ccc([nH]6)c(-c6cc(S(=O)(=O)[O-])ccc6F)c6nc(c(-c7cc(S(=O)(=O)[O-])ccc7F)c7ccc3[nH]7)C=C6)C=C5)cc2)CC[C@@H]14
REMARK SMILES IDX 30 1 29 2 28 3 27 4 26 5 24 6 25 7 23 9 5 10 6 11 17 12 7 13
REMARK SMILES IDX 15 14 8 15 14 16 9 17 18 18 13 19 10 20 11 21 12 22 19 23
REMARK SMILES IDX 101 24 20 25 21 26 100 27 22 28 99 29 4 30 2 31 1 32 3 33
REMARK SMILES IDX 16 34 31 36 32 37 33 38 34 39 35 41 36 42 37 43 98 44 38 45
REMARK SMILES IDX 97 46 39 47 40 48 41 49 91 50 42 51 96 52 90 53 92 54 43 55
REMARK SMILES IDX 95 56 89 57 88 58 44 60 76 61 56 62 75 63 57 64 60 65 74 66
REMARK SMILES IDX 93 67 58 68 59 69 73 71 94 72 61 73 45 74 46 75 54 76 47 77
REMARK SMILES IDX 53 78 55 79 52 80 48 81 49 82 50 83 51 84 77 85 78 86 86 87
REMARK SMILES IDX 79 88 85 89 87 90 84 91 80 92 81 93 82 94 83 95 62 96 63 97
REMARK SMILES IDX 71 98 64 99 70 100 72 101 69 102 65 103 66 104 67 105 68 106
REMARK H PARENT 26 8 16 35 33 40 92 59 60 70
REMARK Flexibility Score: inf
ROOT
ATOM      1  C   UNL A   1      35.125  31.560  27.701  1.00  0.00     0.002 C 
ENDROOT
BRANCH   1   2
ATOM      2  C   UNL A   1      35.113  30.091  28.129  1.00  0.00     0.002 C 
BRANCH   2   3
ATOM      3  C   UNL A   1      34.663  29.122  27.034  1.00  0.00     0.021 C 
BRANCH   3   4
ATOM      4  C   UNL A   1      33.258  28.536  27.255  1.00  0.00     0.116 C 
BRANCH   4   5
ATOM      5  N   UNL A   1      32.275  29.450  26.710  1.00  0.00    -0.356 N 
ATOM      6  C   UNL A   1      31.467  29.389  25.628  1.00  0.00     0.223 C 
ATOM      7  O   UNL A   1      30.987  30.474  25.266  1.00  0.00    -0.275 OA
ATOM      8  H   UNL A   1      32.175  30.280  27.230  1.00  0.00     0.163 HD
BRANCH   6   9
ATOM      9  C   UNL A   1      31.019  28.117  24.901  1.00  0.00     0.085 C 
ATOM     10  C   UNL A   1      34.105  20.867  25.614  1.00  0.00     0.179 C 
ATOM     11  C   UNL A   1      34.107  22.090  26.502  1.00  0.00     0.047 C 
ATOM     12  C   UNL A   1      34.820  21.293  24.310  1.00  0.00     0.081 C 
ATOM     13  C   UNL A   1      33.309  23.167  25.801  1.00  0.00     0.026 C 
ATOM     14  C   UNL A   1      34.330  22.616  23.630  1.00  0.00     0.085 C 
ATOM     15  C   UNL A   1      34.155  23.831  24.490  1.00  0.00     0.103 C 
ATOM     16  C   UNL A   1      32.880  22.413  23.008  1.00  0.00     0.041 C 
ATOM     17  C   UNL A   1      34.215  25.067  25.230  1.00  0.00     0.316 C 
ATOM     18  C   UNL A   1      33.559  24.941  23.214  1.00  0.00     0.054 C 
ATOM     19  C   UNL A   1      31.760  23.517  23.410  1.00  0.00     0.052 C 
ATOM     20  O   UNL A   1      35.068  25.570  25.949  1.00  0.00    -0.251 OA
ATOM     21  O   UNL A   1      32.844  25.407  25.153  1.00  0.00    -0.458 OA
ATOM     22  C   UNL A   1      32.257  24.977  23.859  1.00  0.00     0.120 C 
ATOM     23  C   UNL A   1      34.054  26.388  22.904  1.00  0.00     0.009 C 
ATOM     24  C   UNL A   1      31.178  26.011  23.618  1.00  0.00     0.040 C 
ATOM     25  C   UNL A   1      33.239  27.570  23.504  1.00  0.00     0.008 C 
ATOM     26  C   UNL A   1      31.692  27.486  23.615  1.00  0.00    -0.014 C 
ATOM     27  C   UNL A   1      30.189  25.910  24.814  1.00  0.00     0.009 C 
ATOM     28  C   UNL A   1      31.080  28.212  22.394  1.00  0.00     0.012 C 
ATOM     29  C   UNL A   1      30.643  26.965  25.820  1.00  0.00     0.014 C 
BRANCH  10  30
ATOM     30  O   UNL A   1      32.794  20.302  25.290  1.00  0.00    -0.462 OA
BRANCH  30  31
ATOM     31  C   UNL A   1      32.575  18.966  25.124  1.00  0.00     0.302 C 
ATOM     32  C   UNL A   1      32.455  18.606  23.672  1.00  0.00     0.139 C 
ATOM     33  O   UNL A   1      32.481  18.123  26.004  1.00  0.00    -0.253 OA
ENDBRANCH  30  31
ENDBRANCH  10  30
BRANCH  14  34
ATOM     34  O   UNL A   1      35.270  22.920  22.595  1.00  0.00    -0.389 OA
ATOM     35  H   UNL A   1      34.810  22.962  21.742  1.00  0.00     0.211 HD
ENDBRANCH  14  34
ENDBRANCH   6   9
ENDBRANCH   4   5
ENDBRANCH   3   4
ENDBRANCH   2   3
ENDBRANCH   1   2
BRANCH   1  36
ATOM     36  C   UNL A   1      33.852  32.342  28.041  1.00  0.00     0.021 C 
BRANCH  36  37
ATOM     37  C   UNL A   1      33.944  33.847  27.800  1.00  0.00     0.116 C 
BRANCH  37  38
ATOM     38  N   UNL A   1      33.318  34.601  28.875  1.00  0.00    -0.352 N 
ATOM     39  C   UNL A   1      33.547  34.540  30.227  1.00  0.00     0.251 C 
ATOM     40  H   UNL A   1      32.631  35.247  28.593  1.00  0.00     0.163 HD
ATOM     41  O   UNL A   1      32.749  35.048  31.007  1.00  0.00    -0.269 OA
BRANCH  39  42
ATOM     42  C   UNL A   1      34.754  33.850  30.732  1.00  0.00     0.039 A 
ATOM     43  C   UNL A   1      34.605  32.736  31.558  1.00  0.00     0.014 A 
ATOM     44  C   UNL A   1      36.029  34.317  30.400  1.00  0.00     0.014 A 
ATOM     45  C   UNL A   1      35.738  32.055  32.010  1.00  0.00     0.010 A 
ATOM     46  C   UNL A   1      37.154  33.597  30.792  1.00  0.00     0.010 A 
ATOM     47  C   UNL A   1      37.020  32.463  31.606  1.00  0.00    -0.014 A 
BRANCH  47  48
ATOM     48  C   UNL A   1      38.234  31.722  32.037  1.00  0.00     0.031 A 
ATOM     49  C   UNL A   1      38.937  32.107  33.309  1.00  0.00     0.074 A 
ATOM     50  C   UNL A   1      38.731  30.745  31.254  1.00  0.00     0.049 A 
ATOM     51  N   UNL A   1      40.047  31.636  33.820  1.00  0.00    -0.248 NA
ATOM     52  C   UNL A   1      38.325  33.187  34.098  1.00  0.00     0.031 C 
ATOM     53  C   UNL A   1      38.154  30.306  29.983  1.00  0.00     0.029 A 
ATOM     54  N   UNL A   1      39.838  29.947  31.408  1.00  0.00    -0.354 N 
ATOM     55  C   UNL A   1      40.270  32.366  34.983  1.00  0.00     0.074 A 
ATOM     56  C   UNL A   1      39.217  33.356  35.062  1.00  0.00     0.031 C 
ATOM     57  C   UNL A   1      38.893  29.300  29.487  1.00  0.00     0.029 A 
ATOM     58  C   UNL A   1      40.024  29.055  30.378  1.00  0.00     0.049 A 
ATOM     59  H   UNL A   1      40.441  30.007  32.184  1.00  0.00     0.167 HD
ATOM     60  C   UNL A   1      41.247  32.209  35.910  1.00  0.00     0.034 A 
ATOM     61  C   UNL A   1      41.001  28.151  30.169  1.00  0.00     0.034 A 
ATOM     62  C   UNL A   1      42.288  31.213  35.813  1.00  0.00     0.049 A 
ATOM     63  C   UNL A   1      42.103  28.023  31.191  1.00  0.00     0.074 A 
ATOM     64  C   UNL A   1      43.302  30.935  36.712  1.00  0.00     0.029 A 
ATOM     65  N   UNL A   1      42.453  30.335  34.748  1.00  0.00    -0.354 N 
ATOM     66  N   UNL A   1      42.278  28.692  32.307  1.00  0.00    -0.248 NA
ATOM     67  C   UNL A   1      43.134  27.012  30.927  1.00  0.00     0.031 C 
ATOM     68  C   UNL A   1      44.120  29.942  36.160  1.00  0.00     0.029 A 
ATOM     69  C   UNL A   1      43.570  29.539  34.953  1.00  0.00     0.049 A 
ATOM     70  H   UNL A   1      41.862  30.285  33.962  1.00  0.00     0.167 HD
ATOM     71  C   UNL A   1      43.419  28.156  32.897  1.00  0.00     0.074 A 
ATOM     72  C   UNL A   1      43.883  27.102  32.017  1.00  0.00     0.031 C 
ATOM     73  C   UNL A   1      44.027  28.499  34.061  1.00  0.00     0.034 A 
BRANCH  60  74
ATOM     74  C   UNL A   1      41.246  33.155  37.088  1.00  0.00     0.023 A 
ATOM     75  C   UNL A   1      40.601  32.829  38.295  1.00  0.00     0.031 A 
ATOM     76  C   UNL A   1      41.862  34.416  36.995  1.00  0.00     0.131 A 
ATOM     77  C   UNL A   1      40.515  33.778  39.325  1.00  0.00     0.055 A 
ATOM     78  C   UNL A   1      41.850  35.323  38.057  1.00  0.00     0.041 A 
ATOM     79  F   UNL A   1      42.475  34.795  35.862  1.00  0.00    -0.206 F 
ATOM     80  C   UNL A   1      41.158  35.013  39.224  1.00  0.00     0.022 A 
BRANCH  77  81
ATOM     81  S   UNL A   1      39.419  33.435  40.728  1.00  0.00     0.124 S 
ATOM     82  O   UNL A   1      39.601  31.996  40.900  1.00  0.00    -0.237 OA
ATOM     83  O   UNL A   1      39.975  34.281  41.777  1.00  0.00    -0.237 OA
ATOM     84  O   UNL A   1      38.100  33.834  40.238  1.00  0.00    -0.744 OA
ENDBRANCH  77  81
ENDBRANCH  60  74
BRANCH  61  85
ATOM     85  C   UNL A   1      40.995  27.298  28.945  1.00  0.00     0.023 A 
ATOM     86  C   UNL A   1      41.930  27.504  27.919  1.00  0.00     0.031 A 
ATOM     87  C   UNL A   1      40.027  26.294  28.763  1.00  0.00     0.131 A 
ATOM     88  C   UNL A   1      41.849  26.752  26.736  1.00  0.00     0.055 A 
ATOM     89  C   UNL A   1      39.986  25.509  27.610  1.00  0.00     0.041 A 
ATOM     90  F   UNL A   1      39.109  26.054  29.713  1.00  0.00    -0.206 F 
ATOM     91  C   UNL A   1      40.894  25.746  26.581  1.00  0.00     0.022 A 
BRANCH  88  92
ATOM     92  S   UNL A   1      42.958  27.171  25.364  1.00  0.00     0.124 S 
ATOM     93  O   UNL A   1      43.051  25.899  24.658  1.00  0.00    -0.237 OA
ATOM     94  O   UNL A   1      42.215  28.229  24.687  1.00  0.00    -0.237 OA
ATOM     95  O   UNL A   1      44.181  27.604  26.036  1.00  0.00    -0.744 OA
ENDBRANCH  88  92
ENDBRANCH  61  85
BRANCH  73  96
ATOM     96  C   UNL A   1      45.233  27.687  34.469  1.00  0.00     0.023 A 
ATOM     97  C   UNL A   1      45.112  26.501  35.214  1.00  0.00     0.031 A 
ATOM     98  C   UNL A   1      46.525  28.116  34.115  1.00  0.00     0.131 A 
ATOM     99  C   UNL A   1      46.264  25.817  35.630  1.00  0.00     0.055 A 
ATOM    100  C   UNL A   1      47.664  27.398  34.478  1.00  0.00     0.041 A 
ATOM    101  F   UNL A   1      46.700  29.243  33.406  1.00  0.00    -0.206 F 
ATOM    102  C   UNL A   1      47.538  26.248  35.252  1.00  0.00     0.022 A 
BRANCH  99 103
ATOM    103  S   UNL A   1      46.081  24.405  36.755  1.00  0.00     0.124 S 
ATOM    104  O   UNL A   1      46.546  24.963  38.021  1.00  0.00    -0.237 OA
ATOM    105  O   UNL A   1      44.652  24.122  36.671  1.00  0.00    -0.237 OA
ATOM    106  O   UNL A   1      46.949  23.385  36.170  1.00  0.00    -0.744 OA
ENDBRANCH  99 103
ENDBRANCH  73  96
ENDBRANCH  47  48
ENDBRANCH  39  42
ENDBRANCH  37  38
ENDBRANCH  36  37
ENDBRANCH   1  36
TORSDOF 19
ENDMDL
