MODEL 1
REMARK VINA RESULT:     -12.6      0.000      0.000
REMARK SMILES Cc1cccc(-c2c(C(=O)NCCCCCCNC(=O)c3ccc(-c4c5nc(c(-c6cc(S(=O)(=O)[O-])ccc6F)c6ccc([nH]6)c(-c6cc(S(=O)(=O)[O-])ccc6F)c6nc(c(-c7cc(S(=O)(=O)[O-])ccc7F)c7ccc4[nH]7)C=C6)C=C5)cc3)nnn2Cc2cc(F)cc(F)c2)c1
REMARK SMILES IDX 15 1 14 2 13 3 12 4 11 5 9 6 10 7 8 9 7 10 86 11 84 12 85 13
REMARK SMILES IDX 6 14 1 15 2 16 3 17 96 18 4 19 5 20 87 21 88 22 89 23 95 24
REMARK SMILES IDX 90 25 93 26 91 27 92 28 94 29 16 30 17 31 18 32 19 33 20 35
REMARK SMILES IDX 21 36 22 37 83 38 23 39 82 40 24 41 25 42 26 43 76 44 27 45
REMARK SMILES IDX 81 46 75 47 77 48 28 49 80 50 74 51 73 52 29 54 61 55 41 56
REMARK SMILES IDX 60 57 42 58 45 59 59 60 78 61 43 62 44 63 58 65 79 66 46 67
REMARK SMILES IDX 30 68 31 69 39 70 32 71 38 72 40 73 37 74 33 75 34 76 35 77
REMARK SMILES IDX 36 78 62 79 63 80 71 81 64 82 70 83 72 84 69 85 65 86 66 87
REMARK SMILES IDX 67 88 68 89 47 90 48 91 56 92 49 93 55 94 57 95 54 96 50 97
REMARK SMILES IDX 51 98 52 99 53 100
REMARK H PARENT 11 8 18 34 77 53 45 64
REMARK Flexibility Score: inf
ROOT
ATOM      1  C   UNL A   1      37.730  23.739  25.949  1.00  0.00     0.002 C 
ENDROOT
BRANCH   1   2
ATOM      2  C   UNL A   1      36.363  23.371  25.358  1.00  0.00     0.002 C 
BRANCH   2   3
ATOM      3  C   UNL A   1      35.165  23.214  26.297  1.00  0.00     0.021 C 
BRANCH   3   4
ATOM      4  C   UNL A   1      33.776  23.150  25.680  1.00  0.00     0.116 C 
BRANCH   4   5
ATOM      5  N   UNL A   1      32.666  23.393  26.559  1.00  0.00    -0.351 N 
ATOM      6  C   UNL A   1      31.531  24.147  26.368  1.00  0.00     0.274 C 
ATOM      7  O   UNL A   1      30.721  24.125  27.302  1.00  0.00    -0.267 OA
ATOM      8  H   UNL A   1      32.727  22.949  27.436  1.00  0.00     0.163 HD
BRANCH   6   9
ATOM      9  C   UNL A   1      31.249  24.967  25.172  1.00  0.00     0.178 A 
ATOM     10  C   UNL A   1      31.525  26.276  24.763  1.00  0.00     0.102 A 
ATOM     11  N   UNL A   1      31.016  26.329  23.476  1.00  0.00    -0.239 N 
ATOM     12  N   UNL A   1      30.583  24.336  24.126  1.00  0.00    -0.124 NA
ATOM     13  N   UNL A   1      30.441  25.175  23.118  1.00  0.00    -0.066 NA
BRANCH  10  14
ATOM     14  C   UNL A   1      32.240  27.409  25.337  1.00  0.00     0.003 A 
ATOM     15  C   UNL A   1      31.524  31.010  26.374  1.00  0.00     0.044 C 
ATOM     16  C   UNL A   1      32.251  29.726  26.094  1.00  0.00    -0.050 A 
ATOM     17  C   UNL A   1      33.590  29.581  26.474  1.00  0.00     0.003 A 
ATOM     18  C   UNL A   1      31.585  28.638  25.515  1.00  0.00     0.013 A 
ATOM     19  C   UNL A   1      34.255  28.371  26.272  1.00  0.00     0.001 A 
ATOM     20  C   UNL A   1      33.583  27.287  25.709  1.00  0.00     0.010 A 
ENDBRANCH  10  14
BRANCH  11  21
ATOM     21  C   UNL A   1      31.038  27.424  22.511  1.00  0.00     0.182 C 
BRANCH  21  22
ATOM     22  C   UNL A   1      29.860  28.371  22.605  1.00  0.00    -0.021 A 
ATOM     23  C   UNL A   1      30.008  29.694  22.154  1.00  0.00     0.045 A 
ATOM     24  C   UNL A   1      28.620  27.990  23.142  1.00  0.00     0.045 A 
ATOM     25  C   UNL A   1      28.924  30.571  22.176  1.00  0.00     0.126 A 
ATOM     26  C   UNL A   1      27.544  28.876  23.126  1.00  0.00     0.126 A 
ATOM     27  F   UNL A   1      29.086  31.825  21.734  1.00  0.00    -0.207 F 
ATOM     28  C   UNL A   1      27.682  30.167  22.641  1.00  0.00     0.078 A 
ATOM     29  F   UNL A   1      26.350  28.467  23.574  1.00  0.00    -0.207 F 
ENDBRANCH  21  22
ENDBRANCH  11  21
ENDBRANCH   6   9
ENDBRANCH   4   5
ENDBRANCH   3   4
ENDBRANCH   2   3
ENDBRANCH   1   2
BRANCH   1  30
ATOM     30  C   UNL A   1      38.641  22.599  26.402  1.00  0.00     0.021 C 
BRANCH  30  31
ATOM     31  C   UNL A   1      40.137  22.889  26.382  1.00  0.00     0.116 C 
BRANCH  31  32
ATOM     32  N   UNL A   1      40.943  21.812  25.812  1.00  0.00    -0.352 N 
ATOM     33  C   UNL A   1      42.305  21.577  25.964  1.00  0.00     0.251 C 
ATOM     34  H   UNL A   1      40.458  21.168  25.246  1.00  0.00     0.163 HD
ATOM     35  O   UNL A   1      42.868  20.633  25.459  1.00  0.00    -0.269 OA
BRANCH  33  36
ATOM     36  C   UNL A   1      43.046  22.476  26.884  1.00  0.00     0.039 A 
ATOM     37  C   UNL A   1      42.825  22.303  28.253  1.00  0.00     0.014 A 
ATOM     38  C   UNL A   1      43.686  23.611  26.396  1.00  0.00     0.014 A 
ATOM     39  C   UNL A   1      43.018  23.383  29.108  1.00  0.00     0.010 A 
ATOM     40  C   UNL A   1      43.803  24.710  27.230  1.00  0.00     0.010 A 
ATOM     41  C   UNL A   1      43.388  24.615  28.565  1.00  0.00    -0.014 A 
BRANCH  41  42
ATOM     42  C   UNL A   1      43.178  25.871  29.284  1.00  0.00     0.031 A 
ATOM     43  C   UNL A   1      41.954  26.669  29.083  1.00  0.00     0.074 A 
ATOM     44  C   UNL A   1      44.140  26.332  30.114  1.00  0.00     0.049 A 
ATOM     45  N   UNL A   1      41.870  27.944  29.269  1.00  0.00    -0.248 NA
ATOM     46  C   UNL A   1      40.730  26.085  28.557  1.00  0.00     0.031 C 
ATOM     47  C   UNL A   1      44.054  27.452  31.045  1.00  0.00     0.029 A 
ATOM     48  N   UNL A   1      45.495  26.023  30.074  1.00  0.00    -0.354 N 
ATOM     49  C   UNL A   1      40.546  28.305  29.161  1.00  0.00     0.074 A 
ATOM     50  C   UNL A   1      39.905  27.135  28.611  1.00  0.00     0.031 C 
ATOM     51  C   UNL A   1      45.295  27.900  31.299  1.00  0.00     0.029 A 
ATOM     52  C   UNL A   1      46.211  27.168  30.439  1.00  0.00     0.049 A 
ATOM     53  H   UNL A   1      45.882  25.152  29.830  1.00  0.00     0.167 HD
ATOM     54  C   UNL A   1      40.139  29.502  29.680  1.00  0.00     0.034 A 
ATOM     55  C   UNL A   1      47.105  27.740  29.581  1.00  0.00     0.034 A 
ATOM     56  C   UNL A   1      41.289  30.340  30.050  1.00  0.00     0.049 A 
ATOM     57  C   UNL A   1      46.746  29.155  29.179  1.00  0.00     0.074 A 
ATOM     58  C   UNL A   1      41.875  30.667  31.261  1.00  0.00     0.029 A 
ATOM     59  N   UNL A   1      42.173  30.772  29.062  1.00  0.00    -0.354 N 
ATOM     60  N   UNL A   1      45.580  29.708  29.374  1.00  0.00    -0.248 NA
ATOM     61  C   UNL A   1      47.676  30.045  28.490  1.00  0.00     0.031 C 
ATOM     62  C   UNL A   1      43.159  31.219  30.995  1.00  0.00     0.029 A 
ATOM     63  C   UNL A   1      43.338  31.263  29.622  1.00  0.00     0.049 A 
ATOM     64  H   UNL A   1      41.992  30.733  28.095  1.00  0.00     0.167 HD
ATOM     65  C   UNL A   1      45.566  30.960  28.811  1.00  0.00     0.074 A 
ATOM     66  C   UNL A   1      46.919  31.140  28.313  1.00  0.00     0.031 C 
ATOM     67  C   UNL A   1      44.436  31.731  28.779  1.00  0.00     0.034 A 
BRANCH  54  68
ATOM     68  C   UNL A   1      38.712  29.813  30.129  1.00  0.00     0.023 A 
ATOM     69  C   UNL A   1      38.025  30.897  29.532  1.00  0.00     0.031 A 
ATOM     70  C   UNL A   1      38.006  29.183  31.175  1.00  0.00     0.131 A 
ATOM     71  C   UNL A   1      36.783  31.356  30.026  1.00  0.00     0.055 A 
ATOM     72  C   UNL A   1      36.789  29.655  31.686  1.00  0.00     0.041 A 
ATOM     73  F   UNL A   1      38.420  28.049  31.742  1.00  0.00    -0.206 F 
ATOM     74  C   UNL A   1      36.175  30.756  31.122  1.00  0.00     0.022 A 
BRANCH  71  75
ATOM     75  S   UNL A   1      35.974  32.776  29.238  1.00  0.00     0.124 S 
ATOM     76  O   UNL A   1      36.910  33.859  29.517  1.00  0.00    -0.237 OA
ATOM     77  O   UNL A   1      35.875  32.343  27.849  1.00  0.00    -0.237 OA
ATOM     78  O   UNL A   1      34.696  32.873  29.944  1.00  0.00    -0.744 OA
ENDBRANCH  71  75
ENDBRANCH  54  68
BRANCH  55  79
ATOM     79  C   UNL A   1      47.813  26.759  28.710  1.00  0.00     0.023 A 
ATOM     80  C   UNL A   1      47.325  26.572  27.398  1.00  0.00     0.031 A 
ATOM     81  C   UNL A   1      49.103  26.298  29.003  1.00  0.00     0.131 A 
ATOM     82  C   UNL A   1      48.165  26.067  26.397  1.00  0.00     0.055 A 
ATOM     83  C   UNL A   1      49.923  25.748  28.010  1.00  0.00     0.041 A 
ATOM     84  F   UNL A   1      49.635  26.480  30.221  1.00  0.00    -0.206 F 
ATOM     85  C   UNL A   1      49.470  25.667  26.692  1.00  0.00     0.022 A 
BRANCH  82  86
ATOM     86  S   UNL A   1      47.644  26.116  24.657  1.00  0.00     0.124 S 
ATOM     87  O   UNL A   1      47.002  27.422  24.565  1.00  0.00    -0.237 OA
ATOM     88  O   UNL A   1      48.898  25.978  23.921  1.00  0.00    -0.237 OA
ATOM     89  O   UNL A   1      46.754  24.960  24.560  1.00  0.00    -0.744 OA
ENDBRANCH  82  86
ENDBRANCH  55  79
BRANCH  67  90
ATOM     90  C   UNL A   1      44.292  33.036  28.018  1.00  0.00     0.023 A 
ATOM     91  C   UNL A   1      44.497  34.299  28.596  1.00  0.00     0.031 A 
ATOM     92  C   UNL A   1      44.000  33.042  26.632  1.00  0.00     0.131 A 
ATOM     93  C   UNL A   1      44.309  35.484  27.858  1.00  0.00     0.055 A 
ATOM     94  C   UNL A   1      43.896  34.218  25.878  1.00  0.00     0.041 A 
ATOM     95  F   UNL A   1      43.806  31.905  25.949  1.00  0.00    -0.206 F 
ATOM     96  C   UNL A   1      44.029  35.452  26.495  1.00  0.00     0.022 A 
BRANCH  93  97
ATOM     97  S   UNL A   1      44.362  37.066  28.742  1.00  0.00     0.124 S 
ATOM     98  O   UNL A   1      45.727  37.072  29.262  1.00  0.00    -0.237 OA
ATOM     99  O   UNL A   1      44.084  38.027  27.681  1.00  0.00    -0.237 OA
ATOM    100  O   UNL A   1      43.314  36.933  29.752  1.00  0.00    -0.744 OA
ENDBRANCH  93  97
ENDBRANCH  67  90
ENDBRANCH  41  42
ENDBRANCH  33  36
ENDBRANCH  31  32
ENDBRANCH  30  31
ENDBRANCH   1  30
TORSDOF 19
ENDMDL
MODEL 2
REMARK VINA RESULT:     -12.2      2.090      2.610
REMARK SMILES Cc1cccc(-c2c(C(=O)NCCCCCCNC(=O)c3ccc(-c4c5nc(c(-c6cc(S(=O)(=O)[O-])ccc6F)c6ccc([nH]6)c(-c6cc(S(=O)(=O)[O-])ccc6F)c6nc(c(-c7cc(S(=O)(=O)[O-])ccc7F)c7ccc4[nH]7)C=C6)C=C5)cc3)nnn2Cc2cc(F)cc(F)c2)c1
REMARK SMILES IDX 15 1 14 2 13 3 12 4 11 5 9 6 10 7 8 9 7 10 86 11 84 12 85 13
REMARK SMILES IDX 6 14 1 15 2 16 3 17 96 18 4 19 5 20 87 21 88 22 89 23 95 24
REMARK SMILES IDX 90 25 93 26 91 27 92 28 94 29 16 30 17 31 18 32 19 33 20 35
REMARK SMILES IDX 21 36 22 37 83 38 23 39 82 40 24 41 25 42 26 43 76 44 27 45
REMARK SMILES IDX 81 46 75 47 77 48 28 49 80 50 74 51 73 52 29 54 61 55 41 56
REMARK SMILES IDX 60 57 42 58 45 59 59 60 78 61 43 62 44 63 58 65 79 66 46 67
REMARK SMILES IDX 30 68 31 69 39 70 32 71 38 72 40 73 37 74 33 75 34 76 35 77
REMARK SMILES IDX 36 78 62 79 63 80 71 81 64 82 70 83 72 84 69 85 65 86 66 87
REMARK SMILES IDX 67 88 68 89 47 90 48 91 56 92 49 93 55 94 57 95 54 96 50 97
REMARK SMILES IDX 51 98 52 99 53 100
REMARK H PARENT 11 8 18 34 77 53 45 64
REMARK Flexibility Score: inf
ROOT
ATOM      1  C   UNL A   1      39.747  22.314  26.674  1.00  0.00     0.002 C 
ENDROOT
BRANCH   1   2
ATOM      2  C   UNL A   1      38.976  21.361  25.750  1.00  0.00     0.002 C 
BRANCH   2   3
ATOM      3  C   UNL A   1      37.653  21.827  25.141  1.00  0.00     0.021 C 
BRANCH   3   4
ATOM      4  C   UNL A   1      37.048  23.127  25.651  1.00  0.00     0.116 C 
BRANCH   4   5
ATOM      5  N   UNL A   1      35.866  23.017  26.461  1.00  0.00    -0.351 N 
ATOM      6  C   UNL A   1      34.596  23.503  26.248  1.00  0.00     0.274 C 
ATOM      7  O   UNL A   1      33.766  23.201  27.113  1.00  0.00    -0.267 OA
ATOM      8  H   UNL A   1      35.984  22.516  27.300  1.00  0.00     0.163 HD
BRANCH   6   9
ATOM      9  C   UNL A   1      34.192  24.349  25.108  1.00  0.00     0.178 A 
ATOM     10  C   UNL A   1      33.615  25.613  24.947  1.00  0.00     0.102 A 
ATOM     11  N   UNL A   1      33.598  25.792  23.575  1.00  0.00    -0.239 N 
ATOM     12  N   UNL A   1      34.462  23.851  23.836  1.00  0.00    -0.124 NA
ATOM     13  N   UNL A   1      34.086  24.728  22.925  1.00  0.00    -0.066 NA
BRANCH  10  14
ATOM     14  C   UNL A   1      33.175  26.670  25.850  1.00  0.00     0.003 A 
ATOM     15  C   UNL A   1      34.467  29.996  27.198  1.00  0.00     0.044 C 
ATOM     16  C   UNL A   1      33.602  28.790  26.974  1.00  0.00    -0.050 A 
ATOM     17  C   UNL A   1      32.329  28.723  27.552  1.00  0.00     0.003 A 
ATOM     18  C   UNL A   1      34.022  27.753  26.132  1.00  0.00     0.013 A 
ATOM     19  C   UNL A   1      31.494  27.634  27.301  1.00  0.00     0.001 A 
ATOM     20  C   UNL A   1      31.913  26.611  26.451  1.00  0.00     0.010 A 
ENDBRANCH  10  14
BRANCH  11  21
ATOM     21  C   UNL A   1      33.151  26.940  22.791  1.00  0.00     0.182 C 
BRANCH  21  22
ATOM     22  C   UNL A   1      31.732  27.384  23.079  1.00  0.00    -0.021 A 
ATOM     23  C   UNL A   1      31.457  28.757  23.204  1.00  0.00     0.045 A 
ATOM     24  C   UNL A   1      30.671  26.479  23.244  1.00  0.00     0.045 A 
ATOM     25  C   UNL A   1      30.150  29.197  23.412  1.00  0.00     0.126 A 
ATOM     26  C   UNL A   1      29.369  26.945  23.421  1.00  0.00     0.126 A 
ATOM     27  F   UNL A   1      29.909  30.510  23.520  1.00  0.00    -0.207 F 
ATOM     28  C   UNL A   1      29.096  28.301  23.502  1.00  0.00     0.078 A 
ATOM     29  F   UNL A   1      28.362  26.066  23.501  1.00  0.00    -0.207 F 
ENDBRANCH  21  22
ENDBRANCH  11  21
ENDBRANCH   6   9
ENDBRANCH   4   5
ENDBRANCH   3   4
ENDBRANCH   2   3
ENDBRANCH   1   2
BRANCH   1  30
ATOM     30  C   UNL A   1      41.207  22.608  26.337  1.00  0.00     0.021 C 
BRANCH  30  31
ATOM     31  C   UNL A   1      42.213  21.527  26.716  1.00  0.00     0.116 C 
BRANCH  31  32
ATOM     32  N   UNL A   1      42.862  20.893  25.570  1.00  0.00    -0.352 N 
ATOM     33  C   UNL A   1      43.939  21.356  24.822  1.00  0.00     0.251 C 
ATOM     34  H   UNL A   1      42.488  20.026  25.292  1.00  0.00     0.163 HD
ATOM     35  O   UNL A   1      44.414  20.732  23.900  1.00  0.00    -0.269 OA
BRANCH  33  36
ATOM     36  C   UNL A   1      44.583  22.615  25.273  1.00  0.00     0.039 A 
ATOM     37  C   UNL A   1      45.298  22.566  26.473  1.00  0.00     0.014 A 
ATOM     38  C   UNL A   1      44.241  23.830  24.687  1.00  0.00     0.014 A 
ATOM     39  C   UNL A   1      45.448  23.734  27.215  1.00  0.00     0.010 A 
ATOM     40  C   UNL A   1      44.319  24.977  25.458  1.00  0.00     0.010 A 
ATOM     41  C   UNL A   1      44.846  24.907  26.755  1.00  0.00    -0.014 A 
BRANCH  41  42
ATOM     42  C   UNL A   1      44.563  26.031  27.647  1.00  0.00     0.031 A 
ATOM     43  C   UNL A   1      43.256  26.715  27.620  1.00  0.00     0.074 A 
ATOM     44  C   UNL A   1      45.529  26.480  28.478  1.00  0.00     0.049 A 
ATOM     45  N   UNL A   1      43.061  27.940  27.980  1.00  0.00    -0.248 NA
ATOM     46  C   UNL A   1      42.063  26.077  27.087  1.00  0.00     0.031 C 
ATOM     47  C   UNL A   1      45.397  27.457  29.554  1.00  0.00     0.029 A 
ATOM     48  N   UNL A   1      46.901  26.324  28.324  1.00  0.00    -0.354 N 
ATOM     49  C   UNL A   1      41.704  28.170  27.992  1.00  0.00     0.074 A 
ATOM     50  C   UNL A   1      41.145  27.019  27.325  1.00  0.00     0.031 C 
ATOM     51  C   UNL A   1      46.602  27.997  29.799  1.00  0.00     0.029 A 
ATOM     52  C   UNL A   1      47.525  27.482  28.801  1.00  0.00     0.049 A 
ATOM     53  H   UNL A   1      47.355  25.537  27.945  1.00  0.00     0.167 HD
ATOM     54  C   UNL A   1      41.218  29.241  28.688  1.00  0.00     0.034 A 
ATOM     55  C   UNL A   1      48.300  28.250  27.981  1.00  0.00     0.034 A 
ATOM     56  C   UNL A   1      42.302  30.141  29.105  1.00  0.00     0.049 A 
ATOM     57  C   UNL A   1      47.778  29.660  27.792  1.00  0.00     0.074 A 
ATOM     58  C   UNL A   1      42.934  30.370  30.316  1.00  0.00     0.029 A 
ATOM     59  N   UNL A   1      43.072  30.787  28.138  1.00  0.00    -0.354 N 
ATOM     60  N   UNL A   1      46.580  30.056  28.122  1.00  0.00    -0.248 NA
ATOM     61  C   UNL A   1      48.569  30.723  27.180  1.00  0.00     0.031 C 
ATOM     62  C   UNL A   1      44.137  31.084  30.058  1.00  0.00     0.029 A 
ATOM     63  C   UNL A   1      44.219  31.322  28.696  1.00  0.00     0.049 A 
ATOM     64  H   UNL A   1      42.831  30.852  27.185  1.00  0.00     0.167 HD
ATOM     65  C   UNL A   1      46.407  31.362  27.734  1.00  0.00     0.074 A 
ATOM     66  C   UNL A   1      47.699  31.746  27.192  1.00  0.00     0.031 C 
ATOM     67  C   UNL A   1      45.206  32.007  27.866  1.00  0.00     0.034 A 
BRANCH  54  68
ATOM     68  C   UNL A   1      39.801  29.339  29.251  1.00  0.00     0.023 A 
ATOM     69  C   UNL A   1      39.623  29.431  30.652  1.00  0.00     0.031 A 
ATOM     70  C   UNL A   1      38.599  29.252  28.518  1.00  0.00     0.131 A 
ATOM     71  C   UNL A   1      38.347  29.336  31.250  1.00  0.00     0.055 A 
ATOM     72  C   UNL A   1      37.334  29.128  29.110  1.00  0.00     0.041 A 
ATOM     73  F   UNL A   1      38.561  29.324  27.186  1.00  0.00    -0.206 F 
ATOM     74  C   UNL A   1      37.202  29.155  30.484  1.00  0.00     0.022 A 
BRANCH  71  75
ATOM     75  S   UNL A   1      38.194  29.422  33.056  1.00  0.00     0.124 S 
ATOM     76  O   UNL A   1      37.031  28.579  33.308  1.00  0.00    -0.237 OA
ATOM     77  O   UNL A   1      39.482  28.904  33.500  1.00  0.00    -0.237 OA
ATOM     78  O   UNL A   1      37.984  30.848  33.311  1.00  0.00    -0.744 OA
ENDBRANCH  71  75
ENDBRANCH  54  68
BRANCH  55  79
ATOM     79  C   UNL A   1      49.040  27.469  26.949  1.00  0.00     0.023 A 
ATOM     80  C   UNL A   1      48.492  27.411  25.649  1.00  0.00     0.031 A 
ATOM     81  C   UNL A   1      50.383  27.104  27.113  1.00  0.00     0.131 A 
ATOM     82  C   UNL A   1      49.312  27.129  24.549  1.00  0.00     0.055 A 
ATOM     83  C   UNL A   1      51.187  26.775  26.015  1.00  0.00     0.041 A 
ATOM     84  F   UNL A   1      50.969  27.174  28.317  1.00  0.00    -0.206 F 
ATOM     85  C   UNL A   1      50.664  26.826  24.722  1.00  0.00     0.022 A 
BRANCH  82  86
ATOM     86  S   UNL A   1      48.683  27.357  22.859  1.00  0.00     0.124 S 
ATOM     87  O   UNL A   1      47.384  27.976  23.096  1.00  0.00    -0.237 OA
ATOM     88  O   UNL A   1      49.685  28.217  22.235  1.00  0.00    -0.237 OA
ATOM     89  O   UNL A   1      48.652  25.988  22.345  1.00  0.00    -0.744 OA
ENDBRANCH  82  86
ENDBRANCH  55  79
BRANCH  67  90
ATOM     90  C   UNL A   1      44.886  33.377  27.295  1.00  0.00     0.023 A 
ATOM     91  C   UNL A   1      45.295  34.581  27.891  1.00  0.00     0.031 A 
ATOM     92  C   UNL A   1      44.196  33.510  26.066  1.00  0.00     0.131 A 
ATOM     93  C   UNL A   1      44.934  35.828  27.345  1.00  0.00     0.055 A 
ATOM     94  C   UNL A   1      43.911  34.749  25.480  1.00  0.00     0.041 A 
ATOM     95  F   UNL A   1      43.771  32.440  25.378  1.00  0.00    -0.206 F 
ATOM     96  C   UNL A   1      44.261  35.921  26.130  1.00  0.00     0.022 A 
BRANCH  93  97
ATOM     97  S   UNL A   1      45.298  37.324  28.303  1.00  0.00     0.124 S 
ATOM     98  O   UNL A   1      45.364  38.341  27.257  1.00  0.00    -0.237 OA
ATOM     99  O   UNL A   1      44.151  37.410  29.200  1.00  0.00    -0.237 OA
ATOM    100  O   UNL A   1      46.573  37.018  28.951  1.00  0.00    -0.744 OA
ENDBRANCH  93  97
ENDBRANCH  67  90
ENDBRANCH  41  42
ENDBRANCH  33  36
ENDBRANCH  31  32
ENDBRANCH  30  31
ENDBRANCH   1  30
TORSDOF 19
ENDMDL
MODEL 3
REMARK VINA RESULT:     -12.0      3.769      5.950
REMARK SMILES Cc1cccc(-c2c(C(=O)NCCCCCCNC(=O)c3ccc(-c4c5nc(c(-c6cc(S(=O)(=O)[O-])ccc6F)c6ccc([nH]6)c(-c6cc(S(=O)(=O)[O-])ccc6F)c6nc(c(-c7cc(S(=O)(=O)[O-])ccc7F)c7ccc4[nH]7)C=C6)C=C5)cc3)nnn2Cc2cc(F)cc(F)c2)c1
REMARK SMILES IDX 15 1 14 2 13 3 12 4 11 5 9 6 10 7 8 9 7 10 86 11 84 12 85 13
REMARK SMILES IDX 6 14 1 15 2 16 3 17 96 18 4 19 5 20 87 21 88 22 89 23 95 24
REMARK SMILES IDX 90 25 93 26 91 27 92 28 94 29 16 30 17 31 18 32 19 33 20 35
REMARK SMILES IDX 21 36 22 37 83 38 23 39 82 40 24 41 25 42 26 43 76 44 27 45
REMARK SMILES IDX 81 46 75 47 77 48 28 49 80 50 74 51 73 52 29 54 61 55 41 56
REMARK SMILES IDX 60 57 42 58 45 59 59 60 78 61 43 62 44 63 58 65 79 66 46 67
REMARK SMILES IDX 30 68 31 69 39 70 32 71 38 72 40 73 37 74 33 75 34 76 35 77
REMARK SMILES IDX 36 78 62 79 63 80 71 81 64 82 70 83 72 84 69 85 65 86 66 87
REMARK SMILES IDX 67 88 68 89 47 90 48 91 56 92 49 93 55 94 57 95 54 96 50 97
REMARK SMILES IDX 51 98 52 99 53 100
REMARK H PARENT 11 8 18 34 77 53 45 64
REMARK Flexibility Score: inf
ROOT
ATOM      1  C   UNL A   1      41.798  21.307  27.426  1.00  0.00     0.002 C 
ENDROOT
BRANCH   1   2
ATOM      2  C   UNL A   1      40.499  21.193  26.618  1.00  0.00     0.002 C 
BRANCH   2   3
ATOM      3  C   UNL A   1      39.525  22.373  26.607  1.00  0.00     0.021 C 
BRANCH   3   4
ATOM      4  C   UNL A   1      38.430  22.386  25.550  1.00  0.00     0.116 C 
BRANCH   4   5
ATOM      5  N   UNL A   1      37.587  23.549  25.507  1.00  0.00    -0.351 N 
ATOM      6  C   UNL A   1      36.215  23.649  25.454  1.00  0.00     0.274 C 
ATOM      7  O   UNL A   1      35.771  24.803  25.476  1.00  0.00    -0.267 OA
ATOM      8  H   UNL A   1      38.066  24.409  25.515  1.00  0.00     0.163 HD
BRANCH   6   9
ATOM      9  C   UNL A   1      35.285  22.507  25.352  1.00  0.00     0.178 A 
ATOM     10  C   UNL A   1      33.976  22.313  24.900  1.00  0.00     0.102 A 
ATOM     11  N   UNL A   1      33.783  20.949  25.036  1.00  0.00    -0.239 N 
ATOM     12  N   UNL A   1      35.778  21.265  25.744  1.00  0.00    -0.124 NA
ATOM     13  N   UNL A   1      34.855  20.342  25.559  1.00  0.00    -0.066 NA
BRANCH  10  14
ATOM     14  C   UNL A   1      32.953  23.163  24.302  1.00  0.00     0.003 A 
ATOM     15  C   UNL A   1      32.526  25.397  21.241  1.00  0.00     0.044 C 
ATOM     16  C   UNL A   1      32.254  24.692  22.537  1.00  0.00    -0.050 A 
ATOM     17  C   UNL A   1      30.986  24.768  23.125  1.00  0.00     0.003 A 
ATOM     18  C   UNL A   1      33.237  23.895  23.139  1.00  0.00     0.013 A 
ATOM     19  C   UNL A   1      30.707  24.067  24.299  1.00  0.00     0.001 A 
ATOM     20  C   UNL A   1      31.685  23.264  24.884  1.00  0.00     0.010 A 
ENDBRANCH  10  14
BRANCH  11  21
ATOM     21  C   UNL A   1      32.622  20.134  24.689  1.00  0.00     0.182 C 
BRANCH  21  22
ATOM     22  C   UNL A   1      32.900  18.649  24.596  1.00  0.00    -0.021 A 
ATOM     23  C   UNL A   1      32.431  17.800  25.614  1.00  0.00     0.045 A 
ATOM     24  C   UNL A   1      33.624  18.076  23.538  1.00  0.00     0.045 A 
ATOM     25  C   UNL A   1      32.623  16.422  25.526  1.00  0.00     0.126 A 
ATOM     26  C   UNL A   1      33.776  16.692  23.458  1.00  0.00     0.126 A 
ATOM     27  F   UNL A   1      32.162  15.631  26.504  1.00  0.00    -0.207 F 
ATOM     28  C   UNL A   1      33.277  15.855  24.442  1.00  0.00     0.078 A 
ATOM     29  F   UNL A   1      34.406  16.162  22.401  1.00  0.00    -0.207 F 
ENDBRANCH  21  22
ENDBRANCH  11  21
ENDBRANCH   6   9
ENDBRANCH   4   5
ENDBRANCH   3   4
ENDBRANCH   2   3
ENDBRANCH   1   2
BRANCH   1  30
ATOM     30  C   UNL A   1      41.814  22.258  28.621  1.00  0.00     0.021 C 
BRANCH  30  31
ATOM     31  C   UNL A   1      42.422  23.634  28.374  1.00  0.00     0.116 C 
BRANCH  31  32
ATOM     32  N   UNL A   1      42.787  23.880  26.981  1.00  0.00    -0.352 N 
ATOM     33  C   UNL A   1      42.274  24.833  26.109  1.00  0.00     0.251 C 
ATOM     34  H   UNL A   1      43.488  23.295  26.613  1.00  0.00     0.163 HD
ATOM     35  O   UNL A   1      42.670  24.963  24.972  1.00  0.00    -0.269 OA
BRANCH  33  36
ATOM     36  C   UNL A   1      41.282  25.789  26.661  1.00  0.00     0.039 A 
ATOM     37  C   UNL A   1      41.157  27.020  26.009  1.00  0.00     0.014 A 
ATOM     38  C   UNL A   1      40.731  25.584  27.922  1.00  0.00     0.014 A 
ATOM     39  C   UNL A   1      40.702  28.119  26.729  1.00  0.00     0.010 A 
ATOM     40  C   UNL A   1      40.354  26.691  28.663  1.00  0.00     0.010 A 
ATOM     41  C   UNL A   1      40.422  27.967  28.088  1.00  0.00    -0.014 A 
BRANCH  41  42
ATOM     42  C   UNL A   1      40.382  29.108  29.001  1.00  0.00     0.031 A 
ATOM     43  C   UNL A   1      39.276  30.084  28.953  1.00  0.00     0.074 A 
ATOM     44  C   UNL A   1      41.396  29.298  29.874  1.00  0.00     0.049 A 
ATOM     45  N   UNL A   1      39.364  31.313  29.341  1.00  0.00    -0.248 NA
ATOM     46  C   UNL A   1      37.986  29.759  28.366  1.00  0.00     0.031 C 
ATOM     47  C   UNL A   1      41.460  30.257  30.972  1.00  0.00     0.029 A 
ATOM     48  N   UNL A   1      42.696  28.823  29.759  1.00  0.00    -0.354 N 
ATOM     49  C   UNL A   1      38.101  31.859  29.318  1.00  0.00     0.074 A 
ATOM     50  C   UNL A   1      37.309  30.887  28.602  1.00  0.00     0.031 C 
ATOM     51  C   UNL A   1      42.749  30.490  31.269  1.00  0.00     0.029 A 
ATOM     52  C   UNL A   1      43.559  29.790  30.286  1.00  0.00     0.049 A 
ATOM     53  H   UNL A   1      42.964  27.959  29.372  1.00  0.00     0.167 HD
ATOM     54  C   UNL A   1      37.857  33.001  30.027  1.00  0.00     0.034 A 
ATOM     55  C   UNL A   1      44.523  30.367  29.512  1.00  0.00     0.034 A 
ATOM     56  C   UNL A   1      39.109  33.608  30.503  1.00  0.00     0.049 A 
ATOM     57  C   UNL A   1      44.358  31.864  29.346  1.00  0.00     0.074 A 
ATOM     58  C   UNL A   1      39.732  33.657  31.738  1.00  0.00     0.029 A 
ATOM     59  N   UNL A   1      40.044  34.071  29.578  1.00  0.00    -0.354 N 
ATOM     60  N   UNL A   1      43.277  32.528  29.649  1.00  0.00    -0.248 NA
ATOM     61  C   UNL A   1      45.401  32.720  28.789  1.00  0.00     0.031 C 
ATOM     62  C   UNL A   1      41.078  34.069  31.537  1.00  0.00     0.029 A 
ATOM     63  C   UNL A   1      41.264  34.308  30.186  1.00  0.00     0.049 A 
ATOM     64  H   UNL A   1      39.861  34.211  28.621  1.00  0.00     0.167 HD
ATOM     65  C   UNL A   1      43.433  33.845  29.293  1.00  0.00     0.074 A 
ATOM     66  C   UNL A   1      44.798  33.920  28.802  1.00  0.00     0.031 C 
ATOM     67  C   UNL A   1      42.416  34.754  29.406  1.00  0.00     0.034 A 
BRANCH  54  68
ATOM     68  C   UNL A   1      36.485  33.423  30.549  1.00  0.00     0.023 A 
ATOM     69  C   UNL A   1      35.601  34.108  29.681  1.00  0.00     0.031 A 
ATOM     70  C   UNL A   1      36.012  33.288  31.871  1.00  0.00     0.131 A 
ATOM     71  C   UNL A   1      34.400  34.690  30.146  1.00  0.00     0.055 A 
ATOM     72  C   UNL A   1      34.836  33.890  32.341  1.00  0.00     0.041 A 
ATOM     73  F   UNL A   1      36.628  32.534  32.782  1.00  0.00    -0.206 F 
ATOM     74  C   UNL A   1      34.028  34.608  31.481  1.00  0.00     0.022 A 
BRANCH  71  75
ATOM     75  S   UNL A   1      33.332  35.589  28.987  1.00  0.00     0.124 S 
ATOM     76  O   UNL A   1      32.600  36.486  29.874  1.00  0.00    -0.237 OA
ATOM     77  O   UNL A   1      34.301  36.209  28.091  1.00  0.00    -0.237 OA
ATOM     78  O   UNL A   1      32.523  34.531  28.381  1.00  0.00    -0.744 OA
ENDBRANCH  71  75
ENDBRANCH  54  68
BRANCH  55  79
ATOM     79  C   UNL A   1      45.095  29.453  28.482  1.00  0.00     0.023 A 
ATOM     80  C   UNL A   1      46.080  28.530  28.896  1.00  0.00     0.031 A 
ATOM     81  C   UNL A   1      44.467  29.236  27.248  1.00  0.00     0.131 A 
ATOM     82  C   UNL A   1      46.313  27.365  28.152  1.00  0.00     0.055 A 
ATOM     83  C   UNL A   1      44.739  28.094  26.484  1.00  0.00     0.041 A 
ATOM     84  F   UNL A   1      43.498  30.057  26.820  1.00  0.00    -0.206 F 
ATOM     85  C   UNL A   1      45.635  27.133  26.954  1.00  0.00     0.022 A 
BRANCH  82  86
ATOM     86  S   UNL A   1      47.347  26.038  28.837  1.00  0.00     0.124 S 
ATOM     87  O   UNL A   1      48.670  26.651  28.846  1.00  0.00    -0.237 OA
ATOM     88  O   UNL A   1      46.760  25.792  30.152  1.00  0.00    -0.237 OA
ATOM     89  O   UNL A   1      47.153  24.955  27.874  1.00  0.00    -0.744 OA
ENDBRANCH  82  86
ENDBRANCH  55  79
BRANCH  67  90
ATOM     90  C   UNL A   1      42.450  36.171  28.864  1.00  0.00     0.023 A 
ATOM     91  C   UNL A   1      43.097  37.236  29.513  1.00  0.00     0.031 A 
ATOM     92  C   UNL A   1      41.872  36.486  27.610  1.00  0.00     0.131 A 
ATOM     93  C   UNL A   1      43.063  38.543  28.990  1.00  0.00     0.055 A 
ATOM     94  C   UNL A   1      41.912  37.769  27.050  1.00  0.00     0.041 A 
ATOM     95  F   UNL A   1      41.245  35.558  26.872  1.00  0.00    -0.206 F 
ATOM     96  C   UNL A   1      42.491  38.814  27.750  1.00  0.00     0.022 A 
BRANCH  93  97
ATOM     97  S   UNL A   1      43.716  39.893  30.008  1.00  0.00     0.124 S 
ATOM     98  O   UNL A   1      44.428  40.697  29.018  1.00  0.00    -0.237 OA
ATOM     99  O   UNL A   1      42.503  40.490  30.555  1.00  0.00    -0.237 OA
ATOM    100  O   UNL A   1      44.569  39.212  30.981  1.00  0.00    -0.744 OA
ENDBRANCH  93  97
ENDBRANCH  67  90
ENDBRANCH  41  42
ENDBRANCH  33  36
ENDBRANCH  31  32
ENDBRANCH  30  31
ENDBRANCH   1  30
TORSDOF 19
ENDMDL
