MODEL 1
REMARK VINA RESULT:     -11.3      0.000      0.000
REMARK SMILES [NH3+][C@H]1C=C[C@@H](C(=O)NC2(CC(=O)NCCCCCCNC(=O)c3ccc(-c4c5nc(c(-c6cc(S(=O)(=O)[O-])ccc6F)c6ccc([nH]6)c(-c6cc(S(=O)(=O)[O-])ccc6F)c6nc(c(-c7cc(S(=O)(=O)[O-])ccc7F)c7ccc4[nH]7)C=C6)C=C5)cc3)CCCCC2)C1
REMARK SMILES IDX 16 1 15 2 14 3 13 4 11 5 12 6 10 8 9 9 86 10 90 11 87 12
REMARK SMILES IDX 89 13 88 14 8 15 6 16 7 17 5 19 2 20 3 21 91 22 4 23 1 24
REMARK SMILES IDX 17 28 18 29 19 30 20 31 21 32 22 34 23 35 24 36 85 37 25 38
REMARK SMILES IDX 84 39 26 40 27 41 28 42 78 43 29 44 83 45 77 46 79 47 30 48
REMARK SMILES IDX 82 49 76 50 75 51 31 53 63 54 43 55 62 56 44 57 47 58 61 59
REMARK SMILES IDX 80 60 45 61 46 62 60 64 81 65 48 66 32 67 33 68 41 69 34 70
REMARK SMILES IDX 40 71 42 72 39 73 35 74 36 75 37 76 38 77 64 78 65 79 73 80
REMARK SMILES IDX 66 81 72 82 74 83 71 84 67 85 68 86 69 87 70 88 49 89 50 90
REMARK SMILES IDX 58 91 51 92 57 93 59 94 56 95 52 96 53 97 54 98 55 99
REMARK H PARENT 13 7 8 18 1 25 1 26 1 27 20 33 79 52 47 63
REMARK Flexibility Score: inf
ROOT
ATOM      1  C   UNL A   1      34.629  24.467  23.536  1.00  0.00     0.002 C 
ENDROOT
BRANCH   1   2
ATOM      2  C   UNL A   1      33.366  24.583  22.683  1.00  0.00     0.021 C 
BRANCH   2   3
ATOM      3  C   UNL A   1      32.714  25.969  22.745  1.00  0.00     0.116 C 
BRANCH   3   4
ATOM      4  N   UNL A   1      31.291  25.838  22.986  1.00  0.00    -0.356 N 
ATOM      5  C   UNL A   1      30.529  26.305  24.006  1.00  0.00     0.222 C 
ATOM      6  O   UNL A   1      29.364  25.909  24.089  1.00  0.00    -0.275 OA
ATOM      7  H   UNL A   1      30.800  25.330  22.301  1.00  0.00     0.163 HD
BRANCH   5   8
ATOM      8  C   UNL A   1      31.056  27.318  25.010  1.00  0.00     0.128 C 
BRANCH   8   9
ATOM      9  C   UNL A   1      31.634  26.767  26.359  1.00  0.00     0.049 C 
ATOM     10  C   UNL A   1      31.467  27.881  27.431  1.00  0.00     0.029 C 
ATOM     11  C   UNL A   1      33.127  26.460  26.218  1.00  0.00     0.029 C 
ATOM     12  C   UNL A   1      32.397  29.086  27.233  1.00  0.00     0.002 C 
ATOM     13  C   UNL A   1      34.026  27.661  25.951  1.00  0.00     0.002 C 
ATOM     14  C   UNL A   1      33.860  28.682  27.065  1.00  0.00     0.000 C 
BRANCH   9  15
ATOM     15  N   UNL A   1      30.864  25.553  26.763  1.00  0.00    -0.350 N 
ATOM     16  C   UNL A   1      30.950  24.202  26.669  1.00  0.00     0.227 C 
ATOM     17  O   UNL A   1      30.025  23.592  27.230  1.00  0.00    -0.274 OA
ATOM     18  H   UNL A   1      30.045  25.811  27.243  1.00  0.00     0.164 HD
BRANCH  16  19
ATOM     19  C   UNL A   1      32.014  23.362  25.940  1.00  0.00     0.107 C 
ATOM     20  C   UNL A   1      33.249  21.240  26.012  1.00  0.00     0.205 C 
ATOM     21  C   UNL A   1      32.197  21.243  24.952  1.00  0.00     0.033 C 
ATOM     22  C   UNL A   1      32.957  22.524  26.818  1.00  0.00     0.087 C 
ATOM     23  C   UNL A   1      31.533  22.403  24.901  1.00  0.00    -0.012 C 
BRANCH  20  24
ATOM     24  N   UNL A   1      33.211  20.022  26.797  1.00  0.00    -0.352 N 
ATOM     25  H   UNL A   1      32.651  19.322  26.310  1.00  0.00     0.345 HD
ATOM     26  H   UNL A   1      32.796  20.217  27.708  1.00  0.00     0.345 HD
ATOM     27  H   UNL A   1      34.160  19.669  26.924  1.00  0.00     0.345 HD
ENDBRANCH  20  24
ENDBRANCH  16  19
ENDBRANCH   9  15
ENDBRANCH   8   9
ENDBRANCH   5   8
ENDBRANCH   3   4
ENDBRANCH   2   3
ENDBRANCH   1   2
BRANCH   1  28
ATOM     28  C   UNL A   1      35.534  23.291  23.152  1.00  0.00     0.002 C 
BRANCH  28  29
ATOM     29  C   UNL A   1      36.024  22.429  24.322  1.00  0.00     0.021 C 
BRANCH  29  30
ATOM     30  C   UNL A   1      36.983  23.132  25.281  1.00  0.00     0.116 C 
BRANCH  30  31
ATOM     31  N   UNL A   1      37.941  22.200  25.852  1.00  0.00    -0.352 N 
ATOM     32  C   UNL A   1      39.157  22.448  26.430  1.00  0.00     0.251 C 
ATOM     33  H   UNL A   1      37.678  21.253  25.817  1.00  0.00     0.163 HD
ATOM     34  O   UNL A   1      39.949  21.516  26.591  1.00  0.00    -0.269 OA
BRANCH  32  35
ATOM     35  C   UNL A   1      39.521  23.815  26.858  1.00  0.00     0.039 A 
ATOM     36  C   UNL A   1      40.064  24.699  25.921  1.00  0.00     0.014 A 
ATOM     37  C   UNL A   1      39.385  24.209  28.193  1.00  0.00     0.014 A 
ATOM     38  C   UNL A   1      40.444  25.984  26.317  1.00  0.00     0.010 A 
ATOM     39  C   UNL A   1      39.698  25.513  28.571  1.00  0.00     0.010 A 
ATOM     40  C   UNL A   1      40.252  26.406  27.642  1.00  0.00    -0.014 A 
BRANCH  40  41
ATOM     41  C   UNL A   1      40.681  27.757  28.088  1.00  0.00     0.031 A 
ATOM     42  C   UNL A   1      42.145  28.115  28.075  1.00  0.00     0.074 A 
ATOM     43  C   UNL A   1      39.770  28.639  28.540  1.00  0.00     0.049 A 
ATOM     44  N   UNL A   1      42.737  29.204  28.493  1.00  0.00    -0.248 NA
ATOM     45  C   UNL A   1      43.066  27.096  27.549  1.00  0.00     0.031 C 
ATOM     46  C   UNL A   1      38.328  28.396  28.625  1.00  0.00     0.029 A 
ATOM     47  N   UNL A   1      39.918  29.917  29.018  1.00  0.00    -0.354 N 
ATOM     48  C   UNL A   1      44.099  28.997  28.293  1.00  0.00     0.074 A 
ATOM     49  C   UNL A   1      44.246  27.652  27.781  1.00  0.00     0.031 C 
ATOM     50  C   UNL A   1      37.724  29.497  29.101  1.00  0.00     0.029 A 
ATOM     51  C   UNL A   1      38.735  30.508  29.397  1.00  0.00     0.049 A 
ATOM     52  H   UNL A   1      40.790  30.368  29.085  1.00  0.00     0.167 HD
ATOM     53  C   UNL A   1      45.128  29.858  28.493  1.00  0.00     0.034 A 
ATOM     54  C   UNL A   1      38.495  31.723  29.927  1.00  0.00     0.034 A 
ATOM     55  C   UNL A   1      44.960  31.202  28.988  1.00  0.00     0.049 A 
ATOM     56  C   UNL A   1      39.658  32.658  30.156  1.00  0.00     0.074 A 
ATOM     57  C   UNL A   1      45.926  32.171  29.202  1.00  0.00     0.029 A 
ATOM     58  N   UNL A   1      43.745  31.770  29.347  1.00  0.00    -0.354 N 
ATOM     59  N   UNL A   1      40.937  32.457  29.933  1.00  0.00    -0.248 NA
ATOM     60  C   UNL A   1      39.343  33.989  30.691  1.00  0.00     0.031 C 
ATOM     61  C   UNL A   1      45.303  33.301  29.743  1.00  0.00     0.029 A 
ATOM     62  C   UNL A   1      43.938  33.067  29.796  1.00  0.00     0.049 A 
ATOM     63  H   UNL A   1      42.872  31.317  29.291  1.00  0.00     0.167 HD
ATOM     64  C   UNL A   1      41.570  33.654  30.260  1.00  0.00     0.074 A 
ATOM     65  C   UNL A   1      40.532  34.570  30.684  1.00  0.00     0.031 C 
ATOM     66  C   UNL A   1      42.890  33.970  30.210  1.00  0.00     0.034 A 
BRANCH  53  67
ATOM     67  C   UNL A   1      46.521  29.356  28.192  1.00  0.00     0.023 A 
ATOM     68  C   UNL A   1      47.329  28.780  29.189  1.00  0.00     0.031 A 
ATOM     69  C   UNL A   1      47.062  29.480  26.899  1.00  0.00     0.131 A 
ATOM     70  C   UNL A   1      48.656  28.426  28.899  1.00  0.00     0.055 A 
ATOM     71  C   UNL A   1      48.354  29.046  26.596  1.00  0.00     0.041 A 
ATOM     72  F   UNL A   1      46.348  30.040  25.910  1.00  0.00    -0.206 F 
ATOM     73  C   UNL A   1      49.166  28.530  27.603  1.00  0.00     0.022 A 
BRANCH  70  74
ATOM     74  S   UNL A   1      49.748  27.968  30.272  1.00  0.00     0.124 S 
ATOM     75  O   UNL A   1      51.059  28.009  29.631  1.00  0.00    -0.237 OA
ATOM     76  O   UNL A   1      49.481  29.015  31.251  1.00  0.00    -0.237 OA
ATOM     77  O   UNL A   1      49.287  26.631  30.645  1.00  0.00    -0.744 OA
ENDBRANCH  70  74
ENDBRANCH  53  67
BRANCH  54  78
ATOM     78  C   UNL A   1      37.106  32.139  30.279  1.00  0.00     0.023 A 
ATOM     79  C   UNL A   1      36.201  32.543  29.284  1.00  0.00     0.031 A 
ATOM     80  C   UNL A   1      36.681  32.194  31.617  1.00  0.00     0.131 A 
ATOM     81  C   UNL A   1      34.938  33.038  29.646  1.00  0.00     0.055 A 
ATOM     82  C   UNL A   1      35.402  32.632  31.969  1.00  0.00     0.041 A 
ATOM     83  F   UNL A   1      37.504  31.813  32.608  1.00  0.00    -0.206 F 
ATOM     84  C   UNL A   1      34.529  33.075  30.981  1.00  0.00     0.022 A 
BRANCH  81  85
ATOM     85  S   UNL A   1      33.875  33.732  28.350  1.00  0.00     0.124 S 
ATOM     86  O   UNL A   1      32.900  34.480  29.135  1.00  0.00    -0.237 OA
ATOM     87  O   UNL A   1      34.823  34.526  27.576  1.00  0.00    -0.237 OA
ATOM     88  O   UNL A   1      33.354  32.549  27.669  1.00  0.00    -0.744 OA
ENDBRANCH  81  85
ENDBRANCH  54  78
BRANCH  66  89
ATOM     89  C   UNL A   1      43.269  35.388  30.560  1.00  0.00     0.023 A 
ATOM     90  C   UNL A   1      43.540  35.783  31.881  1.00  0.00     0.031 A 
ATOM     91  C   UNL A   1      43.344  36.364  29.549  1.00  0.00     0.131 A 
ATOM     92  C   UNL A   1      43.813  37.129  32.165  1.00  0.00     0.055 A 
ATOM     93  C   UNL A   1      43.678  37.689  29.829  1.00  0.00     0.041 A 
ATOM     94  F   UNL A   1      43.094  36.043  28.269  1.00  0.00    -0.206 F 
ATOM     95  C   UNL A   1      43.900  38.082  31.145  1.00  0.00     0.022 A 
BRANCH  92  96
ATOM     96  S   UNL A   1      43.955  37.642  33.899  1.00  0.00     0.124 S 
ATOM     97  O   UNL A   1      44.264  36.379  34.564  1.00  0.00    -0.237 OA
ATOM     98  O   UNL A   1      45.040  38.616  33.847  1.00  0.00    -0.237 OA
ATOM     99  O   UNL A   1      42.638  38.196  34.203  1.00  0.00    -0.744 OA
ENDBRANCH  92  96
ENDBRANCH  66  89
ENDBRANCH  40  41
ENDBRANCH  32  35
ENDBRANCH  30  31
ENDBRANCH  29  30
ENDBRANCH  28  29
ENDBRANCH   1  28
TORSDOF 20
ENDMDL
MODEL 2
REMARK VINA RESULT:     -11.1      3.065      4.383
REMARK SMILES [NH3+][C@H]1C=C[C@@H](C(=O)NC2(CC(=O)NCCCCCCNC(=O)c3ccc(-c4c5nc(c(-c6cc(S(=O)(=O)[O-])ccc6F)c6ccc([nH]6)c(-c6cc(S(=O)(=O)[O-])ccc6F)c6nc(c(-c7cc(S(=O)(=O)[O-])ccc7F)c7ccc4[nH]7)C=C6)C=C5)cc3)CCCCC2)C1
REMARK SMILES IDX 16 1 15 2 14 3 13 4 11 5 12 6 10 8 9 9 86 10 90 11 87 12
REMARK SMILES IDX 89 13 88 14 8 15 6 16 7 17 5 19 2 20 3 21 91 22 4 23 1 24
REMARK SMILES IDX 17 28 18 29 19 30 20 31 21 32 22 34 23 35 24 36 85 37 25 38
REMARK SMILES IDX 84 39 26 40 27 41 28 42 78 43 29 44 83 45 77 46 79 47 30 48
REMARK SMILES IDX 82 49 76 50 75 51 31 53 63 54 43 55 62 56 44 57 47 58 61 59
REMARK SMILES IDX 80 60 45 61 46 62 60 64 81 65 48 66 32 67 33 68 41 69 34 70
REMARK SMILES IDX 40 71 42 72 39 73 35 74 36 75 37 76 38 77 64 78 65 79 73 80
REMARK SMILES IDX 66 81 72 82 74 83 71 84 67 85 68 86 69 87 70 88 49 89 50 90
REMARK SMILES IDX 58 91 51 92 57 93 59 94 56 95 52 96 53 97 54 98 55 99
REMARK H PARENT 13 7 8 18 1 25 1 26 1 27 20 33 79 52 47 63
REMARK Flexibility Score: inf
ROOT
ATOM      1  C   UNL A   1      34.211  19.728  25.024  1.00  0.00     0.002 C 
ENDROOT
BRANCH   1   2
ATOM      2  C   UNL A   1      32.699  19.822  25.227  1.00  0.00     0.021 C 
BRANCH   2   3
ATOM      3  C   UNL A   1      32.117  21.190  24.854  1.00  0.00     0.116 C 
BRANCH   3   4
ATOM      4  N   UNL A   1      31.588  21.843  26.034  1.00  0.00    -0.356 N 
ATOM      5  C   UNL A   1      31.189  23.127  26.220  1.00  0.00     0.222 C 
ATOM      6  O   UNL A   1      30.944  23.497  27.371  1.00  0.00    -0.275 OA
ATOM      7  H   UNL A   1      31.504  21.265  26.825  1.00  0.00     0.163 HD
BRANCH   5   8
ATOM      8  C   UNL A   1      31.003  24.091  25.060  1.00  0.00     0.128 C 
BRANCH   8   9
ATOM      9  C   UNL A   1      31.814  25.432  25.096  1.00  0.00     0.049 C 
ATOM     10  C   UNL A   1      31.494  26.209  23.787  1.00  0.00     0.029 C 
ATOM     11  C   UNL A   1      33.318  25.151  25.128  1.00  0.00     0.029 C 
ATOM     12  C   UNL A   1      32.100  25.584  22.523  1.00  0.00     0.002 C 
ATOM     13  C   UNL A   1      33.888  24.465  23.894  1.00  0.00     0.002 C 
ATOM     14  C   UNL A   1      33.594  25.305  22.660  1.00  0.00     0.000 C 
BRANCH   9  15
ATOM     15  N   UNL A   1      31.384  26.234  26.280  1.00  0.00    -0.350 N 
ATOM     16  C   UNL A   1      31.623  27.444  26.845  1.00  0.00     0.227 C 
ATOM     17  O   UNL A   1      30.951  27.673  27.864  1.00  0.00    -0.274 OA
ATOM     18  H   UNL A   1      30.728  25.731  26.815  1.00  0.00     0.164 HD
BRANCH  16  19
ATOM     19  C   UNL A   1      32.627  28.523  26.400  1.00  0.00     0.107 C 
ATOM     20  C   UNL A   1      33.764  30.581  27.110  1.00  0.00     0.205 C 
ATOM     21  C   UNL A   1      34.682  29.402  27.109  1.00  0.00     0.033 C 
ATOM     22  C   UNL A   1      32.369  29.956  26.893  1.00  0.00     0.087 C 
ATOM     23  C   UNL A   1      34.069  28.284  26.708  1.00  0.00    -0.012 C 
BRANCH  20  24
ATOM     24  N   UNL A   1      33.888  31.350  28.333  1.00  0.00    -0.352 N 
ATOM     25  H   UNL A   1      33.024  31.865  28.500  1.00  0.00     0.345 HD
ATOM     26  H   UNL A   1      34.663  32.007  28.244  1.00  0.00     0.345 HD
ATOM     27  H   UNL A   1      34.065  30.719  29.115  1.00  0.00     0.345 HD
ENDBRANCH  20  24
ENDBRANCH  16  19
ENDBRANCH   9  15
ENDBRANCH   8   9
ENDBRANCH   5   8
ENDBRANCH   3   4
ENDBRANCH   2   3
ENDBRANCH   1   2
BRANCH   1  28
ATOM     28  C   UNL A   1      34.882  21.072  24.716  1.00  0.00     0.002 C 
BRANCH  28  29
ATOM     29  C   UNL A   1      35.572  21.750  25.906  1.00  0.00     0.021 C 
BRANCH  29  30
ATOM     30  C   UNL A   1      37.002  22.214  25.641  1.00  0.00     0.116 C 
BRANCH  30  31
ATOM     31  N   UNL A   1      37.967  21.179  25.970  1.00  0.00    -0.352 N 
ATOM     32  C   UNL A   1      39.296  21.293  26.279  1.00  0.00     0.251 C 
ATOM     33  H   UNL A   1      37.614  20.260  25.969  1.00  0.00     0.163 HD
ATOM     34  O   UNL A   1      40.012  20.290  26.242  1.00  0.00    -0.269 OA
BRANCH  32  35
ATOM     35  C   UNL A   1      39.870  22.603  26.653  1.00  0.00     0.039 A 
ATOM     36  C   UNL A   1      39.432  23.752  25.987  1.00  0.00     0.014 A 
ATOM     37  C   UNL A   1      40.880  22.695  27.615  1.00  0.00     0.014 A 
ATOM     38  C   UNL A   1      39.989  24.993  26.305  1.00  0.00     0.010 A 
ATOM     39  C   UNL A   1      41.384  23.942  27.980  1.00  0.00     0.010 A 
ATOM     40  C   UNL A   1      40.959  25.100  27.314  1.00  0.00    -0.014 A 
BRANCH  40  41
ATOM     41  C   UNL A   1      41.586  26.407  27.641  1.00  0.00     0.031 A 
ATOM     42  C   UNL A   1      42.967  26.722  27.125  1.00  0.00     0.074 A 
ATOM     43  C   UNL A   1      40.939  27.287  28.429  1.00  0.00     0.049 A 
ATOM     44  N   UNL A   1      43.722  27.764  27.356  1.00  0.00    -0.248 NA
ATOM     45  C   UNL A   1      43.590  25.710  26.259  1.00  0.00     0.031 C 
ATOM     46  C   UNL A   1      39.610  27.083  29.009  1.00  0.00     0.029 A 
ATOM     47  N   UNL A   1      41.311  28.527  28.883  1.00  0.00    -0.354 N 
ATOM     48  C   UNL A   1      44.913  27.528  26.676  1.00  0.00     0.074 A 
ATOM     49  C   UNL A   1      44.802  26.214  26.081  1.00  0.00     0.031 C 
ATOM     50  C   UNL A   1      39.269  28.170  29.721  1.00  0.00     0.029 A 
ATOM     51  C   UNL A   1      40.369  29.129  29.685  1.00  0.00     0.049 A 
ATOM     52  H   UNL A   1      42.172  28.947  28.657  1.00  0.00     0.167 HD
ATOM     53  C   UNL A   1      45.989  28.344  26.537  1.00  0.00     0.034 A 
ATOM     54  C   UNL A   1      40.393  30.316  30.323  1.00  0.00     0.034 A 
ATOM     55  C   UNL A   1      46.075  29.659  27.122  1.00  0.00     0.049 A 
ATOM     56  C   UNL A   1      41.607  31.200  30.167  1.00  0.00     0.074 A 
ATOM     57  C   UNL A   1      47.101  30.583  27.024  1.00  0.00     0.029 A 
ATOM     58  N   UNL A   1      45.095  30.240  27.917  1.00  0.00    -0.354 N 
ATOM     59  N   UNL A   1      42.713  30.974  29.495  1.00  0.00    -0.248 NA
ATOM     60  C   UNL A   1      41.569  32.503  30.841  1.00  0.00     0.031 C 
ATOM     61  C   UNL A   1      46.767  31.696  27.804  1.00  0.00     0.029 A 
ATOM     62  C   UNL A   1      45.499  31.501  28.328  1.00  0.00     0.049 A 
ATOM     63  H   UNL A   1      44.237  29.819  28.153  1.00  0.00     0.167 HD
ATOM     64  C   UNL A   1      43.481  32.128  29.632  1.00  0.00     0.074 A 
ATOM     65  C   UNL A   1      42.707  33.047  30.440  1.00  0.00     0.031 C 
ATOM     66  C   UNL A   1      44.712  32.407  29.130  1.00  0.00     0.034 A 
BRANCH  53  67
ATOM     67  C   UNL A   1      47.158  27.819  25.737  1.00  0.00     0.023 A 
ATOM     68  C   UNL A   1      47.325  28.140  24.377  1.00  0.00     0.031 A 
ATOM     69  C   UNL A   1      48.104  26.963  26.329  1.00  0.00     0.131 A 
ATOM     70  C   UNL A   1      48.360  27.548  23.638  1.00  0.00     0.055 A 
ATOM     71  C   UNL A   1      49.182  26.444  25.609  1.00  0.00     0.041 A 
ATOM     72  F   UNL A   1      47.988  26.602  27.617  1.00  0.00    -0.206 F 
ATOM     73  C   UNL A   1      49.305  26.723  24.250  1.00  0.00     0.022 A 
BRANCH  70  74
ATOM     74  S   UNL A   1      48.362  27.754  21.836  1.00  0.00     0.124 S 
ATOM     75  O   UNL A   1      47.027  28.296  21.601  1.00  0.00    -0.237 OA
ATOM     76  O   UNL A   1      49.473  28.675  21.625  1.00  0.00    -0.237 OA
ATOM     77  O   UNL A   1      48.573  26.395  21.336  1.00  0.00    -0.744 OA
ENDBRANCH  70  74
ENDBRANCH  53  67
BRANCH  54  78
ATOM     78  C   UNL A   1      39.241  30.752  31.165  1.00  0.00     0.023 A 
ATOM     79  C   UNL A   1      38.232  31.574  30.637  1.00  0.00     0.031 A 
ATOM     80  C   UNL A   1      39.160  30.400  32.523  1.00  0.00     0.131 A 
ATOM     81  C   UNL A   1      37.219  32.064  31.475  1.00  0.00     0.055 A 
ATOM     82  C   UNL A   1      38.117  30.843  33.339  1.00  0.00     0.041 A 
ATOM     83  F   UNL A   1      40.094  29.610  33.077  1.00  0.00    -0.206 F 
ATOM     84  C   UNL A   1      37.148  31.695  32.820  1.00  0.00     0.022 A 
BRANCH  81  85
ATOM     85  S   UNL A   1      36.050  33.278  30.803  1.00  0.00     0.124 S 
ATOM     86  O   UNL A   1      36.126  34.344  31.795  1.00  0.00    -0.237 OA
ATOM     87  O   UNL A   1      36.635  33.570  29.499  1.00  0.00    -0.237 OA
ATOM     88  O   UNL A   1      34.786  32.547  30.766  1.00  0.00    -0.744 OA
ENDBRANCH  81  85
ENDBRANCH  54  78
BRANCH  66  89
ATOM     89  C   UNL A   1      45.261  33.789  29.389  1.00  0.00     0.023 A 
ATOM     90  C   UNL A   1      45.040  34.856  28.502  1.00  0.00     0.031 A 
ATOM     91  C   UNL A   1      46.034  34.032  30.539  1.00  0.00     0.131 A 
ATOM     92  C   UNL A   1      45.636  36.102  28.747  1.00  0.00     0.055 A 
ATOM     93  C   UNL A   1      46.572  35.291  30.810  1.00  0.00     0.041 A 
ATOM     94  F   UNL A   1      46.278  33.049  31.420  1.00  0.00    -0.206 F 
ATOM     95  C   UNL A   1      46.388  36.330  29.904  1.00  0.00     0.022 A 
BRANCH  92  96
ATOM     96  S   UNL A   1      45.501  37.396  27.483  1.00  0.00     0.124 S 
ATOM     97  O   UNL A   1      45.914  38.586  28.222  1.00  0.00    -0.237 OA
ATOM     98  O   UNL A   1      46.428  36.928  26.458  1.00  0.00    -0.237 OA
ATOM     99  O   UNL A   1      44.089  37.360  27.105  1.00  0.00    -0.744 OA
ENDBRANCH  92  96
ENDBRANCH  66  89
ENDBRANCH  40  41
ENDBRANCH  32  35
ENDBRANCH  30  31
ENDBRANCH  29  30
ENDBRANCH  28  29
ENDBRANCH   1  28
TORSDOF 20
ENDMDL
MODEL 3
REMARK VINA RESULT:     -11.0      1.625      3.099
REMARK SMILES [NH3+][C@H]1C=C[C@@H](C(=O)NC2(CC(=O)NCCCCCCNC(=O)c3ccc(-c4c5nc(c(-c6cc(S(=O)(=O)[O-])ccc6F)c6ccc([nH]6)c(-c6cc(S(=O)(=O)[O-])ccc6F)c6nc(c(-c7cc(S(=O)(=O)[O-])ccc7F)c7ccc4[nH]7)C=C6)C=C5)cc3)CCCCC2)C1
REMARK SMILES IDX 16 1 15 2 14 3 13 4 11 5 12 6 10 8 9 9 86 10 90 11 87 12
REMARK SMILES IDX 89 13 88 14 8 15 6 16 7 17 5 19 2 20 3 21 91 22 4 23 1 24
REMARK SMILES IDX 17 28 18 29 19 30 20 31 21 32 22 34 23 35 24 36 85 37 25 38
REMARK SMILES IDX 84 39 26 40 27 41 28 42 78 43 29 44 83 45 77 46 79 47 30 48
REMARK SMILES IDX 82 49 76 50 75 51 31 53 63 54 43 55 62 56 44 57 47 58 61 59
REMARK SMILES IDX 80 60 45 61 46 62 60 64 81 65 48 66 32 67 33 68 41 69 34 70
REMARK SMILES IDX 40 71 42 72 39 73 35 74 36 75 37 76 38 77 64 78 65 79 73 80
REMARK SMILES IDX 66 81 72 82 74 83 71 84 67 85 68 86 69 87 70 88 49 89 50 90
REMARK SMILES IDX 58 91 51 92 57 93 59 94 56 95 52 96 53 97 54 98 55 99
REMARK H PARENT 13 7 8 18 1 25 1 26 1 27 20 33 79 52 47 63
REMARK Flexibility Score: inf
ROOT
ATOM      1  C   UNL A   1      34.368  20.341  25.119  1.00  0.00     0.002 C 
ENDROOT
BRANCH   1   2
ATOM      2  C   UNL A   1      33.099  19.964  24.354  1.00  0.00     0.021 C 
BRANCH   2   3
ATOM      3  C   UNL A   1      32.178  21.157  24.077  1.00  0.00     0.116 C 
BRANCH   3   4
ATOM      4  N   UNL A   1      31.716  21.730  25.325  1.00  0.00    -0.356 N 
ATOM      5  C   UNL A   1      31.253  22.975  25.599  1.00  0.00     0.222 C 
ATOM      6  O   UNL A   1      31.090  23.286  26.782  1.00  0.00    -0.275 OA
ATOM      7  H   UNL A   1      31.743  21.118  26.095  1.00  0.00     0.163 HD
BRANCH   5   8
ATOM      8  C   UNL A   1      30.901  23.965  24.502  1.00  0.00     0.128 C 
BRANCH   8   9
ATOM      9  C   UNL A   1      31.597  25.369  24.542  1.00  0.00     0.049 C 
ATOM     10  C   UNL A   1      31.094  26.178  23.313  1.00  0.00     0.029 C 
ATOM     11  C   UNL A   1      33.116  25.219  24.425  1.00  0.00     0.029 C 
ATOM     12  C   UNL A   1      31.629  25.671  21.967  1.00  0.00     0.002 C 
ATOM     13  C   UNL A   1      33.624  24.647  23.107  1.00  0.00     0.002 C 
ATOM     14  C   UNL A   1      33.148  25.517  21.955  1.00  0.00     0.000 C 
BRANCH   9  15
ATOM     15  N   UNL A   1      31.215  26.071  25.803  1.00  0.00    -0.350 N 
ATOM     16  C   UNL A   1      31.505  27.216  26.472  1.00  0.00     0.227 C 
ATOM     17  O   UNL A   1      30.859  27.372  27.521  1.00  0.00    -0.274 OA
ATOM     18  H   UNL A   1      30.552  25.542  26.302  1.00  0.00     0.164 HD
BRANCH  16  19
ATOM     19  C   UNL A   1      32.536  28.299  26.108  1.00  0.00     0.107 C 
ATOM     20  C   UNL A   1      33.750  30.248  26.979  1.00  0.00     0.205 C 
ATOM     21  C   UNL A   1      34.629  29.047  26.856  1.00  0.00     0.033 C 
ATOM     22  C   UNL A   1      32.332  29.689  26.731  1.00  0.00     0.087 C 
ATOM     23  C   UNL A   1      33.974  27.988  26.368  1.00  0.00    -0.012 C 
BRANCH  20  24
ATOM     24  N   UNL A   1      33.917  30.900  28.263  1.00  0.00    -0.352 N 
ATOM     25  H   UNL A   1      33.436  30.362  28.983  1.00  0.00     0.345 HD
ATOM     26  H   UNL A   1      33.524  31.840  28.221  1.00  0.00     0.345 HD
ATOM     27  H   UNL A   1      34.911  30.958  28.488  1.00  0.00     0.345 HD
ENDBRANCH  20  24
ENDBRANCH  16  19
ENDBRANCH   9  15
ENDBRANCH   8   9
ENDBRANCH   5   8
ENDBRANCH   3   4
ENDBRANCH   2   3
ENDBRANCH   1   2
BRANCH   1  28
ATOM     28  C   UNL A   1      34.956  21.699  24.718  1.00  0.00     0.002 C 
BRANCH  28  29
ATOM     29  C   UNL A   1      35.246  22.657  25.879  1.00  0.00     0.021 C 
BRANCH  29  30
ATOM     30  C   UNL A   1      36.609  23.343  25.821  1.00  0.00     0.116 C 
BRANCH  30  31
ATOM     31  N   UNL A   1      37.684  22.419  26.142  1.00  0.00    -0.352 N 
ATOM     32  C   UNL A   1      38.979  22.680  26.500  1.00  0.00     0.251 C 
ATOM     33  H   UNL A   1      37.446  21.465  26.094  1.00  0.00     0.163 HD
ATOM     34  O   UNL A   1      39.814  21.773  26.449  1.00  0.00    -0.269 OA
BRANCH  32  35
ATOM     35  C   UNL A   1      39.378  24.033  26.942  1.00  0.00     0.039 A 
ATOM     36  C   UNL A   1      40.036  24.876  26.042  1.00  0.00     0.014 A 
ATOM     37  C   UNL A   1      39.159  24.451  28.258  1.00  0.00     0.014 A 
ATOM     38  C   UNL A   1      40.450  26.145  26.454  1.00  0.00     0.010 A 
ATOM     39  C   UNL A   1      39.508  25.743  28.647  1.00  0.00     0.010 A 
ATOM     40  C   UNL A   1      40.177  26.595  27.756  1.00  0.00    -0.014 A 
BRANCH  40  41
ATOM     41  C   UNL A   1      40.639  27.928  28.222  1.00  0.00     0.031 A 
ATOM     42  C   UNL A   1      42.114  28.230  28.271  1.00  0.00     0.074 A 
ATOM     43  C   UNL A   1      39.744  28.845  28.636  1.00  0.00     0.049 A 
ATOM     44  N   UNL A   1      42.729  29.295  28.715  1.00  0.00    -0.248 NA
ATOM     45  C   UNL A   1      43.017  27.176  27.784  1.00  0.00     0.031 C 
ATOM     46  C   UNL A   1      38.291  28.658  28.659  1.00  0.00     0.029 A 
ATOM     47  N   UNL A   1      39.921  30.116  29.121  1.00  0.00    -0.354 N 
ATOM     48  C   UNL A   1      44.090  29.035  28.574  1.00  0.00     0.074 A 
ATOM     49  C   UNL A   1      44.206  27.686  28.066  1.00  0.00     0.031 C 
ATOM     50  C   UNL A   1      37.710  29.781  29.110  1.00  0.00     0.029 A 
ATOM     51  C   UNL A   1      38.746  30.752  29.450  1.00  0.00     0.049 A 
ATOM     52  H   UNL A   1      40.806  30.533  29.226  1.00  0.00     0.167 HD
ATOM     53  C   UNL A   1      45.142  29.856  28.818  1.00  0.00     0.034 A 
ATOM     54  C   UNL A   1      38.530  31.977  29.971  1.00  0.00     0.034 A 
ATOM     55  C   UNL A   1      45.005  31.206  29.307  1.00  0.00     0.049 A 
ATOM     56  C   UNL A   1      39.718  32.866  30.250  1.00  0.00     0.074 A 
ATOM     57  C   UNL A   1      45.998  32.137  29.563  1.00  0.00     0.029 A 
ATOM     58  N   UNL A   1      43.798  31.821  29.615  1.00  0.00    -0.354 N 
ATOM     59  N   UNL A   1      40.996  32.615  30.081  1.00  0.00    -0.248 NA
ATOM     60  C   UNL A   1      39.432  34.208  30.773  1.00  0.00     0.031 C 
ATOM     61  C   UNL A   1      45.396  33.290  30.078  1.00  0.00     0.029 A 
ATOM     62  C   UNL A   1      44.022  33.110  30.073  1.00  0.00     0.049 A 
ATOM     63  H   UNL A   1      42.912  31.402  29.521  1.00  0.00     0.167 HD
ATOM     64  C   UNL A   1      41.661  33.787  30.437  1.00  0.00     0.074 A 
ATOM     65  C   UNL A   1      40.642  34.743  30.817  1.00  0.00     0.031 C 
ATOM     66  C   UNL A   1      42.993  34.052  30.443  1.00  0.00     0.034 A 
BRANCH  53  67
ATOM     67  C   UNL A   1      46.526  29.300  28.576  1.00  0.00     0.023 A 
ATOM     68  C   UNL A   1      46.998  29.038  27.277  1.00  0.00     0.031 A 
ATOM     69  C   UNL A   1      47.375  29.000  29.656  1.00  0.00     0.131 A 
ATOM     70  C   UNL A   1      48.245  28.420  27.096  1.00  0.00     0.055 A 
ATOM     71  C   UNL A   1      48.650  28.464  29.464  1.00  0.00     0.041 A 
ATOM     72  F   UNL A   1      46.974  29.208  30.920  1.00  0.00    -0.206 F 
ATOM     73  C   UNL A   1      49.086  28.155  28.178  1.00  0.00     0.022 A 
BRANCH  70  74
ATOM     74  S   UNL A   1      48.685  27.832  25.437  1.00  0.00     0.124 S 
ATOM     75  O   UNL A   1      48.826  26.396  25.662  1.00  0.00    -0.237 OA
ATOM     76  O   UNL A   1      47.536  28.246  24.640  1.00  0.00    -0.237 OA
ATOM     77  O   UNL A   1      49.934  28.535  25.145  1.00  0.00    -0.744 OA
ENDBRANCH  70  74
ENDBRANCH  53  67
BRANCH  54  78
ATOM     78  C   UNL A   1      37.145  32.446  30.264  1.00  0.00     0.023 A 
ATOM     79  C   UNL A   1      36.364  33.055  29.267  1.00  0.00     0.031 A 
ATOM     80  C   UNL A   1      36.602  32.345  31.556  1.00  0.00     0.131 A 
ATOM     81  C   UNL A   1      35.109  33.591  29.592  1.00  0.00     0.055 A 
ATOM     82  C   UNL A   1      35.327  32.828  31.860  1.00  0.00     0.041 A 
ATOM     83  F   UNL A   1      37.302  31.766  32.544  1.00  0.00    -0.206 F 
ATOM     84  C   UNL A   1      34.580  33.471  30.879  1.00  0.00     0.022 A 
BRANCH  81  85
ATOM     85  S   UNL A   1      34.219  34.540  28.329  1.00  0.00     0.124 S 
ATOM     86  O   UNL A   1      34.010  35.814  29.007  1.00  0.00    -0.237 OA
ATOM     87  O   UNL A   1      35.175  34.548  27.227  1.00  0.00    -0.237 OA
ATOM     88  O   UNL A   1      33.012  33.750  28.097  1.00  0.00    -0.744 OA
ENDBRANCH  81  85
ENDBRANCH  54  78
BRANCH  66  89
ATOM     89  C   UNL A   1      43.412  35.455  30.811  1.00  0.00     0.023 A 
ATOM     90  C   UNL A   1      43.579  35.856  32.146  1.00  0.00     0.031 A 
ATOM     91  C   UNL A   1      43.629  36.409  29.800  1.00  0.00     0.131 A 
ATOM     92  C   UNL A   1      43.894  37.192  32.440  1.00  0.00     0.055 A 
ATOM     93  C   UNL A   1      44.004  37.720  30.095  1.00  0.00     0.041 A 
ATOM     94  F   UNL A   1      43.481  36.081  28.506  1.00  0.00    -0.206 F 
ATOM     95  C   UNL A   1      44.124  38.122  31.421  1.00  0.00     0.022 A 
BRANCH  92  96
ATOM     96  S   UNL A   1      43.904  37.724  34.174  1.00  0.00     0.124 S 
ATOM     97  O   UNL A   1      44.054  36.455  34.879  1.00  0.00    -0.237 OA
ATOM     98  O   UNL A   1      45.057  38.618  34.218  1.00  0.00    -0.237 OA
ATOM     99  O   UNL A   1      42.606  38.376  34.340  1.00  0.00    -0.744 OA
ENDBRANCH  92  96
ENDBRANCH  66  89
ENDBRANCH  40  41
ENDBRANCH  32  35
ENDBRANCH  30  31
ENDBRANCH  29  30
ENDBRANCH  28  29
ENDBRANCH   1  28
TORSDOF 20
ENDMDL
