MODEL 1
REMARK VINA RESULT:     -12.0      0.000      0.000
REMARK SMILES Cc1c(Cl)ccc2c1C=C(C(=O)NCCCCCCNC(=O)c1ccc(-c3c4nc(c(-c5cc(S(=O)(=O)[O-])ccc5F)c5ccc([nH]5)c(-c5cc(S(=O)(=O)[O-])ccc5F)c5nc(c(-c6cc(S(=O)(=O)[O-])ccc6F)c6ccc3[nH]6)C=C5)C=C4)cc1)[C@@H](C(F)(F)F)O2
REMARK SMILES IDX 17 1 16 2 15 3 14 4 13 5 11 6 12 7 10 9 1 10 2 11 3 12 8 13
REMARK SMILES IDX 4 14 5 15 7 16 9 17 6 18 91 19 86 20 87 21 88 22 89 23 90 24
REMARK SMILES IDX 18 25 19 26 20 27 21 28 22 30 23 31 24 32 85 33 25 34 84 35
REMARK SMILES IDX 26 36 27 37 28 38 78 39 29 40 83 41 77 42 79 43 30 44 82 45
REMARK SMILES IDX 76 46 75 47 31 49 63 50 43 51 62 52 44 53 47 54 61 55 80 56
REMARK SMILES IDX 45 57 46 58 60 60 81 61 48 62 32 63 33 64 41 65 34 66 40 67
REMARK SMILES IDX 42 68 39 69 35 70 36 71 37 72 38 73 64 74 65 75 73 76 66 77
REMARK SMILES IDX 72 78 74 79 71 80 67 81 68 82 69 83 70 84 49 85 50 86 58 87
REMARK SMILES IDX 51 88 57 89 59 90 56 91 52 92 53 93 54 94 55 95
REMARK H PARENT 13 8 20 29 79 48 47 59
REMARK Flexibility Score: inf
ROOT
ATOM      1  C   UNL A   1      31.604  30.490  25.759  1.00  0.00     0.002 C 
ENDROOT
BRANCH   1   2
ATOM      2  C   UNL A   1      32.975  29.820  25.927  1.00  0.00     0.002 C 
BRANCH   2   3
ATOM      3  C   UNL A   1      33.510  29.101  24.685  1.00  0.00     0.021 C 
BRANCH   3   4
ATOM      4  C   UNL A   1      33.446  27.579  24.771  1.00  0.00     0.116 C 
BRANCH   4   5
ATOM      5  N   UNL A   1      32.412  27.136  25.691  1.00  0.00    -0.352 N 
ATOM      6  C   UNL A   1      31.938  25.959  26.157  1.00  0.00     0.251 C 
ATOM      7  O   UNL A   1      31.018  26.057  26.977  1.00  0.00    -0.270 OA
ATOM      8  H   UNL A   1      31.925  27.899  26.079  1.00  0.00     0.163 HD
BRANCH   6   9
ATOM      9  C   UNL A   1      32.430  24.602  25.762  1.00  0.00     0.067 C 
ATOM     10  C   UNL A   1      36.705  23.965  26.002  1.00  0.00     0.047 C 
ATOM     11  C   UNL A   1      35.745  22.863  25.625  1.00  0.00    -0.021 A 
ATOM     12  C   UNL A   1      36.215  21.588  25.245  1.00  0.00     0.044 A 
ATOM     13  C   UNL A   1      34.348  23.103  25.589  1.00  0.00     0.022 A 
ATOM     14  Cl  UNL A   1      37.901  21.194  25.198  1.00  0.00    -0.084 Cl
ATOM     15  C   UNL A   1      35.330  20.570  24.880  1.00  0.00     0.024 A 
ATOM     16  C   UNL A   1      33.482  22.071  25.206  1.00  0.00     0.128 A 
ATOM     17  C   UNL A   1      33.742  24.383  25.968  1.00  0.00     0.026 C 
ATOM     18  C   UNL A   1      33.963  20.810  24.868  1.00  0.00     0.048 A 
ATOM     19  O   UNL A   1      32.125  22.199  25.173  1.00  0.00    -0.475 OA
ATOM     20  C   UNL A   1      31.579  23.541  25.127  1.00  0.00     0.314 C 
BRANCH  20  21
ATOM     21  C   UNL A   1      31.191  23.882  23.677  1.00  0.00     0.429 C 
ATOM     22  F   UNL A   1      32.201  24.529  23.050  1.00  0.00    -0.167 F 
ATOM     23  F   UNL A   1      30.926  22.776  22.941  1.00  0.00    -0.167 F 
ATOM     24  F   UNL A   1      30.093  24.669  23.612  1.00  0.00    -0.167 F 
ENDBRANCH  20  21
ENDBRANCH   6   9
ENDBRANCH   4   5
ENDBRANCH   3   4
ENDBRANCH   2   3
ENDBRANCH   1   2
BRANCH   1  25
ATOM     25  C   UNL A   1      31.405  31.790  26.545  1.00  0.00     0.021 C 
BRANCH  25  26
ATOM     26  C   UNL A   1      32.672  32.342  27.190  1.00  0.00     0.116 C 
BRANCH  26  27
ATOM     27  N   UNL A   1      32.528  33.745  27.537  1.00  0.00    -0.352 N 
ATOM     28  C   UNL A   1      33.158  34.445  28.534  1.00  0.00     0.251 C 
ATOM     29  H   UNL A   1      31.896  34.260  26.986  1.00  0.00     0.163 HD
ATOM     30  O   UNL A   1      32.774  35.569  28.844  1.00  0.00    -0.269 OA
BRANCH  28  31
ATOM     31  C   UNL A   1      34.303  33.829  29.232  1.00  0.00     0.039 A 
ATOM     32  C   UNL A   1      35.599  34.232  28.905  1.00  0.00     0.014 A 
ATOM     33  C   UNL A   1      34.084  32.852  30.209  1.00  0.00     0.014 A 
ATOM     34  C   UNL A   1      36.683  33.675  29.585  1.00  0.00     0.010 A 
ATOM     35  C   UNL A   1      35.162  32.334  30.919  1.00  0.00     0.010 A 
ATOM     36  C   UNL A   1      36.470  32.730  30.602  1.00  0.00    -0.014 A 
BRANCH  36  37
ATOM     37  C   UNL A   1      37.608  32.108  31.316  1.00  0.00     0.031 A 
ATOM     38  C   UNL A   1      38.339  30.958  30.686  1.00  0.00     0.074 A 
ATOM     39  C   UNL A   1      37.947  32.542  32.545  1.00  0.00     0.049 A 
ATOM     40  N   UNL A   1      39.336  30.259  31.159  1.00  0.00    -0.248 NA
ATOM     41  C   UNL A   1      37.876  30.525  29.357  1.00  0.00     0.031 C 
ATOM     42  C   UNL A   1      37.282  33.626  33.267  1.00  0.00     0.029 A 
ATOM     43  N   UNL A   1      38.927  32.117  33.406  1.00  0.00    -0.354 N 
ATOM     44  C   UNL A   1      39.619  29.305  30.189  1.00  0.00     0.074 A 
ATOM     45  C   UNL A   1      38.655  29.478  29.127  1.00  0.00     0.031 C 
ATOM     46  C   UNL A   1      37.878  33.788  34.459  1.00  0.00     0.029 A 
ATOM     47  C   UNL A   1      38.950  32.805  34.598  1.00  0.00     0.049 A 
ATOM     48  H   UNL A   1      39.555  31.389  33.192  1.00  0.00     0.167 HD
ATOM     49  C   UNL A   1      40.614  28.388  30.177  1.00  0.00     0.034 A 
ATOM     50  C   UNL A   1      39.746  32.658  35.677  1.00  0.00     0.034 A 
ATOM     51  C   UNL A   1      41.578  28.239  31.232  1.00  0.00     0.049 A 
ATOM     52  C   UNL A   1      40.843  31.626  35.643  1.00  0.00     0.074 A 
ATOM     53  C   UNL A   1      42.657  27.374  31.287  1.00  0.00     0.029 A 
ATOM     54  N   UNL A   1      41.588  28.968  32.411  1.00  0.00    -0.354 N 
ATOM     55  N   UNL A   1      41.156  30.790  34.681  1.00  0.00    -0.248 NA
ATOM     56  C   UNL A   1      41.703  31.519  36.830  1.00  0.00     0.031 C 
ATOM     57  C   UNL A   1      43.291  27.549  32.517  1.00  0.00     0.029 A 
ATOM     58  C   UNL A   1      42.642  28.559  33.208  1.00  0.00     0.049 A 
ATOM     59  H   UNL A   1      40.940  29.672  32.645  1.00  0.00     0.167 HD
ATOM     60  C   UNL A   1      42.265  30.081  35.133  1.00  0.00     0.074 A 
ATOM     61  C   UNL A   1      42.577  30.593  36.450  1.00  0.00     0.031 C 
ATOM     62  C   UNL A   1      42.959  29.095  34.511  1.00  0.00     0.034 A 
BRANCH  49  63
ATOM     63  C   UNL A   1      40.742  27.491  28.975  1.00  0.00     0.023 A 
ATOM     64  C   UNL A   1      41.668  27.795  27.961  1.00  0.00     0.031 A 
ATOM     65  C   UNL A   1      39.871  26.404  28.783  1.00  0.00     0.131 A 
ATOM     66  C   UNL A   1      41.683  27.033  26.787  1.00  0.00     0.055 A 
ATOM     67  C   UNL A   1      39.915  25.627  27.625  1.00  0.00     0.041 A 
ATOM     68  F   UNL A   1      38.975  26.075  29.727  1.00  0.00    -0.206 F 
ATOM     69  C   UNL A   1      40.817  25.948  26.616  1.00  0.00     0.022 A 
BRANCH  66  70
ATOM     70  S   UNL A   1      42.804  27.442  25.422  1.00  0.00     0.124 S 
ATOM     71  O   UNL A   1      44.051  27.728  26.129  1.00  0.00    -0.237 OA
ATOM     72  O   UNL A   1      42.798  26.208  24.643  1.00  0.00    -0.237 OA
ATOM     73  O   UNL A   1      42.177  28.597  24.786  1.00  0.00    -0.744 OA
ENDBRANCH  66  70
ENDBRANCH  49  63
BRANCH  50  74
ATOM     74  C   UNL A   1      39.563  33.570  36.841  1.00  0.00     0.023 A 
ATOM     75  C   UNL A   1      40.421  34.664  37.048  1.00  0.00     0.031 A 
ATOM     76  C   UNL A   1      38.588  33.297  37.815  1.00  0.00     0.131 A 
ATOM     77  C   UNL A   1      40.320  35.412  38.229  1.00  0.00     0.055 A 
ATOM     78  C   UNL A   1      38.453  34.080  38.962  1.00  0.00     0.041 A 
ATOM     79  F   UNL A   1      37.756  32.255  37.664  1.00  0.00    -0.206 F 
ATOM     80  C   UNL A   1      39.332  35.137  39.180  1.00  0.00     0.022 A 
BRANCH  77  81
ATOM     81  S   UNL A   1      41.530  36.708  38.615  1.00  0.00     0.124 S 
ATOM     82  O   UNL A   1      42.342  36.074  39.649  1.00  0.00    -0.237 OA
ATOM     83  O   UNL A   1      42.185  36.893  37.323  1.00  0.00    -0.237 OA
ATOM     84  O   UNL A   1      40.706  37.827  39.061  1.00  0.00    -0.744 OA
ENDBRANCH  77  81
ENDBRANCH  50  74
BRANCH  62  85
ATOM     85  C   UNL A   1      44.146  28.489  35.214  1.00  0.00     0.023 A 
ATOM     86  C   UNL A   1      43.946  27.504  36.200  1.00  0.00     0.031 A 
ATOM     87  C   UNL A   1      45.439  29.007  35.039  1.00  0.00     0.131 A 
ATOM     88  C   UNL A   1      45.017  27.100  37.007  1.00  0.00     0.055 A 
ATOM     89  C   UNL A   1      46.512  28.571  35.818  1.00  0.00     0.041 A 
ATOM     90  F   UNL A   1      45.673  29.957  34.119  1.00  0.00    -0.206 F 
ATOM     91  C   UNL A   1      46.300  27.624  36.816  1.00  0.00     0.022 A 
BRANCH  88  92
ATOM     92  S   UNL A   1      44.768  25.941  38.380  1.00  0.00     0.124 S 
ATOM     93  O   UNL A   1      44.236  24.766  37.693  1.00  0.00    -0.237 OA
ATOM     94  O   UNL A   1      46.123  25.796  38.906  1.00  0.00    -0.237 OA
ATOM     95  O   UNL A   1      43.823  26.628  39.254  1.00  0.00    -0.744 OA
ENDBRANCH  88  92
ENDBRANCH  62  85
ENDBRANCH  36  37
ENDBRANCH  28  31
ENDBRANCH  26  27
ENDBRANCH  25  26
ENDBRANCH   1  25
TORSDOF 17
ENDMDL
MODEL 2
REMARK VINA RESULT:     -11.9      3.611      8.651
REMARK SMILES Cc1c(Cl)ccc2c1C=C(C(=O)NCCCCCCNC(=O)c1ccc(-c3c4nc(c(-c5cc(S(=O)(=O)[O-])ccc5F)c5ccc([nH]5)c(-c5cc(S(=O)(=O)[O-])ccc5F)c5nc(c(-c6cc(S(=O)(=O)[O-])ccc6F)c6ccc3[nH]6)C=C5)C=C4)cc1)[C@@H](C(F)(F)F)O2
REMARK SMILES IDX 17 1 16 2 15 3 14 4 13 5 11 6 12 7 10 9 1 10 2 11 3 12 8 13
REMARK SMILES IDX 4 14 5 15 7 16 9 17 6 18 91 19 86 20 87 21 88 22 89 23 90 24
REMARK SMILES IDX 18 25 19 26 20 27 21 28 22 30 23 31 24 32 85 33 25 34 84 35
REMARK SMILES IDX 26 36 27 37 28 38 78 39 29 40 83 41 77 42 79 43 30 44 82 45
REMARK SMILES IDX 76 46 75 47 31 49 63 50 43 51 62 52 44 53 47 54 61 55 80 56
REMARK SMILES IDX 45 57 46 58 60 60 81 61 48 62 32 63 33 64 41 65 34 66 40 67
REMARK SMILES IDX 42 68 39 69 35 70 36 71 37 72 38 73 64 74 65 75 73 76 66 77
REMARK SMILES IDX 72 78 74 79 71 80 67 81 68 82 69 83 70 84 49 85 50 86 58 87
REMARK SMILES IDX 51 88 57 89 59 90 56 91 52 92 53 93 54 94 55 95
REMARK H PARENT 13 8 20 29 79 48 47 59
REMARK Flexibility Score: inf
ROOT
ATOM      1  C   UNL A   1      31.756  28.572  26.168  1.00  0.00     0.002 C 
ENDROOT
BRANCH   1   2
ATOM      2  C   UNL A   1      30.827  28.336  24.970  1.00  0.00     0.002 C 
BRANCH   2   3
ATOM      3  C   UNL A   1      31.514  28.314  23.601  1.00  0.00     0.021 C 
BRANCH   3   4
ATOM      4  C   UNL A   1      30.771  27.503  22.544  1.00  0.00     0.116 C 
BRANCH   4   5
ATOM      5  N   UNL A   1      31.689  26.809  21.656  1.00  0.00    -0.352 N 
ATOM      6  C   UNL A   1      32.590  25.806  21.749  1.00  0.00     0.251 C 
ATOM      7  O   UNL A   1      33.160  25.518  20.691  1.00  0.00    -0.270 OA
ATOM      8  H   UNL A   1      31.643  27.168  20.740  1.00  0.00     0.163 HD
BRANCH   6   9
ATOM      9  C   UNL A   1      32.930  25.052  22.997  1.00  0.00     0.067 C 
ATOM     10  C   UNL A   1      36.752  23.019  23.029  1.00  0.00     0.047 C 
ATOM     11  C   UNL A   1      35.842  23.047  24.234  1.00  0.00    -0.021 A 
ATOM     12  C   UNL A   1      36.164  22.327  25.405  1.00  0.00     0.044 A 
ATOM     13  C   UNL A   1      34.612  23.751  24.194  1.00  0.00     0.022 A 
ATOM     14  Cl  UNL A   1      37.611  21.387  25.550  1.00  0.00    -0.084 Cl
ATOM     15  C   UNL A   1      35.317  22.338  26.516  1.00  0.00     0.024 A 
ATOM     16  C   UNL A   1      33.773  23.735  25.315  1.00  0.00     0.128 A 
ATOM     17  C   UNL A   1      34.174  24.538  23.038  1.00  0.00     0.026 C 
ATOM     18  C   UNL A   1      34.125  23.048  26.473  1.00  0.00     0.048 A 
ATOM     19  O   UNL A   1      32.590  24.408  25.381  1.00  0.00    -0.475 OA
ATOM     20  C   UNL A   1      31.976  24.810  24.130  1.00  0.00     0.314 C 
BRANCH  20  21
ATOM     21  C   UNL A   1      30.865  23.810  23.765  1.00  0.00     0.429 C 
ATOM     22  F   UNL A   1      30.318  23.272  24.881  1.00  0.00    -0.167 F 
ATOM     23  F   UNL A   1      29.850  24.393  23.083  1.00  0.00    -0.167 F 
ATOM     24  F   UNL A   1      31.320  22.794  22.998  1.00  0.00    -0.167 F 
ENDBRANCH  20  21
ENDBRANCH   6   9
ENDBRANCH   4   5
ENDBRANCH   3   4
ENDBRANCH   2   3
ENDBRANCH   1   2
BRANCH   1  25
ATOM     25  C   UNL A   1      33.127  27.894  26.082  1.00  0.00     0.021 C 
BRANCH  25  26
ATOM     26  C   UNL A   1      34.300  28.853  25.916  1.00  0.00     0.116 C 
BRANCH  26  27
ATOM     27  N   UNL A   1      34.012  30.157  26.488  1.00  0.00    -0.352 N 
ATOM     28  C   UNL A   1      34.620  30.775  27.550  1.00  0.00     0.251 C 
ATOM     29  H   UNL A   1      33.284  30.662  26.058  1.00  0.00     0.163 HD
ATOM     30  O   UNL A   1      34.124  31.779  28.054  1.00  0.00    -0.269 OA
BRANCH  28  31
ATOM     31  C   UNL A   1      35.877  30.216  28.084  1.00  0.00     0.039 A 
ATOM     32  C   UNL A   1      37.067  30.424  27.383  1.00  0.00     0.014 A 
ATOM     33  C   UNL A   1      35.869  29.488  29.278  1.00  0.00     0.014 A 
ATOM     34  C   UNL A   1      38.264  29.925  27.900  1.00  0.00     0.010 A 
ATOM     35  C   UNL A   1      37.069  29.034  29.816  1.00  0.00     0.010 A 
ATOM     36  C   UNL A   1      38.272  29.235  29.124  1.00  0.00    -0.014 A 
BRANCH  36  37
ATOM     37  C   UNL A   1      39.527  28.674  29.675  1.00  0.00     0.031 A 
ATOM     38  C   UNL A   1      40.158  29.312  30.878  1.00  0.00     0.074 A 
ATOM     39  C   UNL A   1      40.120  27.630  29.066  1.00  0.00     0.049 A 
ATOM     40  N   UNL A   1      41.267  28.995  31.491  1.00  0.00    -0.248 NA
ATOM     41  C   UNL A   1      39.461  30.473  31.457  1.00  0.00     0.031 C 
ATOM     42  C   UNL A   1      39.614  26.957  27.869  1.00  0.00     0.029 A 
ATOM     43  N   UNL A   1      41.281  26.961  29.362  1.00  0.00    -0.354 N 
ATOM     44  C   UNL A   1      41.401  29.913  32.525  1.00  0.00     0.074 A 
ATOM     45  C   UNL A   1      40.292  30.834  32.424  1.00  0.00     0.031 C 
ATOM     46  C   UNL A   1      40.455  25.964  27.538  1.00  0.00     0.029 A 
ATOM     47  C   UNL A   1      41.572  25.946  28.480  1.00  0.00     0.049 A 
ATOM     48  H   UNL A   1      41.852  27.187  30.132  1.00  0.00     0.167 HD
ATOM     49  C   UNL A   1      42.350  29.963  33.488  1.00  0.00     0.034 A 
ATOM     50  C   UNL A   1      42.620  25.097  28.439  1.00  0.00     0.034 A 
ATOM     51  C   UNL A   1      43.438  29.029  33.588  1.00  0.00     0.049 A 
ATOM     52  C   UNL A   1      43.668  25.176  29.519  1.00  0.00     0.074 A 
ATOM     53  C   UNL A   1      44.421  28.965  34.561  1.00  0.00     0.029 A 
ATOM     54  N   UNL A   1      43.688  27.999  32.695  1.00  0.00    -0.354 N 
ATOM     55  N   UNL A   1      43.734  25.993  30.543  1.00  0.00    -0.248 NA
ATOM     56  C   UNL A   1      44.778  24.214  29.450  1.00  0.00     0.031 C 
ATOM     57  C   UNL A   1      45.289  27.924  34.230  1.00  0.00     0.029 A 
ATOM     58  C   UNL A   1      44.821  27.305  33.083  1.00  0.00     0.049 A 
ATOM     59  H   UNL A   1      43.140  27.792  31.903  1.00  0.00     0.167 HD
ATOM     60  C   UNL A   1      44.872  25.626  31.255  1.00  0.00     0.074 A 
ATOM     61  C   UNL A   1      45.459  24.505  30.552  1.00  0.00     0.031 C 
ATOM     62  C   UNL A   1      45.383  26.172  32.388  1.00  0.00     0.034 A 
BRANCH  49  63
ATOM     63  C   UNL A   1      42.247  31.038  34.537  1.00  0.00     0.023 A 
ATOM     64  C   UNL A   1      42.931  32.256  34.371  1.00  0.00     0.031 A 
ATOM     65  C   UNL A   1      41.566  30.811  35.746  1.00  0.00     0.131 A 
ATOM     66  C   UNL A   1      42.939  33.192  35.411  1.00  0.00     0.055 A 
ATOM     67  C   UNL A   1      41.549  31.763  36.765  1.00  0.00     0.041 A 
ATOM     68  F   UNL A   1      40.896  29.665  35.946  1.00  0.00    -0.206 F 
ATOM     69  C   UNL A   1      42.247  32.955  36.604  1.00  0.00     0.022 A 
BRANCH  66  70
ATOM     70  S   UNL A   1      43.875  34.738  35.270  1.00  0.00     0.124 S 
ATOM     71  O   UNL A   1      45.206  34.253  34.907  1.00  0.00    -0.237 OA
ATOM     72  O   UNL A   1      43.155  35.434  34.210  1.00  0.00    -0.237 OA
ATOM     73  O   UNL A   1      43.777  35.330  36.600  1.00  0.00    -0.744 OA
ENDBRANCH  66  70
ENDBRANCH  49  63
BRANCH  50  74
ATOM     74  C   UNL A   1      42.672  24.062  27.369  1.00  0.00     0.023 A 
ATOM     75  C   UNL A   1      42.031  22.820  27.528  1.00  0.00     0.031 A 
ATOM     76  C   UNL A   1      43.448  24.265  26.216  1.00  0.00     0.131 A 
ATOM     77  C   UNL A   1      42.223  21.812  26.574  1.00  0.00     0.055 A 
ATOM     78  C   UNL A   1      43.589  23.278  25.239  1.00  0.00     0.041 A 
ATOM     79  F   UNL A   1      44.088  25.430  26.029  1.00  0.00    -0.206 F 
ATOM     80  C   UNL A   1      42.985  22.038  25.423  1.00  0.00     0.022 A 
BRANCH  77  81
ATOM     81  S   UNL A   1      41.568  20.142  26.842  1.00  0.00     0.124 S 
ATOM     82  O   UNL A   1      40.255  20.415  27.418  1.00  0.00    -0.237 OA
ATOM     83  O   UNL A   1      41.562  19.607  25.483  1.00  0.00    -0.237 OA
ATOM     84  O   UNL A   1      42.536  19.532  27.747  1.00  0.00    -0.744 OA
ENDBRANCH  77  81
ENDBRANCH  50  74
BRANCH  62  85
ATOM     85  C   UNL A   1      46.635  25.576  32.978  1.00  0.00     0.023 A 
ATOM     86  C   UNL A   1      47.876  25.791  32.348  1.00  0.00     0.031 A 
ATOM     87  C   UNL A   1      46.576  24.664  34.044  1.00  0.00     0.131 A 
ATOM     88  C   UNL A   1      49.000  25.066  32.761  1.00  0.00     0.055 A 
ATOM     89  C   UNL A   1      47.708  23.975  34.479  1.00  0.00     0.041 A 
ATOM     90  F   UNL A   1      45.411  24.419  34.667  1.00  0.00    -0.206 F 
ATOM     91  C   UNL A   1      48.924  24.163  33.827  1.00  0.00     0.022 A 
BRANCH  88  92
ATOM     92  S   UNL A   1      50.579  25.209  31.881  1.00  0.00     0.124 S 
ATOM     93  O   UNL A   1      50.980  23.811  31.746  1.00  0.00    -0.237 OA
ATOM     94  O   UNL A   1      50.179  25.866  30.639  1.00  0.00    -0.237 OA
ATOM     95  O   UNL A   1      51.410  26.008  32.776  1.00  0.00    -0.744 OA
ENDBRANCH  88  92
ENDBRANCH  62  85
ENDBRANCH  36  37
ENDBRANCH  28  31
ENDBRANCH  26  27
ENDBRANCH  25  26
ENDBRANCH   1  25
TORSDOF 17
ENDMDL
MODEL 3
REMARK VINA RESULT:     -11.9      3.046      8.454
REMARK SMILES Cc1c(Cl)ccc2c1C=C(C(=O)NCCCCCCNC(=O)c1ccc(-c3c4nc(c(-c5cc(S(=O)(=O)[O-])ccc5F)c5ccc([nH]5)c(-c5cc(S(=O)(=O)[O-])ccc5F)c5nc(c(-c6cc(S(=O)(=O)[O-])ccc6F)c6ccc3[nH]6)C=C5)C=C4)cc1)[C@@H](C(F)(F)F)O2
REMARK SMILES IDX 17 1 16 2 15 3 14 4 13 5 11 6 12 7 10 9 1 10 2 11 3 12 8 13
REMARK SMILES IDX 4 14 5 15 7 16 9 17 6 18 91 19 86 20 87 21 88 22 89 23 90 24
REMARK SMILES IDX 18 25 19 26 20 27 21 28 22 30 23 31 24 32 85 33 25 34 84 35
REMARK SMILES IDX 26 36 27 37 28 38 78 39 29 40 83 41 77 42 79 43 30 44 82 45
REMARK SMILES IDX 76 46 75 47 31 49 63 50 43 51 62 52 44 53 47 54 61 55 80 56
REMARK SMILES IDX 45 57 46 58 60 60 81 61 48 62 32 63 33 64 41 65 34 66 40 67
REMARK SMILES IDX 42 68 39 69 35 70 36 71 37 72 38 73 64 74 65 75 73 76 66 77
REMARK SMILES IDX 72 78 74 79 71 80 67 81 68 82 69 83 70 84 49 85 50 86 58 87
REMARK SMILES IDX 51 88 57 89 59 90 56 91 52 92 53 93 54 94 55 95
REMARK H PARENT 13 8 20 29 79 48 47 59
REMARK Flexibility Score: inf
ROOT
ATOM      1  C   UNL A   1      31.717  30.296  25.620  1.00  0.00     0.002 C 
ENDROOT
BRANCH   1   2
ATOM      2  C   UNL A   1      32.947  29.509  26.095  1.00  0.00     0.002 C 
BRANCH   2   3
ATOM      3  C   UNL A   1      33.608  28.623  25.035  1.00  0.00     0.021 C 
BRANCH   3   4
ATOM      4  C   UNL A   1      33.839  27.183  25.483  1.00  0.00     0.116 C 
BRANCH   4   5
ATOM      5  N   UNL A   1      33.679  26.247  24.383  1.00  0.00    -0.352 N 
ATOM      6  C   UNL A   1      32.678  25.827  23.577  1.00  0.00     0.251 C 
ATOM      7  O   UNL A   1      33.010  24.991  22.729  1.00  0.00    -0.270 OA
ATOM      8  H   UNL A   1      34.528  25.797  24.168  1.00  0.00     0.163 HD
BRANCH   6   9
ATOM      9  C   UNL A   1      31.255  26.285  23.643  1.00  0.00     0.067 C 
ATOM     10  C   UNL A   1      30.406  30.164  21.919  1.00  0.00     0.047 C 
ATOM     11  C   UNL A   1      29.322  29.276  22.480  1.00  0.00    -0.021 A 
ATOM     12  C   UNL A   1      27.982  29.716  22.547  1.00  0.00     0.044 A 
ATOM     13  C   UNL A   1      29.637  27.997  23.007  1.00  0.00     0.022 A 
ATOM     14  Cl  UNL A   1      27.488  31.278  21.985  1.00  0.00    -0.084 Cl
ATOM     15  C   UNL A   1      26.979  28.902  23.079  1.00  0.00     0.024 A 
ATOM     16  C   UNL A   1      28.616  27.206  23.549  1.00  0.00     0.128 A 
ATOM     17  C   UNL A   1      30.988  27.430  22.987  1.00  0.00     0.026 C 
ATOM     18  C   UNL A   1      27.296  27.644  23.573  1.00  0.00     0.048 A 
ATOM     19  O   UNL A   1      28.817  25.953  24.047  1.00  0.00    -0.475 OA
ATOM     20  C   UNL A   1      30.172  25.587  24.412  1.00  0.00     0.314 C 
BRANCH  20  21
ATOM     21  C   UNL A   1      30.343  25.727  25.935  1.00  0.00     0.429 C 
ATOM     22  F   UNL A   1      30.635  27.006  26.269  1.00  0.00    -0.167 F 
ATOM     23  F   UNL A   1      29.216  25.400  26.613  1.00  0.00    -0.167 F 
ATOM     24  F   UNL A   1      31.332  24.939  26.415  1.00  0.00    -0.167 F 
ENDBRANCH  20  21
ENDBRANCH   6   9
ENDBRANCH   4   5
ENDBRANCH   3   4
ENDBRANCH   2   3
ENDBRANCH   1   2
BRANCH   1  25
ATOM     25  C   UNL A   1      31.451  31.612  26.358  1.00  0.00     0.021 C 
BRANCH  25  26
ATOM     26  C   UNL A   1      32.523  31.999  27.370  1.00  0.00     0.116 C 
BRANCH  26  27
ATOM     27  N   UNL A   1      32.642  33.441  27.500  1.00  0.00    -0.352 N 
ATOM     28  C   UNL A   1      33.529  34.159  28.260  1.00  0.00     0.251 C 
ATOM     29  H   UNL A   1      32.002  33.973  26.974  1.00  0.00     0.163 HD
ATOM     30  O   UNL A   1      33.367  35.363  28.437  1.00  0.00    -0.269 OA
BRANCH  28  31
ATOM     31  C   UNL A   1      34.680  33.464  28.868  1.00  0.00     0.039 A 
ATOM     32  C   UNL A   1      34.451  32.453  29.804  1.00  0.00     0.014 A 
ATOM     33  C   UNL A   1      35.984  33.820  28.507  1.00  0.00     0.014 A 
ATOM     34  C   UNL A   1      35.535  31.771  30.358  1.00  0.00     0.010 A 
ATOM     35  C   UNL A   1      37.060  33.106  29.023  1.00  0.00     0.010 A 
ATOM     36  C   UNL A   1      36.846  32.089  29.963  1.00  0.00    -0.014 A 
BRANCH  36  37
ATOM     37  C   UNL A   1      38.011  31.395  30.560  1.00  0.00     0.031 A 
ATOM     38  C   UNL A   1      38.483  31.786  31.930  1.00  0.00     0.074 A 
ATOM     39  C   UNL A   1      38.668  30.458  29.852  1.00  0.00     0.049 A 
ATOM     40  N   UNL A   1      39.498  31.325  32.612  1.00  0.00    -0.248 NA
ATOM     41  C   UNL A   1      37.727  32.847  32.617  1.00  0.00     0.031 C 
ATOM     42  C   UNL A   1      38.319  30.028  28.498  1.00  0.00     0.029 A 
ATOM     43  N   UNL A   1      39.773  29.708  30.167  1.00  0.00    -0.354 N 
ATOM     44  C   UNL A   1      39.504  32.038  33.804  1.00  0.00     0.074 A 
ATOM     45  C   UNL A   1      38.428  33.000  33.732  1.00  0.00     0.031 C 
ATOM     46  C   UNL A   1      39.186  29.083  28.102  1.00  0.00     0.029 A 
ATOM     47  C   UNL A   1      40.168  28.857  29.160  1.00  0.00     0.049 A 
ATOM     48  H   UNL A   1      40.239  29.772  31.032  1.00  0.00     0.167 HD
ATOM     49  C   UNL A   1      40.317  31.882  34.875  1.00  0.00     0.034 A 
ATOM     50  C   UNL A   1      41.203  27.995  29.100  1.00  0.00     0.034 A 
ATOM     51  C   UNL A   1      41.373  30.909  34.942  1.00  0.00     0.049 A 
ATOM     52  C   UNL A   1      42.100  27.842  30.301  1.00  0.00     0.074 A 
ATOM     53  C   UNL A   1      42.217  30.637  36.004  1.00  0.00     0.029 A 
ATOM     54  N   UNL A   1      41.728  30.048  33.915  1.00  0.00    -0.354 N 
ATOM     55  N   UNL A   1      42.038  28.460  31.457  1.00  0.00    -0.248 NA
ATOM     56  C   UNL A   1      43.199  26.872  30.201  1.00  0.00     0.031 C 
ATOM     57  C   UNL A   1      43.111  29.644  35.604  1.00  0.00     0.029 A 
ATOM     58  C   UNL A   1      42.792  29.257  34.312  1.00  0.00     0.049 A 
ATOM     59  H   UNL A   1      41.288  30.005  33.035  1.00  0.00     0.167 HD
ATOM     60  C   UNL A   1      43.068  27.932  32.231  1.00  0.00     0.074 A 
ATOM     61  C   UNL A   1      43.731  26.937  31.416  1.00  0.00     0.031 C 
ATOM     62  C   UNL A   1      43.429  28.248  33.500  1.00  0.00     0.034 A 
BRANCH  49  63
ATOM     63  C   UNL A   1      40.087  32.754  36.079  1.00  0.00     0.023 A 
ATOM     64  C   UNL A   1      39.265  32.306  37.130  1.00  0.00     0.031 A 
ATOM     65  C   UNL A   1      40.587  34.067  36.134  1.00  0.00     0.131 A 
ATOM     66  C   UNL A   1      38.947  33.176  38.179  1.00  0.00     0.055 A 
ATOM     67  C   UNL A   1      40.294  34.918  37.199  1.00  0.00     0.041 A 
ATOM     68  F   UNL A   1      41.378  34.535  35.155  1.00  0.00    -0.206 F 
ATOM     69  C   UNL A   1      39.463  34.476  38.223  1.00  0.00     0.022 A 
BRANCH  66  70
ATOM     70  S   UNL A   1      37.826  32.666  39.509  1.00  0.00     0.124 S 
ATOM     71  O   UNL A   1      36.752  32.012  38.765  1.00  0.00    -0.237 OA
ATOM     72  O   UNL A   1      38.673  31.775  40.295  1.00  0.00    -0.237 OA
ATOM     73  O   UNL A   1      37.454  33.921  40.155  1.00  0.00    -0.744 OA
ENDBRANCH  66  70
ENDBRANCH  49  63
BRANCH  50  74
ATOM     74  C   UNL A   1      41.386  27.167  27.875  1.00  0.00     0.023 A 
ATOM     75  C   UNL A   1      41.032  25.806  27.859  1.00  0.00     0.031 A 
ATOM     76  C   UNL A   1      42.011  27.704  26.737  1.00  0.00     0.131 A 
ATOM     77  C   UNL A   1      41.355  25.017  26.746  1.00  0.00     0.055 A 
ATOM     78  C   UNL A   1      42.277  26.928  25.608  1.00  0.00     0.041 A 
ATOM     79  F   UNL A   1      42.377  28.995  26.713  1.00  0.00    -0.206 F 
ATOM     80  C   UNL A   1      41.961  25.573  25.614  1.00  0.00     0.022 A 
BRANCH  77  81
ATOM     81  S   UNL A   1      41.084  23.224  26.768  1.00  0.00     0.124 S 
ATOM     82  O   UNL A   1      41.963  22.767  25.695  1.00  0.00    -0.237 OA
ATOM     83  O   UNL A   1      41.509  22.879  28.122  1.00  0.00    -0.237 OA
ATOM     84  O   UNL A   1      39.655  23.088  26.510  1.00  0.00    -0.744 OA
ENDBRANCH  77  81
ENDBRANCH  50  74
BRANCH  62  85
ATOM     85  C   UNL A   1      44.586  27.514  34.128  1.00  0.00     0.023 A 
ATOM     86  C   UNL A   1      44.341  26.405  34.961  1.00  0.00     0.031 A 
ATOM     87  C   UNL A   1      45.896  28.012  34.047  1.00  0.00     0.131 A 
ATOM     88  C   UNL A   1      45.385  25.860  35.717  1.00  0.00     0.055 A 
ATOM     89  C   UNL A   1      46.941  27.439  34.771  1.00  0.00     0.041 A 
ATOM     90  F   UNL A   1      46.173  29.075  33.275  1.00  0.00    -0.206 F 
ATOM     91  C   UNL A   1      46.685  26.367  35.622  1.00  0.00     0.022 A 
BRANCH  88  92
ATOM     92  S   UNL A   1      45.079  24.526  36.908  1.00  0.00     0.124 S 
ATOM     93  O   UNL A   1      43.795  24.920  37.483  1.00  0.00    -0.237 OA
ATOM     94  O   UNL A   1      45.041  23.349  36.044  1.00  0.00    -0.237 OA
ATOM     95  O   UNL A   1      46.215  24.601  37.820  1.00  0.00    -0.744 OA
ENDBRANCH  88  92
ENDBRANCH  62  85
ENDBRANCH  36  37
ENDBRANCH  28  31
ENDBRANCH  26  27
ENDBRANCH  25  26
ENDBRANCH   1  25
TORSDOF 17
ENDMDL
