MODEL 1
REMARK VINA RESULT:     -11.0      0.000      0.000
REMARK SMILES COc1ccc([C@H]2CC(c3ccc(S(C)(=O)=O)cc3)=NN2c2ccc(C(=O)NCCCCCCNC(=O)c3ccc(-c4c5nc(c(-c6cc(S(=O)(=O)[O-])ccc6F)c6ccc([nH]6)c(-c6cc(S(=O)(=O)[O-])ccc6F)c6nc(c(-c7cc(S(=O)(=O)[O-])ccc7F)c7ccc4[nH]7)C=C6)C=C5)cc3)cc2)cc1OC
REMARK SMILES IDX 31 1 30 2 29 3 28 4 26 5 27 6 25 8 22 9 23 10 102 11 24 12
REMARK SMILES IDX 101 13 21 14 7 15 8 16 9 17 20 18 6 19 3 20 4 21 104 22 5 23
REMARK SMILES IDX 103 24 2 25 1 26 105 27 106 28 10 29 11 30 19 31 12 32 18 33
REMARK SMILES IDX 13 34 14 35 15 36 16 37 17 38 32 39 33 40 34 41 35 42 36 43
REMARK SMILES IDX 37 45 38 46 39 47 100 48 40 49 99 50 41 51 42 52 43 53 93 54
REMARK SMILES IDX 44 55 98 56 92 57 94 58 45 59 97 60 91 61 90 62 46 64 78 65
REMARK SMILES IDX 58 66 77 67 59 68 62 69 76 70 95 71 60 72 61 73 75 75 96 76
REMARK SMILES IDX 63 77 47 78 48 79 56 80 49 81 55 82 57 83 54 84 50 85 51 86
REMARK SMILES IDX 52 87 53 88 79 89 80 90 88 91 81 92 87 93 89 94 86 95 82 96
REMARK SMILES IDX 83 97 84 98 85 99 64 100 65 101 73 102 66 103 72 104 74 105
REMARK SMILES IDX 71 106 67 107 68 108 69 109 70 110
REMARK H PARENT 28 7 35 44 94 63 62 74
REMARK Flexibility Score: inf
ROOT
ATOM      1  C   UNL A   1      38.689  28.133  28.943  1.00  0.00     0.002 C 
ENDROOT
BRANCH   1   2
ATOM      2  C   UNL A   1      37.876  29.316  28.399  1.00  0.00     0.021 C 
BRANCH   2   3
ATOM      3  C   UNL A   1      36.559  29.523  29.150  1.00  0.00     0.116 C 
BRANCH   3   4
ATOM      4  N   UNL A   1      35.846  30.644  28.573  1.00  0.00    -0.352 N 
ATOM      5  C   UNL A   1      34.782  30.723  27.716  1.00  0.00     0.251 C 
ATOM      6  O   UNL A   1      34.429  31.847  27.355  1.00  0.00    -0.269 OA
ATOM      7  H   UNL A   1      36.194  31.522  28.854  1.00  0.00     0.163 HD
BRANCH   5   8
ATOM      8  C   UNL A   1      34.002  29.535  27.270  1.00  0.00     0.039 A 
ATOM      9  C   UNL A   1      32.661  27.289  26.201  1.00  0.00     0.060 A 
ATOM     10  C   UNL A   1      34.016  27.507  25.936  1.00  0.00     0.029 A 
ATOM     11  C   UNL A   1      32.003  28.172  27.057  1.00  0.00     0.029 A 
ATOM     12  C   UNL A   1      34.675  28.627  26.444  1.00  0.00     0.016 A 
ATOM     13  C   UNL A   1      32.680  29.258  27.626  1.00  0.00     0.016 A 
BRANCH   9  14
ATOM     14  N   UNL A   1      32.024  26.191  25.661  1.00  0.00    -0.257 N 
ATOM     15  C   UNL A   1      30.597  26.105  25.346  1.00  0.00     0.144 C 
ATOM     16  C   UNL A   1      30.441  24.630  24.933  1.00  0.00     0.091 C 
ATOM     17  C   UNL A   1      31.850  24.149  25.135  1.00  0.00     0.071 C 
ATOM     18  N   UNL A   1      32.706  25.030  25.540  1.00  0.00    -0.176 NA
BRANCH  15  19
ATOM     19  C   UNL A   1      30.215  27.071  24.235  1.00  0.00    -0.019 A 
ATOM     20  C   UNL A   1      29.528  28.955  22.247  1.00  0.00     0.160 A 
ATOM     21  C   UNL A   1      28.535  28.208  22.896  1.00  0.00     0.051 A 
ATOM     22  C   UNL A   1      30.872  28.772  22.584  1.00  0.00     0.161 A 
ATOM     23  C   UNL A   1      28.875  27.267  23.877  1.00  0.00     0.010 A 
ATOM     24  C   UNL A   1      31.196  27.829  23.570  1.00  0.00     0.056 A 
BRANCH  20  25
ATOM     25  O   UNL A   1      29.139  29.946  21.385  1.00  0.00    -0.493 OA
ATOM     26  C   UNL A   1      28.810  31.156  22.065  1.00  0.00     0.278 C 
ENDBRANCH  20  25
BRANCH  22  27
ATOM     27  O   UNL A   1      31.973  29.425  22.100  1.00  0.00    -0.493 OA
ATOM     28  C   UNL A   1      33.255  28.934  22.456  1.00  0.00     0.278 C 
ENDBRANCH  22  27
ENDBRANCH  15  19
BRANCH  17  29
ATOM     29  C   UNL A   1      32.234  22.752  24.926  1.00  0.00    -0.002 A 
ATOM     30  C   UNL A   1      32.003  22.184  23.668  1.00  0.00     0.011 A 
ATOM     31  C   UNL A   1      32.728  21.986  25.983  1.00  0.00     0.011 A 
ATOM     32  C   UNL A   1      32.280  20.835  23.456  1.00  0.00     0.021 A 
ATOM     33  C   UNL A   1      32.982  20.629  25.780  1.00  0.00     0.021 A 
ATOM     34  C   UNL A   1      32.750  20.060  24.521  1.00  0.00     0.067 A 
BRANCH  34  35
ATOM     35  S   UNL A   1      33.047  18.327  24.262  1.00  0.00     0.175 S 
ATOM     36  C   UNL A   1      32.528  18.039  22.590  1.00  0.00     0.163 C 
ATOM     37  O   UNL A   1      34.486  18.134  24.334  1.00  0.00    -0.224 OA
ATOM     38  O   UNL A   1      32.153  17.591  25.129  1.00  0.00    -0.224 OA
ENDBRANCH  34  35
ENDBRANCH  17  29
ENDBRANCH   9  14
ENDBRANCH   5   8
ENDBRANCH   3   4
ENDBRANCH   2   3
ENDBRANCH   1   2
BRANCH   1  39
ATOM     39  C   UNL A   1      39.628  27.483  27.919  1.00  0.00     0.002 C 
BRANCH  39  40
ATOM     40  C   UNL A   1      39.654  25.953  27.956  1.00  0.00     0.021 C 
BRANCH  40  41
ATOM     41  C   UNL A   1      39.545  25.297  26.583  1.00  0.00     0.116 C 
BRANCH  41  42
ATOM     42  N   UNL A   1      40.203  24.002  26.562  1.00  0.00    -0.352 N 
ATOM     43  C   UNL A   1      41.528  23.708  26.361  1.00  0.00     0.251 C 
ATOM     44  H   UNL A   1      39.616  23.227  26.713  1.00  0.00     0.163 HD
ATOM     45  O   UNL A   1      41.861  22.554  26.107  1.00  0.00    -0.269 OA
BRANCH  43  46
ATOM     46  C   UNL A   1      42.541  24.781  26.442  1.00  0.00     0.039 A 
ATOM     47  C   UNL A   1      43.232  24.971  27.641  1.00  0.00     0.014 A 
ATOM     48  C   UNL A   1      42.784  25.622  25.351  1.00  0.00     0.014 A 
ATOM     49  C   UNL A   1      44.185  25.986  27.737  1.00  0.00     0.010 A 
ATOM     50  C   UNL A   1      43.790  26.582  25.424  1.00  0.00     0.010 A 
ATOM     51  C   UNL A   1      44.483  26.790  26.626  1.00  0.00    -0.014 A 
BRANCH  51  52
ATOM     52  C   UNL A   1      45.486  27.881  26.719  1.00  0.00     0.031 A 
ATOM     53  C   UNL A   1      45.068  29.247  27.195  1.00  0.00     0.074 A 
ATOM     54  C   UNL A   1      46.755  27.658  26.328  1.00  0.00     0.049 A 
ATOM     55  N   UNL A   1      45.778  30.341  27.308  1.00  0.00    -0.248 NA
ATOM     56  C   UNL A   1      43.652  29.410  27.556  1.00  0.00     0.031 C 
ATOM     57  C   UNL A   1      47.262  26.392  25.795  1.00  0.00     0.029 A 
ATOM     58  N   UNL A   1      47.846  28.488  26.309  1.00  0.00    -0.354 N 
ATOM     59  C   UNL A   1      44.891  31.326  27.732  1.00  0.00     0.074 A 
ATOM     60  C   UNL A   1      43.581  30.712  27.786  1.00  0.00     0.031 C 
ATOM     61  C   UNL A   1      48.570  26.524  25.523  1.00  0.00     0.029 A 
ATOM     62  C   UNL A   1      48.986  27.890  25.826  1.00  0.00     0.049 A 
ATOM     63  H   UNL A   1      47.816  29.424  26.614  1.00  0.00     0.167 HD
ATOM     64  C   UNL A   1      45.150  32.613  28.072  1.00  0.00     0.034 A 
ATOM     65  C   UNL A   1      50.224  28.388  25.641  1.00  0.00     0.034 A 
ATOM     66  C   UNL A   1      46.469  33.198  28.025  1.00  0.00     0.049 A 
ATOM     67  C   UNL A   1      50.498  29.816  26.034  1.00  0.00     0.074 A 
ATOM     68  C   UNL A   1      46.866  34.467  28.411  1.00  0.00     0.029 A 
ATOM     69  N   UNL A   1      47.608  32.555  27.552  1.00  0.00    -0.354 N 
ATOM     70  N   UNL A   1      49.666  30.719  26.502  1.00  0.00    -0.248 NA
ATOM     71  C   UNL A   1      51.881  30.285  25.893  1.00  0.00     0.031 C 
ATOM     72  C   UNL A   1      48.224  34.615  28.102  1.00  0.00     0.029 A 
ATOM     73  C   UNL A   1      48.698  33.412  27.603  1.00  0.00     0.049 A 
ATOM     74  H   UNL A   1      47.637  31.627  27.227  1.00  0.00     0.167 HD
ATOM     75  C   UNL A   1      50.433  31.856  26.738  1.00  0.00     0.074 A 
ATOM     76  C   UNL A   1      51.796  31.516  26.374  1.00  0.00     0.031 C 
ATOM     77  C   UNL A   1      50.049  33.068  27.217  1.00  0.00     0.034 A 
BRANCH  64  78
ATOM     78  C   UNL A   1      43.974  33.471  28.486  1.00  0.00     0.023 A 
ATOM     79  C   UNL A   1      43.349  33.319  29.738  1.00  0.00     0.031 A 
ATOM     80  C   UNL A   1      43.429  34.413  27.595  1.00  0.00     0.131 A 
ATOM     81  C   UNL A   1      42.162  34.014  30.020  1.00  0.00     0.055 A 
ATOM     82  C   UNL A   1      42.305  35.174  27.922  1.00  0.00     0.041 A 
ATOM     83  F   UNL A   1      43.966  34.594  26.378  1.00  0.00    -0.206 F 
ATOM     84  C   UNL A   1      41.650  34.961  29.131  1.00  0.00     0.022 A 
BRANCH  81  85
ATOM     85  S   UNL A   1      41.200  33.522  31.478  1.00  0.00     0.124 S 
ATOM     86  O   UNL A   1      42.233  33.474  32.510  1.00  0.00    -0.237 OA
ATOM     87  O   UNL A   1      40.229  34.603  31.594  1.00  0.00    -0.237 OA
ATOM     88  O   UNL A   1      40.648  32.222  31.100  1.00  0.00    -0.744 OA
ENDBRANCH  81  85
ENDBRANCH  64  78
BRANCH  65  89
ATOM     89  C   UNL A   1      51.292  27.528  25.056  1.00  0.00     0.023 A 
ATOM     90  C   UNL A   1      51.690  27.671  23.718  1.00  0.00     0.031 A 
ATOM     91  C   UNL A   1      51.931  26.547  25.835  1.00  0.00     0.131 A 
ATOM     92  C   UNL A   1      52.676  26.822  23.189  1.00  0.00     0.055 A 
ATOM     93  C   UNL A   1      52.943  25.738  25.318  1.00  0.00     0.041 A 
ATOM     94  F   UNL A   1      51.594  26.379  27.124  1.00  0.00    -0.206 F 
ATOM     95  C   UNL A   1      53.314  25.867  23.983  1.00  0.00     0.022 A 
BRANCH  92  96
ATOM     96  S   UNL A   1      53.079  26.950  21.425  1.00  0.00     0.124 S 
ATOM     97  O   UNL A   1      54.491  26.584  21.416  1.00  0.00    -0.237 OA
ATOM     98  O   UNL A   1      52.161  25.983  20.833  1.00  0.00    -0.237 OA
ATOM     99  O   UNL A   1      52.793  28.349  21.112  1.00  0.00    -0.744 OA
ENDBRANCH  92  96
ENDBRANCH  65  89
BRANCH  77 100
ATOM    100  C   UNL A   1      51.132  34.102  27.412  1.00  0.00     0.023 A 
ATOM    101  C   UNL A   1      51.870  34.189  28.605  1.00  0.00     0.031 A 
ATOM    102  C   UNL A   1      51.417  35.027  26.391  1.00  0.00     0.131 A 
ATOM    103  C   UNL A   1      52.809  35.218  28.773  1.00  0.00     0.055 A 
ATOM    104  C   UNL A   1      52.401  36.005  26.537  1.00  0.00     0.041 A 
ATOM    105  F   UNL A   1      50.743  34.993  25.230  1.00  0.00    -0.206 F 
ATOM    106  C   UNL A   1      53.093  36.115  27.739  1.00  0.00     0.022 A 
BRANCH 103 107
ATOM    107  S   UNL A   1      53.579  35.437  30.400  1.00  0.00     0.124 S 
ATOM    108  O   UNL A   1      53.205  34.201  31.081  1.00  0.00    -0.237 OA
ATOM    109  O   UNL A   1      54.991  35.577  30.062  1.00  0.00    -0.237 OA
ATOM    110  O   UNL A   1      52.944  36.647  30.921  1.00  0.00    -0.744 OA
ENDBRANCH 103 107
ENDBRANCH  77 100
ENDBRANCH  51  52
ENDBRANCH  43  46
ENDBRANCH  41  42
ENDBRANCH  40  41
ENDBRANCH  39  40
ENDBRANCH   1  39
TORSDOF 22
ENDMDL
MODEL 2
REMARK VINA RESULT:     -11.0      3.906      6.173
REMARK SMILES COc1ccc([C@H]2CC(c3ccc(S(C)(=O)=O)cc3)=NN2c2ccc(C(=O)NCCCCCCNC(=O)c3ccc(-c4c5nc(c(-c6cc(S(=O)(=O)[O-])ccc6F)c6ccc([nH]6)c(-c6cc(S(=O)(=O)[O-])ccc6F)c6nc(c(-c7cc(S(=O)(=O)[O-])ccc7F)c7ccc4[nH]7)C=C6)C=C5)cc3)cc2)cc1OC
REMARK SMILES IDX 31 1 30 2 29 3 28 4 26 5 27 6 25 8 22 9 23 10 102 11 24 12
REMARK SMILES IDX 101 13 21 14 7 15 8 16 9 17 20 18 6 19 3 20 4 21 104 22 5 23
REMARK SMILES IDX 103 24 2 25 1 26 105 27 106 28 10 29 11 30 19 31 12 32 18 33
REMARK SMILES IDX 13 34 14 35 15 36 16 37 17 38 32 39 33 40 34 41 35 42 36 43
REMARK SMILES IDX 37 45 38 46 39 47 100 48 40 49 99 50 41 51 42 52 43 53 93 54
REMARK SMILES IDX 44 55 98 56 92 57 94 58 45 59 97 60 91 61 90 62 46 64 78 65
REMARK SMILES IDX 58 66 77 67 59 68 62 69 76 70 95 71 60 72 61 73 75 75 96 76
REMARK SMILES IDX 63 77 47 78 48 79 56 80 49 81 55 82 57 83 54 84 50 85 51 86
REMARK SMILES IDX 52 87 53 88 79 89 80 90 88 91 81 92 87 93 89 94 86 95 82 96
REMARK SMILES IDX 83 97 84 98 85 99 64 100 65 101 73 102 66 103 72 104 74 105
REMARK SMILES IDX 71 106 67 107 68 108 69 109 70 110
REMARK H PARENT 28 7 35 44 94 63 62 74
REMARK Flexibility Score: inf
ROOT
ATOM      1  C   UNL A   1      38.637  27.689  29.101  1.00  0.00     0.002 C 
ENDROOT
BRANCH   1   2
ATOM      2  C   UNL A   1      37.956  28.983  28.632  1.00  0.00     0.021 C 
BRANCH   2   3
ATOM      3  C   UNL A   1      36.711  29.326  29.452  1.00  0.00     0.116 C 
BRANCH   3   4
ATOM      4  N   UNL A   1      36.010  30.429  28.827  1.00  0.00    -0.352 N 
ATOM      5  C   UNL A   1      34.995  30.480  27.910  1.00  0.00     0.251 C 
ATOM      6  O   UNL A   1      34.641  31.595  27.521  1.00  0.00    -0.269 OA
ATOM      7  H   UNL A   1      36.324  31.314  29.121  1.00  0.00     0.163 HD
BRANCH   5   8
ATOM      8  C   UNL A   1      34.265  29.275  27.430  1.00  0.00     0.039 A 
ATOM      9  C   UNL A   1      33.000  27.021  26.286  1.00  0.00     0.060 A 
ATOM     10  C   UNL A   1      34.312  27.358  25.941  1.00  0.00     0.029 A 
ATOM     11  C   UNL A   1      32.353  27.787  27.256  1.00  0.00     0.029 A 
ATOM     12  C   UNL A   1      34.931  28.482  26.486  1.00  0.00     0.016 A 
ATOM     13  C   UNL A   1      32.997  28.875  27.858  1.00  0.00     0.016 A 
BRANCH   9  14
ATOM     14  N   UNL A   1      32.398  25.922  25.709  1.00  0.00    -0.257 N 
ATOM     15  C   UNL A   1      30.974  25.797  25.398  1.00  0.00     0.144 C 
ATOM     16  C   UNL A   1      30.867  24.334  24.931  1.00  0.00     0.091 C 
ATOM     17  C   UNL A   1      32.293  23.896  25.107  1.00  0.00     0.071 C 
ATOM     18  N   UNL A   1      33.121  24.792  25.541  1.00  0.00    -0.176 NA
BRANCH  15  19
ATOM     19  C   UNL A   1      30.551  26.790  24.326  1.00  0.00    -0.019 A 
ATOM     20  C   UNL A   1      29.783  28.721  22.414  1.00  0.00     0.160 A 
ATOM     21  C   UNL A   1      28.824  27.900  23.025  1.00  0.00     0.051 A 
ATOM     22  C   UNL A   1      31.133  28.589  22.752  1.00  0.00     0.161 A 
ATOM     23  C   UNL A   1      29.204  26.937  23.968  1.00  0.00     0.010 A 
ATOM     24  C   UNL A   1      31.497  27.621  23.700  1.00  0.00     0.056 A 
BRANCH  20  25
ATOM     25  O   UNL A   1      29.350  29.728  21.592  1.00  0.00    -0.493 OA
ATOM     26  C   UNL A   1      28.030  30.159  21.914  1.00  0.00     0.278 C 
ENDBRANCH  20  25
BRANCH  22  27
ATOM     27  O   UNL A   1      32.203  29.313  22.302  1.00  0.00    -0.493 OA
ATOM     28  C   UNL A   1      33.506  28.805  22.542  1.00  0.00     0.278 C 
ENDBRANCH  22  27
ENDBRANCH  15  19
BRANCH  17  29
ATOM     29  C   UNL A   1      32.724  22.522  24.844  1.00  0.00    -0.002 A 
ATOM     30  C   UNL A   1      31.807  21.643  24.259  1.00  0.00     0.011 A 
ATOM     31  C   UNL A   1      33.984  22.083  25.254  1.00  0.00     0.011 A 
ATOM     32  C   UNL A   1      32.154  20.307  24.068  1.00  0.00     0.021 A 
ATOM     33  C   UNL A   1      34.325  20.740  25.087  1.00  0.00     0.021 A 
ATOM     34  C   UNL A   1      33.406  19.859  24.502  1.00  0.00     0.067 A 
BRANCH  34  35
ATOM     35  S   UNL A   1      33.823  18.142  24.309  1.00  0.00     0.175 S 
ATOM     36  C   UNL A   1      32.900  17.321  25.582  1.00  0.00     0.163 C 
ATOM     37  O   UNL A   1      33.296  17.725  23.020  1.00  0.00    -0.224 OA
ATOM     38  O   UNL A   1      35.227  17.990  24.623  1.00  0.00    -0.224 OA
ENDBRANCH  34  35
ENDBRANCH  17  29
ENDBRANCH   9  14
ENDBRANCH   5   8
ENDBRANCH   3   4
ENDBRANCH   2   3
ENDBRANCH   1   2
BRANCH   1  39
ATOM     39  C   UNL A   1      39.945  27.360  28.370  1.00  0.00     0.002 C 
BRANCH  39  40
ATOM     40  C   UNL A   1      40.038  25.927  27.839  1.00  0.00     0.021 C 
BRANCH  40  41
ATOM     41  C   UNL A   1      40.016  25.827  26.317  1.00  0.00     0.116 C 
BRANCH  41  42
ATOM     42  N   UNL A   1      41.278  25.323  25.803  1.00  0.00    -0.352 N 
ATOM     43  C   UNL A   1      42.487  25.962  25.701  1.00  0.00     0.251 C 
ATOM     44  H   UNL A   1      41.262  24.392  25.482  1.00  0.00     0.163 HD
ATOM     45  O   UNL A   1      43.370  25.479  24.997  1.00  0.00    -0.269 OA
BRANCH  43  46
ATOM     46  C   UNL A   1      42.715  27.228  26.430  1.00  0.00     0.039 A 
ATOM     47  C   UNL A   1      43.458  27.203  27.613  1.00  0.00     0.014 A 
ATOM     48  C   UNL A   1      42.168  28.429  25.969  1.00  0.00     0.014 A 
ATOM     49  C   UNL A   1      43.674  28.388  28.317  1.00  0.00     0.010 A 
ATOM     50  C   UNL A   1      42.451  29.621  26.631  1.00  0.00     0.010 A 
ATOM     51  C   UNL A   1      43.186  29.609  27.825  1.00  0.00    -0.014 A 
BRANCH  51  52
ATOM     52  C   UNL A   1      43.399  30.874  28.572  1.00  0.00     0.031 A 
ATOM     53  C   UNL A   1      42.473  31.246  29.699  1.00  0.00     0.074 A 
ATOM     54  C   UNL A   1      44.390  31.709  28.205  1.00  0.00     0.049 A 
ATOM     55  N   UNL A   1      42.462  32.321  30.446  1.00  0.00    -0.248 NA
ATOM     56  C   UNL A   1      41.391  30.296  29.999  1.00  0.00     0.031 C 
ATOM     57  C   UNL A   1      45.314  31.482  27.092  1.00  0.00     0.029 A 
ATOM     58  N   UNL A   1      44.780  32.918  28.720  1.00  0.00    -0.354 N 
ATOM     59  C   UNL A   1      41.362  32.186  31.288  1.00  0.00     0.074 A 
ATOM     60  C   UNL A   1      40.694  30.959  30.908  1.00  0.00     0.031 C 
ATOM     61  C   UNL A   1      46.177  32.507  27.023  1.00  0.00     0.029 A 
ATOM     62  C   UNL A   1      45.846  33.482  28.059  1.00  0.00     0.049 A 
ATOM     63  H   UNL A   1      44.338  33.344  29.491  1.00  0.00     0.167 HD
ATOM     64  C   UNL A   1      40.965  32.995  32.302  1.00  0.00     0.034 A 
ATOM     65  C   UNL A   1      46.482  34.652  28.261  1.00  0.00     0.034 A 
ATOM     66  C   UNL A   1      41.658  34.207  32.672  1.00  0.00     0.049 A 
ATOM     67  C   UNL A   1      46.035  35.533  29.398  1.00  0.00     0.074 A 
ATOM     68  C   UNL A   1      41.391  35.068  33.722  1.00  0.00     0.029 A 
ATOM     69  N   UNL A   1      42.751  34.736  31.995  1.00  0.00    -0.354 N 
ATOM     70  N   UNL A   1      45.036  35.361  30.235  1.00  0.00    -0.248 NA
ATOM     71  C   UNL A   1      46.812  36.755  29.630  1.00  0.00     0.031 C 
ATOM     72  C   UNL A   1      42.273  36.153  33.634  1.00  0.00     0.029 A 
ATOM     73  C   UNL A   1      43.147  35.929  32.582  1.00  0.00     0.049 A 
ATOM     74  H   UNL A   1      43.181  34.324  31.211  1.00  0.00     0.167 HD
ATOM     75  C   UNL A   1      45.084  36.441  31.111  1.00  0.00     0.074 A 
ATOM     76  C   UNL A   1      46.219  37.249  30.707  1.00  0.00     0.031 C 
ATOM     77  C   UNL A   1      44.269  36.736  32.157  1.00  0.00     0.034 A 
BRANCH  64  78
ATOM     78  C   UNL A   1      39.706  32.605  33.047  1.00  0.00     0.023 A 
ATOM     79  C   UNL A   1      38.447  33.130  32.702  1.00  0.00     0.031 A 
ATOM     80  C   UNL A   1      39.773  31.744  34.157  1.00  0.00     0.131 A 
ATOM     81  C   UNL A   1      37.332  32.876  33.517  1.00  0.00     0.055 A 
ATOM     82  C   UNL A   1      38.640  31.416  34.906  1.00  0.00     0.041 A 
ATOM     83  F   UNL A   1      40.946  31.225  34.551  1.00  0.00    -0.206 F 
ATOM     84  C   UNL A   1      37.414  32.001  34.602  1.00  0.00     0.022 A 
BRANCH  81  85
ATOM     85  S   UNL A   1      35.827  33.853  33.250  1.00  0.00     0.124 S 
ATOM     86  O   UNL A   1      35.397  33.379  31.936  1.00  0.00    -0.237 OA
ATOM     87  O   UNL A   1      34.991  33.458  34.377  1.00  0.00    -0.237 OA
ATOM     88  O   UNL A   1      36.306  35.234  33.279  1.00  0.00    -0.744 OA
ENDBRANCH  81  85
ENDBRANCH  64  78
BRANCH  65  89
ATOM     89  C   UNL A   1      47.604  35.054  27.367  1.00  0.00     0.023 A 
ATOM     90  C   UNL A   1      48.921  34.644  27.622  1.00  0.00     0.031 A 
ATOM     91  C   UNL A   1      47.369  35.859  26.238  1.00  0.00     0.131 A 
ATOM     92  C   UNL A   1      49.961  35.069  26.778  1.00  0.00     0.055 A 
ATOM     93  C   UNL A   1      48.398  36.239  25.376  1.00  0.00     0.041 A 
ATOM     94  F   UNL A   1      46.124  36.268  25.943  1.00  0.00    -0.206 F 
ATOM     95  C   UNL A   1      49.705  35.851  25.650  1.00  0.00     0.022 A 
BRANCH  92  96
ATOM     96  S   UNL A   1      51.666  34.624  27.206  1.00  0.00     0.124 S 
ATOM     97  O   UNL A   1      52.338  34.746  25.917  1.00  0.00    -0.237 OA
ATOM     98  O   UNL A   1      52.002  35.633  28.204  1.00  0.00    -0.237 OA
ATOM     99  O   UNL A   1      51.543  33.261  27.720  1.00  0.00    -0.744 OA
ENDBRANCH  92  96
ENDBRANCH  65  89
BRANCH  77 100
ATOM    100  C   UNL A   1      44.607  37.969  32.962  1.00  0.00     0.023 A 
ATOM    101  C   UNL A   1      45.418  37.908  34.109  1.00  0.00     0.031 A 
ATOM    102  C   UNL A   1      44.093  39.222  32.583  1.00  0.00     0.131 A 
ATOM    103  C   UNL A   1      45.637  39.065  34.872  1.00  0.00     0.055 A 
ATOM    104  C   UNL A   1      44.371  40.381  33.308  1.00  0.00     0.041 A 
ATOM    105  F   UNL A   1      43.310  39.341  31.498  1.00  0.00    -0.206 F 
ATOM    106  C   UNL A   1      45.135  40.304  34.468  1.00  0.00     0.022 A 
BRANCH 103 107
ATOM    107  S   UNL A   1      46.498  38.908  36.461  1.00  0.00     0.124 S 
ATOM    108  O   UNL A   1      47.897  39.024  36.061  1.00  0.00    -0.237 OA
ATOM    109  O   UNL A   1      45.958  40.031  37.221  1.00  0.00    -0.237 OA
ATOM    110  O   UNL A   1      46.098  37.586  36.940  1.00  0.00    -0.744 OA
ENDBRANCH 103 107
ENDBRANCH  77 100
ENDBRANCH  51  52
ENDBRANCH  43  46
ENDBRANCH  41  42
ENDBRANCH  40  41
ENDBRANCH  39  40
ENDBRANCH   1  39
TORSDOF 22
ENDMDL
MODEL 3
REMARK VINA RESULT:     -10.7      5.539     14.045
REMARK SMILES COc1ccc([C@H]2CC(c3ccc(S(C)(=O)=O)cc3)=NN2c2ccc(C(=O)NCCCCCCNC(=O)c3ccc(-c4c5nc(c(-c6cc(S(=O)(=O)[O-])ccc6F)c6ccc([nH]6)c(-c6cc(S(=O)(=O)[O-])ccc6F)c6nc(c(-c7cc(S(=O)(=O)[O-])ccc7F)c7ccc4[nH]7)C=C6)C=C5)cc3)cc2)cc1OC
REMARK SMILES IDX 31 1 30 2 29 3 28 4 26 5 27 6 25 8 22 9 23 10 102 11 24 12
REMARK SMILES IDX 101 13 21 14 7 15 8 16 9 17 20 18 6 19 3 20 4 21 104 22 5 23
REMARK SMILES IDX 103 24 2 25 1 26 105 27 106 28 10 29 11 30 19 31 12 32 18 33
REMARK SMILES IDX 13 34 14 35 15 36 16 37 17 38 32 39 33 40 34 41 35 42 36 43
REMARK SMILES IDX 37 45 38 46 39 47 100 48 40 49 99 50 41 51 42 52 43 53 93 54
REMARK SMILES IDX 44 55 98 56 92 57 94 58 45 59 97 60 91 61 90 62 46 64 78 65
REMARK SMILES IDX 58 66 77 67 59 68 62 69 76 70 95 71 60 72 61 73 75 75 96 76
REMARK SMILES IDX 63 77 47 78 48 79 56 80 49 81 55 82 57 83 54 84 50 85 51 86
REMARK SMILES IDX 52 87 53 88 79 89 80 90 88 91 81 92 87 93 89 94 86 95 82 96
REMARK SMILES IDX 83 97 84 98 85 99 64 100 65 101 73 102 66 103 72 104 74 105
REMARK SMILES IDX 71 106 67 107 68 108 69 109 70 110
REMARK H PARENT 28 7 35 44 94 63 62 74
REMARK Flexibility Score: inf
ROOT
ATOM      1  C   UNL A   1      47.934  34.322  26.500  1.00  0.00     0.002 C 
ENDROOT
BRANCH   1   2
ATOM      2  C   UNL A   1      48.603  33.365  27.497  1.00  0.00     0.021 C 
BRANCH   2   3
ATOM      3  C   UNL A   1      50.131  33.406  27.420  1.00  0.00     0.116 C 
BRANCH   3   4
ATOM      4  N   UNL A   1      50.583  32.553  26.341  1.00  0.00    -0.352 N 
ATOM      5  C   UNL A   1      50.987  31.246  26.300  1.00  0.00     0.251 C 
ATOM      6  O   UNL A   1      51.376  30.808  25.216  1.00  0.00    -0.269 OA
ATOM      7  H   UNL A   1      50.603  33.001  25.464  1.00  0.00     0.163 HD
BRANCH   5   8
ATOM      8  C   UNL A   1      50.906  30.329  27.470  1.00  0.00     0.039 A 
ATOM      9  C   UNL A   1      50.490  28.626  29.687  1.00  0.00     0.060 A 
ATOM     10  C   UNL A   1      49.557  28.690  28.649  1.00  0.00     0.029 A 
ATOM     11  C   UNL A   1      51.661  29.375  29.573  1.00  0.00     0.029 A 
ATOM     12  C   UNL A   1      49.748  29.546  27.564  1.00  0.00     0.016 A 
ATOM     13  C   UNL A   1      51.890  30.181  28.451  1.00  0.00     0.016 A 
BRANCH   9  14
ATOM     14  N   UNL A   1      50.263  27.795  30.765  1.00  0.00    -0.257 N 
ATOM     15  C   UNL A   1      49.354  28.073  31.877  1.00  0.00     0.144 C 
ATOM     16  C   UNL A   1      49.630  26.895  32.829  1.00  0.00     0.091 C 
ATOM     17  C   UNL A   1      50.701  26.177  32.056  1.00  0.00     0.071 C 
ATOM     18  N   UNL A   1      51.035  26.695  30.919  1.00  0.00    -0.176 NA
BRANCH  15  19
ATOM     19  C   UNL A   1      47.907  28.126  31.412  1.00  0.00    -0.019 A 
ATOM     20  C   UNL A   1      45.186  28.226  30.663  1.00  0.00     0.160 A 
ATOM     21  C   UNL A   1      45.919  27.038  30.532  1.00  0.00     0.051 A 
ATOM     22  C   UNL A   1      45.801  29.375  31.170  1.00  0.00     0.161 A 
ATOM     23  C   UNL A   1      47.271  26.989  30.896  1.00  0.00     0.010 A 
ATOM     24  C   UNL A   1      47.154  29.309  31.533  1.00  0.00     0.056 A 
BRANCH  20  25
ATOM     25  O   UNL A   1      43.840  28.193  30.410  1.00  0.00    -0.493 OA
ATOM     26  C   UNL A   1      43.098  27.656  31.503  1.00  0.00     0.278 C 
ENDBRANCH  20  25
BRANCH  22  27
ATOM     27  O   UNL A   1      45.253  30.606  31.408  1.00  0.00    -0.493 OA
ATOM     28  C   UNL A   1      44.392  30.753  32.525  1.00  0.00     0.278 C 
ENDBRANCH  22  27
ENDBRANCH  15  19
BRANCH  17  29
ATOM     29  C   UNL A   1      51.364  24.979  32.574  1.00  0.00    -0.002 A 
ATOM     30  C   UNL A   1      52.732  25.051  32.856  1.00  0.00     0.011 A 
ATOM     31  C   UNL A   1      50.665  23.777  32.691  1.00  0.00     0.011 A 
ATOM     32  C   UNL A   1      53.414  23.909  33.273  1.00  0.00     0.021 A 
ATOM     33  C   UNL A   1      51.351  22.626  33.083  1.00  0.00     0.021 A 
ATOM     34  C   UNL A   1      52.722  22.697  33.365  1.00  0.00     0.067 A 
BRANCH  34  35
ATOM     35  S   UNL A   1      53.607  21.231  33.842  1.00  0.00     0.175 S 
ATOM     36  C   UNL A   1      52.514  20.408  34.970  1.00  0.00     0.163 C 
ATOM     37  O   UNL A   1      53.734  20.412  32.647  1.00  0.00    -0.224 OA
ATOM     38  O   UNL A   1      54.775  21.644  34.590  1.00  0.00    -0.224 OA
ENDBRANCH  34  35
ENDBRANCH  17  29
ENDBRANCH   9  14
ENDBRANCH   5   8
ENDBRANCH   3   4
ENDBRANCH   2   3
ENDBRANCH   1   2
BRANCH   1  39
ATOM     39  C   UNL A   1      48.754  35.577  26.176  1.00  0.00     0.002 C 
BRANCH  39  40
ATOM     40  C   UNL A   1      48.378  36.816  26.992  1.00  0.00     0.021 C 
BRANCH  40  41
ATOM     41  C   UNL A   1      48.486  36.621  28.501  1.00  0.00     0.116 C 
BRANCH  41  42
ATOM     42  N   UNL A   1      47.529  37.453  29.210  1.00  0.00    -0.352 N 
ATOM     43  C   UNL A   1      46.196  37.230  29.447  1.00  0.00     0.251 C 
ATOM     44  H   UNL A   1      47.888  38.296  29.571  1.00  0.00     0.163 HD
ATOM     45  O   UNL A   1      45.484  38.156  29.822  1.00  0.00    -0.269 OA
BRANCH  43  46
ATOM     46  C   UNL A   1      45.628  35.881  29.241  1.00  0.00     0.039 A 
ATOM     47  C   UNL A   1      45.899  34.881  30.178  1.00  0.00     0.014 A 
ATOM     48  C   UNL A   1      44.860  35.592  28.108  1.00  0.00     0.014 A 
ATOM     49  C   UNL A   1      45.378  33.600  29.993  1.00  0.00     0.010 A 
ATOM     50  C   UNL A   1      44.276  34.336  27.967  1.00  0.00     0.010 A 
ATOM     51  C   UNL A   1      44.550  33.320  28.894  1.00  0.00    -0.014 A 
BRANCH  51  52
ATOM     52  C   UNL A   1      43.999  31.958  28.680  1.00  0.00     0.031 A 
ATOM     53  C   UNL A   1      42.670  31.583  29.279  1.00  0.00     0.074 A 
ATOM     54  C   UNL A   1      44.714  31.048  27.991  1.00  0.00     0.049 A 
ATOM     55  N   UNL A   1      42.036  30.438  29.244  1.00  0.00    -0.248 NA
ATOM     56  C   UNL A   1      41.982  32.626  30.054  1.00  0.00     0.031 C 
ATOM     57  C   UNL A   1      46.039  31.281  27.413  1.00  0.00     0.029 A 
ATOM     58  N   UNL A   1      44.434  29.746  27.669  1.00  0.00    -0.354 N 
ATOM     59  C   UNL A   1      40.887  30.617  30.008  1.00  0.00     0.074 A 
ATOM     60  C   UNL A   1      40.952  31.958  30.549  1.00  0.00     0.031 C 
ATOM     61  C   UNL A   1      46.447  30.165  26.788  1.00  0.00     0.029 A 
ATOM     62  C   UNL A   1      45.431  29.128  26.952  1.00  0.00     0.049 A 
ATOM     63  H   UNL A   1      43.597  29.295  27.926  1.00  0.00     0.167 HD
ATOM     64  C   UNL A   1      39.862  29.754  30.215  1.00  0.00     0.034 A 
ATOM     65  C   UNL A   1      45.521  27.868  26.484  1.00  0.00     0.034 A 
ATOM     66  C   UNL A   1      39.812  28.426  29.650  1.00  0.00     0.049 A 
ATOM     67  C   UNL A   1      44.369  26.925  26.713  1.00  0.00     0.074 A 
ATOM     68  C   UNL A   1      38.797  27.489  29.731  1.00  0.00     0.029 A 
ATOM     69  N   UNL A   1      40.832  27.840  28.907  1.00  0.00    -0.354 N 
ATOM     70  N   UNL A   1      43.253  27.129  27.377  1.00  0.00    -0.248 NA
ATOM     71  C   UNL A   1      44.478  25.592  26.112  1.00  0.00     0.031 C 
ATOM     72  C   UNL A   1      39.231  26.315  29.103  1.00  0.00     0.029 A 
ATOM     73  C   UNL A   1      40.484  26.543  28.555  1.00  0.00     0.049 A 
ATOM     74  H   UNL A   1      41.678  28.280  28.666  1.00  0.00     0.167 HD
ATOM     75  C   UNL A   1      42.515  25.956  27.249  1.00  0.00     0.074 A 
ATOM     76  C   UNL A   1      43.309  25.058  26.432  1.00  0.00     0.031 C 
ATOM     77  C   UNL A   1      41.292  25.650  27.756  1.00  0.00     0.034 A 
BRANCH  64  78
ATOM     78  C   UNL A   1      38.737  30.217  31.116  1.00  0.00     0.023 A 
ATOM     79  C   UNL A   1      37.592  30.856  30.604  1.00  0.00     0.031 A 
ATOM     80  C   UNL A   1      38.836  30.074  32.511  1.00  0.00     0.131 A 
ATOM     81  C   UNL A   1      36.650  31.419  31.481  1.00  0.00     0.055 A 
ATOM     82  C   UNL A   1      37.845  30.549  33.374  1.00  0.00     0.041 A 
ATOM     83  F   UNL A   1      39.910  29.491  33.065  1.00  0.00    -0.206 F 
ATOM     84  C   UNL A   1      36.755  31.247  32.862  1.00  0.00     0.022 A 
BRANCH  81  85
ATOM     85  S   UNL A   1      35.396  32.537  30.797  1.00  0.00     0.124 S 
ATOM     86  O   UNL A   1      36.143  33.789  30.691  1.00  0.00    -0.237 OA
ATOM     87  O   UNL A   1      35.050  31.891  29.537  1.00  0.00    -0.237 OA
ATOM     88  O   UNL A   1      34.344  32.534  31.812  1.00  0.00    -0.744 OA
ENDBRANCH  81  85
ENDBRANCH  64  78
BRANCH  65  89
ATOM     89  C   UNL A   1      46.746  27.429  25.757  1.00  0.00     0.023 A 
ATOM     90  C   UNL A   1      46.974  27.800  24.424  1.00  0.00     0.031 A 
ATOM     91  C   UNL A   1      47.710  26.626  26.394  1.00  0.00     0.131 A 
ATOM     92  C   UNL A   1      48.122  27.341  23.757  1.00  0.00     0.055 A 
ATOM     93  C   UNL A   1      48.872  26.212  25.743  1.00  0.00     0.041 A 
ATOM     94  F   UNL A   1      47.544  26.254  27.674  1.00  0.00    -0.206 F 
ATOM     95  C   UNL A   1      49.078  26.562  24.413  1.00  0.00     0.022 A 
BRANCH  92  96
ATOM     96  S   UNL A   1      48.324  27.736  21.999  1.00  0.00     0.124 S 
ATOM     97  O   UNL A   1      48.495  26.411  21.414  1.00  0.00    -0.237 OA
ATOM     98  O   UNL A   1      47.071  28.416  21.695  1.00  0.00    -0.237 OA
ATOM     99  O   UNL A   1      49.512  28.587  21.977  1.00  0.00    -0.744 OA
ENDBRANCH  92  96
ENDBRANCH  65  89
BRANCH  77 100
ATOM    100  C   UNL A   1      40.723  24.297  27.401  1.00  0.00     0.023 A 
ATOM    101  C   UNL A   1      39.595  24.160  26.572  1.00  0.00     0.031 A 
ATOM    102  C   UNL A   1      41.310  23.127  27.916  1.00  0.00     0.131 A 
ATOM    103  C   UNL A   1      39.052  22.888  26.337  1.00  0.00     0.055 A 
ATOM    104  C   UNL A   1      40.805  21.860  27.622  1.00  0.00     0.041 A 
ATOM    105  F   UNL A   1      42.387  23.196  28.715  1.00  0.00    -0.206 F 
ATOM    106  C   UNL A   1      39.661  21.735  26.841  1.00  0.00     0.022 A 
BRANCH 103 107
ATOM    107  S   UNL A   1      37.473  22.766  25.452  1.00  0.00     0.124 S 
ATOM    108  O   UNL A   1      37.677  23.691  24.341  1.00  0.00    -0.237 OA
ATOM    109  O   UNL A   1      37.419  21.351  25.101  1.00  0.00    -0.237 OA
ATOM    110  O   UNL A   1      36.489  23.196  26.444  1.00  0.00    -0.744 OA
ENDBRANCH 103 107
ENDBRANCH  77 100
ENDBRANCH  51  52
ENDBRANCH  43  46
ENDBRANCH  41  42
ENDBRANCH  40  41
ENDBRANCH  39  40
ENDBRANCH   1  39
TORSDOF 22
ENDMDL
