MODEL 1
REMARK VINA RESULT:      -9.3      0.000      0.000
REMARK SMILES CC(=O)Oc1ccccc1SCCCCCC(=O)NCCCCCCNC(=O)c1ccc(-c2c3nc(c(-c4cc(S(=O)(=O)[O-])ccc4F)c4ccc([nH]4)c(-c4cc(S(=O)(=O)[O-])ccc4F)c4nc(c(-c5cc(S(=O)(=O)[O-])ccc5F)c5ccc2[nH]5)C=C4)C=C3)cc1
REMARK SMILES IDX 20 1 19 2 17 3 18 4 16 6 15 7 14 8 13 9 12 10 11 11 10 12
REMARK SMILES IDX 5 13 6 14 7 15 9 16 8 17 4 18 2 19 1 20 3 21 21 22 22 23
REMARK SMILES IDX 23 24 24 25 25 26 26 27 27 28 28 30 29 31 30 32 91 33 31 34
REMARK SMILES IDX 90 35 32 36 33 37 34 38 84 39 35 40 89 41 83 42 85 43 36 44
REMARK SMILES IDX 88 45 82 46 81 47 37 49 69 50 49 51 68 52 50 53 53 54 67 55
REMARK SMILES IDX 86 56 51 57 52 58 66 60 87 61 54 62 38 63 39 64 47 65 40 66
REMARK SMILES IDX 46 67 48 68 45 69 41 70 42 71 43 72 44 73 70 74 71 75 79 76
REMARK SMILES IDX 72 77 78 78 80 79 77 80 73 81 74 82 75 83 76 84 55 85 56 86
REMARK SMILES IDX 64 87 57 88 63 89 65 90 62 91 58 92 59 93 60 94 61 95
REMARK H PARENT 19 5 26 29 85 48 53 59
REMARK Flexibility Score: inf
ROOT
ATOM      1  C   UNL A   1      37.671  23.028  25.610  1.00  0.00     0.116 C 
ENDROOT
BRANCH   1   2
ATOM      2  N   UNL A   1      36.629  22.370  26.364  1.00  0.00    -0.356 N 
ATOM      3  C   UNL A   1      35.419  21.930  25.927  1.00  0.00     0.219 C 
ATOM      4  O   UNL A   1      34.612  21.492  26.747  1.00  0.00    -0.275 OA
ATOM      5  H   UNL A   1      36.819  22.223  27.318  1.00  0.00     0.163 HD
BRANCH   3   6
ATOM      6  C   UNL A   1      35.099  21.959  24.447  1.00  0.00     0.100 C 
BRANCH   6   7
ATOM      7  C   UNL A   1      34.397  23.235  23.979  1.00  0.00     0.010 C 
BRANCH   7   8
ATOM      8  C   UNL A   1      33.356  23.168  22.839  1.00  0.00     0.001 C 
BRANCH   8   9
ATOM      9  C   UNL A   1      31.878  22.925  23.167  1.00  0.00     0.011 C 
BRANCH   9  10
ATOM     10  C   UNL A   1      30.869  24.029  23.532  1.00  0.00     0.075 C 
BRANCH  10  11
ATOM     11  S   UNL A   1      30.776  24.988  25.075  1.00  0.00    -0.122 SA
BRANCH  11  12
ATOM     12  C   UNL A   1      30.411  26.671  24.646  1.00  0.00     0.050 A 
ATOM     13  C   UNL A   1      31.115  27.840  24.947  1.00  0.00     0.144 A 
ATOM     14  C   UNL A   1      30.830  29.040  24.267  1.00  0.00     0.048 A 
ATOM     15  C   UNL A   1      29.801  29.096  23.328  1.00  0.00     0.004 A 
ATOM     16  C   UNL A   1      29.316  26.779  23.765  1.00  0.00     0.019 A 
ATOM     17  C   UNL A   1      29.023  27.970  23.098  1.00  0.00     0.001 A 
BRANCH  13  18
ATOM     18  O   UNL A   1      32.332  27.901  25.677  1.00  0.00    -0.426 OA
BRANCH  18  19
ATOM     19  C   UNL A   1      33.646  27.709  25.252  1.00  0.00     0.308 C 
ATOM     20  C   UNL A   1      34.043  26.309  25.648  1.00  0.00     0.139 C 
ATOM     21  O   UNL A   1      34.349  28.507  24.665  1.00  0.00    -0.252 OA
ENDBRANCH  18  19
ENDBRANCH  13  18
ENDBRANCH  11  12
ENDBRANCH  10  11
ENDBRANCH   9  10
ENDBRANCH   8   9
ENDBRANCH   7   8
ENDBRANCH   6   7
ENDBRANCH   3   6
ENDBRANCH   1   2
BRANCH   1  22
ATOM     22  C   UNL A   1      38.679  23.676  26.554  1.00  0.00     0.021 C 
BRANCH  22  23
ATOM     23  C   UNL A   1      40.086  23.111  26.426  1.00  0.00     0.002 C 
BRANCH  23  24
ATOM     24  C   UNL A   1      40.312  21.845  27.258  1.00  0.00     0.002 C 
BRANCH  24  25
ATOM     25  C   UNL A   1      40.702  20.597  26.457  1.00  0.00     0.021 C 
BRANCH  25  26
ATOM     26  C   UNL A   1      41.850  19.787  27.057  1.00  0.00     0.116 C 
BRANCH  26  27
ATOM     27  N   UNL A   1      42.830  19.432  26.043  1.00  0.00    -0.352 N 
ATOM     28  C   UNL A   1      43.610  20.246  25.265  1.00  0.00     0.251 C 
ATOM     29  H   UNL A   1      42.950  18.468  25.894  1.00  0.00     0.163 HD
ATOM     30  O   UNL A   1      44.113  19.804  24.238  1.00  0.00    -0.269 OA
BRANCH  28  31
ATOM     31  C   UNL A   1      43.839  21.648  25.671  1.00  0.00     0.039 A 
ATOM     32  C   UNL A   1      43.497  22.674  24.790  1.00  0.00     0.014 A 
ATOM     33  C   UNL A   1      44.426  21.941  26.905  1.00  0.00     0.014 A 
ATOM     34  C   UNL A   1      43.705  24.002  25.167  1.00  0.00     0.010 A 
ATOM     35  C   UNL A   1      44.563  23.264  27.309  1.00  0.00     0.010 A 
ATOM     36  C   UNL A   1      44.215  24.308  26.440  1.00  0.00    -0.014 A 
BRANCH  36  37
ATOM     37  C   UNL A   1      44.407  25.715  26.873  1.00  0.00     0.031 A 
ATOM     38  C   UNL A   1      45.775  26.335  26.829  1.00  0.00     0.074 A 
ATOM     39  C   UNL A   1      43.358  26.409  27.355  1.00  0.00     0.049 A 
ATOM     40  N   UNL A   1      46.162  27.520  27.228  1.00  0.00    -0.248 NA
ATOM     41  C   UNL A   1      46.860  25.500  26.292  1.00  0.00     0.031 C 
ATOM     42  C   UNL A   1      41.993  25.896  27.481  1.00  0.00     0.029 A 
ATOM     43  N   UNL A   1      43.277  27.690  27.840  1.00  0.00    -0.354 N 
ATOM     44  C   UNL A   1      47.533  27.569  27.001  1.00  0.00     0.074 A 
ATOM     45  C   UNL A   1      47.918  26.269  26.493  1.00  0.00     0.031 C 
ATOM     46  C   UNL A   1      41.206  26.859  27.986  1.00  0.00     0.029 A 
ATOM     47  C   UNL A   1      42.016  28.040  28.266  1.00  0.00     0.049 A 
ATOM     48  H   UNL A   1      44.047  28.301  27.879  1.00  0.00     0.167 HD
ATOM     49  C   UNL A   1      48.385  28.610  27.173  1.00  0.00     0.034 A 
ATOM     50  C   UNL A   1      41.568  29.177  28.832  1.00  0.00     0.034 A 
ATOM     51  C   UNL A   1      47.978  29.899  27.679  1.00  0.00     0.049 A 
ATOM     52  C   UNL A   1      42.539  30.310  29.048  1.00  0.00     0.074 A 
ATOM     53  C   UNL A   1      48.743  31.039  27.855  1.00  0.00     0.029 A 
ATOM     54  N   UNL A   1      46.693  30.217  28.104  1.00  0.00    -0.354 N 
ATOM     55  N   UNL A   1      43.823  30.359  28.781  1.00  0.00    -0.248 NA
ATOM     56  C   UNL A   1      41.996  31.544  29.630  1.00  0.00     0.031 C 
ATOM     57  C   UNL A   1      47.941  32.019  28.452  1.00  0.00     0.029 A 
ATOM     58  C   UNL A   1      46.652  31.523  28.570  1.00  0.00     0.049 A 
ATOM     59  H   UNL A   1      45.922  29.604  28.078  1.00  0.00     0.167 HD
ATOM     60  C   UNL A   1      44.236  31.642  29.136  1.00  0.00     0.074 A 
ATOM     61  C   UNL A   1      43.059  32.335  29.619  1.00  0.00     0.031 C 
ATOM     62  C   UNL A   1      45.473  32.197  29.063  1.00  0.00     0.034 A 
BRANCH  49  63
ATOM     63  C   UNL A   1      49.841  28.379  26.838  1.00  0.00     0.023 A 
ATOM     64  C   UNL A   1      50.351  28.632  25.551  1.00  0.00     0.031 A 
ATOM     65  C   UNL A   1      50.725  27.864  27.802  1.00  0.00     0.131 A 
ATOM     66  C   UNL A   1      51.676  28.289  25.241  1.00  0.00     0.055 A 
ATOM     67  C   UNL A   1      52.068  27.610  27.512  1.00  0.00     0.041 A 
ATOM     68  F   UNL A   1      50.296  27.580  29.042  1.00  0.00    -0.206 F 
ATOM     69  C   UNL A   1      52.546  27.806  26.220  1.00  0.00     0.022 A 
BRANCH  66  70
ATOM     70  S   UNL A   1      52.195  28.333  23.503  1.00  0.00     0.124 S 
ATOM     71  O   UNL A   1      51.451  29.485  23.002  1.00  0.00    -0.237 OA
ATOM     72  O   UNL A   1      53.639  28.501  23.609  1.00  0.00    -0.237 OA
ATOM     73  O   UNL A   1      51.753  27.041  22.981  1.00  0.00    -0.744 OA
ENDBRANCH  66  70
ENDBRANCH  49  63
BRANCH  50  74
ATOM     74  C   UNL A   1      40.141  29.300  29.246  1.00  0.00     0.023 A 
ATOM     75  C   UNL A   1      39.766  29.209  30.596  1.00  0.00     0.031 A 
ATOM     76  C   UNL A   1      39.124  29.482  28.291  1.00  0.00     0.131 A 
ATOM     77  C   UNL A   1      38.410  29.257  30.950  1.00  0.00     0.055 A 
ATOM     78  C   UNL A   1      37.780  29.582  28.654  1.00  0.00     0.041 A 
ATOM     79  F   UNL A   1      39.427  29.582  26.987  1.00  0.00    -0.206 F 
ATOM     80  C   UNL A   1      37.415  29.456  29.990  1.00  0.00     0.022 A 
BRANCH  77  81
ATOM     81  S   UNL A   1      37.954  28.970  32.682  1.00  0.00     0.124 S 
ATOM     82  O   UNL A   1      36.596  29.501  32.724  1.00  0.00    -0.237 OA
ATOM     83  O   UNL A   1      38.080  27.520  32.792  1.00  0.00    -0.237 OA
ATOM     84  O   UNL A   1      38.948  29.737  33.427  1.00  0.00    -0.744 OA
ENDBRANCH  77  81
ENDBRANCH  50  74
BRANCH  62  85
ATOM     85  C   UNL A   1      45.600  33.644  29.477  1.00  0.00     0.023 A 
ATOM     86  C   UNL A   1      45.256  34.696  28.609  1.00  0.00     0.031 A 
ATOM     87  C   UNL A   1      46.083  33.973  30.756  1.00  0.00     0.131 A 
ATOM     88  C   UNL A   1      45.454  36.026  29.012  1.00  0.00     0.055 A 
ATOM     89  C   UNL A   1      46.215  35.297  31.174  1.00  0.00     0.041 A 
ATOM     90  F   UNL A   1      46.431  33.009  31.623  1.00  0.00    -0.206 F 
ATOM     91  C   UNL A   1      45.913  36.333  30.296  1.00  0.00     0.022 A 
BRANCH  88  92
ATOM     92  S   UNL A   1      45.197  37.351  27.800  1.00  0.00     0.124 S 
ATOM     93  O   UNL A   1      44.808  38.471  28.651  1.00  0.00    -0.237 OA
ATOM     94  O   UNL A   1      46.510  37.455  27.169  1.00  0.00    -0.237 OA
ATOM     95  O   UNL A   1      44.137  36.827  26.939  1.00  0.00    -0.744 OA
ENDBRANCH  88  92
ENDBRANCH  62  85
ENDBRANCH  36  37
ENDBRANCH  28  31
ENDBRANCH  26  27
ENDBRANCH  25  26
ENDBRANCH  24  25
ENDBRANCH  23  24
ENDBRANCH  22  23
ENDBRANCH   1  22
TORSDOF 24
ENDMDL
MODEL 2
REMARK VINA RESULT:      -9.0      6.406     10.851
REMARK SMILES CC(=O)Oc1ccccc1SCCCCCC(=O)NCCCCCCNC(=O)c1ccc(-c2c3nc(c(-c4cc(S(=O)(=O)[O-])ccc4F)c4ccc([nH]4)c(-c4cc(S(=O)(=O)[O-])ccc4F)c4nc(c(-c5cc(S(=O)(=O)[O-])ccc5F)c5ccc2[nH]5)C=C4)C=C3)cc1
REMARK SMILES IDX 20 1 19 2 17 3 18 4 16 6 15 7 14 8 13 9 12 10 11 11 10 12
REMARK SMILES IDX 5 13 6 14 7 15 9 16 8 17 4 18 2 19 1 20 3 21 21 22 22 23
REMARK SMILES IDX 23 24 24 25 25 26 26 27 27 28 28 30 29 31 30 32 91 33 31 34
REMARK SMILES IDX 90 35 32 36 33 37 34 38 84 39 35 40 89 41 83 42 85 43 36 44
REMARK SMILES IDX 88 45 82 46 81 47 37 49 69 50 49 51 68 52 50 53 53 54 67 55
REMARK SMILES IDX 86 56 51 57 52 58 66 60 87 61 54 62 38 63 39 64 47 65 40 66
REMARK SMILES IDX 46 67 48 68 45 69 41 70 42 71 43 72 44 73 70 74 71 75 79 76
REMARK SMILES IDX 72 77 78 78 80 79 77 80 73 81 74 82 75 83 76 84 55 85 56 86
REMARK SMILES IDX 64 87 57 88 63 89 65 90 62 91 58 92 59 93 60 94 61 95
REMARK H PARENT 19 5 26 29 85 48 53 59
REMARK Flexibility Score: inf
ROOT
ATOM      1  C   UNL A   1      35.165  30.453  28.294  1.00  0.00     0.116 C 
ENDROOT
BRANCH   1   2
ATOM      2  N   UNL A   1      33.814  30.622  27.809  1.00  0.00    -0.356 N 
ATOM      3  C   UNL A   1      33.027  29.717  27.168  1.00  0.00     0.219 C 
ATOM      4  O   UNL A   1      31.937  30.081  26.727  1.00  0.00    -0.275 OA
ATOM      5  H   UNL A   1      33.412  31.507  27.961  1.00  0.00     0.163 HD
BRANCH   3   6
ATOM      6  C   UNL A   1      33.489  28.281  27.033  1.00  0.00     0.100 C 
BRANCH   6   7
ATOM      7  C   UNL A   1      32.622  27.424  26.111  1.00  0.00     0.010 C 
BRANCH   7   8
ATOM      8  C   UNL A   1      33.078  25.998  25.730  1.00  0.00     0.001 C 
BRANCH   8   9
ATOM      9  C   UNL A   1      33.850  25.765  24.427  1.00  0.00     0.011 C 
BRANCH   9  10
ATOM     10  C   UNL A   1      33.252  25.142  23.152  1.00  0.00     0.075 C 
BRANCH  10  11
ATOM     11  S   UNL A   1      33.415  23.427  22.567  1.00  0.00    -0.122 SA
BRANCH  11  12
ATOM     12  C   UNL A   1      34.540  22.588  23.654  1.00  0.00     0.050 A 
ATOM     13  C   UNL A   1      34.287  21.601  24.611  1.00  0.00     0.144 A 
ATOM     14  C   UNL A   1      35.344  20.850  25.158  1.00  0.00     0.048 A 
ATOM     15  C   UNL A   1      36.665  21.118  24.801  1.00  0.00     0.004 A 
ATOM     16  C   UNL A   1      35.888  22.902  23.383  1.00  0.00     0.019 A 
ATOM     17  C   UNL A   1      36.939  22.166  23.934  1.00  0.00     0.001 A 
BRANCH  13  18
ATOM     18  O   UNL A   1      33.013  21.042  24.896  1.00  0.00    -0.426 OA
BRANCH  18  19
ATOM     19  C   UNL A   1      32.510  19.770  24.627  1.00  0.00     0.308 C 
ATOM     20  C   UNL A   1      32.322  19.670  23.134  1.00  0.00     0.139 C 
ATOM     21  O   UNL A   1      32.270  18.893  25.433  1.00  0.00    -0.252 OA
ENDBRANCH  18  19
ENDBRANCH  13  18
ENDBRANCH  11  12
ENDBRANCH  10  11
ENDBRANCH   9  10
ENDBRANCH   8   9
ENDBRANCH   7   8
ENDBRANCH   6   7
ENDBRANCH   3   6
ENDBRANCH   1   2
BRANCH   1  22
ATOM     22  C   UNL A   1      35.670  31.751  28.916  1.00  0.00     0.021 C 
BRANCH  22  23
ATOM     23  C   UNL A   1      35.573  32.951  27.986  1.00  0.00     0.002 C 
BRANCH  23  24
ATOM     24  C   UNL A   1      35.799  34.290  28.695  1.00  0.00     0.002 C 
BRANCH  24  25
ATOM     25  C   UNL A   1      34.588  35.231  28.720  1.00  0.00     0.021 C 
BRANCH  25  26
ATOM     26  C   UNL A   1      33.305  34.604  29.263  1.00  0.00     0.116 C 
BRANCH  26  27
ATOM     27  N   UNL A   1      32.813  35.332  30.422  1.00  0.00    -0.352 N 
ATOM     28  C   UNL A   1      33.142  35.188  31.744  1.00  0.00     0.251 C 
ATOM     29  H   UNL A   1      32.147  36.029  30.228  1.00  0.00     0.163 HD
ATOM     30  O   UNL A   1      32.392  35.631  32.608  1.00  0.00    -0.269 OA
BRANCH  28  31
ATOM     31  C   UNL A   1      34.397  34.505  32.116  1.00  0.00     0.039 A 
ATOM     32  C   UNL A   1      35.573  35.250  32.212  1.00  0.00     0.014 A 
ATOM     33  C   UNL A   1      34.415  33.124  32.331  1.00  0.00     0.014 A 
ATOM     34  C   UNL A   1      36.763  34.613  32.568  1.00  0.00     0.010 A 
ATOM     35  C   UNL A   1      35.585  32.505  32.758  1.00  0.00     0.010 A 
ATOM     36  C   UNL A   1      36.773  33.241  32.870  1.00  0.00    -0.014 A 
BRANCH  36  37
ATOM     37  C   UNL A   1      38.022  32.556  33.287  1.00  0.00     0.031 A 
ATOM     38  C   UNL A   1      38.583  31.440  32.451  1.00  0.00     0.074 A 
ATOM     39  C   UNL A   1      38.613  32.903  34.446  1.00  0.00     0.049 A 
ATOM     40  N   UNL A   1      39.617  30.672  32.679  1.00  0.00    -0.248 NA
ATOM     41  C   UNL A   1      37.867  31.126  31.206  1.00  0.00     0.031 C 
ATOM     42  C   UNL A   1      38.136  33.945  35.358  1.00  0.00     0.029 A 
ATOM     43  N   UNL A   1      39.736  32.414  35.063  1.00  0.00    -0.354 N 
ATOM     44  C   UNL A   1      39.671  29.779  31.614  1.00  0.00     0.074 A 
ATOM     45  C   UNL A   1      38.523  30.060  30.778  1.00  0.00     0.031 C 
ATOM     46  C   UNL A   1      38.972  34.031  36.404  1.00  0.00     0.029 A 
ATOM     47  C   UNL A   1      40.017  33.022  36.264  1.00  0.00     0.049 A 
ATOM     48  H   UNL A   1      40.291  31.695  34.681  1.00  0.00     0.167 HD
ATOM     49  C   UNL A   1      40.605  28.834  31.346  1.00  0.00     0.034 A 
ATOM     50  C   UNL A   1      40.995  32.783  37.160  1.00  0.00     0.034 A 
ATOM     51  C   UNL A   1      41.743  28.573  32.194  1.00  0.00     0.049 A 
ATOM     52  C   UNL A   1      42.003  31.703  36.859  1.00  0.00     0.074 A 
ATOM     53  C   UNL A   1      42.776  27.671  32.001  1.00  0.00     0.029 A 
ATOM     54  N   UNL A   1      41.993  29.206  33.406  1.00  0.00    -0.354 N 
ATOM     55  N   UNL A   1      42.069  30.900  35.822  1.00  0.00    -0.248 NA
ATOM     56  C   UNL A   1      43.074  31.506  37.844  1.00  0.00     0.031 C 
ATOM     57  C   UNL A   1      43.606  27.708  33.127  1.00  0.00     0.029 A 
ATOM     58  C   UNL A   1      43.145  28.693  33.986  1.00  0.00     0.049 A 
ATOM     59  H   UNL A   1      41.435  29.917  33.797  1.00  0.00     0.167 HD
ATOM     60  C   UNL A   1      43.209  30.123  36.017  1.00  0.00     0.074 A 
ATOM     61  C   UNL A   1      43.804  30.566  37.261  1.00  0.00     0.031 C 
ATOM     62  C   UNL A   1      43.719  29.136  35.236  1.00  0.00     0.034 A 
BRANCH  49  63
ATOM     63  C   UNL A   1      40.410  27.999  30.101  1.00  0.00     0.023 A 
ATOM     64  C   UNL A   1      41.199  28.193  28.951  1.00  0.00     0.031 A 
ATOM     65  C   UNL A   1      39.400  27.023  30.043  1.00  0.00     0.131 A 
ATOM     66  C   UNL A   1      40.909  27.487  27.774  1.00  0.00     0.055 A 
ATOM     67  C   UNL A   1      39.177  26.258  28.895  1.00  0.00     0.041 A 
ATOM     68  F   UNL A   1      38.599  26.804  31.097  1.00  0.00    -0.206 F 
ATOM     69  C   UNL A   1      39.921  26.502  27.745  1.00  0.00     0.022 A 
BRANCH  66  70
ATOM     70  S   UNL A   1      41.734  27.993  26.239  1.00  0.00     0.124 S 
ATOM     71  O   UNL A   1      40.933  29.147  25.840  1.00  0.00    -0.237 OA
ATOM     72  O   UNL A   1      43.090  28.282  26.689  1.00  0.00    -0.237 OA
ATOM     73  O   UNL A   1      41.599  26.822  25.375  1.00  0.00    -0.744 OA
ENDBRANCH  66  70
ENDBRANCH  49  63
BRANCH  50  74
ATOM     74  C   UNL A   1      41.064  33.566  38.426  1.00  0.00     0.023 A 
ATOM     75  C   UNL A   1      40.439  33.110  39.597  1.00  0.00     0.031 A 
ATOM     76  C   UNL A   1      41.735  34.802  38.476  1.00  0.00     0.131 A 
ATOM     77  C   UNL A   1      40.459  33.901  40.755  1.00  0.00     0.055 A 
ATOM     78  C   UNL A   1      41.798  35.561  39.646  1.00  0.00     0.041 A 
ATOM     79  F   UNL A   1      42.355  35.283  37.387  1.00  0.00    -0.206 F 
ATOM     80  C   UNL A   1      41.146  35.117  40.792  1.00  0.00     0.022 A 
BRANCH  77  81
ATOM     81  S   UNL A   1      39.501  33.357  42.196  1.00  0.00     0.124 S 
ATOM     82  O   UNL A   1      39.098  32.014  41.795  1.00  0.00    -0.237 OA
ATOM     83  O   UNL A   1      40.491  33.438  43.265  1.00  0.00    -0.237 OA
ATOM     84  O   UNL A   1      38.421  34.337  42.276  1.00  0.00    -0.744 OA
ENDBRANCH  77  81
ENDBRANCH  50  74
BRANCH  62  85
ATOM     85  C   UNL A   1      45.014  28.503  35.689  1.00  0.00     0.023 A 
ATOM     86  C   UNL A   1      46.264  29.008  35.291  1.00  0.00     0.031 A 
ATOM     87  C   UNL A   1      44.992  27.371  36.523  1.00  0.00     0.131 A 
ATOM     88  C   UNL A   1      47.440  28.348  35.682  1.00  0.00     0.055 A 
ATOM     89  C   UNL A   1      46.166  26.759  36.961  1.00  0.00     0.041 A 
ATOM     90  F   UNL A   1      43.826  26.844  36.929  1.00  0.00    -0.206 F 
ATOM     91  C   UNL A   1      47.399  27.238  36.530  1.00  0.00     0.022 A 
BRANCH  88  92
ATOM     92  S   UNL A   1      49.021  28.899  34.985  1.00  0.00     0.124 S 
ATOM     93  O   UNL A   1      49.927  27.837  35.410  1.00  0.00    -0.237 OA
ATOM     94  O   UNL A   1      48.730  28.954  33.556  1.00  0.00    -0.237 OA
ATOM     95  O   UNL A   1      49.243  30.196  35.622  1.00  0.00    -0.744 OA
ENDBRANCH  88  92
ENDBRANCH  62  85
ENDBRANCH  36  37
ENDBRANCH  28  31
ENDBRANCH  26  27
ENDBRANCH  25  26
ENDBRANCH  24  25
ENDBRANCH  23  24
ENDBRANCH  22  23
ENDBRANCH   1  22
TORSDOF 24
ENDMDL
MODEL 3
REMARK VINA RESULT:      -9.0      0.886      7.718
REMARK SMILES CC(=O)Oc1ccccc1SCCCCCC(=O)NCCCCCCNC(=O)c1ccc(-c2c3nc(c(-c4cc(S(=O)(=O)[O-])ccc4F)c4ccc([nH]4)c(-c4cc(S(=O)(=O)[O-])ccc4F)c4nc(c(-c5cc(S(=O)(=O)[O-])ccc5F)c5ccc2[nH]5)C=C4)C=C3)cc1
REMARK SMILES IDX 20 1 19 2 17 3 18 4 16 6 15 7 14 8 13 9 12 10 11 11 10 12
REMARK SMILES IDX 5 13 6 14 7 15 9 16 8 17 4 18 2 19 1 20 3 21 21 22 22 23
REMARK SMILES IDX 23 24 24 25 25 26 26 27 27 28 28 30 29 31 30 32 91 33 31 34
REMARK SMILES IDX 90 35 32 36 33 37 34 38 84 39 35 40 89 41 83 42 85 43 36 44
REMARK SMILES IDX 88 45 82 46 81 47 37 49 69 50 49 51 68 52 50 53 53 54 67 55
REMARK SMILES IDX 86 56 51 57 52 58 66 60 87 61 54 62 38 63 39 64 47 65 40 66
REMARK SMILES IDX 46 67 48 68 45 69 41 70 42 71 43 72 44 73 70 74 71 75 79 76
REMARK SMILES IDX 72 77 78 78 80 79 77 80 73 81 74 82 75 83 76 84 55 85 56 86
REMARK SMILES IDX 64 87 57 88 63 89 65 90 62 91 58 92 59 93 60 94 61 95
REMARK H PARENT 19 5 26 29 85 48 53 59
REMARK Flexibility Score: inf
ROOT
ATOM      1  C   UNL A   1      37.617  23.020  25.630  1.00  0.00     0.116 C 
ENDROOT
BRANCH   1   2
ATOM      2  N   UNL A   1      36.540  22.518  26.454  1.00  0.00    -0.356 N 
ATOM      3  C   UNL A   1      35.383  21.922  26.062  1.00  0.00     0.219 C 
ATOM      4  O   UNL A   1      34.529  21.662  26.909  1.00  0.00    -0.275 OA
ATOM      5  H   UNL A   1      36.660  22.623  27.425  1.00  0.00     0.163 HD
BRANCH   3   6
ATOM      6  C   UNL A   1      35.178  21.565  24.604  1.00  0.00     0.100 C 
BRANCH   6   7
ATOM      7  C   UNL A   1      34.376  22.597  23.810  1.00  0.00     0.010 C 
BRANCH   7   8
ATOM      8  C   UNL A   1      32.857  22.402  23.608  1.00  0.00     0.001 C 
BRANCH   8   9
ATOM      9  C   UNL A   1      31.897  22.592  24.788  1.00  0.00     0.011 C 
BRANCH   9  10
ATOM     10  C   UNL A   1      31.075  23.866  25.053  1.00  0.00     0.075 C 
BRANCH  10  11
ATOM     11  S   UNL A   1      31.628  25.402  25.857  1.00  0.00    -0.122 SA
BRANCH  11  12
ATOM     12  C   UNL A   1      30.832  26.760  25.036  1.00  0.00     0.050 A 
ATOM     13  C   UNL A   1      31.271  28.075  24.858  1.00  0.00     0.144 A 
ATOM     14  C   UNL A   1      30.638  28.919  23.926  1.00  0.00     0.048 A 
ATOM     15  C   UNL A   1      29.525  28.477  23.210  1.00  0.00     0.004 A 
ATOM     16  C   UNL A   1      29.651  26.372  24.372  1.00  0.00     0.019 A 
ATOM     17  C   UNL A   1      29.013  27.212  23.456  1.00  0.00     0.001 A 
BRANCH  13  18
ATOM     18  O   UNL A   1      32.513  28.595  25.311  1.00  0.00    -0.426 OA
BRANCH  18  19
ATOM     19  C   UNL A   1      32.922  28.955  26.594  1.00  0.00     0.308 C 
ATOM     20  C   UNL A   1      32.247  30.263  26.927  1.00  0.00     0.139 C 
ATOM     21  O   UNL A   1      33.674  28.339  27.322  1.00  0.00    -0.252 OA
ENDBRANCH  18  19
ENDBRANCH  13  18
ENDBRANCH  11  12
ENDBRANCH  10  11
ENDBRANCH   9  10
ENDBRANCH   8   9
ENDBRANCH   7   8
ENDBRANCH   6   7
ENDBRANCH   3   6
ENDBRANCH   1   2
BRANCH   1  22
ATOM     22  C   UNL A   1      38.535  23.922  26.449  1.00  0.00     0.021 C 
BRANCH  22  23
ATOM     23  C   UNL A   1      39.957  23.394  26.572  1.00  0.00     0.002 C 
BRANCH  23  24
ATOM     24  C   UNL A   1      40.036  21.999  27.199  1.00  0.00     0.002 C 
BRANCH  24  25
ATOM     25  C   UNL A   1      40.595  20.902  26.285  1.00  0.00     0.021 C 
BRANCH  25  26
ATOM     26  C   UNL A   1      41.631  19.991  26.942  1.00  0.00     0.116 C 
BRANCH  26  27
ATOM     27  N   UNL A   1      42.608  19.520  25.974  1.00  0.00    -0.352 N 
ATOM     28  C   UNL A   1      43.498  20.237  25.217  1.00  0.00     0.251 C 
ATOM     29  H   UNL A   1      42.633  18.546  25.842  1.00  0.00     0.163 HD
ATOM     30  O   UNL A   1      43.993  19.728  24.217  1.00  0.00    -0.269 OA
BRANCH  28  31
ATOM     31  C   UNL A   1      43.855  21.614  25.615  1.00  0.00     0.039 A 
ATOM     32  C   UNL A   1      43.492  22.676  24.785  1.00  0.00     0.014 A 
ATOM     33  C   UNL A   1      44.579  21.847  26.787  1.00  0.00     0.014 A 
ATOM     34  C   UNL A   1      43.821  23.981  25.156  1.00  0.00     0.010 A 
ATOM     35  C   UNL A   1      44.839  23.152  27.192  1.00  0.00     0.010 A 
ATOM     36  C   UNL A   1      44.473  24.231  26.374  1.00  0.00    -0.014 A 
BRANCH  36  37
ATOM     37  C   UNL A   1      44.796  25.616  26.802  1.00  0.00     0.031 A 
ATOM     38  C   UNL A   1      43.720  26.496  27.375  1.00  0.00     0.074 A 
ATOM     39  C   UNL A   1      46.043  26.092  26.621  1.00  0.00     0.049 A 
ATOM     40  N   UNL A   1      43.783  27.751  27.740  1.00  0.00    -0.248 NA
ATOM     41  C   UNL A   1      42.389  25.892  27.530  1.00  0.00     0.031 C 
ATOM     42  C   UNL A   1      47.157  25.341  26.039  1.00  0.00     0.029 A 
ATOM     43  N   UNL A   1      46.582  27.323  26.897  1.00  0.00    -0.354 N 
ATOM     44  C   UNL A   1      42.500  28.090  28.158  1.00  0.00     0.074 A 
ATOM     45  C   UNL A   1      41.668  26.926  27.935  1.00  0.00     0.031 C 
ATOM     46  C   UNL A   1      48.251  26.118  26.023  1.00  0.00     0.029 A 
ATOM     47  C   UNL A   1      47.907  27.437  26.547  1.00  0.00     0.049 A 
ATOM     48  H   UNL A   1      46.069  28.056  27.309  1.00  0.00     0.167 HD
ATOM     49  C   UNL A   1      42.065  29.253  28.702  1.00  0.00     0.034 A 
ATOM     50  C   UNL A   1      48.746  28.488  26.624  1.00  0.00     0.034 A 
ATOM     51  C   UNL A   1      42.913  30.400  28.916  1.00  0.00     0.049 A 
ATOM     52  C   UNL A   1      48.233  29.783  27.199  1.00  0.00     0.074 A 
ATOM     53  C   UNL A   1      42.593  31.615  29.499  1.00  0.00     0.029 A 
ATOM     54  N   UNL A   1      44.251  30.481  28.546  1.00  0.00    -0.354 N 
ATOM     55  N   UNL A   1      47.029  30.073  27.637  1.00  0.00    -0.248 NA
ATOM     56  C   UNL A   1      49.194  30.888  27.302  1.00  0.00     0.031 C 
ATOM     57  C   UNL A   1      43.712  32.451  29.414  1.00  0.00     0.029 A 
ATOM     58  C   UNL A   1      44.759  31.734  28.858  1.00  0.00     0.049 A 
ATOM     59  H   UNL A   1      44.764  29.754  28.124  1.00  0.00     0.167 HD
ATOM     60  C   UNL A   1      47.098  31.386  28.096  1.00  0.00     0.074 A 
ATOM     61  C   UNL A   1      48.466  31.823  27.895  1.00  0.00     0.031 C 
ATOM     62  C   UNL A   1      46.122  32.160  28.638  1.00  0.00     0.034 A 
BRANCH  49  63
ATOM     63  C   UNL A   1      40.601  29.342  29.070  1.00  0.00     0.023 A 
ATOM     64  C   UNL A   1      40.176  29.338  30.411  1.00  0.00     0.031 A 
ATOM     65  C   UNL A   1      39.613  29.394  28.071  1.00  0.00     0.131 A 
ATOM     66  C   UNL A   1      38.807  29.297  30.714  1.00  0.00     0.055 A 
ATOM     67  C   UNL A   1      38.252  29.445  28.382  1.00  0.00     0.041 A 
ATOM     68  F   UNL A   1      39.951  29.378  26.773  1.00  0.00    -0.206 F 
ATOM     69  C   UNL A   1      37.841  29.378  29.710  1.00  0.00     0.022 A 
BRANCH  66  70
ATOM     70  S   UNL A   1      38.311  28.971  32.429  1.00  0.00     0.124 S 
ATOM     71  O   UNL A   1      38.882  30.122  33.124  1.00  0.00    -0.237 OA
ATOM     72  O   UNL A   1      36.857  28.938  32.336  1.00  0.00    -0.237 OA
ATOM     73  O   UNL A   1      38.948  27.691  32.733  1.00  0.00    -0.744 OA
ENDBRANCH  66  70
ENDBRANCH  49  63
BRANCH  50  74
ATOM     74  C   UNL A   1      50.150  28.368  26.136  1.00  0.00     0.023 A 
ATOM     75  C   UNL A   1      50.474  28.604  24.791  1.00  0.00     0.031 A 
ATOM     76  C   UNL A   1      51.188  27.985  27.006  1.00  0.00     0.131 A 
ATOM     77  C   UNL A   1      51.790  28.415  24.344  1.00  0.00     0.055 A 
ATOM     78  C   UNL A   1      52.506  27.850  26.568  1.00  0.00     0.041 A 
ATOM     79  F   UNL A   1      50.935  27.753  28.304  1.00  0.00    -0.206 F 
ATOM     80  C   UNL A   1      52.811  28.052  25.226  1.00  0.00     0.022 A 
BRANCH  77  81
ATOM     81  S   UNL A   1      52.135  28.568  22.570  1.00  0.00     0.124 S 
ATOM     82  O   UNL A   1      51.229  29.643  22.183  1.00  0.00    -0.237 OA
ATOM     83  O   UNL A   1      53.558  28.894  22.566  1.00  0.00    -0.237 OA
ATOM     84  O   UNL A   1      51.800  27.247  22.043  1.00  0.00    -0.744 OA
ENDBRANCH  77  81
ENDBRANCH  50  74
BRANCH  62  85
ATOM     85  C   UNL A   1      46.519  33.544  29.094  1.00  0.00     0.023 A 
ATOM     86  C   UNL A   1      46.389  34.666  28.257  1.00  0.00     0.031 A 
ATOM     87  C   UNL A   1      47.045  33.738  30.384  1.00  0.00     0.131 A 
ATOM     88  C   UNL A   1      46.833  35.922  28.700  1.00  0.00     0.055 A 
ATOM     89  C   UNL A   1      47.422  35.000  30.841  1.00  0.00     0.041 A 
ATOM     90  F   UNL A   1      47.195  32.701  31.224  1.00  0.00    -0.206 F 
ATOM     91  C   UNL A   1      47.331  36.099  29.993  1.00  0.00     0.022 A 
BRANCH  88  92
ATOM     92  S   UNL A   1      46.844  37.305  27.526  1.00  0.00     0.124 S 
ATOM     93  O   UNL A   1      47.431  38.377  28.325  1.00  0.00    -0.237 OA
ATOM     94  O   UNL A   1      47.676  36.789  26.444  1.00  0.00    -0.237 OA
ATOM     95  O   UNL A   1      45.432  37.482  27.191  1.00  0.00    -0.744 OA
ENDBRANCH  88  92
ENDBRANCH  62  85
ENDBRANCH  36  37
ENDBRANCH  28  31
ENDBRANCH  26  27
ENDBRANCH  25  26
ENDBRANCH  24  25
ENDBRANCH  23  24
ENDBRANCH  22  23
ENDBRANCH   1  22
TORSDOF 24
ENDMDL
