MODEL 1
REMARK VINA RESULT:     -10.2      0.000      0.000
REMARK SMILES O=C(CC1CCN(C(=O)N2CCCC[C@@H]2CCO)CC1)NCCCCCCNC(=O)c1ccc(-c2c3nc(c(-c4cc(S(=O)(=O)[O-])ccc4F)c4ccc([nH]4)c(-c4cc(S(=O)(=O)[O-])ccc4F)c4nc(c(-c5cc(S(=O)(=O)[O-])ccc5F)c5ccc2[nH]5)C=C4)C=C3)cc1
REMARK SMILES IDX 23 1 22 2 21 3 1 4 2 5 3 7 4 8 5 9 20 10 6 11 19 12 7 13
REMARK SMILES IDX 8 14 9 15 10 16 11 17 15 18 12 19 14 20 13 21 16 22 17 23
REMARK SMILES IDX 18 24 24 26 25 27 26 28 27 29 28 30 29 31 30 33 31 34 32 35
REMARK SMILES IDX 93 36 33 37 92 38 34 39 35 40 36 41 86 42 37 43 91 44 85 45
REMARK SMILES IDX 87 46 38 47 90 48 84 49 83 50 39 52 71 53 51 54 70 55 52 56
REMARK SMILES IDX 55 57 69 58 88 59 53 60 54 61 68 63 89 64 56 65 40 66 41 67
REMARK SMILES IDX 49 68 42 69 48 70 50 71 47 72 43 73 44 74 45 75 46 76 72 77
REMARK SMILES IDX 73 78 81 79 74 80 80 81 82 82 79 83 75 84 76 85 77 86 78 87
REMARK SMILES IDX 57 88 58 89 66 90 59 91 65 92 67 93 64 94 60 95 61 96 62 97
REMARK SMILES IDX 63 98
REMARK H PARENT 21 6 18 25 28 32 87 51 55 62
REMARK Flexibility Score: inf
ROOT
ATOM      1  C   UNL A   1      35.002  31.225  27.702  1.00  0.00     0.021 C 
ENDROOT
BRANCH   1   2
ATOM      2  C   UNL A   1      33.603  30.796  27.249  1.00  0.00     0.116 C 
BRANCH   2   3
ATOM      3  N   UNL A   1      33.648  29.891  26.120  1.00  0.00    -0.356 N 
ATOM      4  O   UNL A   1      31.494  30.267  25.403  1.00  0.00    -0.275 OA
ATOM      5  C   UNL A   1      32.575  29.703  25.280  1.00  0.00     0.220 C 
ATOM      6  H   UNL A   1      34.478  29.391  25.945  1.00  0.00     0.163 HD
BRANCH   5   7
ATOM      7  C   UNL A   1      32.848  28.700  24.180  1.00  0.00     0.103 C 
BRANCH   7   8
ATOM      8  C   UNL A   1      32.044  27.381  24.205  1.00  0.00     0.002 C 
ATOM      9  C   UNL A   1      32.027  26.780  25.623  1.00  0.00     0.026 C 
ATOM     10  C   UNL A   1      32.421  26.280  23.200  1.00  0.00     0.026 C 
ATOM     11  C   UNL A   1      33.339  26.071  25.963  1.00  0.00     0.121 C 
ATOM     12  C   UNL A   1      33.646  25.450  23.586  1.00  0.00     0.121 C 
ATOM     13  N   UNL A   1      33.641  25.029  24.989  1.00  0.00    -0.325 N 
ATOM     14  C   UNL A   1      33.967  23.755  25.453  1.00  0.00     0.320 C 
ATOM     15  O   UNL A   1      33.986  23.467  26.649  1.00  0.00    -0.248 OA
BRANCH  14  16
ATOM     16  N   UNL A   1      34.111  22.779  24.481  1.00  0.00    -0.322 N 
ATOM     17  C   UNL A   1      32.959  21.903  24.286  1.00  0.00     0.121 C 
ATOM     18  C   UNL A   1      35.404  22.135  24.177  1.00  0.00     0.089 C 
ATOM     19  C   UNL A   1      33.094  20.560  25.013  1.00  0.00     0.022 C 
ATOM     20  C   UNL A   1      35.569  20.840  24.997  1.00  0.00     0.025 C 
ATOM     21  C   UNL A   1      34.425  19.883  24.703  1.00  0.00     0.004 C 
BRANCH  18  22
ATOM     22  C   UNL A   1      36.669  22.980  24.347  1.00  0.00     0.053 C 
BRANCH  22  23
ATOM     23  C   UNL A   1      37.437  22.518  25.585  1.00  0.00     0.158 C 
BRANCH  23  24
ATOM     24  O   UNL A   1      37.225  23.462  26.630  1.00  0.00    -0.396 OA
ATOM     25  H   UNL A   1      36.583  23.103  27.264  1.00  0.00     0.210 HD
ENDBRANCH  23  24
ENDBRANCH  22  23
ENDBRANCH  18  22
ENDBRANCH  14  16
ENDBRANCH   7   8
ENDBRANCH   5   7
ENDBRANCH   2   3
ENDBRANCH   1   2
BRANCH   1  26
ATOM     26  C   UNL A   1      35.042  32.299  28.800  1.00  0.00     0.002 C 
BRANCH  26  27
ATOM     27  C   UNL A   1      35.705  33.607  28.378  1.00  0.00     0.002 C 
BRANCH  27  28
ATOM     28  C   UNL A   1      34.730  34.774  28.245  1.00  0.00     0.021 C 
BRANCH  28  29
ATOM     29  C   UNL A   1      33.326  34.468  28.756  1.00  0.00     0.116 C 
BRANCH  29  30
ATOM     30  N   UNL A   1      32.783  35.481  29.664  1.00  0.00    -0.352 N 
ATOM     31  C   UNL A   1      33.010  35.714  31.003  1.00  0.00     0.251 C 
ATOM     32  H   UNL A   1      32.145  36.104  29.244  1.00  0.00     0.163 HD
ATOM     33  O   UNL A   1      32.323  36.548  31.591  1.00  0.00    -0.269 OA
BRANCH  31  34
ATOM     34  C   UNL A   1      34.025  34.931  31.745  1.00  0.00     0.039 A 
ATOM     35  C   UNL A   1      33.781  33.587  32.047  1.00  0.00     0.014 A 
ATOM     36  C   UNL A   1      35.242  35.503  32.105  1.00  0.00     0.014 A 
ATOM     37  C   UNL A   1      34.803  32.795  32.582  1.00  0.00     0.010 A 
ATOM     38  C   UNL A   1      36.293  34.689  32.504  1.00  0.00     0.010 A 
ATOM     39  C   UNL A   1      36.093  33.320  32.743  1.00  0.00    -0.014 A 
BRANCH  39  40
ATOM     40  C   UNL A   1      37.267  32.500  33.161  1.00  0.00     0.031 A 
ATOM     41  C   UNL A   1      37.856  32.708  34.534  1.00  0.00     0.074 A 
ATOM     42  C   UNL A   1      37.893  31.698  32.272  1.00  0.00     0.049 A 
ATOM     43  N   UNL A   1      39.021  32.345  35.004  1.00  0.00    -0.248 NA
ATOM     44  C   UNL A   1      37.048  33.492  35.483  1.00  0.00     0.031 C 
ATOM     45  C   UNL A   1      37.456  31.440  30.897  1.00  0.00     0.029 A 
ATOM     46  N   UNL A   1      39.053  30.969  32.384  1.00  0.00    -0.354 N 
ATOM     47  C   UNL A   1      39.114  32.916  36.269  1.00  0.00     0.074 A 
ATOM     48  C   UNL A   1      37.906  33.686  36.473  1.00  0.00     0.031 C 
ATOM     49  C   UNL A   1      38.320  30.600  30.307  1.00  0.00     0.029 A 
ATOM     50  C   UNL A   1      39.411  30.308  31.229  1.00  0.00     0.049 A 
ATOM     51  H   UNL A   1      39.581  30.923  33.215  1.00  0.00     0.167 HD
ATOM     52  C   UNL A   1      40.108  32.796  37.183  1.00  0.00     0.034 A 
ATOM     53  C   UNL A   1      40.505  29.576  30.938  1.00  0.00     0.034 A 
ATOM     54  C   UNL A   1      41.259  31.948  36.999  1.00  0.00     0.049 A 
ATOM     55  C   UNL A   1      41.571  29.413  31.995  1.00  0.00     0.074 A 
ATOM     56  C   UNL A   1      42.269  31.663  37.900  1.00  0.00     0.029 A 
ATOM     57  N   UNL A   1      41.543  31.237  35.842  1.00  0.00    -0.354 N 
ATOM     58  N   UNL A   1      41.623  29.928  33.203  1.00  0.00    -0.248 NA
ATOM     59  C   UNL A   1      42.723  28.566  31.656  1.00  0.00     0.031 C 
ATOM     60  C   UNL A   1      43.191  30.821  37.271  1.00  0.00     0.029 A 
ATOM     61  C   UNL A   1      42.721  30.527  36.001  1.00  0.00     0.049 A 
ATOM     62  H   UNL A   1      40.990  31.238  35.028  1.00  0.00     0.167 HD
ATOM     63  C   UNL A   1      42.788  29.428  33.778  1.00  0.00     0.074 A 
ATOM     64  C   UNL A   1      43.405  28.567  32.791  1.00  0.00     0.031 C 
ATOM     65  C   UNL A   1      43.303  29.655  35.011  1.00  0.00     0.034 A 
BRANCH  52  66
ATOM     66  C   UNL A   1      40.001  33.600  38.456  1.00  0.00     0.023 A 
ATOM     67  C   UNL A   1      39.179  33.199  39.522  1.00  0.00     0.031 A 
ATOM     68  C   UNL A   1      40.738  34.789  38.603  1.00  0.00     0.131 A 
ATOM     69  C   UNL A   1      39.058  34.015  40.656  1.00  0.00     0.055 A 
ATOM     70  C   UNL A   1      40.676  35.554  39.769  1.00  0.00     0.041 A 
ATOM     71  F   UNL A   1      41.525  35.233  37.611  1.00  0.00    -0.206 F 
ATOM     72  C   UNL A   1      39.822  35.175  40.801  1.00  0.00     0.022 A 
BRANCH  69  73
ATOM     73  S   UNL A   1      37.795  33.598  41.889  1.00  0.00     0.124 S 
ATOM     74  O   UNL A   1      37.014  32.589  41.178  1.00  0.00    -0.237 OA
ATOM     75  O   UNL A   1      38.594  33.113  43.009  1.00  0.00    -0.237 OA
ATOM     76  O   UNL A   1      37.106  34.866  42.117  1.00  0.00    -0.744 OA
ENDBRANCH  69  73
ENDBRANCH  52  66
BRANCH  53  77
ATOM     77  C   UNL A   1      40.677  28.945  29.596  1.00  0.00     0.023 A 
ATOM     78  C   UNL A   1      40.161  27.665  29.336  1.00  0.00     0.031 A 
ATOM     79  C   UNL A   1      41.422  29.570  28.579  1.00  0.00     0.131 A 
ATOM     80  C   UNL A   1      40.455  27.020  28.125  1.00  0.00     0.055 A 
ATOM     81  C   UNL A   1      41.657  28.950  27.350  1.00  0.00     0.041 A 
ATOM     82  F   UNL A   1      41.933  30.796  28.767  1.00  0.00    -0.206 F 
ATOM     83  C   UNL A   1      41.189  27.658  27.125  1.00  0.00     0.022 A 
BRANCH  80  84
ATOM     84  S   UNL A   1      39.970  25.283  27.931  1.00  0.00     0.124 S 
ATOM     85  O   UNL A   1      39.679  25.215  26.504  1.00  0.00    -0.237 OA
ATOM     86  O   UNL A   1      41.172  24.585  28.374  1.00  0.00    -0.237 OA
ATOM     87  O   UNL A   1      38.813  25.152  28.813  1.00  0.00    -0.744 OA
ENDBRANCH  80  84
ENDBRANCH  53  77
BRANCH  65  88
ATOM     88  C   UNL A   1      44.549  28.896  35.390  1.00  0.00     0.023 A 
ATOM     89  C   UNL A   1      44.494  27.621  35.976  1.00  0.00     0.031 A 
ATOM     90  C   UNL A   1      45.812  29.462  35.145  1.00  0.00     0.131 A 
ATOM     91  C   UNL A   1      45.682  26.971  36.340  1.00  0.00     0.055 A 
ATOM     92  C   UNL A   1      46.992  28.788  35.459  1.00  0.00     0.041 A 
ATOM     93  F   UNL A   1      45.919  30.679  34.585  1.00  0.00    -0.206 F 
ATOM     94  C   UNL A   1      46.931  27.538  36.069  1.00  0.00     0.022 A 
BRANCH  91  95
ATOM     95  S   UNL A   1      45.574  25.398  37.236  1.00  0.00     0.124 S 
ATOM     96  O   UNL A   1      44.201  25.421  37.727  1.00  0.00    -0.237 OA
ATOM     97  O   UNL A   1      45.860  24.422  36.189  1.00  0.00    -0.237 OA
ATOM     98  O   UNL A   1      46.605  25.519  38.266  1.00  0.00    -0.744 OA
ENDBRANCH  91  95
ENDBRANCH  65  88
ENDBRANCH  39  40
ENDBRANCH  31  34
ENDBRANCH  29  30
ENDBRANCH  28  29
ENDBRANCH  27  28
ENDBRANCH  26  27
ENDBRANCH   1  26
TORSDOF 21
ENDMDL
MODEL 2
REMARK VINA RESULT:     -10.2      1.586      2.164
REMARK SMILES O=C(CC1CCN(C(=O)N2CCCC[C@@H]2CCO)CC1)NCCCCCCNC(=O)c1ccc(-c2c3nc(c(-c4cc(S(=O)(=O)[O-])ccc4F)c4ccc([nH]4)c(-c4cc(S(=O)(=O)[O-])ccc4F)c4nc(c(-c5cc(S(=O)(=O)[O-])ccc5F)c5ccc2[nH]5)C=C4)C=C3)cc1
REMARK SMILES IDX 23 1 22 2 21 3 1 4 2 5 3 7 4 8 5 9 20 10 6 11 19 12 7 13
REMARK SMILES IDX 8 14 9 15 10 16 11 17 15 18 12 19 14 20 13 21 16 22 17 23
REMARK SMILES IDX 18 24 24 26 25 27 26 28 27 29 28 30 29 31 30 33 31 34 32 35
REMARK SMILES IDX 93 36 33 37 92 38 34 39 35 40 36 41 86 42 37 43 91 44 85 45
REMARK SMILES IDX 87 46 38 47 90 48 84 49 83 50 39 52 71 53 51 54 70 55 52 56
REMARK SMILES IDX 55 57 69 58 88 59 53 60 54 61 68 63 89 64 56 65 40 66 41 67
REMARK SMILES IDX 49 68 42 69 48 70 50 71 47 72 43 73 44 74 45 75 46 76 72 77
REMARK SMILES IDX 73 78 81 79 74 80 80 81 82 82 79 83 75 84 76 85 77 86 78 87
REMARK SMILES IDX 57 88 58 89 66 90 59 91 65 92 67 93 64 94 60 95 61 96 62 97
REMARK SMILES IDX 63 98
REMARK H PARENT 21 6 18 25 28 32 87 51 55 62
REMARK Flexibility Score: inf
ROOT
ATOM      1  C   UNL A   1      34.643  30.861  27.847  1.00  0.00     0.021 C 
ENDROOT
BRANCH   1   2
ATOM      2  C   UNL A   1      33.309  30.800  27.097  1.00  0.00     0.116 C 
BRANCH   2   3
ATOM      3  N   UNL A   1      33.160  29.570  26.346  1.00  0.00    -0.356 N 
ATOM      4  O   UNL A   1      31.184  30.138  25.313  1.00  0.00    -0.275 OA
ATOM      5  C   UNL A   1      32.096  29.343  25.504  1.00  0.00     0.220 C 
ATOM      6  H   UNL A   1      33.847  28.871  26.441  1.00  0.00     0.163 HD
BRANCH   5   7
ATOM      7  C   UNL A   1      32.144  27.984  24.839  1.00  0.00     0.103 C 
BRANCH   7   8
ATOM      8  C   UNL A   1      33.535  27.410  24.493  1.00  0.00     0.002 C 
ATOM      9  C   UNL A   1      33.473  26.570  23.204  1.00  0.00     0.026 C 
ATOM     10  C   UNL A   1      34.283  26.611  25.574  1.00  0.00     0.026 C 
ATOM     11  C   UNL A   1      32.881  25.182  23.450  1.00  0.00     0.121 C 
ATOM     12  C   UNL A   1      33.814  25.166  25.743  1.00  0.00     0.121 C 
ATOM     13  N   UNL A   1      33.635  24.463  24.470  1.00  0.00    -0.325 N 
ATOM     14  C   UNL A   1      34.057  23.162  24.197  1.00  0.00     0.320 C 
ATOM     15  O   UNL A   1      33.843  22.605  23.121  1.00  0.00    -0.248 OA
BRANCH  14  16
ATOM     16  N   UNL A   1      34.880  22.585  25.149  1.00  0.00    -0.322 N 
ATOM     17  C   UNL A   1      36.303  22.897  25.032  1.00  0.00     0.121 C 
ATOM     18  C   UNL A   1      34.611  21.261  25.745  1.00  0.00     0.089 C 
ATOM     19  C   UNL A   1      37.103  21.797  24.326  1.00  0.00     0.022 C 
ATOM     20  C   UNL A   1      35.341  20.155  24.958  1.00  0.00     0.025 C 
ATOM     21  C   UNL A   1      36.836  20.425  24.936  1.00  0.00     0.004 C 
BRANCH  18  22
ATOM     22  C   UNL A   1      33.146  20.849  25.913  1.00  0.00     0.053 C 
BRANCH  22  23
ATOM     23  C   UNL A   1      32.946  19.427  25.392  1.00  0.00     0.158 C 
BRANCH  23  24
ATOM     24  O   UNL A   1      32.618  18.582  26.490  1.00  0.00    -0.396 OA
ATOM     25  H   UNL A   1      33.415  18.416  27.019  1.00  0.00     0.210 HD
ENDBRANCH  23  24
ENDBRANCH  22  23
ENDBRANCH  18  22
ENDBRANCH  14  16
ENDBRANCH   7   8
ENDBRANCH   5   7
ENDBRANCH   2   3
ENDBRANCH   1   2
BRANCH   1  26
ATOM     26  C   UNL A   1      34.668  31.780  29.078  1.00  0.00     0.002 C 
BRANCH  26  27
ATOM     27  C   UNL A   1      34.903  33.254  28.760  1.00  0.00     0.002 C 
BRANCH  27  28
ATOM     28  C   UNL A   1      33.642  34.108  28.849  1.00  0.00     0.021 C 
BRANCH  28  29
ATOM     29  C   UNL A   1      33.896  35.542  29.306  1.00  0.00     0.116 C 
BRANCH  29  30
ATOM     30  N   UNL A   1      32.901  36.057  30.249  1.00  0.00    -0.352 N 
ATOM     31  C   UNL A   1      32.762  35.879  31.609  1.00  0.00     0.251 C 
ATOM     32  H   UNL A   1      32.211  36.630  29.841  1.00  0.00     0.163 HD
ATOM     33  O   UNL A   1      31.752  36.303  32.168  1.00  0.00    -0.269 OA
BRANCH  31  34
ATOM     34  C   UNL A   1      33.782  35.134  32.381  1.00  0.00     0.039 A 
ATOM     35  C   UNL A   1      33.473  33.874  32.906  1.00  0.00     0.014 A 
ATOM     36  C   UNL A   1      35.063  35.650  32.553  1.00  0.00     0.014 A 
ATOM     37  C   UNL A   1      34.481  33.088  33.476  1.00  0.00     0.010 A 
ATOM     38  C   UNL A   1      36.086  34.821  32.989  1.00  0.00     0.010 A 
ATOM     39  C   UNL A   1      35.815  33.523  33.452  1.00  0.00    -0.014 A 
BRANCH  39  40
ATOM     40  C   UNL A   1      36.961  32.681  33.899  1.00  0.00     0.031 A 
ATOM     41  C   UNL A   1      37.706  33.061  35.155  1.00  0.00     0.074 A 
ATOM     42  C   UNL A   1      37.427  31.686  33.113  1.00  0.00     0.049 A 
ATOM     43  N   UNL A   1      38.884  32.676  35.573  1.00  0.00    -0.248 NA
ATOM     44  C   UNL A   1      37.065  34.065  36.021  1.00  0.00     0.031 C 
ATOM     45  C   UNL A   1      36.828  31.242  31.850  1.00  0.00     0.029 A 
ATOM     46  N   UNL A   1      38.534  30.883  33.246  1.00  0.00    -0.354 N 
ATOM     47  C   UNL A   1      39.153  33.441  36.703  1.00  0.00     0.074 A 
ATOM     48  C   UNL A   1      38.034  34.343  36.878  1.00  0.00     0.031 C 
ATOM     49  C   UNL A   1      37.560  30.238  31.342  1.00  0.00     0.029 A 
ATOM     50  C   UNL A   1      38.717  30.007  32.197  1.00  0.00     0.049 A 
ATOM     51  H   UNL A   1      39.142  30.929  34.019  1.00  0.00     0.167 HD
ATOM     52  C   UNL A   1      40.226  33.386  37.529  1.00  0.00     0.034 A 
ATOM     53  C   UNL A   1      39.717  29.139  31.941  1.00  0.00     0.034 A 
ATOM     54  C   UNL A   1      41.284  32.416  37.393  1.00  0.00     0.049 A 
ATOM     55  C   UNL A   1      40.873  29.058  32.909  1.00  0.00     0.074 A 
ATOM     56  C   UNL A   1      42.360  32.195  38.235  1.00  0.00     0.029 A 
ATOM     57  N   UNL A   1      41.390  31.498  36.359  1.00  0.00    -0.354 N 
ATOM     58  N   UNL A   1      41.091  29.762  33.996  1.00  0.00    -0.248 NA
ATOM     59  C   UNL A   1      41.916  28.063  32.620  1.00  0.00     0.031 C 
ATOM     60  C   UNL A   1      43.144  31.177  37.682  1.00  0.00     0.029 A 
ATOM     61  C   UNL A   1      42.521  30.719  36.533  1.00  0.00     0.049 A 
ATOM     62  H   UNL A   1      40.755  31.413  35.612  1.00  0.00     0.167 HD
ATOM     63  C   UNL A   1      42.270  29.260  34.542  1.00  0.00     0.074 A 
ATOM     64  C   UNL A   1      42.712  28.192  33.671  1.00  0.00     0.031 C 
ATOM     65  C   UNL A   1      42.928  29.642  35.664  1.00  0.00     0.034 A 
BRANCH  52  66
ATOM     66  C   UNL A   1      40.315  34.398  38.645  1.00  0.00     0.023 A 
ATOM     67  C   UNL A   1      39.755  34.162  39.911  1.00  0.00     0.031 A 
ATOM     68  C   UNL A   1      40.975  35.623  38.435  1.00  0.00     0.131 A 
ATOM     69  C   UNL A   1      39.801  35.161  40.894  1.00  0.00     0.055 A 
ATOM     70  C   UNL A   1      41.090  36.580  39.444  1.00  0.00     0.041 A 
ATOM     71  F   UNL A   1      41.514  35.913  37.240  1.00  0.00    -0.206 F 
ATOM     72  C   UNL A   1      40.490  36.358  40.680  1.00  0.00     0.022 A 
BRANCH  69  73
ATOM     73  S   UNL A   1      38.845  34.922  42.415  1.00  0.00     0.124 S 
ATOM     74  O   UNL A   1      37.510  35.332  41.988  1.00  0.00    -0.237 OA
ATOM     75  O   UNL A   1      39.021  33.498  42.679  1.00  0.00    -0.237 OA
ATOM     76  O   UNL A   1      39.491  35.819  43.372  1.00  0.00    -0.744 OA
ENDBRANCH  69  73
ENDBRANCH  52  66
BRANCH  53  77
ATOM     77  C   UNL A   1      39.698  28.278  30.721  1.00  0.00     0.023 A 
ATOM     78  C   UNL A   1      40.398  28.660  29.565  1.00  0.00     0.031 A 
ATOM     79  C   UNL A   1      38.923  27.106  30.660  1.00  0.00     0.131 A 
ATOM     80  C   UNL A   1      40.255  27.924  28.380  1.00  0.00     0.055 A 
ATOM     81  C   UNL A   1      38.834  26.340  29.495  1.00  0.00     0.041 A 
ATOM     82  F   UNL A   1      38.238  26.687  31.735  1.00  0.00    -0.206 F 
ATOM     83  C   UNL A   1      39.487  26.760  28.339  1.00  0.00     0.022 A 
BRANCH  80  84
ATOM     84  S   UNL A   1      40.984  28.586  26.857  1.00  0.00     0.124 S 
ATOM     85  O   UNL A   1      39.869  29.341  26.298  1.00  0.00    -0.237 OA
ATOM     86  O   UNL A   1      42.097  29.375  27.376  1.00  0.00    -0.237 OA
ATOM     87  O   UNL A   1      41.364  27.387  26.113  1.00  0.00    -0.744 OA
ENDBRANCH  80  84
ENDBRANCH  53  77
BRANCH  65  88
ATOM     88  C   UNL A   1      44.147  28.847  36.055  1.00  0.00     0.023 A 
ATOM     89  C   UNL A   1      44.084  27.804  36.993  1.00  0.00     0.031 A 
ATOM     90  C   UNL A   1      45.389  29.136  35.463  1.00  0.00     0.131 A 
ATOM     91  C   UNL A   1      45.254  27.117  37.348  1.00  0.00     0.055 A 
ATOM     92  C   UNL A   1      46.538  28.412  35.777  1.00  0.00     0.041 A 
ATOM     93  F   UNL A   1      45.501  30.122  34.558  1.00  0.00    -0.206 F 
ATOM     94  C   UNL A   1      46.477  27.401  36.733  1.00  0.00     0.022 A 
BRANCH  91  95
ATOM     95  S   UNL A   1      45.171  25.884  38.675  1.00  0.00     0.124 S 
ATOM     96  O   UNL A   1      44.855  24.664  37.938  1.00  0.00    -0.237 OA
ATOM     97  O   UNL A   1      46.511  25.951  39.249  1.00  0.00    -0.237 OA
ATOM     98  O   UNL A   1      44.102  26.381  39.540  1.00  0.00    -0.744 OA
ENDBRANCH  91  95
ENDBRANCH  65  88
ENDBRANCH  39  40
ENDBRANCH  31  34
ENDBRANCH  29  30
ENDBRANCH  28  29
ENDBRANCH  27  28
ENDBRANCH  26  27
ENDBRANCH   1  26
TORSDOF 21
ENDMDL
MODEL 3
REMARK VINA RESULT:      -9.7      1.386      2.028
REMARK SMILES O=C(CC1CCN(C(=O)N2CCCC[C@@H]2CCO)CC1)NCCCCCCNC(=O)c1ccc(-c2c3nc(c(-c4cc(S(=O)(=O)[O-])ccc4F)c4ccc([nH]4)c(-c4cc(S(=O)(=O)[O-])ccc4F)c4nc(c(-c5cc(S(=O)(=O)[O-])ccc5F)c5ccc2[nH]5)C=C4)C=C3)cc1
REMARK SMILES IDX 23 1 22 2 21 3 1 4 2 5 3 7 4 8 5 9 20 10 6 11 19 12 7 13
REMARK SMILES IDX 8 14 9 15 10 16 11 17 15 18 12 19 14 20 13 21 16 22 17 23
REMARK SMILES IDX 18 24 24 26 25 27 26 28 27 29 28 30 29 31 30 33 31 34 32 35
REMARK SMILES IDX 93 36 33 37 92 38 34 39 35 40 36 41 86 42 37 43 91 44 85 45
REMARK SMILES IDX 87 46 38 47 90 48 84 49 83 50 39 52 71 53 51 54 70 55 52 56
REMARK SMILES IDX 55 57 69 58 88 59 53 60 54 61 68 63 89 64 56 65 40 66 41 67
REMARK SMILES IDX 49 68 42 69 48 70 50 71 47 72 43 73 44 74 45 75 46 76 72 77
REMARK SMILES IDX 73 78 81 79 74 80 80 81 82 82 79 83 75 84 76 85 77 86 78 87
REMARK SMILES IDX 57 88 58 89 66 90 59 91 65 92 67 93 64 94 60 95 61 96 62 97
REMARK SMILES IDX 63 98
REMARK H PARENT 21 6 18 25 28 32 87 51 55 62
REMARK Flexibility Score: inf
ROOT
ATOM      1  C   UNL A   1      34.864  31.944  27.676  1.00  0.00     0.021 C 
ENDROOT
BRANCH   1   2
ATOM      2  C   UNL A   1      34.407  30.497  27.467  1.00  0.00     0.116 C 
BRANCH   2   3
ATOM      3  N   UNL A   1      33.547  30.357  26.310  1.00  0.00    -0.356 N 
ATOM      4  O   UNL A   1      31.790  29.364  27.415  1.00  0.00    -0.275 OA
ATOM      5  C   UNL A   1      32.294  29.797  26.385  1.00  0.00     0.220 C 
ATOM      6  H   UNL A   1      33.872  30.676  25.437  1.00  0.00     0.163 HD
BRANCH   5   7
ATOM      7  C   UNL A   1      31.585  29.742  25.048  1.00  0.00     0.103 C 
BRANCH   7   8
ATOM      8  C   UNL A   1      32.189  28.826  23.961  1.00  0.00     0.002 C 
ATOM      9  C   UNL A   1      31.076  28.140  23.147  1.00  0.00     0.026 C 
ATOM     10  C   UNL A   1      33.219  27.767  24.390  1.00  0.00     0.026 C 
ATOM     11  C   UNL A   1      30.457  26.961  23.898  1.00  0.00     0.121 C 
ATOM     12  C   UNL A   1      32.621  26.505  25.012  1.00  0.00     0.121 C 
ATOM     13  N   UNL A   1      31.472  25.982  24.268  1.00  0.00    -0.325 N 
ATOM     14  C   UNL A   1      31.250  24.640  23.961  1.00  0.00     0.320 C 
ATOM     15  O   UNL A   1      30.244  24.251  23.368  1.00  0.00    -0.248 OA
BRANCH  14  16
ATOM     16  N   UNL A   1      32.306  23.782  24.215  1.00  0.00    -0.322 N 
ATOM     17  C   UNL A   1      32.958  23.211  23.039  1.00  0.00     0.121 C 
ATOM     18  C   UNL A   1      32.361  22.910  25.405  1.00  0.00     0.089 C 
ATOM     19  C   UNL A   1      32.474  21.794  22.712  1.00  0.00     0.022 C 
ATOM     20  C   UNL A   1      31.773  21.521  25.086  1.00  0.00     0.025 C 
ATOM     21  C   UNL A   1      32.531  20.883  23.933  1.00  0.00     0.004 C 
BRANCH  18  22
ATOM     22  C   UNL A   1      31.707  23.428  26.689  1.00  0.00     0.053 C 
BRANCH  22  23
ATOM     23  C   UNL A   1      30.275  22.907  26.787  1.00  0.00     0.158 C 
BRANCH  23  24
ATOM     24  O   UNL A   1      29.395  24.018  26.926  1.00  0.00    -0.396 OA
ATOM     25  H   UNL A   1      29.915  24.824  27.080  1.00  0.00     0.210 HD
ENDBRANCH  23  24
ENDBRANCH  22  23
ENDBRANCH  18  22
ENDBRANCH  14  16
ENDBRANCH   7   8
ENDBRANCH   5   7
ENDBRANCH   2   3
ENDBRANCH   1   2
BRANCH   1  26
ATOM     26  C   UNL A   1      35.122  32.353  29.134  1.00  0.00     0.002 C 
BRANCH  26  27
ATOM     27  C   UNL A   1      35.721  33.747  29.301  1.00  0.00     0.002 C 
BRANCH  27  28
ATOM     28  C   UNL A   1      34.725  34.876  29.056  1.00  0.00     0.021 C 
BRANCH  28  29
ATOM     29  C   UNL A   1      33.293  34.539  29.463  1.00  0.00     0.116 C 
BRANCH  29  30
ATOM     30  N   UNL A   1      32.684  35.506  30.378  1.00  0.00    -0.352 N 
ATOM     31  C   UNL A   1      32.908  35.755  31.715  1.00  0.00     0.251 C 
ATOM     32  H   UNL A   1      31.996  36.078  29.966  1.00  0.00     0.163 HD
ATOM     33  O   UNL A   1      32.165  36.533  32.312  1.00  0.00    -0.269 OA
BRANCH  31  34
ATOM     34  C   UNL A   1      33.988  35.053  32.444  1.00  0.00     0.039 A 
ATOM     35  C   UNL A   1      33.783  33.745  32.899  1.00  0.00     0.014 A 
ATOM     36  C   UNL A   1      35.225  35.659  32.642  1.00  0.00     0.014 A 
ATOM     37  C   UNL A   1      34.854  33.013  33.424  1.00  0.00     0.010 A 
ATOM     38  C   UNL A   1      36.313  34.892  33.031  1.00  0.00     0.010 A 
ATOM     39  C   UNL A   1      36.148  33.553  33.423  1.00  0.00    -0.014 A 
BRANCH  39  40
ATOM     40  C   UNL A   1      37.361  32.782  33.821  1.00  0.00     0.031 A 
ATOM     41  C   UNL A   1      37.947  32.993  35.195  1.00  0.00     0.074 A 
ATOM     42  C   UNL A   1      38.017  32.023  32.916  1.00  0.00     0.049 A 
ATOM     43  N   UNL A   1      39.130  32.677  35.653  1.00  0.00    -0.248 NA
ATOM     44  C   UNL A   1      37.109  33.724  36.161  1.00  0.00     0.031 C 
ATOM     45  C   UNL A   1      37.585  31.769  31.539  1.00  0.00     0.029 A 
ATOM     46  N   UNL A   1      39.211  31.347  33.011  1.00  0.00    -0.354 N 
ATOM     47  C   UNL A   1      39.204  33.231  36.927  1.00  0.00     0.074 A 
ATOM     48  C   UNL A   1      37.963  33.941  37.149  1.00  0.00     0.031 C 
ATOM     49  C   UNL A   1      38.484  30.978  30.931  1.00  0.00     0.029 A 
ATOM     50  C   UNL A   1      39.592  30.722  31.843  1.00  0.00     0.049 A 
ATOM     51  H   UNL A   1      39.744  31.312  33.838  1.00  0.00     0.167 HD
ATOM     52  C   UNL A   1      40.207  33.142  37.834  1.00  0.00     0.034 A 
ATOM     53  C   UNL A   1      40.717  30.047  31.535  1.00  0.00     0.034 A 
ATOM     54  C   UNL A   1      41.395  32.351  37.631  1.00  0.00     0.049 A 
ATOM     55  C   UNL A   1      41.795  29.915  32.584  1.00  0.00     0.074 A 
ATOM     56  C   UNL A   1      42.422  32.098  38.522  1.00  0.00     0.029 A 
ATOM     57  N   UNL A   1      41.704  31.672  36.460  1.00  0.00    -0.354 N 
ATOM     58  N   UNL A   1      41.830  30.412  33.800  1.00  0.00    -0.248 NA
ATOM     59  C   UNL A   1      42.983  29.128  32.225  1.00  0.00     0.031 C 
ATOM     60  C   UNL A   1      43.378  31.309  37.875  1.00  0.00     0.029 A 
ATOM     61  C   UNL A   1      42.915  31.015  36.602  1.00  0.00     0.049 A 
ATOM     62  H   UNL A   1      41.147  31.661  35.649  1.00  0.00     0.167 HD
ATOM     63  C   UNL A   1      43.020  29.957  34.361  1.00  0.00     0.074 A 
ATOM     64  C   UNL A   1      43.670  29.141  33.357  1.00  0.00     0.031 C 
ATOM     65  C   UNL A   1      43.531  30.186  35.596  1.00  0.00     0.034 A 
BRANCH  52  66
ATOM     66  C   UNL A   1      40.070  33.919  39.121  1.00  0.00     0.023 A 
ATOM     67  C   UNL A   1      39.284  33.457  40.189  1.00  0.00     0.031 A 
ATOM     68  C   UNL A   1      40.742  35.145  39.279  1.00  0.00     0.131 A 
ATOM     69  C   UNL A   1      39.131  34.247  41.337  1.00  0.00     0.055 A 
ATOM     70  C   UNL A   1      40.651  35.887  40.458  1.00  0.00     0.041 A 
ATOM     71  F   UNL A   1      41.493  35.646  38.286  1.00  0.00    -0.206 F 
ATOM     72  C   UNL A   1      39.831  35.446  41.492  1.00  0.00     0.022 A 
BRANCH  69  73
ATOM     73  S   UNL A   1      37.907  33.742  42.576  1.00  0.00     0.124 S 
ATOM     74  O   UNL A   1      38.765  33.344  43.689  1.00  0.00    -0.237 OA
ATOM     75  O   UNL A   1      37.133  34.963  42.773  1.00  0.00    -0.237 OA
ATOM     76  O   UNL A   1      37.191  32.647  41.925  1.00  0.00    -0.744 OA
ENDBRANCH  69  73
ENDBRANCH  52  66
BRANCH  53  77
ATOM     77  C   UNL A   1      40.911  29.446  30.181  1.00  0.00     0.023 A 
ATOM     78  C   UNL A   1      40.320  28.214  29.855  1.00  0.00     0.031 A 
ATOM     79  C   UNL A   1      41.746  30.046  29.223  1.00  0.00     0.131 A 
ATOM     80  C   UNL A   1      40.627  27.587  28.638  1.00  0.00     0.055 A 
ATOM     81  C   UNL A   1      41.998  29.449  27.985  1.00  0.00     0.041 A 
ATOM     82  F   UNL A   1      42.332  31.227  29.476  1.00  0.00    -0.206 F 
ATOM     83  C   UNL A   1      41.453  28.201  27.695  1.00  0.00     0.022 A 
BRANCH  80  84
ATOM     84  S   UNL A   1      40.032  25.896  28.361  1.00  0.00     0.124 S 
ATOM     85  O   UNL A   1      41.232  25.113  28.630  1.00  0.00    -0.237 OA
ATOM     86  O   UNL A   1      38.962  25.790  29.348  1.00  0.00    -0.237 OA
ATOM     87  O   UNL A   1      39.595  25.913  26.968  1.00  0.00    -0.744 OA
ENDBRANCH  80  84
ENDBRANCH  53  77
BRANCH  65  88
ATOM     88  C   UNL A   1      44.812  29.480  35.955  1.00  0.00     0.023 A 
ATOM     89  C   UNL A   1      44.820  28.282  36.689  1.00  0.00     0.031 A 
ATOM     90  C   UNL A   1      46.045  30.015  35.542  1.00  0.00     0.131 A 
ATOM     91  C   UNL A   1      46.042  27.683  37.027  1.00  0.00     0.055 A 
ATOM     92  C   UNL A   1      47.254  29.385  35.833  1.00  0.00     0.041 A 
ATOM     93  F   UNL A   1      46.091  31.157  34.836  1.00  0.00    -0.206 F 
ATOM     94  C   UNL A   1      47.257  28.216  36.589  1.00  0.00     0.022 A 
BRANCH  91  95
ATOM     95  S   UNL A   1      46.027  26.226  38.107  1.00  0.00     0.124 S 
ATOM     96  O   UNL A   1      46.998  25.354  37.455  1.00  0.00    -0.237 OA
ATOM     97  O   UNL A   1      46.435  26.784  39.392  1.00  0.00    -0.237 OA
ATOM     98  O   UNL A   1      44.640  25.767  38.046  1.00  0.00    -0.744 OA
ENDBRANCH  91  95
ENDBRANCH  65  88
ENDBRANCH  39  40
ENDBRANCH  31  34
ENDBRANCH  29  30
ENDBRANCH  28  29
ENDBRANCH  27  28
ENDBRANCH  26  27
ENDBRANCH   1  26
TORSDOF 21
ENDMDL
