MODEL 1
REMARK VINA RESULT:     -10.8      0.000      0.000
REMARK SMILES C=CCOc1ccc(C(=O)N2CCC[C@H]2C(=O)NCCCCCCNC(=O)c2ccc(-c3c4nc(c(-c5cc(S(=O)(=O)[O-])ccc5F)c5ccc([nH]5)c(-c5cc(S(=O)(=O)[O-])ccc5F)c5nc(c(-c6cc(S(=O)(=O)[O-])ccc6F)c6ccc3[nH]6)C=C5)C=C4)cc2)cc1
REMARK SMILES IDX 20 1 19 2 18 3 16 4 17 5 15 7 11 8 12 9 13 10 14 11 9 12
REMARK SMILES IDX 10 13 8 14 5 15 6 16 92 17 7 18 91 19 4 20 3 21 2 22 1 23
REMARK SMILES IDX 21 24 22 25 23 26 24 27 25 28 26 29 27 31 28 32 29 33 90 34
REMARK SMILES IDX 30 35 89 36 31 37 32 38 33 39 83 40 34 41 88 42 82 43 84 44
REMARK SMILES IDX 35 45 87 46 81 47 80 48 36 50 68 51 48 52 67 53 49 54 52 55
REMARK SMILES IDX 66 56 85 57 50 58 51 59 65 61 86 62 53 63 37 64 38 65 46 66
REMARK SMILES IDX 39 67 45 68 47 69 44 70 40 71 41 72 42 73 43 74 69 75 70 76
REMARK SMILES IDX 78 77 71 78 77 79 79 80 76 81 72 82 73 83 74 84 75 85 54 86
REMARK SMILES IDX 55 87 63 88 56 89 62 90 64 91 61 92 57 93 58 94 59 95 60 96
REMARK H PARENT 18 6 25 30 84 49 52 60
REMARK Flexibility Score: inf
ROOT
ATOM      1  C   UNL A   1      35.431  22.068  25.659  1.00  0.00     0.021 C 
ENDROOT
BRANCH   1   2
ATOM      2  C   UNL A   1      35.542  23.256  24.714  1.00  0.00     0.116 C 
BRANCH   2   3
ATOM      3  N   UNL A   1      35.175  24.498  25.345  1.00  0.00    -0.354 N 
ATOM      4  C   UNL A   1      34.198  25.389  25.019  1.00  0.00     0.242 C 
ATOM      5  O   UNL A   1      34.015  26.323  25.811  1.00  0.00    -0.273 OA
ATOM      6  H   UNL A   1      35.712  24.740  26.134  1.00  0.00     0.163 HD
BRANCH   4   7
ATOM      7  C   UNL A   1      33.180  25.138  23.883  1.00  0.00     0.174 C 
ATOM      8  N   UNL A   1      31.743  25.045  24.160  1.00  0.00    -0.327 N 
ATOM      9  C   UNL A   1      30.999  26.066  23.413  1.00  0.00     0.121 C 
ATOM     10  C   UNL A   1      31.893  26.344  22.221  1.00  0.00     0.024 C 
ATOM     11  C   UNL A   1      33.293  26.242  22.821  1.00  0.00     0.037 C 
BRANCH   8  12
ATOM     12  C   UNL A   1      31.297  23.890  24.791  1.00  0.00     0.254 C 
ATOM     13  O   UNL A   1      30.627  23.934  25.822  1.00  0.00    -0.269 OA
BRANCH  12  14
ATOM     14  C   UNL A   1      31.734  22.555  24.305  1.00  0.00     0.040 A 
ATOM     15  C   UNL A   1      32.409  19.975  23.422  1.00  0.00     0.119 A 
ATOM     16  C   UNL A   1      32.088  20.968  22.495  1.00  0.00     0.047 A 
ATOM     17  C   UNL A   1      32.399  20.283  24.776  1.00  0.00     0.047 A 
ATOM     18  C   UNL A   1      31.753  22.260  22.935  1.00  0.00     0.017 A 
ATOM     19  C   UNL A   1      31.987  21.532  25.213  1.00  0.00     0.017 A 
BRANCH  15  20
ATOM     20  O   UNL A   1      32.776  18.741  22.957  1.00  0.00    -0.490 OA
BRANCH  20  21
ATOM     21  C   UNL A   1      32.654  17.677  23.919  1.00  0.00     0.257 C 
BRANCH  21  22
ATOM     22  C   UNL A   1      33.744  16.648  23.776  1.00  0.00     0.006 C 
ATOM     23  C   UNL A   1      34.660  16.383  24.721  1.00  0.00     0.007 C 
ENDBRANCH  21  22
ENDBRANCH  20  21
ENDBRANCH  15  20
ENDBRANCH  12  14
ENDBRANCH   8  12
ENDBRANCH   4   7
ENDBRANCH   2   3
ENDBRANCH   1   2
BRANCH   1  24
ATOM     24  C   UNL A   1      35.991  20.774  25.065  1.00  0.00     0.002 C 
BRANCH  24  25
ATOM     25  C   UNL A   1      37.427  20.880  24.535  1.00  0.00     0.002 C 
BRANCH  25  26
ATOM     26  C   UNL A   1      38.357  19.736  24.950  1.00  0.00     0.021 C 
BRANCH  26  27
ATOM     27  C   UNL A   1      39.339  20.098  26.060  1.00  0.00     0.116 C 
BRANCH  27  28
ATOM     28  N   UNL A   1      40.496  19.217  26.053  1.00  0.00    -0.352 N 
ATOM     29  C   UNL A   1      41.827  19.537  26.043  1.00  0.00     0.251 C 
ATOM     30  H   UNL A   1      40.294  18.254  26.056  1.00  0.00     0.163 HD
ATOM     31  O   UNL A   1      42.661  18.670  25.771  1.00  0.00    -0.269 OA
BRANCH  29  32
ATOM     32  C   UNL A   1      42.255  20.916  26.348  1.00  0.00     0.039 A 
ATOM     33  C   UNL A   1      42.586  21.252  27.661  1.00  0.00     0.014 A 
ATOM     34  C   UNL A   1      42.314  21.881  25.337  1.00  0.00     0.014 A 
ATOM     35  C   UNL A   1      43.023  22.546  27.953  1.00  0.00     0.010 A 
ATOM     36  C   UNL A   1      42.822  23.146  25.615  1.00  0.00     0.010 A 
ATOM     37  C   UNL A   1      43.173  23.495  26.928  1.00  0.00    -0.014 A 
BRANCH  37  38
ATOM     38  C   UNL A   1      43.668  24.866  27.214  1.00  0.00     0.031 A 
ATOM     39  C   UNL A   1      42.719  25.913  27.734  1.00  0.00     0.074 A 
ATOM     40  C   UNL A   1      44.956  25.178  26.964  1.00  0.00     0.049 A 
ATOM     41  N   UNL A   1      42.936  27.180  27.972  1.00  0.00    -0.248 NA
ATOM     42  C   UNL A   1      41.337  25.481  27.993  1.00  0.00     0.031 C 
ATOM     43  C   UNL A   1      45.962  24.253  26.437  1.00  0.00     0.029 A 
ATOM     44  N   UNL A   1      45.639  26.358  27.115  1.00  0.00    -0.354 N 
ATOM     45  C   UNL A   1      41.719  27.698  28.405  1.00  0.00     0.074 A 
ATOM     46  C   UNL A   1      40.755  26.622  28.325  1.00  0.00     0.031 C 
ATOM     47  C   UNL A   1      47.138  24.892  26.338  1.00  0.00     0.029 A 
ATOM     48  C   UNL A   1      46.961  26.284  26.742  1.00  0.00     0.049 A 
ATOM     49  H   UNL A   1      45.223  27.181  27.458  1.00  0.00     0.167 HD
ATOM     50  C   UNL A   1      41.439  28.946  28.853  1.00  0.00     0.034 A 
ATOM     51  C   UNL A   1      47.919  27.233  26.716  1.00  0.00     0.034 A 
ATOM     52  C   UNL A   1      42.415  30.006  28.932  1.00  0.00     0.049 A 
ATOM     53  C   UNL A   1      47.568  28.629  27.170  1.00  0.00     0.074 A 
ATOM     54  C   UNL A   1      42.248  31.299  29.397  1.00  0.00     0.029 A 
ATOM     55  N   UNL A   1      43.741  29.898  28.532  1.00  0.00    -0.354 N 
ATOM     56  N   UNL A   1      46.419  29.094  27.608  1.00  0.00    -0.248 NA
ATOM     57  C   UNL A   1      48.645  29.627  27.136  1.00  0.00     0.031 C 
ATOM     58  C   UNL A   1      43.449  31.990  29.213  1.00  0.00     0.029 A 
ATOM     59  C   UNL A   1      44.393  31.107  28.714  1.00  0.00     0.049 A 
ATOM     60  H   UNL A   1      44.157  29.081  28.172  1.00  0.00     0.167 HD
ATOM     61  C   UNL A   1      46.651  30.425  27.942  1.00  0.00     0.074 A 
ATOM     62  C   UNL A   1      48.049  30.685  27.668  1.00  0.00     0.031 C 
ATOM     63  C   UNL A   1      45.789  31.350  28.435  1.00  0.00     0.034 A 
BRANCH  50  64
ATOM     64  C   UNL A   1      40.017  29.234  29.273  1.00  0.00     0.023 A 
ATOM     65  C   UNL A   1      39.645  29.281  30.628  1.00  0.00     0.031 A 
ATOM     66  C   UNL A   1      39.016  29.449  28.309  1.00  0.00     0.131 A 
ATOM     67  C   UNL A   1      38.299  29.465  30.980  1.00  0.00     0.055 A 
ATOM     68  C   UNL A   1      37.692  29.715  28.668  1.00  0.00     0.041 A 
ATOM     69  F   UNL A   1      39.305  29.393  26.999  1.00  0.00    -0.206 F 
ATOM     70  C   UNL A   1      37.325  29.710  30.010  1.00  0.00     0.022 A 
BRANCH  67  71
ATOM     71  S   UNL A   1      37.820  29.238  32.714  1.00  0.00     0.124 S 
ATOM     72  O   UNL A   1      38.952  29.841  33.414  1.00  0.00    -0.237 OA
ATOM     73  O   UNL A   1      36.559  29.966  32.791  1.00  0.00    -0.237 OA
ATOM     74  O   UNL A   1      37.711  27.786  32.853  1.00  0.00    -0.744 OA
ENDBRANCH  67  71
ENDBRANCH  50  64
BRANCH  51  75
ATOM     75  C   UNL A   1      49.297  26.916  26.239  1.00  0.00     0.023 A 
ATOM     76  C   UNL A   1      49.773  27.430  25.022  1.00  0.00     0.031 A 
ATOM     77  C   UNL A   1      50.133  26.039  26.953  1.00  0.00     0.131 A 
ATOM     78  C   UNL A   1      51.017  27.013  24.524  1.00  0.00     0.055 A 
ATOM     79  C   UNL A   1      51.398  25.679  26.486  1.00  0.00     0.041 A 
ATOM     80  F   UNL A   1      49.730  25.518  28.123  1.00  0.00    -0.206 F 
ATOM     81  C   UNL A   1      51.839  26.152  25.254  1.00  0.00     0.022 A 
BRANCH  78  82
ATOM     82  S   UNL A   1      51.492  27.516  22.847  1.00  0.00     0.124 S 
ATOM     83  O   UNL A   1      52.871  27.047  22.777  1.00  0.00    -0.237 OA
ATOM     84  O   UNL A   1      50.525  26.791  22.029  1.00  0.00    -0.237 OA
ATOM     85  O   UNL A   1      51.325  28.967  22.868  1.00  0.00    -0.744 OA
ENDBRANCH  78  82
ENDBRANCH  51  75
BRANCH  63  86
ATOM     86  C   UNL A   1      46.354  32.712  28.766  1.00  0.00     0.023 A 
ATOM     87  C   UNL A   1      46.420  33.742  27.813  1.00  0.00     0.031 A 
ATOM     88  C   UNL A   1      46.846  32.974  30.058  1.00  0.00     0.131 A 
ATOM     89  C   UNL A   1      47.018  34.967  28.149  1.00  0.00     0.055 A 
ATOM     90  C   UNL A   1      47.377  34.216  30.405  1.00  0.00     0.041 A 
ATOM     91  F   UNL A   1      46.813  32.025  31.009  1.00  0.00    -0.206 F 
ATOM     92  C   UNL A   1      47.479  35.216  29.443  1.00  0.00     0.022 A 
BRANCH  89  93
ATOM     93  S   UNL A   1      47.276  36.196  26.841  1.00  0.00     0.124 S 
ATOM     94  O   UNL A   1      47.054  37.449  27.552  1.00  0.00    -0.237 OA
ATOM     95  O   UNL A   1      48.651  35.931  26.431  1.00  0.00    -0.237 OA
ATOM     96  O   UNL A   1      46.259  35.858  25.846  1.00  0.00    -0.744 OA
ENDBRANCH  89  93
ENDBRANCH  63  86
ENDBRANCH  37  38
ENDBRANCH  29  32
ENDBRANCH  27  28
ENDBRANCH  26  27
ENDBRANCH  25  26
ENDBRANCH  24  25
ENDBRANCH   1  24
TORSDOF 21
ENDMDL
MODEL 2
REMARK VINA RESULT:     -10.8      6.195     11.519
REMARK SMILES C=CCOc1ccc(C(=O)N2CCC[C@H]2C(=O)NCCCCCCNC(=O)c2ccc(-c3c4nc(c(-c5cc(S(=O)(=O)[O-])ccc5F)c5ccc([nH]5)c(-c5cc(S(=O)(=O)[O-])ccc5F)c5nc(c(-c6cc(S(=O)(=O)[O-])ccc6F)c6ccc3[nH]6)C=C5)C=C4)cc2)cc1
REMARK SMILES IDX 20 1 19 2 18 3 16 4 17 5 15 7 11 8 12 9 13 10 14 11 9 12
REMARK SMILES IDX 10 13 8 14 5 15 6 16 92 17 7 18 91 19 4 20 3 21 2 22 1 23
REMARK SMILES IDX 21 24 22 25 23 26 24 27 25 28 26 29 27 31 28 32 29 33 90 34
REMARK SMILES IDX 30 35 89 36 31 37 32 38 33 39 83 40 34 41 88 42 82 43 84 44
REMARK SMILES IDX 35 45 87 46 81 47 80 48 36 50 68 51 48 52 67 53 49 54 52 55
REMARK SMILES IDX 66 56 85 57 50 58 51 59 65 61 86 62 53 63 37 64 38 65 46 66
REMARK SMILES IDX 39 67 45 68 47 69 44 70 40 71 41 72 42 73 43 74 69 75 70 76
REMARK SMILES IDX 78 77 71 78 77 79 79 80 76 81 72 82 73 83 74 84 75 85 54 86
REMARK SMILES IDX 55 87 63 88 56 89 62 90 64 91 61 92 57 93 58 94 59 95 60 96
REMARK H PARENT 18 6 25 30 84 49 52 60
REMARK Flexibility Score: inf
ROOT
ATOM      1  C   UNL A   1      31.870  28.363  27.237  1.00  0.00     0.021 C 
ENDROOT
BRANCH   1   2
ATOM      2  C   UNL A   1      31.864  27.155  26.311  1.00  0.00     0.116 C 
BRANCH   2   3
ATOM      3  N   UNL A   1      33.160  26.532  26.211  1.00  0.00    -0.354 N 
ATOM      4  C   UNL A   1      33.546  25.421  25.524  1.00  0.00     0.242 C 
ATOM      5  O   UNL A   1      34.758  25.173  25.510  1.00  0.00    -0.273 OA
ATOM      6  H   UNL A   1      33.877  26.979  26.716  1.00  0.00     0.163 HD
BRANCH   4   7
ATOM      7  C   UNL A   1      32.594  24.644  24.586  1.00  0.00     0.174 C 
ATOM      8  N   UNL A   1      32.951  24.390  23.186  1.00  0.00    -0.327 N 
ATOM      9  C   UNL A   1      32.984  22.949  22.907  1.00  0.00     0.121 C 
ATOM     10  C   UNL A   1      32.039  22.374  23.944  1.00  0.00     0.024 C 
ATOM     11  C   UNL A   1      32.306  23.250  25.165  1.00  0.00     0.037 C 
BRANCH   8  12
ATOM     12  C   UNL A   1      32.895  25.473  22.316  1.00  0.00     0.254 C 
ATOM     13  O   UNL A   1      33.707  25.609  21.402  1.00  0.00    -0.269 OA
BRANCH  12  14
ATOM     14  C   UNL A   1      31.925  26.573  22.552  1.00  0.00     0.040 A 
ATOM     15  C   UNL A   1      30.099  28.621  23.159  1.00  0.00     0.119 A 
ATOM     16  C   UNL A   1      31.433  28.932  22.893  1.00  0.00     0.047 A 
ATOM     17  C   UNL A   1      29.689  27.295  23.109  1.00  0.00     0.047 A 
ATOM     18  C   UNL A   1      32.347  27.909  22.586  1.00  0.00     0.017 A 
ATOM     19  C   UNL A   1      30.607  26.280  22.890  1.00  0.00     0.017 A 
BRANCH  15  20
ATOM     20  O   UNL A   1      29.225  29.645  23.408  1.00  0.00    -0.490 OA
BRANCH  20  21
ATOM     21  C   UNL A   1      27.990  29.571  22.675  1.00  0.00     0.257 C 
BRANCH  21  22
ATOM     22  C   UNL A   1      27.882  30.645  21.624  1.00  0.00     0.006 C 
ATOM     23  C   UNL A   1      28.682  31.722  21.561  1.00  0.00     0.007 C 
ENDBRANCH  21  22
ENDBRANCH  20  21
ENDBRANCH  15  20
ENDBRANCH  12  14
ENDBRANCH   8  12
ENDBRANCH   4   7
ENDBRANCH   2   3
ENDBRANCH   1   2
BRANCH   1  24
ATOM     24  C   UNL A   1      32.440  29.620  26.578  1.00  0.00     0.002 C 
BRANCH  24  25
ATOM     25  C   UNL A   1      31.390  30.548  25.953  1.00  0.00     0.002 C 
BRANCH  25  26
ATOM     26  C   UNL A   1      31.351  31.966  26.532  1.00  0.00     0.021 C 
BRANCH  26  27
ATOM     27  C   UNL A   1      32.700  32.476  27.031  1.00  0.00     0.116 C 
BRANCH  27  28
ATOM     28  N   UNL A   1      32.604  33.843  27.518  1.00  0.00    -0.352 N 
ATOM     29  C   UNL A   1      33.261  34.438  28.560  1.00  0.00     0.251 C 
ATOM     30  H   UNL A   1      31.977  34.422  27.027  1.00  0.00     0.163 HD
ATOM     31  O   UNL A   1      32.862  35.522  28.994  1.00  0.00    -0.269 OA
BRANCH  29  32
ATOM     32  C   UNL A   1      34.434  33.777  29.165  1.00  0.00     0.039 A 
ATOM     33  C   UNL A   1      35.713  34.238  28.849  1.00  0.00     0.014 A 
ATOM     34  C   UNL A   1      34.270  32.692  30.032  1.00  0.00     0.014 A 
ATOM     35  C   UNL A   1      36.827  33.640  29.441  1.00  0.00     0.010 A 
ATOM     36  C   UNL A   1      35.375  32.149  30.679  1.00  0.00     0.010 A 
ATOM     37  C   UNL A   1      36.666  32.610  30.383  1.00  0.00    -0.014 A 
BRANCH  37  38
ATOM     38  C   UNL A   1      37.838  31.984  31.048  1.00  0.00     0.031 A 
ATOM     39  C   UNL A   1      38.641  30.937  30.324  1.00  0.00     0.074 A 
ATOM     40  C   UNL A   1      38.150  32.328  32.315  1.00  0.00     0.049 A 
ATOM     41  N   UNL A   1      39.646  30.221  30.756  1.00  0.00    -0.248 NA
ATOM     42  C   UNL A   1      38.239  30.637  28.941  1.00  0.00     0.031 C 
ATOM     43  C   UNL A   1      37.430  33.312  33.125  1.00  0.00     0.029 A 
ATOM     44  N   UNL A   1      39.149  31.884  33.145  1.00  0.00    -0.354 N 
ATOM     45  C   UNL A   1      39.995  29.383  29.701  1.00  0.00     0.074 A 
ATOM     46  C   UNL A   1      39.046  29.633  28.637  1.00  0.00     0.031 C 
ATOM     47  C   UNL A   1      38.029  33.420  34.322  1.00  0.00     0.029 A 
ATOM     48  C   UNL A   1      39.140  32.475  34.387  1.00  0.00     0.049 A 
ATOM     49  H   UNL A   1      39.809  31.205  32.877  1.00  0.00     0.167 HD
ATOM     50  C   UNL A   1      41.027  28.509  29.617  1.00  0.00     0.034 A 
ATOM     51  C   UNL A   1      39.931  32.271  35.460  1.00  0.00     0.034 A 
ATOM     52  C   UNL A   1      41.968  28.277  30.686  1.00  0.00     0.049 A 
ATOM     53  C   UNL A   1      41.041  31.252  35.359  1.00  0.00     0.074 A 
ATOM     54  C   UNL A   1      43.068  27.437  30.698  1.00  0.00     0.029 A 
ATOM     55  N   UNL A   1      41.920  28.885  31.934  1.00  0.00    -0.354 N 
ATOM     56  N   UNL A   1      41.377  30.493  34.341  1.00  0.00    -0.248 NA
ATOM     57  C   UNL A   1      41.883  31.071  36.548  1.00  0.00     0.031 C 
ATOM     58  C   UNL A   1      43.640  27.482  31.973  1.00  0.00     0.029 A 
ATOM     59  C   UNL A   1      42.953  28.416  32.731  1.00  0.00     0.049 A 
ATOM     60  H   UNL A   1      41.250  29.551  32.212  1.00  0.00     0.167 HD
ATOM     61  C   UNL A   1      42.498  29.778  34.755  1.00  0.00     0.074 A 
ATOM     62  C   UNL A   1      42.786  30.206  36.109  1.00  0.00     0.031 C 
ATOM     63  C   UNL A   1      43.227  28.854  34.080  1.00  0.00     0.034 A 
BRANCH  50  64
ATOM     64  C   UNL A   1      41.177  27.727  28.333  1.00  0.00     0.023 A 
ATOM     65  C   UNL A   1      40.829  26.367  28.255  1.00  0.00     0.031 A 
ATOM     66  C   UNL A   1      41.687  28.343  27.177  1.00  0.00     0.131 A 
ATOM     67  C   UNL A   1      41.062  25.650  27.071  1.00  0.00     0.055 A 
ATOM     68  C   UNL A   1      41.838  27.644  25.976  1.00  0.00     0.041 A 
ATOM     69  F   UNL A   1      42.059  29.632  27.195  1.00  0.00    -0.206 F 
ATOM     70  C   UNL A   1      41.538  26.287  25.923  1.00  0.00     0.022 A 
BRANCH  67  71
ATOM     71  S   UNL A   1      40.867  23.848  27.098  1.00  0.00     0.124 S 
ATOM     72  O   UNL A   1      41.483  23.504  28.378  1.00  0.00    -0.237 OA
ATOM     73  O   UNL A   1      39.420  23.685  27.021  1.00  0.00    -0.237 OA
ATOM     74  O   UNL A   1      41.608  23.405  25.919  1.00  0.00    -0.744 OA
ENDBRANCH  67  71
ENDBRANCH  50  64
BRANCH  51  75
ATOM     75  C   UNL A   1      39.709  33.026  36.727  1.00  0.00     0.023 A 
ATOM     76  C   UNL A   1      38.860  32.522  37.726  1.00  0.00     0.031 A 
ATOM     77  C   UNL A   1      40.284  34.293  36.932  1.00  0.00     0.131 A 
ATOM     78  C   UNL A   1      38.557  33.308  38.850  1.00  0.00     0.055 A 
ATOM     79  C   UNL A   1      40.032  35.042  38.083  1.00  0.00     0.041 A 
ATOM     80  F   UNL A   1      41.105  34.824  36.012  1.00  0.00    -0.206 F 
ATOM     81  C   UNL A   1      39.148  34.558  39.042  1.00  0.00     0.022 A 
BRANCH  78  82
ATOM     82  S   UNL A   1      37.280  32.721  39.997  1.00  0.00     0.124 S 
ATOM     83  O   UNL A   1      36.122  32.610  39.118  1.00  0.00    -0.237 OA
ATOM     84  O   UNL A   1      37.852  31.463  40.467  1.00  0.00    -0.237 OA
ATOM     85  O   UNL A   1      37.207  33.783  40.996  1.00  0.00    -0.744 OA
ENDBRANCH  78  82
ENDBRANCH  51  75
BRANCH  63  86
ATOM     86  C   UNL A   1      44.444  28.291  34.777  1.00  0.00     0.023 A 
ATOM     87  C   UNL A   1      44.377  27.137  35.576  1.00  0.00     0.031 A 
ATOM     88  C   UNL A   1      45.689  28.934  34.646  1.00  0.00     0.131 A 
ATOM     89  C   UNL A   1      45.520  26.694  36.259  1.00  0.00     0.055 A 
ATOM     90  C   UNL A   1      46.836  28.449  35.273  1.00  0.00     0.041 A 
ATOM     91  F   UNL A   1      45.811  30.043  33.899  1.00  0.00    -0.206 F 
ATOM     92  C   UNL A   1      46.752  27.330  36.097  1.00  0.00     0.022 A 
BRANCH  89  93
ATOM     93  S   UNL A   1      45.351  25.331  37.443  1.00  0.00     0.124 S 
ATOM     94  O   UNL A   1      46.702  24.784  37.473  1.00  0.00    -0.237 OA
ATOM     95  O   UNL A   1      44.915  26.020  38.653  1.00  0.00    -0.237 OA
ATOM     96  O   UNL A   1      44.344  24.465  36.829  1.00  0.00    -0.744 OA
ENDBRANCH  89  93
ENDBRANCH  63  86
ENDBRANCH  37  38
ENDBRANCH  29  32
ENDBRANCH  27  28
ENDBRANCH  26  27
ENDBRANCH  25  26
ENDBRANCH  24  25
ENDBRANCH   1  24
TORSDOF 21
ENDMDL
MODEL 3
REMARK VINA RESULT:     -10.6      2.104      2.774
REMARK SMILES C=CCOc1ccc(C(=O)N2CCC[C@H]2C(=O)NCCCCCCNC(=O)c2ccc(-c3c4nc(c(-c5cc(S(=O)(=O)[O-])ccc5F)c5ccc([nH]5)c(-c5cc(S(=O)(=O)[O-])ccc5F)c5nc(c(-c6cc(S(=O)(=O)[O-])ccc6F)c6ccc3[nH]6)C=C5)C=C4)cc2)cc1
REMARK SMILES IDX 20 1 19 2 18 3 16 4 17 5 15 7 11 8 12 9 13 10 14 11 9 12
REMARK SMILES IDX 10 13 8 14 5 15 6 16 92 17 7 18 91 19 4 20 3 21 2 22 1 23
REMARK SMILES IDX 21 24 22 25 23 26 24 27 25 28 26 29 27 31 28 32 29 33 90 34
REMARK SMILES IDX 30 35 89 36 31 37 32 38 33 39 83 40 34 41 88 42 82 43 84 44
REMARK SMILES IDX 35 45 87 46 81 47 80 48 36 50 68 51 48 52 67 53 49 54 52 55
REMARK SMILES IDX 66 56 85 57 50 58 51 59 65 61 86 62 53 63 37 64 38 65 46 66
REMARK SMILES IDX 39 67 45 68 47 69 44 70 40 71 41 72 42 73 43 74 69 75 70 76
REMARK SMILES IDX 78 77 71 78 77 79 79 80 76 81 72 82 73 83 74 84 75 85 54 86
REMARK SMILES IDX 55 87 63 88 56 89 62 90 64 91 61 92 57 93 58 94 59 95 60 96
REMARK H PARENT 18 6 25 30 84 49 52 60
REMARK Flexibility Score: inf
ROOT
ATOM      1  C   UNL A   1      33.902  25.411  25.788  1.00  0.00     0.021 C 
ENDROOT
BRANCH   1   2
ATOM      2  C   UNL A   1      34.212  26.871  26.086  1.00  0.00     0.116 C 
BRANCH   2   3
ATOM      3  N   UNL A   1      33.241  27.768  25.512  1.00  0.00    -0.354 N 
ATOM      4  C   UNL A   1      32.575  27.693  24.327  1.00  0.00     0.242 C 
ATOM      5  O   UNL A   1      31.696  28.543  24.132  1.00  0.00    -0.273 OA
ATOM      6  H   UNL A   1      33.026  28.556  26.061  1.00  0.00     0.163 HD
BRANCH   4   7
ATOM      7  C   UNL A   1      32.694  26.481  23.374  1.00  0.00     0.174 C 
ATOM      8  N   UNL A   1      31.500  25.833  22.822  1.00  0.00    -0.327 N 
ATOM      9  C   UNL A   1      31.514  25.873  21.354  1.00  0.00     0.121 C 
ATOM     10  C   UNL A   1      32.990  25.967  21.025  1.00  0.00     0.024 C 
ATOM     11  C   UNL A   1      33.527  26.860  22.140  1.00  0.00     0.037 C 
BRANCH   8  12
ATOM     12  C   UNL A   1      30.747  25.053  23.692  1.00  0.00     0.254 C 
ATOM     13  O   UNL A   1      29.754  25.499  24.266  1.00  0.00    -0.269 OA
BRANCH  12  14
ATOM     14  C   UNL A   1      31.203  23.687  24.058  1.00  0.00     0.040 A 
ATOM     15  C   UNL A   1      31.908  21.056  24.748  1.00  0.00     0.119 A 
ATOM     16  C   UNL A   1      32.045  21.492  23.430  1.00  0.00     0.047 A 
ATOM     17  C   UNL A   1      31.431  21.939  25.708  1.00  0.00     0.047 A 
ATOM     18  C   UNL A   1      31.696  22.808  23.083  1.00  0.00     0.017 A 
ATOM     19  C   UNL A   1      31.008  23.210  25.350  1.00  0.00     0.017 A 
BRANCH  15  20
ATOM     20  O   UNL A   1      32.301  19.782  25.060  1.00  0.00    -0.490 OA
BRANCH  20  21
ATOM     21  C   UNL A   1      33.309  19.236  24.190  1.00  0.00     0.257 C 
BRANCH  21  22
ATOM     22  C   UNL A   1      33.371  17.732  24.259  1.00  0.00     0.006 C 
ATOM     23  C   UNL A   1      34.012  16.962  23.366  1.00  0.00     0.007 C 
ENDBRANCH  21  22
ENDBRANCH  20  21
ENDBRANCH  15  20
ENDBRANCH  12  14
ENDBRANCH   8  12
ENDBRANCH   4   7
ENDBRANCH   2   3
ENDBRANCH   1   2
BRANCH   1  24
ATOM     24  C   UNL A   1      35.148  24.589  25.456  1.00  0.00     0.002 C 
BRANCH  24  25
ATOM     25  C   UNL A   1      34.953  23.547  24.347  1.00  0.00     0.002 C 
BRANCH  25  26
ATOM     26  C   UNL A   1      35.520  22.158  24.655  1.00  0.00     0.021 C 
BRANCH  26  27
ATOM     27  C   UNL A   1      36.982  21.976  24.261  1.00  0.00     0.116 C 
BRANCH  27  28
ATOM     28  N   UNL A   1      37.597  20.877  24.990  1.00  0.00    -0.352 N 
ATOM     29  C   UNL A   1      38.783  20.848  25.671  1.00  0.00     0.251 C 
ATOM     30  H   UNL A   1      37.087  20.036  24.993  1.00  0.00     0.163 HD
ATOM     31  O   UNL A   1      39.270  19.764  26.001  1.00  0.00    -0.269 OA
BRANCH  29  32
ATOM     32  C   UNL A   1      39.476  22.109  25.997  1.00  0.00     0.039 A 
ATOM     33  C   UNL A   1      38.750  23.301  26.012  1.00  0.00     0.014 A 
ATOM     34  C   UNL A   1      40.847  22.116  26.274  1.00  0.00     0.014 A 
ATOM     35  C   UNL A   1      39.391  24.494  26.351  1.00  0.00     0.010 A 
ATOM     36  C   UNL A   1      41.465  23.291  26.686  1.00  0.00     0.010 A 
ATOM     37  C   UNL A   1      40.746  24.496  26.719  1.00  0.00    -0.014 A 
BRANCH  37  38
ATOM     38  C   UNL A   1      41.437  25.750  27.115  1.00  0.00     0.031 A 
ATOM     39  C   UNL A   1      40.722  26.761  27.972  1.00  0.00     0.074 A 
ATOM     40  C   UNL A   1      42.685  25.996  26.668  1.00  0.00     0.049 A 
ATOM     41  N   UNL A   1      41.120  27.945  28.360  1.00  0.00    -0.248 NA
ATOM     42  C   UNL A   1      39.370  26.403  28.427  1.00  0.00     0.031 C 
ATOM     43  C   UNL A   1      43.468  25.102  25.813  1.00  0.00     0.029 A 
ATOM     44  N   UNL A   1      43.513  27.073  26.867  1.00  0.00    -0.354 N 
ATOM     45  C   UNL A   1      40.068  28.474  29.101  1.00  0.00     0.074 A 
ATOM     46  C   UNL A   1      38.990  27.510  29.044  1.00  0.00     0.031 C 
ATOM     47  C   UNL A   1      44.671  25.652  25.586  1.00  0.00     0.029 A 
ATOM     48  C   UNL A   1      44.729  26.960  26.232  1.00  0.00     0.049 A 
ATOM     49  H   UNL A   1      43.261  27.852  27.411  1.00  0.00     0.167 HD
ATOM     50  C   UNL A   1      40.016  29.642  29.787  1.00  0.00     0.034 A 
ATOM     51  C   UNL A   1      45.767  27.818  26.169  1.00  0.00     0.034 A 
ATOM     52  C   UNL A   1      41.103  30.589  29.838  1.00  0.00     0.049 A 
ATOM     53  C   UNL A   1      45.663  29.136  26.898  1.00  0.00     0.074 A 
ATOM     54  C   UNL A   1      41.170  31.788  30.526  1.00  0.00     0.029 A 
ATOM     55  N   UNL A   1      42.314  30.446  29.173  1.00  0.00    -0.354 N 
ATOM     56  N   UNL A   1      44.672  29.606  27.622  1.00  0.00    -0.248 NA
ATOM     57  C   UNL A   1      46.822  30.034  26.811  1.00  0.00     0.031 C 
ATOM     58  C   UNL A   1      42.388  32.402  30.220  1.00  0.00     0.029 A 
ATOM     59  C   UNL A   1      43.121  31.549  29.411  1.00  0.00     0.049 A 
ATOM     60  H   UNL A   1      42.564  29.676  28.613  1.00  0.00     0.167 HD
ATOM     61  C   UNL A   1      45.110  30.834  28.111  1.00  0.00     0.074 A 
ATOM     62  C   UNL A   1      46.455  31.025  27.610  1.00  0.00     0.031 C 
ATOM     63  C   UNL A   1      44.461  31.724  28.904  1.00  0.00     0.034 A 
BRANCH  50  64
ATOM     64  C   UNL A   1      38.735  29.964  30.520  1.00  0.00     0.023 A 
ATOM     65  C   UNL A   1      37.704  30.702  29.911  1.00  0.00     0.031 A 
ATOM     66  C   UNL A   1      38.545  29.543  31.848  1.00  0.00     0.131 A 
ATOM     67  C   UNL A   1      36.565  31.057  30.649  1.00  0.00     0.055 A 
ATOM     68  C   UNL A   1      37.372  29.828  32.550  1.00  0.00     0.041 A 
ATOM     69  F   UNL A   1      39.502  28.856  32.491  1.00  0.00    -0.206 F 
ATOM     70  C   UNL A   1      36.380  30.601  31.956  1.00  0.00     0.022 A 
BRANCH  67  71
ATOM     71  S   UNL A   1      35.398  32.240  29.923  1.00  0.00     0.124 S 
ATOM     72  O   UNL A   1      34.885  31.485  28.783  1.00  0.00    -0.237 OA
ATOM     73  O   UNL A   1      34.458  32.466  31.015  1.00  0.00    -0.237 OA
ATOM     74  O   UNL A   1      36.240  33.384  29.577  1.00  0.00    -0.744 OA
ENDBRANCH  67  71
ENDBRANCH  50  64
BRANCH  51  75
ATOM     75  C   UNL A   1      46.990  27.481  25.384  1.00  0.00     0.023 A 
ATOM     76  C   UNL A   1      47.134  27.908  24.054  1.00  0.00     0.031 A 
ATOM     77  C   UNL A   1      48.003  26.669  25.925  1.00  0.00     0.131 A 
ATOM     78  C   UNL A   1      48.226  27.467  23.290  1.00  0.00     0.055 A 
ATOM     79  C   UNL A   1      49.122  26.288  25.182  1.00  0.00     0.041 A 
ATOM     80  F   UNL A   1      47.920  26.232  27.192  1.00  0.00    -0.206 F 
ATOM     81  C   UNL A   1      49.228  26.673  23.849  1.00  0.00     0.022 A 
BRANCH  78  82
ATOM     82  S   UNL A   1      48.252  27.849  21.517  1.00  0.00     0.124 S 
ATOM     83  O   UNL A   1      49.273  28.888  21.454  1.00  0.00    -0.237 OA
ATOM     84  O   UNL A   1      48.612  26.560  20.936  1.00  0.00    -0.237 OA
ATOM     85  O   UNL A   1      46.889  28.296  21.246  1.00  0.00    -0.744 OA
ENDBRANCH  78  82
ENDBRANCH  51  75
BRANCH  63  86
ATOM     86  C   UNL A   1      45.227  32.955  29.328  1.00  0.00     0.023 A 
ATOM     87  C   UNL A   1      45.092  34.183  28.659  1.00  0.00     0.031 A 
ATOM     88  C   UNL A   1      46.117  32.890  30.417  1.00  0.00     0.131 A 
ATOM     89  C   UNL A   1      45.877  35.280  29.047  1.00  0.00     0.055 A 
ATOM     90  C   UNL A   1      46.843  34.002  30.841  1.00  0.00     0.041 A 
ATOM     91  F   UNL A   1      46.289  31.741  31.092  1.00  0.00    -0.206 F 
ATOM     92  C   UNL A   1      46.737  35.203  30.144  1.00  0.00     0.022 A 
BRANCH  89  93
ATOM     93  S   UNL A   1      45.834  36.782  28.032  1.00  0.00     0.124 S 
ATOM     94  O   UNL A   1      46.608  37.718  28.840  1.00  0.00    -0.237 OA
ATOM     95  O   UNL A   1      46.463  36.340  26.791  1.00  0.00    -0.237 OA
ATOM     96  O   UNL A   1      44.407  37.085  27.927  1.00  0.00    -0.744 OA
ENDBRANCH  89  93
ENDBRANCH  63  86
ENDBRANCH  37  38
ENDBRANCH  29  32
ENDBRANCH  27  28
ENDBRANCH  26  27
ENDBRANCH  25  26
ENDBRANCH  24  25
ENDBRANCH   1  24
TORSDOF 21
ENDMDL
