MODEL 1
REMARK VINA RESULT:     -11.9      0.000      0.000
REMARK SMILES COc1ccc(/C=C(\Sc2nc(C)n[nH]2)C(=O)NCCCCCCNC(=O)c2ccc(-c3c4nc(c(-c5cc(S(=O)(=O)[O-])ccc5F)c5ccc([nH]5)c(-c5cc(S(=O)(=O)[O-])ccc5F)c5nc(c(-c6cc(S(=O)(=O)[O-])ccc6F)c6ccc3[nH]6)C=C5)C=C4)cc2)c(OC)c1
REMARK SMILES IDX 22 1 21 2 20 3 19 4 18 5 16 6 17 7 8 9 7 10 6 11 3 12 4 13
REMARK SMILES IDX 94 14 5 15 91 16 2 17 1 18 92 19 93 20 9 21 10 22 11 23
REMARK SMILES IDX 15 24 12 25 14 26 13 28 23 29 24 30 25 31 26 32 27 34 28 35
REMARK SMILES IDX 29 36 90 37 30 38 89 39 31 40 32 41 33 42 83 43 34 44 88 45
REMARK SMILES IDX 82 46 84 47 35 48 87 49 81 50 80 51 36 53 68 54 48 55 67 56
REMARK SMILES IDX 49 57 52 58 66 59 85 60 50 61 51 62 65 64 86 65 53 66 37 67
REMARK SMILES IDX 38 68 46 69 39 70 45 71 47 72 44 73 40 74 41 75 42 76 43 77
REMARK SMILES IDX 69 78 70 79 78 80 71 81 77 82 79 83 76 84 72 85 73 86 74 87
REMARK SMILES IDX 75 88 54 89 55 90 63 91 56 92 62 93 64 94 61 95 57 96 58 97
REMARK SMILES IDX 59 98 60 99
REMARK H PARENT 18 8 15 27 25 33 84 52 52 63
REMARK Flexibility Score: inf
ROOT
ATOM      1  C   UNL A   1      32.822  29.042  27.303  1.00  0.00     0.002 C 
ENDROOT
BRANCH   1   2
ATOM      2  C   UNL A   1      32.712  27.571  26.868  1.00  0.00     0.002 C 
BRANCH   2   3
ATOM      3  C   UNL A   1      33.614  27.139  25.702  1.00  0.00     0.021 C 
BRANCH   3   4
ATOM      4  C   UNL A   1      33.881  25.633  25.634  1.00  0.00     0.116 C 
BRANCH   4   5
ATOM      5  N   UNL A   1      32.882  24.856  26.347  1.00  0.00    -0.352 N 
ATOM      6  C   UNL A   1      31.616  24.413  26.104  1.00  0.00     0.258 C 
ATOM      7  O   UNL A   1      31.198  23.634  26.973  1.00  0.00    -0.269 OA
ATOM      8  H   UNL A   1      33.202  24.578  27.235  1.00  0.00     0.163 HD
BRANCH   6   9
ATOM      9  C   UNL A   1      30.718  24.812  24.924  1.00  0.00     0.081 C 
ATOM     10  C   UNL A   1      30.241  26.083  25.021  1.00  0.00     0.033 C 
BRANCH  10  11
ATOM     11  C   UNL A   1      29.435  26.926  24.101  1.00  0.00     0.018 A 
ATOM     12  C   UNL A   1      27.860  28.911  22.901  1.00  0.00     0.122 A 
ATOM     13  C   UNL A   1      27.254  27.796  23.462  1.00  0.00     0.047 A 
ATOM     14  C   UNL A   1      29.242  28.952  22.773  1.00  0.00     0.093 A 
ATOM     15  C   UNL A   1      28.045  26.788  24.018  1.00  0.00     0.016 A 
ATOM     16  C   UNL A   1      30.035  27.931  23.309  1.00  0.00     0.129 A 
BRANCH  12  17
ATOM     17  O   UNL A   1      27.194  30.058  22.585  1.00  0.00    -0.497 OA
ATOM     18  C   UNL A   1      27.583  31.201  23.333  1.00  0.00     0.278 C 
ENDBRANCH  12  17
BRANCH  16  19
ATOM     19  O   UNL A   1      31.398  27.912  23.118  1.00  0.00    -0.496 OA
ATOM     20  C   UNL A   1      31.817  27.069  22.039  1.00  0.00     0.278 C 
ENDBRANCH  16  19
ENDBRANCH  10  11
BRANCH   9  21
ATOM     21  S   UNL A   1      30.678  23.769  23.546  1.00  0.00    -0.045 SA
BRANCH  21  22
ATOM     22  C   UNL A   1      32.249  23.091  23.317  1.00  0.00     0.188 A 
ATOM     23  N   UNL A   1      33.345  23.585  22.794  1.00  0.00    -0.206 NA
ATOM     24  N   UNL A   1      32.574  21.991  24.059  1.00  0.00    -0.254 N 
ATOM     25  C   UNL A   1      34.341  22.851  23.402  1.00  0.00     0.148 A 
ATOM     26  N   UNL A   1      33.905  21.822  24.138  1.00  0.00    -0.158 NA
ATOM     27  H   UNL A   1      31.914  21.395  24.481  1.00  0.00     0.192 HD
ATOM     28  C   UNL A   1      35.757  23.283  23.435  1.00  0.00     0.092 C 
ENDBRANCH  21  22
ENDBRANCH   9  21
ENDBRANCH   6   9
ENDBRANCH   4   5
ENDBRANCH   3   4
ENDBRANCH   2   3
ENDBRANCH   1   2
BRANCH   1  29
ATOM     29  C   UNL A   1      34.107  29.781  26.898  1.00  0.00     0.021 C 
BRANCH  29  30
ATOM     30  C   UNL A   1      35.357  29.280  27.606  1.00  0.00     0.116 C 
BRANCH  30  31
ATOM     31  N   UNL A   1      35.513  29.873  28.931  1.00  0.00    -0.352 N 
ATOM     32  C   UNL A   1      36.493  29.621  29.865  1.00  0.00     0.251 C 
ATOM     33  H   UNL A   1      34.833  30.537  29.188  1.00  0.00     0.163 HD
ATOM     34  O   UNL A   1      36.276  29.853  31.057  1.00  0.00    -0.269 OA
BRANCH  32  35
ATOM     35  C   UNL A   1      37.792  29.076  29.430  1.00  0.00     0.039 A 
ATOM     36  C   UNL A   1      38.455  29.599  28.317  1.00  0.00     0.014 A 
ATOM     37  C   UNL A   1      38.350  28.018  30.149  1.00  0.00     0.014 A 
ATOM     38  C   UNL A   1      39.714  29.101  27.988  1.00  0.00     0.010 A 
ATOM     39  C   UNL A   1      39.642  27.615  29.903  1.00  0.00     0.010 A 
ATOM     40  C   UNL A   1      40.317  28.124  28.802  1.00  0.00    -0.014 A 
BRANCH  40  41
ATOM     41  C   UNL A   1      41.730  27.778  28.630  1.00  0.00     0.031 A 
ATOM     42  C   UNL A   1      41.920  26.551  27.815  1.00  0.00     0.074 A 
ATOM     43  C   UNL A   1      42.770  28.574  28.970  1.00  0.00     0.049 A 
ATOM     44  N   UNL A   1      42.238  25.376  28.245  1.00  0.00    -0.248 NA
ATOM     45  C   UNL A   1      41.493  26.564  26.404  1.00  0.00     0.031 C 
ATOM     46  C   UNL A   1      42.720  29.927  29.531  1.00  0.00     0.029 A 
ATOM     47  N   UNL A   1      44.111  28.378  28.800  1.00  0.00    -0.354 N 
ATOM     48  C   UNL A   1      42.363  24.586  27.111  1.00  0.00     0.074 A 
ATOM     49  C   UNL A   1      41.640  25.276  26.080  1.00  0.00     0.031 C 
ATOM     50  C   UNL A   1      43.940  30.504  29.445  1.00  0.00     0.029 A 
ATOM     51  C   UNL A   1      44.899  29.521  28.967  1.00  0.00     0.049 A 
ATOM     52  H   UNL A   1      44.494  27.498  28.577  1.00  0.00     0.167 HD
ATOM     53  C   UNL A   1      43.321  23.618  27.052  1.00  0.00     0.034 A 
ATOM     54  C   UNL A   1      46.236  29.661  28.734  1.00  0.00     0.034 A 
ATOM     55  C   UNL A   1      43.823  23.321  28.383  1.00  0.00     0.049 A 
ATOM     56  C   UNL A   1      46.818  28.299  28.818  1.00  0.00     0.074 A 
ATOM     57  C   UNL A   1      43.236  22.952  29.580  1.00  0.00     0.029 A 
ATOM     58  N   UNL A   1      45.073  23.795  28.723  1.00  0.00    -0.354 N 
ATOM     59  N   UNL A   1      46.842  27.604  29.921  1.00  0.00    -0.248 NA
ATOM     60  C   UNL A   1      46.910  27.522  27.592  1.00  0.00     0.031 C 
ATOM     61  C   UNL A   1      43.937  23.693  30.579  1.00  0.00     0.029 A 
ATOM     62  C   UNL A   1      44.982  24.382  29.961  1.00  0.00     0.049 A 
ATOM     63  H   UNL A   1      45.887  23.725  28.174  1.00  0.00     0.167 HD
ATOM     64  C   UNL A   1      46.480  26.323  29.537  1.00  0.00     0.074 A 
ATOM     65  C   UNL A   1      46.634  26.309  28.082  1.00  0.00     0.031 C 
ATOM     66  C   UNL A   1      45.812  25.493  30.393  1.00  0.00     0.034 A 
BRANCH  53  67
ATOM     67  C   UNL A   1      44.116  23.275  25.805  1.00  0.00     0.023 A 
ATOM     68  C   UNL A   1      44.077  21.931  25.390  1.00  0.00     0.031 A 
ATOM     69  C   UNL A   1      45.124  24.067  25.206  1.00  0.00     0.131 A 
ATOM     70  C   UNL A   1      45.086  21.396  24.572  1.00  0.00     0.055 A 
ATOM     71  C   UNL A   1      46.085  23.543  24.334  1.00  0.00     0.041 A 
ATOM     72  F   UNL A   1      45.301  25.363  25.479  1.00  0.00    -0.206 F 
ATOM     73  C   UNL A   1      46.097  22.192  24.045  1.00  0.00     0.022 A 
BRANCH  70  74
ATOM     74  S   UNL A   1      45.161  19.598  24.390  1.00  0.00     0.124 S 
ATOM     75  O   UNL A   1      46.583  19.352  24.613  1.00  0.00    -0.237 OA
ATOM     76  O   UNL A   1      44.256  19.153  25.443  1.00  0.00    -0.237 OA
ATOM     77  O   UNL A   1      44.690  19.378  23.025  1.00  0.00    -0.744 OA
ENDBRANCH  70  74
ENDBRANCH  53  67
BRANCH  54  78
ATOM     78  C   UNL A   1      46.973  30.830  28.155  1.00  0.00     0.023 A 
ATOM     79  C   UNL A   1      46.375  31.778  27.286  1.00  0.00     0.031 A 
ATOM     80  C   UNL A   1      48.238  31.178  28.678  1.00  0.00     0.131 A 
ATOM     81  C   UNL A   1      47.032  33.002  26.992  1.00  0.00     0.055 A 
ATOM     82  C   UNL A   1      48.878  32.387  28.388  1.00  0.00     0.041 A 
ATOM     83  F   UNL A   1      48.863  30.392  29.568  1.00  0.00    -0.206 F 
ATOM     84  C   UNL A   1      48.271  33.310  27.553  1.00  0.00     0.022 A 
BRANCH  81  85
ATOM     85  S   UNL A   1      46.244  34.274  25.940  1.00  0.00     0.124 S 
ATOM     86  O   UNL A   1      45.912  35.314  26.906  1.00  0.00    -0.237 OA
ATOM     87  O   UNL A   1      47.293  34.587  24.979  1.00  0.00    -0.237 OA
ATOM     88  O   UNL A   1      45.087  33.577  25.371  1.00  0.00    -0.744 OA
ENDBRANCH  81  85
ENDBRANCH  54  78
BRANCH  66  89
ATOM     89  C   UNL A   1      45.784  25.840  31.871  1.00  0.00     0.023 A 
ATOM     90  C   UNL A   1      44.662  26.321  32.585  1.00  0.00     0.031 A 
ATOM     91  C   UNL A   1      46.951  25.563  32.605  1.00  0.00     0.131 A 
ATOM     92  C   UNL A   1      44.746  26.517  33.981  1.00  0.00     0.055 A 
ATOM     93  C   UNL A   1      47.023  25.733  33.985  1.00  0.00     0.041 A 
ATOM     94  F   UNL A   1      48.046  25.086  31.989  1.00  0.00    -0.206 F 
ATOM     95  C   UNL A   1      45.922  26.218  34.679  1.00  0.00     0.022 A 
BRANCH  92  96
ATOM     96  S   UNL A   1      43.337  27.192  34.922  1.00  0.00     0.124 S 
ATOM     97  O   UNL A   1      43.942  28.231  35.746  1.00  0.00    -0.237 OA
ATOM     98  O   UNL A   1      42.443  27.654  33.864  1.00  0.00    -0.237 OA
ATOM     99  O   UNL A   1      42.841  26.033  35.670  1.00  0.00    -0.744 OA
ENDBRANCH  92  96
ENDBRANCH  66  89
ENDBRANCH  40  41
ENDBRANCH  32  35
ENDBRANCH  30  31
ENDBRANCH  29  30
ENDBRANCH   1  29
TORSDOF 21
ENDMDL
MODEL 2
REMARK VINA RESULT:     -11.9      2.470      6.945
REMARK SMILES COc1ccc(/C=C(\Sc2nc(C)n[nH]2)C(=O)NCCCCCCNC(=O)c2ccc(-c3c4nc(c(-c5cc(S(=O)(=O)[O-])ccc5F)c5ccc([nH]5)c(-c5cc(S(=O)(=O)[O-])ccc5F)c5nc(c(-c6cc(S(=O)(=O)[O-])ccc6F)c6ccc3[nH]6)C=C5)C=C4)cc2)c(OC)c1
REMARK SMILES IDX 22 1 21 2 20 3 19 4 18 5 16 6 17 7 8 9 7 10 6 11 3 12 4 13
REMARK SMILES IDX 94 14 5 15 91 16 2 17 1 18 92 19 93 20 9 21 10 22 11 23
REMARK SMILES IDX 15 24 12 25 14 26 13 28 23 29 24 30 25 31 26 32 27 34 28 35
REMARK SMILES IDX 29 36 90 37 30 38 89 39 31 40 32 41 33 42 83 43 34 44 88 45
REMARK SMILES IDX 82 46 84 47 35 48 87 49 81 50 80 51 36 53 68 54 48 55 67 56
REMARK SMILES IDX 49 57 52 58 66 59 85 60 50 61 51 62 65 64 86 65 53 66 37 67
REMARK SMILES IDX 38 68 46 69 39 70 45 71 47 72 44 73 40 74 41 75 42 76 43 77
REMARK SMILES IDX 69 78 70 79 78 80 71 81 77 82 79 83 76 84 72 85 73 86 74 87
REMARK SMILES IDX 75 88 54 89 55 90 63 91 56 92 62 93 64 94 61 95 57 96 58 97
REMARK SMILES IDX 59 98 60 99
REMARK H PARENT 18 8 15 27 25 33 84 52 52 63
REMARK Flexibility Score: inf
ROOT
ATOM      1  C   UNL A   1      32.238  29.225  27.206  1.00  0.00     0.002 C 
ENDROOT
BRANCH   1   2
ATOM      2  C   UNL A   1      33.187  28.014  27.171  1.00  0.00     0.002 C 
BRANCH   2   3
ATOM      3  C   UNL A   1      33.612  27.526  25.778  1.00  0.00     0.021 C 
BRANCH   3   4
ATOM      4  C   UNL A   1      33.938  26.031  25.704  1.00  0.00     0.116 C 
BRANCH   4   5
ATOM      5  N   UNL A   1      32.969  25.214  26.414  1.00  0.00    -0.352 N 
ATOM      6  C   UNL A   1      31.725  24.716  26.166  1.00  0.00     0.258 C 
ATOM      7  O   UNL A   1      31.336  23.922  27.035  1.00  0.00    -0.269 OA
ATOM      8  H   UNL A   1      33.297  24.951  27.304  1.00  0.00     0.163 HD
BRANCH   6   9
ATOM      9  C   UNL A   1      30.816  25.075  24.981  1.00  0.00     0.081 C 
ATOM     10  C   UNL A   1      30.345  26.350  25.034  1.00  0.00     0.033 C 
BRANCH  10  11
ATOM     11  C   UNL A   1      29.534  27.162  24.091  1.00  0.00     0.018 A 
ATOM     12  C   UNL A   1      27.925  29.089  22.843  1.00  0.00     0.122 A 
ATOM     13  C   UNL A   1      27.342  27.962  23.401  1.00  0.00     0.047 A 
ATOM     14  C   UNL A   1      29.308  29.170  22.742  1.00  0.00     0.093 A 
ATOM     15  C   UNL A   1      28.150  26.982  23.982  1.00  0.00     0.016 A 
ATOM     16  C   UNL A   1      30.119  28.177  23.303  1.00  0.00     0.129 A 
BRANCH  12  17
ATOM     17  O   UNL A   1      27.232  30.214  22.504  1.00  0.00    -0.497 OA
ATOM     18  C   UNL A   1      27.576  31.375  23.246  1.00  0.00     0.278 C 
ENDBRANCH  12  17
BRANCH  16  19
ATOM     19  O   UNL A   1      31.486  28.197  23.139  1.00  0.00    -0.496 OA
ATOM     20  C   UNL A   1      31.951  29.265  22.305  1.00  0.00     0.278 C 
ENDBRANCH  16  19
ENDBRANCH  10  11
BRANCH   9  21
ATOM     21  S   UNL A   1      30.756  23.980  23.644  1.00  0.00    -0.045 SA
BRANCH  21  22
ATOM     22  C   UNL A   1      32.298  23.221  23.479  1.00  0.00     0.188 A 
ATOM     23  N   UNL A   1      33.500  23.715  23.308  1.00  0.00    -0.206 NA
ATOM     24  N   UNL A   1      32.412  21.928  23.904  1.00  0.00    -0.254 N 
ATOM     25  C   UNL A   1      34.320  22.733  23.822  1.00  0.00     0.148 A 
ATOM     26  N   UNL A   1      33.692  21.595  24.141  1.00  0.00    -0.158 NA
ATOM     27  H   UNL A   1      31.650  21.315  24.020  1.00  0.00     0.192 HD
ATOM     28  C   UNL A   1      35.728  22.977  24.209  1.00  0.00     0.092 C 
ENDBRANCH  21  22
ENDBRANCH   9  21
ENDBRANCH   6   9
ENDBRANCH   4   5
ENDBRANCH   3   4
ENDBRANCH   2   3
ENDBRANCH   1   2
BRANCH   1  29
ATOM     29  C   UNL A   1      32.888  30.608  27.049  1.00  0.00     0.021 C 
BRANCH  29  30
ATOM     30  C   UNL A   1      34.318  30.680  27.567  1.00  0.00     0.116 C 
BRANCH  30  31
ATOM     31  N   UNL A   1      34.475  31.694  28.605  1.00  0.00    -0.352 N 
ATOM     32  C   UNL A   1      35.380  31.714  29.643  1.00  0.00     0.251 C 
ATOM     33  H   UNL A   1      33.857  32.459  28.557  1.00  0.00     0.163 HD
ATOM     34  O   UNL A   1      35.135  32.374  30.657  1.00  0.00    -0.269 OA
BRANCH  32  35
ATOM     35  C   UNL A   1      36.632  30.945  29.533  1.00  0.00     0.039 A 
ATOM     36  C   UNL A   1      37.875  31.577  29.617  1.00  0.00     0.014 A 
ATOM     37  C   UNL A   1      36.556  29.565  29.336  1.00  0.00     0.014 A 
ATOM     38  C   UNL A   1      39.031  30.798  29.581  1.00  0.00     0.010 A 
ATOM     39  C   UNL A   1      37.687  28.786  29.428  1.00  0.00     0.010 A 
ATOM     40  C   UNL A   1      38.931  29.397  29.512  1.00  0.00    -0.014 A 
BRANCH  40  41
ATOM     41  C   UNL A   1      40.108  28.554  29.735  1.00  0.00     0.031 A 
ATOM     42  C   UNL A   1      40.419  28.380  31.178  1.00  0.00     0.074 A 
ATOM     43  C   UNL A   1      40.732  27.826  28.781  1.00  0.00     0.049 A 
ATOM     44  N   UNL A   1      41.366  28.953  31.841  1.00  0.00    -0.248 NA
ATOM     45  C   UNL A   1      39.444  27.679  32.032  1.00  0.00     0.031 C 
ATOM     46  C   UNL A   1      40.363  27.690  27.369  1.00  0.00     0.029 A 
ATOM     47  N   UNL A   1      41.790  26.968  28.890  1.00  0.00    -0.354 N 
ATOM     48  C   UNL A   1      41.293  28.425  33.123  1.00  0.00     0.074 A 
ATOM     49  C   UNL A   1      39.966  27.889  33.243  1.00  0.00     0.031 C 
ATOM     50  C   UNL A   1      41.031  26.651  26.818  1.00  0.00     0.029 A 
ATOM     51  C   UNL A   1      41.989  26.136  27.783  1.00  0.00     0.049 A 
ATOM     52  H   UNL A   1      42.368  26.937  29.687  1.00  0.00     0.167 HD
ATOM     53  C   UNL A   1      42.433  28.189  33.832  1.00  0.00     0.034 A 
ATOM     54  C   UNL A   1      42.870  25.101  27.659  1.00  0.00     0.034 A 
ATOM     55  C   UNL A   1      43.553  28.906  33.245  1.00  0.00     0.049 A 
ATOM     56  C   UNL A   1      43.949  25.353  28.645  1.00  0.00     0.074 A 
ATOM     57  C   UNL A   1      43.791  30.227  32.913  1.00  0.00     0.029 A 
ATOM     58  N   UNL A   1      44.479  28.179  32.527  1.00  0.00    -0.354 N 
ATOM     59  N   UNL A   1      44.764  26.368  28.563  1.00  0.00    -0.248 NA
ATOM     60  C   UNL A   1      43.805  24.779  29.973  1.00  0.00     0.031 C 
ATOM     61  C   UNL A   1      44.470  30.176  31.659  1.00  0.00     0.029 A 
ATOM     62  C   UNL A   1      44.713  28.838  31.346  1.00  0.00     0.049 A 
ATOM     63  H   UNL A   1      44.900  27.336  32.812  1.00  0.00     0.167 HD
ATOM     64  C   UNL A   1      44.859  26.847  29.860  1.00  0.00     0.074 A 
ATOM     65  C   UNL A   1      44.330  25.771  30.699  1.00  0.00     0.031 C 
ATOM     66  C   UNL A   1      45.079  28.174  30.107  1.00  0.00     0.034 A 
BRANCH  53  67
ATOM     67  C   UNL A   1      42.642  26.994  34.745  1.00  0.00     0.023 A 
ATOM     68  C   UNL A   1      43.487  25.978  34.261  1.00  0.00     0.031 A 
ATOM     69  C   UNL A   1      41.853  26.645  35.866  1.00  0.00     0.131 A 
ATOM     70  C   UNL A   1      43.405  24.669  34.761  1.00  0.00     0.055 A 
ATOM     71  C   UNL A   1      41.829  25.355  36.408  1.00  0.00     0.041 A 
ATOM     72  F   UNL A   1      41.001  27.487  36.457  1.00  0.00    -0.206 F 
ATOM     73  C   UNL A   1      42.576  24.346  35.829  1.00  0.00     0.022 A 
BRANCH  70  74
ATOM     74  S   UNL A   1      44.253  23.359  33.845  1.00  0.00     0.124 S 
ATOM     75  O   UNL A   1      44.449  22.364  34.894  1.00  0.00    -0.237 OA
ATOM     76  O   UNL A   1      43.270  23.031  32.819  1.00  0.00    -0.237 OA
ATOM     77  O   UNL A   1      45.465  24.015  33.364  1.00  0.00    -0.744 OA
ENDBRANCH  70  74
ENDBRANCH  53  67
BRANCH  54  78
ATOM     78  C   UNL A   1      42.684  23.784  26.970  1.00  0.00     0.023 A 
ATOM     79  C   UNL A   1      43.706  23.141  26.226  1.00  0.00     0.031 A 
ATOM     80  C   UNL A   1      41.547  23.002  27.269  1.00  0.00     0.131 A 
ATOM     81  C   UNL A   1      43.566  21.785  25.831  1.00  0.00     0.055 A 
ATOM     82  C   UNL A   1      41.417  21.664  26.882  1.00  0.00     0.041 A 
ATOM     83  F   UNL A   1      40.554  23.482  28.032  1.00  0.00    -0.206 F 
ATOM     84  C   UNL A   1      42.432  21.046  26.172  1.00  0.00     0.022 A 
BRANCH  81  85
ATOM     85  S   UNL A   1      44.904  20.911  24.942  1.00  0.00     0.124 S 
ATOM     86  O   UNL A   1      44.639  21.267  23.553  1.00  0.00    -0.237 OA
ATOM     87  O   UNL A   1      46.106  21.475  25.541  1.00  0.00    -0.237 OA
ATOM     88  O   UNL A   1      44.667  19.502  25.267  1.00  0.00    -0.744 OA
ENDBRANCH  81  85
ENDBRANCH  54  78
BRANCH  66  89
ATOM     89  C   UNL A   1      45.572  29.054  28.973  1.00  0.00     0.023 A 
ATOM     90  C   UNL A   1      46.924  29.242  28.601  1.00  0.00     0.031 A 
ATOM     91  C   UNL A   1      44.588  29.653  28.167  1.00  0.00     0.131 A 
ATOM     92  C   UNL A   1      47.241  30.016  27.464  1.00  0.00     0.055 A 
ATOM     93  C   UNL A   1      44.902  30.395  27.032  1.00  0.00     0.041 A 
ATOM     94  F   UNL A   1      43.284  29.498  28.455  1.00  0.00    -0.206 F 
ATOM     95  C   UNL A   1      46.232  30.586  26.679  1.00  0.00     0.022 A 
BRANCH  92  96
ATOM     96  S   UNL A   1      48.975  30.326  26.991  1.00  0.00     0.124 S 
ATOM     97  O   UNL A   1      48.956  31.699  26.502  1.00  0.00    -0.237 OA
ATOM     98  O   UNL A   1      49.689  30.103  28.246  1.00  0.00    -0.237 OA
ATOM     99  O   UNL A   1      49.232  29.316  25.961  1.00  0.00    -0.744 OA
ENDBRANCH  92  96
ENDBRANCH  66  89
ENDBRANCH  40  41
ENDBRANCH  32  35
ENDBRANCH  30  31
ENDBRANCH  29  30
ENDBRANCH   1  29
TORSDOF 21
ENDMDL
MODEL 3
REMARK VINA RESULT:     -11.8      2.200      4.031
REMARK SMILES COc1ccc(/C=C(\Sc2nc(C)n[nH]2)C(=O)NCCCCCCNC(=O)c2ccc(-c3c4nc(c(-c5cc(S(=O)(=O)[O-])ccc5F)c5ccc([nH]5)c(-c5cc(S(=O)(=O)[O-])ccc5F)c5nc(c(-c6cc(S(=O)(=O)[O-])ccc6F)c6ccc3[nH]6)C=C5)C=C4)cc2)c(OC)c1
REMARK SMILES IDX 22 1 21 2 20 3 19 4 18 5 16 6 17 7 8 9 7 10 6 11 3 12 4 13
REMARK SMILES IDX 94 14 5 15 91 16 2 17 1 18 92 19 93 20 9 21 10 22 11 23
REMARK SMILES IDX 15 24 12 25 14 26 13 28 23 29 24 30 25 31 26 32 27 34 28 35
REMARK SMILES IDX 29 36 90 37 30 38 89 39 31 40 32 41 33 42 83 43 34 44 88 45
REMARK SMILES IDX 82 46 84 47 35 48 87 49 81 50 80 51 36 53 68 54 48 55 67 56
REMARK SMILES IDX 49 57 52 58 66 59 85 60 50 61 51 62 65 64 86 65 53 66 37 67
REMARK SMILES IDX 38 68 46 69 39 70 45 71 47 72 44 73 40 74 41 75 42 76 43 77
REMARK SMILES IDX 69 78 70 79 78 80 71 81 77 82 79 83 76 84 72 85 73 86 74 87
REMARK SMILES IDX 75 88 54 89 55 90 63 91 56 92 62 93 64 94 61 95 57 96 58 97
REMARK SMILES IDX 59 98 60 99
REMARK H PARENT 18 8 15 27 25 33 84 52 52 63
REMARK Flexibility Score: inf
ROOT
ATOM      1  C   UNL A   1      36.632  32.644  28.187  1.00  0.00     0.002 C 
ENDROOT
BRANCH   1   2
ATOM      2  C   UNL A   1      35.141  32.967  27.986  1.00  0.00     0.002 C 
BRANCH   2   3
ATOM      3  C   UNL A   1      34.158  31.811  28.231  1.00  0.00     0.021 C 
BRANCH   3   4
ATOM      4  C   UNL A   1      34.114  30.771  27.109  1.00  0.00     0.116 C 
BRANCH   4   5
ATOM      5  N   UNL A   1      32.877  30.823  26.349  1.00  0.00    -0.352 N 
ATOM      6  C   UNL A   1      32.163  29.968  25.563  1.00  0.00     0.258 C 
ATOM      7  O   UNL A   1      31.055  30.419  25.234  1.00  0.00    -0.269 OA
ATOM      8  H   UNL A   1      32.442  31.703  26.420  1.00  0.00     0.163 HD
BRANCH   6   9
ATOM      9  C   UNL A   1      32.619  28.590  25.060  1.00  0.00     0.081 C 
ATOM     10  C   UNL A   1      32.587  27.631  26.025  1.00  0.00     0.033 C 
BRANCH  10  11
ATOM     11  C   UNL A   1      32.836  26.167  25.994  1.00  0.00     0.018 A 
ATOM     12  C   UNL A   1      33.550  23.513  26.546  1.00  0.00     0.122 A 
ATOM     13  C   UNL A   1      34.439  24.339  25.876  1.00  0.00     0.047 A 
ATOM     14  C   UNL A   1      32.250  23.943  26.777  1.00  0.00     0.093 A 
ATOM     15  C   UNL A   1      34.062  25.648  25.562  1.00  0.00     0.016 A 
ATOM     16  C   UNL A   1      31.864  25.246  26.441  1.00  0.00     0.129 A 
BRANCH  12  17
ATOM     17  O   UNL A   1      33.905  22.335  27.135  1.00  0.00    -0.497 OA
ATOM     18  C   UNL A   1      33.925  21.213  26.264  1.00  0.00     0.278 C 
ENDBRANCH  12  17
BRANCH  16  19
ATOM     19  O   UNL A   1      30.559  25.661  26.584  1.00  0.00    -0.496 OA
ATOM     20  C   UNL A   1      29.824  25.683  25.355  1.00  0.00     0.278 C 
ENDBRANCH  16  19
ENDBRANCH  10  11
BRANCH   9  21
ATOM     21  S   UNL A   1      32.808  28.372  23.356  1.00  0.00    -0.045 SA
BRANCH  21  22
ATOM     22  C   UNL A   1      31.286  28.646  22.588  1.00  0.00     0.188 A 
ATOM     23  N   UNL A   1      30.111  28.089  22.757  1.00  0.00    -0.206 NA
ATOM     24  N   UNL A   1      31.121  29.826  21.921  1.00  0.00    -0.254 N 
ATOM     25  C   UNL A   1      29.237  29.068  22.333  1.00  0.00     0.148 A 
ATOM     26  N   UNL A   1      29.822  30.125  21.755  1.00  0.00    -0.158 NA
ATOM     27  H   UNL A   1      31.864  30.387  21.600  1.00  0.00     0.192 HD
ATOM     28  C   UNL A   1      27.798  29.072  22.682  1.00  0.00     0.092 C 
ENDBRANCH  21  22
ENDBRANCH   9  21
ENDBRANCH   6   9
ENDBRANCH   4   5
ENDBRANCH   3   4
ENDBRANCH   2   3
ENDBRANCH   1   2
BRANCH   1  29
ATOM     29  C   UNL A   1      37.273  33.155  29.486  1.00  0.00     0.021 C 
BRANCH  29  30
ATOM     30  C   UNL A   1      37.742  32.047  30.420  1.00  0.00     0.116 C 
BRANCH  30  31
ATOM     31  N   UNL A   1      36.727  31.012  30.596  1.00  0.00    -0.352 N 
ATOM     32  C   UNL A   1      36.685  29.758  30.029  1.00  0.00     0.251 C 
ATOM     33  H   UNL A   1      35.980  31.239  31.195  1.00  0.00     0.163 HD
ATOM     34  O   UNL A   1      35.605  29.172  29.919  1.00  0.00    -0.269 OA
BRANCH  32  35
ATOM     35  C   UNL A   1      37.932  29.129  29.558  1.00  0.00     0.039 A 
ATOM     36  C   UNL A   1      38.497  29.482  28.330  1.00  0.00     0.014 A 
ATOM     37  C   UNL A   1      38.542  28.166  30.363  1.00  0.00     0.014 A 
ATOM     38  C   UNL A   1      39.716  28.915  27.962  1.00  0.00     0.010 A 
ATOM     39  C   UNL A   1      39.802  27.703  30.061  1.00  0.00     0.010 A 
ATOM     40  C   UNL A   1      40.380  28.042  28.844  1.00  0.00    -0.014 A 
BRANCH  40  41
ATOM     41  C   UNL A   1      41.767  27.644  28.596  1.00  0.00     0.031 A 
ATOM     42  C   UNL A   1      41.866  26.376  27.828  1.00  0.00     0.074 A 
ATOM     43  C   UNL A   1      42.850  28.419  28.830  1.00  0.00     0.049 A 
ATOM     44  N   UNL A   1      42.177  25.212  28.290  1.00  0.00    -0.248 NA
ATOM     45  C   UNL A   1      41.346  26.341  26.449  1.00  0.00     0.031 C 
ATOM     46  C   UNL A   1      42.878  29.797  29.331  1.00  0.00     0.029 A 
ATOM     47  N   UNL A   1      44.171  28.172  28.582  1.00  0.00    -0.354 N 
ATOM     48  C   UNL A   1      42.202  24.369  27.187  1.00  0.00     0.074 A 
ATOM     49  C   UNL A   1      41.432  25.037  26.175  1.00  0.00     0.031 C 
ATOM     50  C   UNL A   1      44.106  30.330  29.139  1.00  0.00     0.029 A 
ATOM     51  C   UNL A   1      45.001  29.296  28.645  1.00  0.00     0.049 A 
ATOM     52  H   UNL A   1      44.512  27.272  28.375  1.00  0.00     0.167 HD
ATOM     53  C   UNL A   1      43.125  23.369  27.110  1.00  0.00     0.034 A 
ATOM     54  C   UNL A   1      46.324  29.382  28.318  1.00  0.00     0.034 A 
ATOM     55  C   UNL A   1      43.706  23.114  28.418  1.00  0.00     0.049 A 
ATOM     56  C   UNL A   1      46.869  28.007  28.426  1.00  0.00     0.074 A 
ATOM     57  C   UNL A   1      43.190  22.817  29.666  1.00  0.00     0.029 A 
ATOM     58  N   UNL A   1      44.989  23.562  28.653  1.00  0.00    -0.354 N 
ATOM     59  N   UNL A   1      46.946  27.360  29.556  1.00  0.00    -0.248 NA
ATOM     60  C   UNL A   1      46.856  27.173  27.234  1.00  0.00     0.031 C 
ATOM     61  C   UNL A   1      43.978  23.578  30.582  1.00  0.00     0.029 A 
ATOM     62  C   UNL A   1      44.999  24.205  29.866  1.00  0.00     0.049 A 
ATOM     63  H   UNL A   1      45.763  23.441  28.056  1.00  0.00     0.167 HD
ATOM     64  C   UNL A   1      46.521  26.076  29.256  1.00  0.00     0.074 A 
ATOM     65  C   UNL A   1      46.577  25.993  27.796  1.00  0.00     0.031 C 
ATOM     66  C   UNL A   1      45.888  25.306  30.191  1.00  0.00     0.034 A 
BRANCH  53  67
ATOM     67  C   UNL A   1      43.825  22.946  25.830  1.00  0.00     0.023 A 
ATOM     68  C   UNL A   1      43.923  21.560  25.601  1.00  0.00     0.031 A 
ATOM     69  C   UNL A   1      44.649  23.756  25.015  1.00  0.00     0.131 A 
ATOM     70  C   UNL A   1      44.903  21.037  24.744  1.00  0.00     0.055 A 
ATOM     71  C   UNL A   1      45.575  23.229  24.108  1.00  0.00     0.041 A 
ATOM     72  F   UNL A   1      44.678  25.090  25.094  1.00  0.00    -0.206 F 
ATOM     73  C   UNL A   1      45.737  21.862  23.998  1.00  0.00     0.022 A 
BRANCH  70  74
ATOM     74  S   UNL A   1      45.200  19.252  24.788  1.00  0.00     0.124 S 
ATOM     75  O   UNL A   1      44.984  18.897  23.389  1.00  0.00    -0.237 OA
ATOM     76  O   UNL A   1      46.576  19.191  25.266  1.00  0.00    -0.237 OA
ATOM     77  O   UNL A   1      44.190  18.767  25.725  1.00  0.00    -0.744 OA
ENDBRANCH  70  74
ENDBRANCH  53  67
BRANCH  54  78
ATOM     78  C   UNL A   1      47.055  30.499  27.639  1.00  0.00     0.023 A 
ATOM     79  C   UNL A   1      46.402  31.592  27.014  1.00  0.00     0.031 A 
ATOM     80  C   UNL A   1      48.446  30.637  27.836  1.00  0.00     0.131 A 
ATOM     81  C   UNL A   1      47.135  32.747  26.633  1.00  0.00     0.055 A 
ATOM     82  C   UNL A   1      49.161  31.779  27.464  1.00  0.00     0.041 A 
ATOM     83  F   UNL A   1      49.152  29.698  28.486  1.00  0.00    -0.206 F 
ATOM     84  C   UNL A   1      48.506  32.845  26.871  1.00  0.00     0.022 A 
BRANCH  81  85
ATOM     85  S   UNL A   1      46.303  34.202  25.900  1.00  0.00     0.124 S 
ATOM     86  O   UNL A   1      45.989  35.006  27.075  1.00  0.00    -0.237 OA
ATOM     87  O   UNL A   1      47.320  34.731  25.000  1.00  0.00    -0.237 OA
ATOM     88  O   UNL A   1      45.137  33.624  25.226  1.00  0.00    -0.744 OA
ENDBRANCH  81  85
ENDBRANCH  54  78
BRANCH  66  89
ATOM     89  C   UNL A   1      45.969  25.718  31.650  1.00  0.00     0.023 A 
ATOM     90  C   UNL A   1      47.053  25.463  32.522  1.00  0.00     0.031 A 
ATOM     91  C   UNL A   1      44.914  26.507  32.140  1.00  0.00     0.131 A 
ATOM     92  C   UNL A   1      47.040  25.984  33.834  1.00  0.00     0.055 A 
ATOM     93  C   UNL A   1      44.915  27.042  33.426  1.00  0.00     0.041 A 
ATOM     94  F   UNL A   1      43.863  26.803  31.357  1.00  0.00    -0.206 F 
ATOM     95  C   UNL A   1      45.977  26.776  34.282  1.00  0.00     0.022 A 
BRANCH  92  96
ATOM     96  S   UNL A   1      48.394  25.624  35.002  1.00  0.00     0.124 S 
ATOM     97  O   UNL A   1      48.680  26.920  35.604  1.00  0.00    -0.237 OA
ATOM     98  O   UNL A   1      47.793  24.627  35.884  1.00  0.00    -0.237 OA
ATOM     99  O   UNL A   1      49.458  25.105  34.139  1.00  0.00    -0.744 OA
ENDBRANCH  92  96
ENDBRANCH  66  89
ENDBRANCH  40  41
ENDBRANCH  32  35
ENDBRANCH  30  31
ENDBRANCH  29  30
ENDBRANCH   1  29
TORSDOF 21
ENDMDL
