MODEL 1
REMARK VINA RESULT:     -11.7      0.000      0.000
REMARK SMILES CC[C@H](C)N1C(=O)c2ccccc2[C@@H](C(=O)NCCCCCCNC(=O)c2ccc(-c3c4nc(c(-c5cc(S(=O)(=O)[O-])ccc5F)c5ccc([nH]5)c(-c5cc(S(=O)(=O)[O-])ccc5F)c5nc(c(-c6cc(S(=O)(=O)[O-])ccc6F)c6ccc3[nH]6)C=C5)C=C4)cc2)C12CCCCC2
REMARK SMILES IDX 21 1 20 2 19 3 18 4 17 5 15 6 16 7 14 9 5 10 6 11 90 12 7 13
REMARK SMILES IDX 8 14 91 15 95 16 9 17 13 18 92 19 94 20 10 21 12 22 93 23
REMARK SMILES IDX 11 24 3 25 4 26 2 27 1 28 22 29 23 30 24 31 25 32 26 34
REMARK SMILES IDX 27 35 28 36 89 37 29 38 88 39 30 40 31 41 32 42 82 43 33 44
REMARK SMILES IDX 87 45 81 46 83 47 34 48 86 49 80 50 79 51 35 53 67 54 47 55
REMARK SMILES IDX 66 56 48 57 51 58 65 59 84 60 49 61 50 62 64 64 85 65 52 66
REMARK SMILES IDX 36 67 37 68 45 69 38 70 44 71 46 72 43 73 39 74 40 75 41 76
REMARK SMILES IDX 42 77 68 78 69 79 77 80 70 81 76 82 78 83 75 84 71 85 72 86
REMARK SMILES IDX 73 87 74 88 53 89 54 90 62 91 55 92 61 93 63 94 60 95 56 96
REMARK SMILES IDX 57 97 58 98 59 99
REMARK H PARENT 17 8 24 33 83 52 51 63
REMARK Flexibility Score: inf
ROOT
ATOM      1  C   UNL A   1      37.124  21.669  24.535  1.00  0.00     0.002 C 
ENDROOT
BRANCH   1   2
ATOM      2  C   UNL A   1      35.611  21.500  24.627  1.00  0.00     0.002 C 
BRANCH   2   3
ATOM      3  C   UNL A   1      34.994  22.028  25.922  1.00  0.00     0.021 C 
BRANCH   3   4
ATOM      4  C   UNL A   1      34.604  23.506  25.904  1.00  0.00     0.116 C 
BRANCH   4   5
ATOM      5  N   UNL A   1      33.458  23.797  26.756  1.00  0.00    -0.355 N 
ATOM      6  C   UNL A   1      32.231  24.343  26.519  1.00  0.00     0.229 C 
ATOM      7  O   UNL A   1      31.464  24.387  27.490  1.00  0.00    -0.274 OA
ATOM      8  H   UNL A   1      33.598  23.548  27.698  1.00  0.00     0.163 HD
BRANCH   6   9
ATOM      9  C   UNL A   1      31.754  24.834  25.134  1.00  0.00     0.135 C 
ATOM     10  N   UNL A   1      32.153  26.443  23.186  1.00  0.00    -0.329 N 
ATOM     11  C   UNL A   1      32.795  25.433  22.441  1.00  0.00     0.254 C 
ATOM     12  C   UNL A   1      32.125  26.331  24.718  1.00  0.00     0.059 C 
ATOM     13  O   UNL A   1      33.386  25.637  21.383  1.00  0.00    -0.269 OA
ATOM     14  C   UNL A   1      32.613  24.036  22.888  1.00  0.00     0.044 A 
ATOM     15  C   UNL A   1      33.521  26.795  25.212  1.00  0.00     0.030 C 
ATOM     16  C   UNL A   1      31.067  27.292  25.339  1.00  0.00     0.030 C 
ATOM     17  C   UNL A   1      32.978  22.992  22.021  1.00  0.00     0.014 A 
ATOM     18  C   UNL A   1      32.001  23.748  24.101  1.00  0.00    -0.020 A 
ATOM     19  C   UNL A   1      33.663  27.150  26.698  1.00  0.00     0.002 C 
ATOM     20  C   UNL A   1      31.179  27.536  26.842  1.00  0.00     0.002 C 
ATOM     21  C   UNL A   1      32.688  21.666  22.343  1.00  0.00     0.001 A 
ATOM     22  C   UNL A   1      31.654  22.410  24.386  1.00  0.00     0.005 A 
ATOM     23  C   UNL A   1      32.558  28.055  27.215  1.00  0.00     0.000 C 
ATOM     24  C   UNL A   1      32.003  21.376  23.517  1.00  0.00     0.000 A 
BRANCH  10  25
ATOM     25  C   UNL A   1      31.852  27.676  22.391  1.00  0.00     0.082 C 
ATOM     26  C   UNL A   1      30.364  27.972  22.184  1.00  0.00     0.031 C 
BRANCH  25  27
ATOM     27  C   UNL A   1      32.762  28.901  22.635  1.00  0.00     0.021 C 
ATOM     28  C   UNL A   1      34.264  28.717  22.474  1.00  0.00     0.006 C 
ENDBRANCH  25  27
ENDBRANCH  10  25
ENDBRANCH   6   9
ENDBRANCH   4   5
ENDBRANCH   3   4
ENDBRANCH   2   3
ENDBRANCH   1   2
BRANCH   1  29
ATOM     29  C   UNL A   1      37.933  20.459  25.006  1.00  0.00     0.021 C 
BRANCH  29  30
ATOM     30  C   UNL A   1      39.139  20.793  25.878  1.00  0.00     0.116 C 
BRANCH  30  31
ATOM     31  N   UNL A   1      40.074  19.683  25.977  1.00  0.00    -0.352 N 
ATOM     32  C   UNL A   1      41.433  19.750  26.179  1.00  0.00     0.251 C 
ATOM     33  H   UNL A   1      39.691  18.780  25.888  1.00  0.00     0.163 HD
ATOM     34  O   UNL A   1      42.139  18.754  26.075  1.00  0.00    -0.269 OA
BRANCH  32  35
ATOM     35  C   UNL A   1      42.017  21.069  26.496  1.00  0.00     0.039 A 
ATOM     36  C   UNL A   1      42.171  21.447  27.834  1.00  0.00     0.014 A 
ATOM     37  C   UNL A   1      42.289  21.966  25.463  1.00  0.00     0.014 A 
ATOM     38  C   UNL A   1      42.452  22.773  28.138  1.00  0.00     0.010 A 
ATOM     39  C   UNL A   1      42.653  23.277  25.775  1.00  0.00     0.010 A 
ATOM     40  C   UNL A   1      42.692  23.704  27.112  1.00  0.00    -0.014 A 
BRANCH  40  41
ATOM     41  C   UNL A   1      43.009  25.112  27.466  1.00  0.00     0.031 A 
ATOM     42  C   UNL A   1      41.964  26.025  28.047  1.00  0.00     0.074 A 
ATOM     43  C   UNL A   1      44.268  25.557  27.287  1.00  0.00     0.049 A 
ATOM     44  N   UNL A   1      42.082  27.271  28.426  1.00  0.00    -0.248 NA
ATOM     45  C   UNL A   1      40.610  25.475  28.220  1.00  0.00     0.031 C 
ATOM     46  C   UNL A   1      45.358  24.756  26.731  1.00  0.00     0.029 A 
ATOM     47  N   UNL A   1      44.850  26.766  27.565  1.00  0.00    -0.354 N 
ATOM     48  C   UNL A   1      40.820  27.665  28.855  1.00  0.00     0.074 A 
ATOM     49  C   UNL A   1      39.941  26.530  28.667  1.00  0.00     0.031 C 
ATOM     50  C   UNL A   1      46.487  25.474  26.758  1.00  0.00     0.029 A 
ATOM     51  C   UNL A   1      46.190  26.814  27.259  1.00  0.00     0.049 A 
ATOM     52  H   UNL A   1      44.357  27.528  27.948  1.00  0.00     0.167 HD
ATOM     53  C   UNL A   1      40.437  28.859  29.367  1.00  0.00     0.034 A 
ATOM     54  C   UNL A   1      47.082  27.820  27.355  1.00  0.00     0.034 A 
ATOM     55  C   UNL A   1      41.335  29.968  29.575  1.00  0.00     0.049 A 
ATOM     56  C   UNL A   1      46.630  29.141  27.915  1.00  0.00     0.074 A 
ATOM     57  C   UNL A   1      41.054  31.196  30.147  1.00  0.00     0.029 A 
ATOM     58  N   UNL A   1      42.679  29.990  29.226  1.00  0.00    -0.354 N 
ATOM     59  N   UNL A   1      45.446  29.476  28.373  1.00  0.00    -0.248 NA
ATOM     60  C   UNL A   1      47.624  30.219  27.977  1.00  0.00     0.031 C 
ATOM     61  C   UNL A   1      42.203  31.984  30.079  1.00  0.00     0.029 A 
ATOM     62  C   UNL A   1      43.228  31.224  29.535  1.00  0.00     0.049 A 
ATOM     63  H   UNL A   1      43.169  29.240  28.818  1.00  0.00     0.167 HD
ATOM     64  C   UNL A   1      45.555  30.801  28.785  1.00  0.00     0.074 A 
ATOM     65  C   UNL A   1      46.929  31.194  28.551  1.00  0.00     0.031 C 
ATOM     66  C   UNL A   1      44.600  31.613  29.304  1.00  0.00     0.034 A 
BRANCH  53  67
ATOM     67  C   UNL A   1      38.991  29.060  29.750  1.00  0.00     0.023 A 
ATOM     68  C   UNL A   1      38.138  29.794  28.902  1.00  0.00     0.031 A 
ATOM     69  C   UNL A   1      38.493  28.651  30.999  1.00  0.00     0.131 A 
ATOM     70  C   UNL A   1      36.846  30.125  29.329  1.00  0.00     0.055 A 
ATOM     71  C   UNL A   1      37.191  28.950  31.404  1.00  0.00     0.041 A 
ATOM     72  F   UNL A   1      39.266  27.950  31.845  1.00  0.00    -0.206 F 
ATOM     73  C   UNL A   1      36.366  29.701  30.573  1.00  0.00     0.022 A 
BRANCH  70  74
ATOM     74  S   UNL A   1      35.762  31.173  28.321  1.00  0.00     0.124 S 
ATOM     75  O   UNL A   1      36.682  32.225  27.890  1.00  0.00    -0.237 OA
ATOM     76  O   UNL A   1      35.334  30.252  27.272  1.00  0.00    -0.237 OA
ATOM     77  O   UNL A   1      34.722  31.601  29.250  1.00  0.00    -0.744 OA
ENDBRANCH  70  74
ENDBRANCH  53  67
BRANCH  54  78
ATOM     78  C   UNL A   1      48.493  27.566  26.943  1.00  0.00     0.023 A 
ATOM     79  C   UNL A   1      48.967  28.004  25.691  1.00  0.00     0.031 A 
ATOM     80  C   UNL A   1      49.333  26.754  27.721  1.00  0.00     0.131 A 
ATOM     81  C   UNL A   1      50.203  27.549  25.216  1.00  0.00     0.055 A 
ATOM     82  C   UNL A   1      50.599  26.368  27.276  1.00  0.00     0.041 A 
ATOM     83  F   UNL A   1      48.920  26.302  28.914  1.00  0.00    -0.206 F 
ATOM     84  C   UNL A   1      51.030  26.746  26.007  1.00  0.00     0.022 A 
BRANCH  81  85
ATOM     85  S   UNL A   1      50.702  27.847  23.497  1.00  0.00     0.124 S 
ATOM     86  O   UNL A   1      51.469  26.645  23.189  1.00  0.00    -0.237 OA
ATOM     87  O   UNL A   1      49.407  27.959  22.828  1.00  0.00    -0.237 OA
ATOM     88  O   UNL A   1      51.470  29.085  23.570  1.00  0.00    -0.744 OA
ENDBRANCH  81  85
ENDBRANCH  54  78
BRANCH  66  89
ATOM     89  C   UNL A   1      44.975  33.032  29.658  1.00  0.00     0.023 A 
ATOM     90  C   UNL A   1      44.973  34.031  28.666  1.00  0.00     0.031 A 
ATOM     91  C   UNL A   1      45.485  33.356  30.927  1.00  0.00     0.131 A 
ATOM     92  C   UNL A   1      45.517  35.291  28.944  1.00  0.00     0.055 A 
ATOM     93  C   UNL A   1      45.980  34.630  31.214  1.00  0.00     0.041 A 
ATOM     94  F   UNL A   1      45.516  32.436  31.905  1.00  0.00    -0.206 F 
ATOM     95  C   UNL A   1      46.013  35.598  30.214  1.00  0.00     0.022 A 
BRANCH  92  96
ATOM     96  S   UNL A   1      45.688  36.544  27.642  1.00  0.00     0.124 S 
ATOM     97  O   UNL A   1      45.751  35.721  26.436  1.00  0.00    -0.237 OA
ATOM     98  O   UNL A   1      44.463  37.323  27.802  1.00  0.00    -0.237 OA
ATOM     99  O   UNL A   1      46.923  37.241  27.984  1.00  0.00    -0.744 OA
ENDBRANCH  92  96
ENDBRANCH  66  89
ENDBRANCH  40  41
ENDBRANCH  32  35
ENDBRANCH  30  31
ENDBRANCH  29  30
ENDBRANCH   1  29
TORSDOF 18
ENDMDL
MODEL 2
REMARK VINA RESULT:     -11.7      5.857     10.726
REMARK SMILES CC[C@H](C)N1C(=O)c2ccccc2[C@@H](C(=O)NCCCCCCNC(=O)c2ccc(-c3c4nc(c(-c5cc(S(=O)(=O)[O-])ccc5F)c5ccc([nH]5)c(-c5cc(S(=O)(=O)[O-])ccc5F)c5nc(c(-c6cc(S(=O)(=O)[O-])ccc6F)c6ccc3[nH]6)C=C5)C=C4)cc2)C12CCCCC2
REMARK SMILES IDX 21 1 20 2 19 3 18 4 17 5 15 6 16 7 14 9 5 10 6 11 90 12 7 13
REMARK SMILES IDX 8 14 91 15 95 16 9 17 13 18 92 19 94 20 10 21 12 22 93 23
REMARK SMILES IDX 11 24 3 25 4 26 2 27 1 28 22 29 23 30 24 31 25 32 26 34
REMARK SMILES IDX 27 35 28 36 89 37 29 38 88 39 30 40 31 41 32 42 82 43 33 44
REMARK SMILES IDX 87 45 81 46 83 47 34 48 86 49 80 50 79 51 35 53 67 54 47 55
REMARK SMILES IDX 66 56 48 57 51 58 65 59 84 60 49 61 50 62 64 64 85 65 52 66
REMARK SMILES IDX 36 67 37 68 45 69 38 70 44 71 46 72 43 73 39 74 40 75 41 76
REMARK SMILES IDX 42 77 68 78 69 79 77 80 70 81 76 82 78 83 75 84 71 85 72 86
REMARK SMILES IDX 73 87 74 88 53 89 54 90 62 91 55 92 61 93 63 94 60 95 56 96
REMARK SMILES IDX 57 97 58 98 59 99
REMARK H PARENT 17 8 24 33 83 52 51 63
REMARK Flexibility Score: inf
ROOT
ATOM      1  C   UNL A   1      32.083  29.922  27.170  1.00  0.00     0.002 C 
ENDROOT
BRANCH   1   2
ATOM      2  C   UNL A   1      33.438  29.286  26.876  1.00  0.00     0.002 C 
BRANCH   2   3
ATOM      3  C   UNL A   1      33.600  28.781  25.442  1.00  0.00     0.021 C 
BRANCH   3   4
ATOM      4  C   UNL A   1      33.657  27.261  25.289  1.00  0.00     0.116 C 
BRANCH   4   5
ATOM      5  N   UNL A   1      34.025  26.843  23.941  1.00  0.00    -0.355 N 
ATOM      6  C   UNL A   1      33.725  25.748  23.187  1.00  0.00     0.229 C 
ATOM      7  O   UNL A   1      34.172  25.750  22.032  1.00  0.00    -0.274 OA
ATOM      8  H   UNL A   1      34.611  27.486  23.480  1.00  0.00     0.163 HD
BRANCH   6   9
ATOM      9  C   UNL A   1      32.836  24.579  23.670  1.00  0.00     0.135 C 
ATOM     10  N   UNL A   1      32.414  22.829  25.487  1.00  0.00    -0.329 N 
ATOM     11  C   UNL A   1      31.417  23.634  26.075  1.00  0.00     0.254 C 
ATOM     12  C   UNL A   1      33.506  23.501  24.640  1.00  0.00     0.059 C 
ATOM     13  O   UNL A   1      30.889  23.383  27.155  1.00  0.00    -0.269 OA
ATOM     14  C   UNL A   1      30.881  24.752  25.271  1.00  0.00     0.044 A 
ATOM     15  C   UNL A   1      34.525  24.103  25.644  1.00  0.00     0.030 C 
ATOM     16  C   UNL A   1      34.270  22.460  23.767  1.00  0.00     0.030 C 
ATOM     17  C   UNL A   1      29.698  25.385  25.690  1.00  0.00     0.014 A 
ATOM     18  C   UNL A   1      31.472  25.115  24.068  1.00  0.00    -0.020 A 
ATOM     19  C   UNL A   1      35.903  24.500  25.100  1.00  0.00     0.002 C 
ATOM     20  C   UNL A   1      35.587  22.930  23.156  1.00  0.00     0.002 C 
ATOM     21  C   UNL A   1      29.080  26.343  24.885  1.00  0.00     0.001 A 
ATOM     22  C   UNL A   1      30.804  26.036  23.233  1.00  0.00     0.005 A 
ATOM     23  C   UNL A   1      36.542  23.435  24.226  1.00  0.00     0.000 C 
ATOM     24  C   UNL A   1      29.621  26.651  23.644  1.00  0.00     0.000 A 
BRANCH  10  25
ATOM     25  C   UNL A   1      32.461  21.435  26.033  1.00  0.00     0.082 C 
ATOM     26  C   UNL A   1      32.094  20.332  25.038  1.00  0.00     0.031 C 
BRANCH  25  27
ATOM     27  C   UNL A   1      33.609  21.112  27.015  1.00  0.00     0.021 C 
ATOM     28  C   UNL A   1      33.928  22.130  28.100  1.00  0.00     0.006 C 
ENDBRANCH  25  27
ENDBRANCH  10  25
ENDBRANCH   6   9
ENDBRANCH   4   5
ENDBRANCH   3   4
ENDBRANCH   2   3
ENDBRANCH   1   2
BRANCH   1  29
ATOM     29  C   UNL A   1      32.003  31.422  26.877  1.00  0.00     0.021 C 
BRANCH  29  30
ATOM     30  C   UNL A   1      33.154  32.249  27.441  1.00  0.00     0.116 C 
BRANCH  30  31
ATOM     31  N   UNL A   1      32.782  33.637  27.660  1.00  0.00    -0.352 N 
ATOM     32  C   UNL A   1      33.241  34.481  28.645  1.00  0.00     0.251 C 
ATOM     33  H   UNL A   1      32.125  34.018  27.033  1.00  0.00     0.163 HD
ATOM     34  O   UNL A   1      32.727  35.577  28.831  1.00  0.00    -0.269 OA
BRANCH  32  35
ATOM     35  C   UNL A   1      34.354  34.008  29.492  1.00  0.00     0.039 A 
ATOM     36  C   UNL A   1      35.667  34.351  29.153  1.00  0.00     0.014 A 
ATOM     37  C   UNL A   1      34.093  33.125  30.540  1.00  0.00     0.014 A 
ATOM     38  C   UNL A   1      36.723  33.691  29.768  1.00  0.00     0.010 A 
ATOM     39  C   UNL A   1      35.161  32.526  31.211  1.00  0.00     0.010 A 
ATOM     40  C   UNL A   1      36.482  32.767  30.801  1.00  0.00    -0.014 A 
BRANCH  40  41
ATOM     41  C   UNL A   1      37.632  32.089  31.454  1.00  0.00     0.031 A 
ATOM     42  C   UNL A   1      38.372  30.975  30.768  1.00  0.00     0.074 A 
ATOM     43  C   UNL A   1      38.026  32.512  32.671  1.00  0.00     0.049 A 
ATOM     44  N   UNL A   1      39.406  30.293  31.192  1.00  0.00    -0.248 NA
ATOM     45  C   UNL A   1      37.892  30.563  29.439  1.00  0.00     0.031 C 
ATOM     46  C   UNL A   1      37.378  33.584  33.426  1.00  0.00     0.029 A 
ATOM     47  N   UNL A   1      39.063  32.116  33.476  1.00  0.00    -0.354 N 
ATOM     48  C   UNL A   1      39.683  29.358  30.202  1.00  0.00     0.074 A 
ATOM     49  C   UNL A   1      38.693  29.543  29.162  1.00  0.00     0.031 C 
ATOM     50  C   UNL A   1      38.061  33.799  34.557  1.00  0.00     0.029 A 
ATOM     51  C   UNL A   1      39.150  32.829  34.649  1.00  0.00     0.049 A 
ATOM     52  H   UNL A   1      39.685  31.392  33.237  1.00  0.00     0.167 HD
ATOM     53  C   UNL A   1      40.678  28.440  30.163  1.00  0.00     0.034 A 
ATOM     54  C   UNL A   1      39.997  32.712  35.691  1.00  0.00     0.034 A 
ATOM     55  C   UNL A   1      41.674  28.292  31.196  1.00  0.00     0.049 A 
ATOM     56  C   UNL A   1      41.087  31.678  35.630  1.00  0.00     0.074 A 
ATOM     57  C   UNL A   1      42.759  27.434  31.216  1.00  0.00     0.029 A 
ATOM     58  N   UNL A   1      41.714  29.011  32.383  1.00  0.00    -0.354 N 
ATOM     59  N   UNL A   1      41.372  30.843  34.658  1.00  0.00    -0.248 NA
ATOM     60  C   UNL A   1      41.971  31.564  36.797  1.00  0.00     0.031 C 
ATOM     61  C   UNL A   1      43.411  27.581  32.440  1.00  0.00     0.029 A 
ATOM     62  C   UNL A   1      42.782  28.587  33.157  1.00  0.00     0.049 A 
ATOM     63  H   UNL A   1      41.076  29.717  32.637  1.00  0.00     0.167 HD
ATOM     64  C   UNL A   1      42.473  30.111  35.091  1.00  0.00     0.074 A 
ATOM     65  C   UNL A   1      42.821  30.624  36.400  1.00  0.00     0.031 C 
ATOM     66  C   UNL A   1      43.129  29.103  34.461  1.00  0.00     0.034 A 
BRANCH  53  67
ATOM     67  C   UNL A   1      40.768  27.510  28.977  1.00  0.00     0.023 A 
ATOM     68  C   UNL A   1      41.723  27.752  27.970  1.00  0.00     0.031 A 
ATOM     69  C   UNL A   1      39.835  26.479  28.773  1.00  0.00     0.131 A 
ATOM     70  C   UNL A   1      41.701  26.996  26.791  1.00  0.00     0.055 A 
ATOM     71  C   UNL A   1      39.841  25.703  27.612  1.00  0.00     0.041 A 
ATOM     72  F   UNL A   1      38.903  26.209  29.701  1.00  0.00    -0.206 F 
ATOM     73  C   UNL A   1      40.769  25.969  26.610  1.00  0.00     0.022 A 
BRANCH  70  74
ATOM     74  S   UNL A   1      42.832  27.359  25.420  1.00  0.00     0.124 S 
ATOM     75  O   UNL A   1      42.124  28.434  24.726  1.00  0.00    -0.237 OA
ATOM     76  O   UNL A   1      44.045  27.765  26.124  1.00  0.00    -0.237 OA
ATOM     77  O   UNL A   1      42.916  26.099  24.691  1.00  0.00    -0.744 OA
ENDBRANCH  70  74
ENDBRANCH  53  67
BRANCH  54  78
ATOM     78  C   UNL A   1      39.846  33.648  36.843  1.00  0.00     0.023 A 
ATOM     79  C   UNL A   1      39.293  33.207  38.061  1.00  0.00     0.031 A 
ATOM     80  C   UNL A   1      40.104  35.020  36.693  1.00  0.00     0.131 A 
ATOM     81  C   UNL A   1      38.929  34.140  39.039  1.00  0.00     0.055 A 
ATOM     82  C   UNL A   1      39.813  35.938  37.704  1.00  0.00     0.041 A 
ATOM     83  F   UNL A   1      40.618  35.490  35.546  1.00  0.00    -0.206 F 
ATOM     84  C   UNL A   1      39.200  35.502  38.876  1.00  0.00     0.022 A 
BRANCH  81  85
ATOM     85  S   UNL A   1      37.945  33.637  40.479  1.00  0.00     0.124 S 
ATOM     86  O   UNL A   1      38.794  32.618  41.087  1.00  0.00    -0.237 OA
ATOM     87  O   UNL A   1      37.838  34.894  41.218  1.00  0.00    -0.237 OA
ATOM     88  O   UNL A   1      36.698  33.155  39.895  1.00  0.00    -0.744 OA
ENDBRANCH  81  85
ENDBRANCH  54  78
BRANCH  66  89
ATOM     89  C   UNL A   1      44.298  28.454  35.162  1.00  0.00     0.023 A 
ATOM     90  C   UNL A   1      44.075  27.443  36.115  1.00  0.00     0.031 A 
ATOM     91  C   UNL A   1      45.606  28.945  35.007  1.00  0.00     0.131 A 
ATOM     92  C   UNL A   1      45.134  26.990  36.912  1.00  0.00     0.055 A 
ATOM     93  C   UNL A   1      46.667  28.454  35.768  1.00  0.00     0.041 A 
ATOM     94  F   UNL A   1      45.868  29.915  34.116  1.00  0.00    -0.206 F 
ATOM     95  C   UNL A   1      46.430  27.484  36.738  1.00  0.00     0.022 A 
BRANCH  92  96
ATOM     96  S   UNL A   1      44.851  25.814  38.265  1.00  0.00     0.124 S 
ATOM     97  O   UNL A   1      46.187  25.693  38.845  1.00  0.00    -0.237 OA
ATOM     98  O   UNL A   1      43.876  26.523  39.090  1.00  0.00    -0.237 OA
ATOM     99  O   UNL A   1      44.354  24.617  37.596  1.00  0.00    -0.744 OA
ENDBRANCH  92  96
ENDBRANCH  66  89
ENDBRANCH  40  41
ENDBRANCH  32  35
ENDBRANCH  30  31
ENDBRANCH  29  30
ENDBRANCH   1  29
TORSDOF 18
ENDMDL
MODEL 3
REMARK VINA RESULT:     -11.6      1.983      7.570
REMARK SMILES CC[C@H](C)N1C(=O)c2ccccc2[C@@H](C(=O)NCCCCCCNC(=O)c2ccc(-c3c4nc(c(-c5cc(S(=O)(=O)[O-])ccc5F)c5ccc([nH]5)c(-c5cc(S(=O)(=O)[O-])ccc5F)c5nc(c(-c6cc(S(=O)(=O)[O-])ccc6F)c6ccc3[nH]6)C=C5)C=C4)cc2)C12CCCCC2
REMARK SMILES IDX 21 1 20 2 19 3 18 4 17 5 15 6 16 7 14 9 5 10 6 11 90 12 7 13
REMARK SMILES IDX 8 14 91 15 95 16 9 17 13 18 92 19 94 20 10 21 12 22 93 23
REMARK SMILES IDX 11 24 3 25 4 26 2 27 1 28 22 29 23 30 24 31 25 32 26 34
REMARK SMILES IDX 27 35 28 36 89 37 29 38 88 39 30 40 31 41 32 42 82 43 33 44
REMARK SMILES IDX 87 45 81 46 83 47 34 48 86 49 80 50 79 51 35 53 67 54 47 55
REMARK SMILES IDX 66 56 48 57 51 58 65 59 84 60 49 61 50 62 64 64 85 65 52 66
REMARK SMILES IDX 36 67 37 68 45 69 38 70 44 71 46 72 43 73 39 74 40 75 41 76
REMARK SMILES IDX 42 77 68 78 69 79 77 80 70 81 76 82 78 83 75 84 71 85 72 86
REMARK SMILES IDX 73 87 74 88 53 89 54 90 62 91 55 92 61 93 63 94 60 95 56 96
REMARK SMILES IDX 57 97 58 98 59 99
REMARK H PARENT 17 8 24 33 83 52 51 63
REMARK Flexibility Score: inf
ROOT
ATOM      1  C   UNL A   1      37.652  22.064  25.073  1.00  0.00     0.002 C 
ENDROOT
BRANCH   1   2
ATOM      2  C   UNL A   1      36.293  21.968  24.386  1.00  0.00     0.002 C 
BRANCH   2   3
ATOM      3  C   UNL A   1      35.100  22.209  25.310  1.00  0.00     0.021 C 
BRANCH   3   4
ATOM      4  C   UNL A   1      34.858  23.669  25.697  1.00  0.00     0.116 C 
BRANCH   4   5
ATOM      5  N   UNL A   1      33.729  23.831  26.605  1.00  0.00    -0.355 N 
ATOM      6  C   UNL A   1      32.456  24.291  26.441  1.00  0.00     0.229 C 
ATOM      7  O   UNL A   1      31.728  24.231  27.441  1.00  0.00    -0.274 OA
ATOM      8  H   UNL A   1      33.927  23.551  27.528  1.00  0.00     0.163 HD
BRANCH   6   9
ATOM      9  C   UNL A   1      31.886  24.805  25.100  1.00  0.00     0.135 C 
ATOM     10  N   UNL A   1      32.154  26.447  23.157  1.00  0.00    -0.329 N 
ATOM     11  C   UNL A   1      32.741  25.448  22.353  1.00  0.00     0.254 C 
ATOM     12  C   UNL A   1      32.231  26.308  24.685  1.00  0.00     0.059 C 
ATOM     13  O   UNL A   1      33.258  25.670  21.260  1.00  0.00    -0.269 OA
ATOM     14  C   UNL A   1      32.588  24.045  22.788  1.00  0.00     0.044 A 
ATOM     15  C   UNL A   1      33.658  26.764  25.090  1.00  0.00     0.030 C 
ATOM     16  C   UNL A   1      31.219  27.260  25.393  1.00  0.00     0.030 C 
ATOM     17  C   UNL A   1      32.891  23.015  21.881  1.00  0.00     0.014 A 
ATOM     18  C   UNL A   1      32.060  23.737  24.035  1.00  0.00    -0.020 A 
ATOM     19  C   UNL A   1      33.902  27.094  26.568  1.00  0.00     0.002 C 
ATOM     20  C   UNL A   1      31.434  27.479  26.888  1.00  0.00     0.002 C 
ATOM     21  C   UNL A   1      32.620  21.684  22.200  1.00  0.00     0.001 A 
ATOM     22  C   UNL A   1      31.731  22.394  24.321  1.00  0.00     0.005 A 
ATOM     23  C   UNL A   1      32.837  27.990  27.176  1.00  0.00     0.000 C 
ATOM     24  C   UNL A   1      32.017  21.375  23.412  1.00  0.00     0.000 A 
BRANCH  10  25
ATOM     25  C   UNL A   1      31.801  27.693  22.405  1.00  0.00     0.082 C 
ATOM     26  C   UNL A   1      30.301  27.957  22.246  1.00  0.00     0.031 C 
BRANCH  25  27
ATOM     27  C   UNL A   1      32.687  28.933  22.659  1.00  0.00     0.021 C 
ATOM     28  C   UNL A   1      34.189  28.788  22.466  1.00  0.00     0.006 C 
ENDBRANCH  25  27
ENDBRANCH  10  25
ENDBRANCH   6   9
ENDBRANCH   4   5
ENDBRANCH   3   4
ENDBRANCH   2   3
ENDBRANCH   1   2
BRANCH   1  29
ATOM     29  C   UNL A   1      38.369  20.726  25.262  1.00  0.00     0.021 C 
BRANCH  29  30
ATOM     30  C   UNL A   1      39.544  20.758  26.234  1.00  0.00     0.116 C 
BRANCH  30  31
ATOM     31  N   UNL A   1      40.401  19.591  26.105  1.00  0.00    -0.352 N 
ATOM     32  C   UNL A   1      41.776  19.562  26.061  1.00  0.00     0.251 C 
ATOM     33  H   UNL A   1      39.945  18.720  26.042  1.00  0.00     0.163 HD
ATOM     34  O   UNL A   1      42.379  18.534  25.779  1.00  0.00    -0.269 OA
BRANCH  32  35
ATOM     35  C   UNL A   1      42.499  20.821  26.332  1.00  0.00     0.039 A 
ATOM     36  C   UNL A   1      42.700  21.223  27.656  1.00  0.00     0.014 A 
ATOM     37  C   UNL A   1      42.858  21.650  25.269  1.00  0.00     0.014 A 
ATOM     38  C   UNL A   1      43.122  22.521  27.915  1.00  0.00     0.010 A 
ATOM     39  C   UNL A   1      43.360  22.925  25.536  1.00  0.00     0.010 A 
ATOM     40  C   UNL A   1      43.453  23.388  26.859  1.00  0.00    -0.014 A 
BRANCH  40  41
ATOM     41  C   UNL A   1      43.920  24.765  27.165  1.00  0.00     0.031 A 
ATOM     42  C   UNL A   1      45.340  25.184  26.904  1.00  0.00     0.074 A 
ATOM     43  C   UNL A   1      43.035  25.654  27.658  1.00  0.00     0.049 A 
ATOM     44  N   UNL A   1      45.901  26.350  27.097  1.00  0.00    -0.248 NA
ATOM     45  C   UNL A   1      46.255  24.166  26.362  1.00  0.00     0.031 C 
ATOM     46  C   UNL A   1      41.633  25.352  27.950  1.00  0.00     0.029 A 
ATOM     47  N   UNL A   1      43.166  26.980  27.980  1.00  0.00    -0.354 N 
ATOM     48  C   UNL A   1      47.233  26.202  26.730  1.00  0.00     0.074 A 
ATOM     49  C   UNL A   1      47.406  24.824  26.323  1.00  0.00     0.031 C 
ATOM     50  C   UNL A   1      41.021  26.471  28.356  1.00  0.00     0.029 A 
ATOM     51  C   UNL A   1      41.999  27.553  28.430  1.00  0.00     0.049 A 
ATOM     52  H   UNL A   1      44.013  27.474  27.897  1.00  0.00     0.167 HD
ATOM     53  C   UNL A   1      48.216  27.136  26.725  1.00  0.00     0.034 A 
ATOM     54  C   UNL A   1      41.742  28.802  28.868  1.00  0.00     0.034 A 
ATOM     55  C   UNL A   1      48.016  28.512  27.104  1.00  0.00     0.049 A 
ATOM     56  C   UNL A   1      42.851  29.817  28.863  1.00  0.00     0.074 A 
ATOM     57  C   UNL A   1      48.935  29.547  27.071  1.00  0.00     0.029 A 
ATOM     58  N   UNL A   1      46.829  29.050  27.583  1.00  0.00    -0.354 N 
ATOM     59  N   UNL A   1      44.091  29.676  28.455  1.00  0.00    -0.248 NA
ATOM     60  C   UNL A   1      42.537  31.157  29.373  1.00  0.00     0.031 C 
ATOM     61  C   UNL A   1      48.328  30.689  27.593  1.00  0.00     0.029 A 
ATOM     62  C   UNL A   1      47.004  30.391  27.883  1.00  0.00     0.049 A 
ATOM     63  H   UNL A   1      45.987  28.552  27.693  1.00  0.00     0.167 HD
ATOM     64  C   UNL A   1      44.702  30.910  28.650  1.00  0.00     0.074 A 
ATOM     65  C   UNL A   1      43.686  31.794  29.184  1.00  0.00     0.031 C 
ATOM     66  C   UNL A   1      45.989  31.272  28.413  1.00  0.00     0.034 A 
BRANCH  53  67
ATOM     67  C   UNL A   1      49.605  26.730  26.297  1.00  0.00     0.023 A 
ATOM     68  C   UNL A   1      50.100  27.144  25.045  1.00  0.00     0.031 A 
ATOM     69  C   UNL A   1      50.380  25.834  27.053  1.00  0.00     0.131 A 
ATOM     70  C   UNL A   1      51.316  26.635  24.572  1.00  0.00     0.055 A 
ATOM     71  C   UNL A   1      51.610  25.359  26.594  1.00  0.00     0.041 A 
ATOM     72  F   UNL A   1      49.953  25.407  28.253  1.00  0.00    -0.206 F 
ATOM     73  C   UNL A   1      52.077  25.750  25.343  1.00  0.00     0.022 A 
BRANCH  70  74
ATOM     74  S   UNL A   1      51.926  27.046  22.914  1.00  0.00     0.124 S 
ATOM     75  O   UNL A   1      52.926  26.002  22.697  1.00  0.00    -0.237 OA
ATOM     76  O   UNL A   1      50.716  26.928  22.105  1.00  0.00    -0.237 OA
ATOM     77  O   UNL A   1      52.460  28.396  23.060  1.00  0.00    -0.744 OA
ENDBRANCH  70  74
ENDBRANCH  53  67
BRANCH  54  78
ATOM     78  C   UNL A   1      40.352  29.137  29.295  1.00  0.00     0.023 A 
ATOM     79  C   UNL A   1      39.979  29.064  30.651  1.00  0.00     0.031 A 
ATOM     80  C   UNL A   1      39.347  29.379  28.345  1.00  0.00     0.131 A 
ATOM     81  C   UNL A   1      38.627  29.136  31.006  1.00  0.00     0.055 A 
ATOM     82  C   UNL A   1      38.009  29.532  28.713  1.00  0.00     0.041 A 
ATOM     83  F   UNL A   1      39.652  29.445  27.041  1.00  0.00    -0.206 F 
ATOM     84  C   UNL A   1      37.640  29.386  30.048  1.00  0.00     0.022 A 
BRANCH  81  85
ATOM     85  S   UNL A   1      38.090  28.745  32.696  1.00  0.00     0.124 S 
ATOM     86  O   UNL A   1      38.174  27.289  32.713  1.00  0.00    -0.237 OA
ATOM     87  O   UNL A   1      39.094  29.446  33.494  1.00  0.00    -0.237 OA
ATOM     88  O   UNL A   1      36.744  29.302  32.768  1.00  0.00    -0.744 OA
ENDBRANCH  81  85
ENDBRANCH  54  78
BRANCH  66  89
ATOM     89  C   UNL A   1      46.411  32.686  28.730  1.00  0.00     0.023 A 
ATOM     90  C   UNL A   1      46.821  33.024  30.034  1.00  0.00     0.031 A 
ATOM     91  C   UNL A   1      46.253  33.722  27.794  1.00  0.00     0.131 A 
ATOM     92  C   UNL A   1      47.011  34.367  30.379  1.00  0.00     0.055 A 
ATOM     93  C   UNL A   1      46.492  35.056  28.129  1.00  0.00     0.041 A 
ATOM     94  F   UNL A   1      45.855  33.452  26.539  1.00  0.00    -0.206 F 
ATOM     95  C   UNL A   1      46.856  35.385  29.432  1.00  0.00     0.022 A 
BRANCH  92  96
ATOM     96  S   UNL A   1      47.371  34.853  32.090  1.00  0.00     0.124 S 
ATOM     97  O   UNL A   1      48.781  34.492  32.217  1.00  0.00    -0.237 OA
ATOM     98  O   UNL A   1      47.094  36.286  32.069  1.00  0.00    -0.237 OA
ATOM     99  O   UNL A   1      46.450  34.048  32.887  1.00  0.00    -0.744 OA
ENDBRANCH  92  96
ENDBRANCH  66  89
ENDBRANCH  40  41
ENDBRANCH  32  35
ENDBRANCH  30  31
ENDBRANCH  29  30
ENDBRANCH   1  29
TORSDOF 18
ENDMDL
