MODEL 1
REMARK VINA RESULT:     -10.7      0.000      0.000
REMARK SMILES COc1ccc(-c2csc(NC(=O)[C@H](CC(=O)NCCCCCCNC(=O)c3ccc(-c4c5nc(c(-c6cc(S(=O)(=O)[O-])ccc6F)c6ccc([nH]6)c(-c6cc(S(=O)(=O)[O-])ccc6F)c6nc(c(-c7cc(S(=O)(=O)[O-])ccc7F)c7ccc4[nH]7)C=C6)C=C5)cc3)[NH+]3CCCCC3)n2)cc1
REMARK SMILES IDX 20 1 19 2 18 3 16 4 17 5 15 7 14 8 12 9 11 10 13 12 10 13
REMARK SMILES IDX 7 14 8 15 97 16 9 17 6 18 3 19 4 20 99 21 5 22 98 23 2 24
REMARK SMILES IDX 1 25 91 26 92 27 96 28 93 30 95 31 94 32 21 33 22 34 23 35
REMARK SMILES IDX 24 36 25 37 26 38 27 40 28 41 29 42 90 43 30 44 89 45 31 46
REMARK SMILES IDX 32 47 33 48 83 49 34 50 88 51 82 52 84 53 35 54 87 55 81 56
REMARK SMILES IDX 80 57 36 59 68 60 48 61 67 62 49 63 52 64 66 65 85 66 50 67
REMARK SMILES IDX 51 68 65 70 86 71 53 72 37 73 38 74 46 75 39 76 45 77 47 78
REMARK SMILES IDX 44 79 40 80 41 81 42 82 43 83 69 84 70 85 78 86 71 87 77 88
REMARK SMILES IDX 79 89 76 90 72 91 73 92 74 93 75 94 54 95 55 96 63 97 56 98
REMARK SMILES IDX 62 99 64 100 61 101 57 102 58 103 59 104 60 105
REMARK H PARENT 18 6 11 11 91 29 25 39 84 58 52 69
REMARK Flexibility Score: inf
ROOT
ATOM      1  C   UNL A   1      35.881  21.756  24.675  1.00  0.00     0.021 C 
ENDROOT
BRANCH   1   2
ATOM      2  C   UNL A   1      35.156  22.098  25.971  1.00  0.00     0.116 C 
BRANCH   2   3
ATOM      3  N   UNL A   1      34.362  23.261  26.239  1.00  0.00    -0.356 N 
ATOM      4  C   UNL A   1      33.009  23.373  26.392  1.00  0.00     0.226 C 
ATOM      5  O   UNL A   1      32.606  24.378  26.995  1.00  0.00    -0.275 OA
ATOM      6  H   UNL A   1      34.865  24.101  26.327  1.00  0.00     0.163 HD
BRANCH   4   7
ATOM      7  C   UNL A   1      31.959  22.418  25.823  1.00  0.00     0.175 C 
BRANCH   7   8
ATOM      8  C   UNL A   1      31.888  21.953  24.375  1.00  0.00     0.284 C 
BRANCH   8   9
ATOM      9  C   UNL A   1      32.496  22.895  23.249  1.00  0.00     0.285 C 
ATOM     10  N   UNL A   1      32.204  24.219  22.959  1.00  0.00    -0.297 N 
ATOM     11  H   UNL A   1      32.242  24.440  22.001  1.00  0.00     0.172 HD
ATOM     12  O   UNL A   1      33.264  22.386  22.411  1.00  0.00    -0.268 OA
BRANCH  10  13
ATOM     13  C   UNL A   1      31.867  25.286  23.775  1.00  0.00     0.190 A 
ATOM     14  C   UNL A   1      31.991  27.201  24.919  1.00  0.00     0.084 A 
ATOM     15  C   UNL A   1      30.667  26.872  25.145  1.00  0.00     0.097 A 
ATOM     16  N   UNL A   1      32.633  26.340  24.025  1.00  0.00    -0.220 NA
ATOM     17  S   UNL A   1      30.224  25.497  24.201  1.00  0.00    -0.105 S 
BRANCH  14  18
ATOM     18  C   UNL A   1      32.584  28.386  25.565  1.00  0.00     0.001 A 
ATOM     19  C   UNL A   1      33.409  30.529  27.249  1.00  0.00     0.118 A 
ATOM     20  C   UNL A   1      34.229  29.415  27.059  1.00  0.00     0.047 A 
ATOM     21  C   UNL A   1      32.219  30.610  26.531  1.00  0.00     0.047 A 
ATOM     22  C   UNL A   1      33.820  28.349  26.232  1.00  0.00     0.014 A 
ATOM     23  C   UNL A   1      31.815  29.551  25.696  1.00  0.00     0.014 A 
BRANCH  19  24
ATOM     24  O   UNL A   1      33.873  31.475  28.124  1.00  0.00    -0.497 OA
ATOM     25  C   UNL A   1      35.214  31.920  27.920  1.00  0.00     0.278 C 
ENDBRANCH  19  24
ENDBRANCH  14  18
ENDBRANCH  10  13
ENDBRANCH   8   9
BRANCH   8  26
ATOM     26  N   UNL A   1      32.101  20.422  24.294  1.00  0.00    -0.324 N 
ATOM     27  C   UNL A   1      32.385  19.832  22.979  1.00  0.00     0.262 C 
ATOM     28  C   UNL A   1      32.860  19.742  25.353  1.00  0.00     0.262 C 
ATOM     29  H   UNL A   1      31.125  20.208  24.500  1.00  0.00     0.348 HD
ATOM     30  C   UNL A   1      32.274  18.286  22.998  1.00  0.00     0.062 C 
ATOM     31  C   UNL A   1      32.723  18.230  25.425  1.00  0.00     0.062 C 
ATOM     32  C   UNL A   1      33.128  17.641  24.088  1.00  0.00     0.012 C 
ENDBRANCH   8  26
ENDBRANCH   7   8
ENDBRANCH   4   7
ENDBRANCH   2   3
ENDBRANCH   1   2
BRANCH   1  33
ATOM     33  C   UNL A   1      37.380  21.905  24.582  1.00  0.00     0.002 C 
BRANCH  33  34
ATOM     34  C   UNL A   1      38.185  20.804  25.250  1.00  0.00     0.002 C 
BRANCH  34  35
ATOM     35  C   UNL A   1      39.509  21.221  25.901  1.00  0.00     0.021 C 
BRANCH  35  36
ATOM     36  C   UNL A   1      40.152  20.210  26.839  1.00  0.00     0.116 C 
BRANCH  36  37
ATOM     37  N   UNL A   1      41.232  19.483  26.201  1.00  0.00    -0.352 N 
ATOM     38  C   UNL A   1      42.432  19.943  25.735  1.00  0.00     0.251 C 
ATOM     39  H   UNL A   1      41.078  18.517  26.086  1.00  0.00     0.163 HD
ATOM     40  O   UNL A   1      43.114  19.211  25.005  1.00  0.00    -0.269 OA
BRANCH  38  41
ATOM     41  C   UNL A   1      42.907  21.301  26.072  1.00  0.00     0.039 A 
ATOM     42  C   UNL A   1      42.904  22.282  25.078  1.00  0.00     0.014 A 
ATOM     43  C   UNL A   1      43.388  21.606  27.349  1.00  0.00     0.014 A 
ATOM     44  C   UNL A   1      43.339  23.576  25.374  1.00  0.00     0.010 A 
ATOM     45  C   UNL A   1      43.747  22.915  27.665  1.00  0.00     0.010 A 
ATOM     46  C   UNL A   1      43.740  23.913  26.678  1.00  0.00    -0.014 A 
BRANCH  46  47
ATOM     47  C   UNL A   1      44.180  25.294  27.014  1.00  0.00     0.031 A 
ATOM     48  C   UNL A   1      43.210  26.269  27.626  1.00  0.00     0.074 A 
ATOM     49  C   UNL A   1      45.440  25.684  26.730  1.00  0.00     0.049 A 
ATOM     50  N   UNL A   1      43.382  27.530  27.932  1.00  0.00    -0.248 NA
ATOM     51  C   UNL A   1      41.857  25.764  27.906  1.00  0.00     0.031 C 
ATOM     52  C   UNL A   1      46.465  24.842  26.110  1.00  0.00     0.029 A 
ATOM     53  N   UNL A   1      46.072  26.888  26.919  1.00  0.00    -0.354 N 
ATOM     54  C   UNL A   1      42.158  27.972  28.427  1.00  0.00     0.074 A 
ATOM     55  C   UNL A   1      41.238  26.859  28.319  1.00  0.00     0.031 C 
ATOM     56  C   UNL A   1      47.602  25.546  25.996  1.00  0.00     0.029 A 
ATOM     57  C   UNL A   1      47.378  26.903  26.485  1.00  0.00     0.049 A 
ATOM     58  H   UNL A   1      45.633  27.668  27.328  1.00  0.00     0.167 HD
ATOM     59  C   UNL A   1      41.839  29.184  28.946  1.00  0.00     0.034 A 
ATOM     60  C   UNL A   1      48.287  27.898  26.467  1.00  0.00     0.034 A 
ATOM     61  C   UNL A   1      42.772  30.280  29.056  1.00  0.00     0.049 A 
ATOM     62  C   UNL A   1      47.899  29.249  27.017  1.00  0.00     0.074 A 
ATOM     63  C   UNL A   1      42.568  31.534  29.605  1.00  0.00     0.029 A 
ATOM     64  N   UNL A   1      44.084  30.259  28.598  1.00  0.00    -0.354 N 
ATOM     65  N   UNL A   1      46.751  29.637  27.523  1.00  0.00    -0.248 NA
ATOM     66  C   UNL A   1      48.934  30.291  27.006  1.00  0.00     0.031 C 
ATOM     67  C   UNL A   1      43.727  32.293  29.412  1.00  0.00     0.029 A 
ATOM     68  C   UNL A   1      44.688  31.488  28.823  1.00  0.00     0.049 A 
ATOM     69  H   UNL A   1      44.522  29.484  28.175  1.00  0.00     0.167 HD
ATOM     70  C   UNL A   1      46.940  30.958  27.924  1.00  0.00     0.074 A 
ATOM     71  C   UNL A   1      48.314  31.292  27.613  1.00  0.00     0.031 C 
ATOM     72  C   UNL A   1      46.059  31.813  28.504  1.00  0.00     0.034 A 
BRANCH  59  73
ATOM     73  C   UNL A   1      40.415  29.392  29.405  1.00  0.00     0.023 A 
ATOM     74  C   UNL A   1      40.078  29.463  30.769  1.00  0.00     0.031 A 
ATOM     75  C   UNL A   1      39.371  29.499  28.467  1.00  0.00     0.131 A 
ATOM     76  C   UNL A   1      38.731  29.552  31.156  1.00  0.00     0.055 A 
ATOM     77  C   UNL A   1      38.043  29.677  28.858  1.00  0.00     0.041 A 
ATOM     78  F   UNL A   1      39.624  29.418  27.151  1.00  0.00    -0.206 F 
ATOM     79  C   UNL A   1      37.714  29.688  30.210  1.00  0.00     0.022 A 
BRANCH  76  80
ATOM     80  S   UNL A   1      38.319  29.332  32.909  1.00  0.00     0.124 S 
ATOM     81  O   UNL A   1      37.737  30.630  33.240  1.00  0.00    -0.237 OA
ATOM     82  O   UNL A   1      37.394  28.205  32.877  1.00  0.00    -0.237 OA
ATOM     83  O   UNL A   1      39.614  29.061  33.534  1.00  0.00    -0.744 OA
ENDBRANCH  76  80
ENDBRANCH  59  73
BRANCH  60  84
ATOM     84  C   UNL A   1      49.650  27.670  25.902  1.00  0.00     0.023 A 
ATOM     85  C   UNL A   1      50.761  27.483  26.739  1.00  0.00     0.031 A 
ATOM     86  C   UNL A   1      49.868  27.685  24.512  1.00  0.00     0.131 A 
ATOM     87  C   UNL A   1      52.045  27.371  26.184  1.00  0.00     0.055 A 
ATOM     88  C   UNL A   1      51.140  27.512  23.962  1.00  0.00     0.041 A 
ATOM     89  F   UNL A   1      48.841  27.858  23.664  1.00  0.00    -0.206 F 
ATOM     90  C   UNL A   1      52.241  27.369  24.801  1.00  0.00     0.022 A 
BRANCH  87  91
ATOM     91  S   UNL A   1      53.474  27.327  27.301  1.00  0.00     0.124 S 
ATOM     92  O   UNL A   1      53.228  26.099  28.048  1.00  0.00    -0.237 OA
ATOM     93  O   UNL A   1      54.591  27.295  26.362  1.00  0.00    -0.237 OA
ATOM     94  O   UNL A   1      53.343  28.562  28.069  1.00  0.00    -0.744 OA
ENDBRANCH  87  91
ENDBRANCH  60  84
BRANCH  72  95
ATOM     95  C   UNL A   1      46.577  33.178  28.895  1.00  0.00     0.023 A 
ATOM     96  C   UNL A   1      46.516  34.277  28.021  1.00  0.00     0.031 A 
ATOM     97  C   UNL A   1      47.151  33.375  30.164  1.00  0.00     0.131 A 
ATOM     98  C   UNL A   1      47.072  35.507  28.404  1.00  0.00     0.055 A 
ATOM     99  C   UNL A   1      47.641  34.618  30.566  1.00  0.00     0.041 A 
ATOM    100  F   UNL A   1      47.242  32.360  31.039  1.00  0.00    -0.206 F 
ATOM    101  C   UNL A   1      47.616  35.690  29.679  1.00  0.00     0.022 A 
BRANCH  98 102
ATOM    102  S   UNL A   1      47.169  36.841  27.179  1.00  0.00     0.124 S 
ATOM    103  O   UNL A   1      48.339  37.586  27.633  1.00  0.00    -0.237 OA
ATOM    104  O   UNL A   1      47.329  36.105  25.929  1.00  0.00    -0.237 OA
ATOM    105  O   UNL A   1      45.893  37.539  27.329  1.00  0.00    -0.744 OA
ENDBRANCH  98 102
ENDBRANCH  72  95
ENDBRANCH  46  47
ENDBRANCH  38  41
ENDBRANCH  36  37
ENDBRANCH  35  36
ENDBRANCH  34  35
ENDBRANCH  33  34
ENDBRANCH   1  33
TORSDOF 22
ENDMDL
MODEL 2
REMARK VINA RESULT:     -10.7      3.121      6.237
REMARK SMILES COc1ccc(-c2csc(NC(=O)[C@H](CC(=O)NCCCCCCNC(=O)c3ccc(-c4c5nc(c(-c6cc(S(=O)(=O)[O-])ccc6F)c6ccc([nH]6)c(-c6cc(S(=O)(=O)[O-])ccc6F)c6nc(c(-c7cc(S(=O)(=O)[O-])ccc7F)c7ccc4[nH]7)C=C6)C=C5)cc3)[NH+]3CCCCC3)n2)cc1
REMARK SMILES IDX 20 1 19 2 18 3 16 4 17 5 15 7 14 8 12 9 11 10 13 12 10 13
REMARK SMILES IDX 7 14 8 15 97 16 9 17 6 18 3 19 4 20 99 21 5 22 98 23 2 24
REMARK SMILES IDX 1 25 91 26 92 27 96 28 93 30 95 31 94 32 21 33 22 34 23 35
REMARK SMILES IDX 24 36 25 37 26 38 27 40 28 41 29 42 90 43 30 44 89 45 31 46
REMARK SMILES IDX 32 47 33 48 83 49 34 50 88 51 82 52 84 53 35 54 87 55 81 56
REMARK SMILES IDX 80 57 36 59 68 60 48 61 67 62 49 63 52 64 66 65 85 66 50 67
REMARK SMILES IDX 51 68 65 70 86 71 53 72 37 73 38 74 46 75 39 76 45 77 47 78
REMARK SMILES IDX 44 79 40 80 41 81 42 82 43 83 69 84 70 85 78 86 71 87 77 88
REMARK SMILES IDX 79 89 76 90 72 91 73 92 74 93 75 94 54 95 55 96 63 97 56 98
REMARK SMILES IDX 62 99 64 100 61 101 57 102 58 103 59 104 60 105
REMARK H PARENT 18 6 11 11 91 29 25 39 84 58 52 69
REMARK Flexibility Score: inf
ROOT
ATOM      1  C   UNL A   1      36.436  22.326  24.421  1.00  0.00     0.021 C 
ENDROOT
BRANCH   1   2
ATOM      2  C   UNL A   1      35.061  21.918  24.937  1.00  0.00     0.116 C 
BRANCH   2   3
ATOM      3  N   UNL A   1      34.637  21.837  26.304  1.00  0.00    -0.356 N 
ATOM      4  C   UNL A   1      33.921  22.732  27.047  1.00  0.00     0.226 C 
ATOM      5  O   UNL A   1      33.351  22.281  28.051  1.00  0.00    -0.275 OA
ATOM      6  H   UNL A   1      34.900  21.015  26.776  1.00  0.00     0.163 HD
BRANCH   4   7
ATOM      7  C   UNL A   1      33.828  24.237  26.794  1.00  0.00     0.175 C 
BRANCH   7   8
ATOM      8  C   UNL A   1      32.698  24.933  26.047  1.00  0.00     0.284 C 
BRANCH   8   9
ATOM      9  C   UNL A   1      31.266  24.246  26.035  1.00  0.00     0.285 C 
ATOM     10  N   UNL A   1      30.760  23.287  25.171  1.00  0.00    -0.297 N 
ATOM     11  H   UNL A   1      29.799  23.385  24.976  1.00  0.00     0.172 HD
ATOM     12  O   UNL A   1      30.401  24.679  26.820  1.00  0.00    -0.268 OA
BRANCH  10  13
ATOM     13  C   UNL A   1      31.361  22.216  24.531  1.00  0.00     0.190 A 
ATOM     14  C   UNL A   1      32.240  20.197  24.147  1.00  0.00     0.084 A 
ATOM     15  C   UNL A   1      32.305  20.734  22.874  1.00  0.00     0.097 A 
ATOM     16  N   UNL A   1      31.580  21.020  25.064  1.00  0.00    -0.220 NA
ATOM     17  S   UNL A   1      31.500  22.260  22.827  1.00  0.00    -0.105 S 
BRANCH  14  18
ATOM     18  C   UNL A   1      32.801  18.863  24.421  1.00  0.00     0.001 A 
ATOM     19  C   UNL A   1      33.357  16.110  24.894  1.00  0.00     0.118 A 
ATOM     20  C   UNL A   1      33.647  16.694  23.660  1.00  0.00     0.047 A 
ATOM     21  C   UNL A   1      32.870  16.921  25.916  1.00  0.00     0.047 A 
ATOM     22  C   UNL A   1      33.366  18.055  23.420  1.00  0.00     0.014 A 
ATOM     23  C   UNL A   1      32.600  18.282  25.681  1.00  0.00     0.014 A 
BRANCH  19  24
ATOM     24  O   UNL A   1      33.607  14.768  24.997  1.00  0.00    -0.497 OA
ATOM     25  C   UNL A   1      32.666  14.007  25.753  1.00  0.00     0.278 C 
ENDBRANCH  19  24
ENDBRANCH  14  18
ENDBRANCH  10  13
ENDBRANCH   8   9
BRANCH   8  26
ATOM     26  N   UNL A   1      32.813  26.468  26.213  1.00  0.00    -0.324 N 
ATOM     27  C   UNL A   1      33.784  27.183  25.375  1.00  0.00     0.262 C 
ATOM     28  C   UNL A   1      31.593  27.265  26.406  1.00  0.00     0.262 C 
ATOM     29  H   UNL A   1      33.226  26.404  27.143  1.00  0.00     0.348 HD
ATOM     30  C   UNL A   1      34.003  28.642  25.854  1.00  0.00     0.062 C 
ATOM     31  C   UNL A   1      31.780  28.681  26.927  1.00  0.00     0.062 C 
ATOM     32  C   UNL A   1      32.700  29.428  25.983  1.00  0.00     0.012 C 
ENDBRANCH   8  26
ENDBRANCH   7   8
ENDBRANCH   4   7
ENDBRANCH   2   3
ENDBRANCH   1   2
BRANCH   1  33
ATOM     33  C   UNL A   1      37.009  23.677  24.775  1.00  0.00     0.002 C 
BRANCH  33  34
ATOM     34  C   UNL A   1      37.693  23.758  26.128  1.00  0.00     0.002 C 
BRANCH  34  35
ATOM     35  C   UNL A   1      39.222  23.876  26.118  1.00  0.00     0.021 C 
BRANCH  35  36
ATOM     36  C   UNL A   1      39.997  22.706  26.707  1.00  0.00     0.116 C 
BRANCH  36  37
ATOM     37  N   UNL A   1      41.172  22.380  25.923  1.00  0.00    -0.352 N 
ATOM     38  C   UNL A   1      42.244  23.163  25.598  1.00  0.00     0.251 C 
ATOM     39  H   UNL A   1      41.201  21.460  25.572  1.00  0.00     0.163 HD
ATOM     40  O   UNL A   1      43.027  22.777  24.719  1.00  0.00    -0.269 OA
BRANCH  38  41
ATOM     41  C   UNL A   1      42.463  24.463  26.264  1.00  0.00     0.039 A 
ATOM     42  C   UNL A   1      42.310  25.636  25.520  1.00  0.00     0.014 A 
ATOM     43  C   UNL A   1      42.853  24.537  27.605  1.00  0.00     0.014 A 
ATOM     44  C   UNL A   1      42.502  26.878  26.129  1.00  0.00     0.010 A 
ATOM     45  C   UNL A   1      42.967  25.777  28.232  1.00  0.00     0.010 A 
ATOM     46  C   UNL A   1      42.806  26.963  27.498  1.00  0.00    -0.014 A 
BRANCH  46  47
ATOM     47  C   UNL A   1      42.987  28.280  28.166  1.00  0.00     0.031 A 
ATOM     48  C   UNL A   1      41.799  29.004  28.743  1.00  0.00     0.074 A 
ATOM     49  C   UNL A   1      44.211  28.844  28.217  1.00  0.00     0.049 A 
ATOM     50  N   UNL A   1      41.740  30.185  29.305  1.00  0.00    -0.248 NA
ATOM     51  C   UNL A   1      40.501  28.320  28.648  1.00  0.00     0.031 C 
ATOM     52  C   UNL A   1      45.434  28.255  27.668  1.00  0.00     0.029 A 
ATOM     53  N   UNL A   1      44.629  30.039  28.749  1.00  0.00    -0.354 N 
ATOM     54  C   UNL A   1      40.400  30.390  29.620  1.00  0.00     0.074 A 
ATOM     55  C   UNL A   1      39.675  29.238  29.126  1.00  0.00     0.031 C 
ATOM     56  C   UNL A   1      46.467  29.077  27.916  1.00  0.00     0.029 A 
ATOM     57  C   UNL A   1      45.976  30.273  28.594  1.00  0.00     0.049 A 
ATOM     58  H   UNL A   1      44.023  30.669  29.199  1.00  0.00     0.167 HD
ATOM     59  C   UNL A   1      39.832  31.429  30.281  1.00  0.00     0.034 A 
ATOM     60  C   UNL A   1      46.729  31.336  28.943  1.00  0.00     0.034 A 
ATOM     61  C   UNL A   1      40.572  32.565  30.777  1.00  0.00     0.049 A 
ATOM     62  C   UNL A   1      46.069  32.496  29.646  1.00  0.00     0.074 A 
ATOM     63  C   UNL A   1      40.104  33.650  31.498  1.00  0.00     0.029 A 
ATOM     64  N   UNL A   1      41.934  32.771  30.594  1.00  0.00    -0.354 N 
ATOM     65  N   UNL A   1      44.808  32.655  29.976  1.00  0.00    -0.248 NA
ATOM     66  C   UNL A   1      46.937  33.615  30.035  1.00  0.00     0.031 C 
ATOM     67  C   UNL A   1      41.164  34.544  31.684  1.00  0.00     0.029 A 
ATOM     68  C   UNL A   1      42.314  33.979  31.160  1.00  0.00     0.049 A 
ATOM     69  H   UNL A   1      42.541  32.148  30.130  1.00  0.00     0.167 HD
ATOM     70  C   UNL A   1      44.741  33.875  30.645  1.00  0.00     0.074 A 
ATOM     71  C   UNL A   1      46.089  34.401  30.682  1.00  0.00     0.031 C 
ATOM     72  C   UNL A   1      43.663  34.498  31.186  1.00  0.00     0.034 A 
BRANCH  59  73
ATOM     73  C   UNL A   1      38.334  31.394  30.478  1.00  0.00     0.023 A 
ATOM     74  C   UNL A   1      37.444  31.836  29.483  1.00  0.00     0.031 A 
ATOM     75  C   UNL A   1      37.784  30.931  31.688  1.00  0.00     0.131 A 
ATOM     76  C   UNL A   1      36.066  31.884  29.743  1.00  0.00     0.055 A 
ATOM     77  C   UNL A   1      36.406  30.899  31.908  1.00  0.00     0.041 A 
ATOM     78  F   UNL A   1      38.581  30.516  32.686  1.00  0.00    -0.206 F 
ATOM     79  C   UNL A   1      35.538  31.392  30.939  1.00  0.00     0.022 A 
BRANCH  76  80
ATOM     80  S   UNL A   1      34.991  32.741  28.560  1.00  0.00     0.124 S 
ATOM     81  O   UNL A   1      35.969  33.400  27.697  1.00  0.00    -0.237 OA
ATOM     82  O   UNL A   1      34.244  31.642  27.958  1.00  0.00    -0.237 OA
ATOM     83  O   UNL A   1      34.206  33.643  29.401  1.00  0.00    -0.744 OA
ENDBRANCH  76  80
ENDBRANCH  59  73
BRANCH  60  84
ATOM     84  C   UNL A   1      48.188  31.367  28.628  1.00  0.00     0.023 A 
ATOM     85  C   UNL A   1      48.695  32.201  27.619  1.00  0.00     0.031 A 
ATOM     86  C   UNL A   1      49.091  30.523  29.300  1.00  0.00     0.131 A 
ATOM     87  C   UNL A   1      50.054  32.137  27.275  1.00  0.00     0.055 A 
ATOM     88  C   UNL A   1      50.454  30.508  28.995  1.00  0.00     0.041 A 
ATOM     89  F   UNL A   1      48.662  29.706  30.275  1.00  0.00    -0.206 F 
ATOM     90  C   UNL A   1      50.940  31.307  27.966  1.00  0.00     0.022 A 
BRANCH  87  91
ATOM     91  S   UNL A   1      50.633  33.085  25.840  1.00  0.00     0.124 S 
ATOM     92  O   UNL A   1      51.620  33.969  26.448  1.00  0.00    -0.237 OA
ATOM     93  O   UNL A   1      51.158  32.034  24.975  1.00  0.00    -0.237 OA
ATOM     94  O   UNL A   1      49.421  33.741  25.355  1.00  0.00    -0.744 OA
ENDBRANCH  87  91
ENDBRANCH  60  84
BRANCH  72  95
ATOM     95  C   UNL A   1      43.912  35.796  31.919  1.00  0.00     0.023 A 
ATOM     96  C   UNL A   1      43.880  37.040  31.265  1.00  0.00     0.031 A 
ATOM     97  C   UNL A   1      44.196  35.782  33.297  1.00  0.00     0.131 A 
ATOM     98  C   UNL A   1      44.185  38.211  31.975  1.00  0.00     0.055 A 
ATOM     99  C   UNL A   1      44.432  36.956  34.012  1.00  0.00     0.041 A 
ATOM    100  F   UNL A   1      44.245  34.623  33.974  1.00  0.00    -0.206 F 
ATOM    101  C   UNL A   1      44.441  38.179  33.349  1.00  0.00     0.022 A 
BRANCH  98 102
ATOM    102  S   UNL A   1      44.345  39.769  31.061  1.00  0.00     0.124 S 
ATOM    103  O   UNL A   1      43.344  39.609  30.011  1.00  0.00    -0.237 OA
ATOM    104  O   UNL A   1      44.043  40.765  32.083  1.00  0.00    -0.237 OA
ATOM    105  O   UNL A   1      45.733  39.756  30.600  1.00  0.00    -0.744 OA
ENDBRANCH  98 102
ENDBRANCH  72  95
ENDBRANCH  46  47
ENDBRANCH  38  41
ENDBRANCH  36  37
ENDBRANCH  35  36
ENDBRANCH  34  35
ENDBRANCH  33  34
ENDBRANCH   1  33
TORSDOF 22
ENDMDL
MODEL 3
REMARK VINA RESULT:     -10.6      2.579      9.083
REMARK SMILES COc1ccc(-c2csc(NC(=O)[C@H](CC(=O)NCCCCCCNC(=O)c3ccc(-c4c5nc(c(-c6cc(S(=O)(=O)[O-])ccc6F)c6ccc([nH]6)c(-c6cc(S(=O)(=O)[O-])ccc6F)c6nc(c(-c7cc(S(=O)(=O)[O-])ccc7F)c7ccc4[nH]7)C=C6)C=C5)cc3)[NH+]3CCCCC3)n2)cc1
REMARK SMILES IDX 20 1 19 2 18 3 16 4 17 5 15 7 14 8 12 9 11 10 13 12 10 13
REMARK SMILES IDX 7 14 8 15 97 16 9 17 6 18 3 19 4 20 99 21 5 22 98 23 2 24
REMARK SMILES IDX 1 25 91 26 92 27 96 28 93 30 95 31 94 32 21 33 22 34 23 35
REMARK SMILES IDX 24 36 25 37 26 38 27 40 28 41 29 42 90 43 30 44 89 45 31 46
REMARK SMILES IDX 32 47 33 48 83 49 34 50 88 51 82 52 84 53 35 54 87 55 81 56
REMARK SMILES IDX 80 57 36 59 68 60 48 61 67 62 49 63 52 64 66 65 85 66 50 67
REMARK SMILES IDX 51 68 65 70 86 71 53 72 37 73 38 74 46 75 39 76 45 77 47 78
REMARK SMILES IDX 44 79 40 80 41 81 42 82 43 83 69 84 70 85 78 86 71 87 77 88
REMARK SMILES IDX 79 89 76 90 72 91 73 92 74 93 75 94 54 95 55 96 63 97 56 98
REMARK SMILES IDX 62 99 64 100 61 101 57 102 58 103 59 104 60 105
REMARK H PARENT 18 6 11 11 91 29 25 39 84 58 52 69
REMARK Flexibility Score: inf
ROOT
ATOM      1  C   UNL A   1      36.871  21.734  24.561  1.00  0.00     0.021 C 
ENDROOT
BRANCH   1   2
ATOM      2  C   UNL A   1      35.418  21.746  25.022  1.00  0.00     0.116 C 
BRANCH   2   3
ATOM      3  N   UNL A   1      34.930  22.015  26.342  1.00  0.00    -0.356 N 
ATOM      4  C   UNL A   1      34.152  23.046  26.789  1.00  0.00     0.226 C 
ATOM      5  O   UNL A   1      33.546  22.857  27.853  1.00  0.00    -0.275 OA
ATOM      6  H   UNL A   1      35.192  21.360  27.028  1.00  0.00     0.163 HD
BRANCH   4   7
ATOM      7  C   UNL A   1      34.028  24.424  26.137  1.00  0.00     0.175 C 
BRANCH   7   8
ATOM      8  C   UNL A   1      32.733  25.040  25.628  1.00  0.00     0.284 C 
BRANCH   8   9
ATOM      9  C   UNL A   1      31.381  24.231  25.830  1.00  0.00     0.285 C 
ATOM     10  N   UNL A   1      30.914  23.117  25.149  1.00  0.00    -0.297 N 
ATOM     11  H   UNL A   1      29.937  23.098  25.026  1.00  0.00     0.172 HD
ATOM     12  O   UNL A   1      30.535  24.690  26.621  1.00  0.00    -0.268 OA
BRANCH  10  13
ATOM     13  C   UNL A   1      31.574  22.026  24.610  1.00  0.00     0.190 A 
ATOM     14  C   UNL A   1      32.496  20.002  24.390  1.00  0.00     0.084 A 
ATOM     15  C   UNL A   1      32.661  20.482  23.104  1.00  0.00     0.097 A 
ATOM     16  N   UNL A   1      31.757  20.857  25.212  1.00  0.00    -0.220 NA
ATOM     17  S   UNL A   1      31.852  21.995  22.922  1.00  0.00    -0.105 S 
BRANCH  14  18
ATOM     18  C   UNL A   1      33.043  18.687  24.770  1.00  0.00     0.001 A 
ATOM     19  C   UNL A   1      33.687  15.944  25.185  1.00  0.00     0.118 A 
ATOM     20  C   UNL A   1      34.432  16.725  24.300  1.00  0.00     0.047 A 
ATOM     21  C   UNL A   1      32.678  16.555  25.924  1.00  0.00     0.047 A 
ATOM     22  C   UNL A   1      34.111  18.082  24.086  1.00  0.00     0.014 A 
ATOM     23  C   UNL A   1      32.364  17.912  25.721  1.00  0.00     0.014 A 
BRANCH  19  24
ATOM     24  O   UNL A   1      34.042  14.624  25.266  1.00  0.00    -0.497 OA
ATOM     25  C   UNL A   1      33.028  13.724  25.714  1.00  0.00     0.278 C 
ENDBRANCH  19  24
ENDBRANCH  14  18
ENDBRANCH  10  13
ENDBRANCH   8   9
BRANCH   8  26
ATOM     26  N   UNL A   1      32.749  26.574  25.840  1.00  0.00    -0.324 N 
ATOM     27  C   UNL A   1      34.050  27.235  26.006  1.00  0.00     0.262 C 
ATOM     28  C   UNL A   1      31.821  27.418  25.074  1.00  0.00     0.262 C 
ATOM     29  H   UNL A   1      32.335  26.516  26.770  1.00  0.00     0.348 HD
ATOM     30  C   UNL A   1      33.901  28.696  26.506  1.00  0.00     0.062 C 
ATOM     31  C   UNL A   1      31.617  28.838  25.578  1.00  0.00     0.062 C 
ATOM     32  C   UNL A   1      32.964  29.530  25.635  1.00  0.00     0.012 C 
ENDBRANCH   8  26
ENDBRANCH   7   8
ENDBRANCH   4   7
ENDBRANCH   2   3
ENDBRANCH   1   2
BRANCH   1  33
ATOM     33  C   UNL A   1      37.942  22.371  25.413  1.00  0.00     0.002 C 
BRANCH  33  34
ATOM     34  C   UNL A   1      39.107  21.466  25.777  1.00  0.00     0.002 C 
BRANCH  34  35
ATOM     35  C   UNL A   1      39.974  21.908  26.960  1.00  0.00     0.021 C 
BRANCH  35  36
ATOM     36  C   UNL A   1      40.986  20.893  27.476  1.00  0.00     0.116 C 
BRANCH  36  37
ATOM     37  N   UNL A   1      42.078  20.691  26.545  1.00  0.00    -0.352 N 
ATOM     38  C   UNL A   1      42.932  21.605  25.995  1.00  0.00     0.251 C 
ATOM     39  H   UNL A   1      42.226  19.757  26.269  1.00  0.00     0.163 HD
ATOM     40  O   UNL A   1      43.641  21.267  25.038  1.00  0.00    -0.269 OA
BRANCH  38  41
ATOM     41  C   UNL A   1      43.000  22.987  26.514  1.00  0.00     0.039 A 
ATOM     42  C   UNL A   1      43.315  23.188  27.860  1.00  0.00     0.014 A 
ATOM     43  C   UNL A   1      42.722  24.086  25.694  1.00  0.00     0.014 A 
ATOM     44  C   UNL A   1      43.396  24.484  28.371  1.00  0.00     0.010 A 
ATOM     45  C   UNL A   1      42.880  25.381  26.185  1.00  0.00     0.010 A 
ATOM     46  C   UNL A   1      43.206  25.596  27.534  1.00  0.00    -0.014 A 
BRANCH  46  47
ATOM     47  C   UNL A   1      43.314  26.983  28.060  1.00  0.00     0.031 A 
ATOM     48  C   UNL A   1      44.665  27.635  28.200  1.00  0.00     0.074 A 
ATOM     49  C   UNL A   1      42.204  27.641  28.450  1.00  0.00     0.049 A 
ATOM     50  N   UNL A   1      44.973  28.807  28.694  1.00  0.00    -0.248 NA
ATOM     51  C   UNL A   1      45.824  26.851  27.749  1.00  0.00     0.031 C 
ATOM     52  C   UNL A   1      40.842  27.107  28.392  1.00  0.00     0.029 A 
ATOM     53  N   UNL A   1      42.044  28.898  28.979  1.00  0.00    -0.354 N 
ATOM     54  C   UNL A   1      46.360  28.896  28.625  1.00  0.00     0.074 A 
ATOM     55  C   UNL A   1      46.834  27.631  28.101  1.00  0.00     0.031 C 
ATOM     56  C   UNL A   1      39.985  28.039  28.840  1.00  0.00     0.029 A 
ATOM     57  C   UNL A   1      40.735  29.216  29.266  1.00  0.00     0.049 A 
ATOM     58  H   UNL A   1      42.793  29.515  29.138  1.00  0.00     0.167 HD
ATOM     59  C   UNL A   1      47.162  29.942  28.945  1.00  0.00     0.034 A 
ATOM     60  C   UNL A   1      40.201  30.323  29.821  1.00  0.00     0.034 A 
ATOM     61  C   UNL A   1      46.673  31.199  29.457  1.00  0.00     0.049 A 
ATOM     62  C   UNL A   1      41.116  31.460  30.203  1.00  0.00     0.074 A 
ATOM     63  C   UNL A   1      47.391  32.341  29.771  1.00  0.00     0.029 A 
ATOM     64  N   UNL A   1      45.342  31.481  29.741  1.00  0.00    -0.354 N 
ATOM     65  N   UNL A   1      42.422  31.545  30.090  1.00  0.00    -0.248 NA
ATOM     66  C   UNL A   1      40.483  32.656  30.774  1.00  0.00     0.031 C 
ATOM     67  C   UNL A   1      46.509  33.280  30.314  1.00  0.00     0.029 A 
ATOM     68  C   UNL A   1      45.225  32.764  30.256  1.00  0.00     0.049 A 
ATOM     69  H   UNL A   1      44.591  30.860  29.597  1.00  0.00     0.167 HD
ATOM     70  C   UNL A   1      42.760  32.819  30.541  1.00  0.00     0.074 A 
ATOM     71  C   UNL A   1      41.521  33.468  30.914  1.00  0.00     0.031 C 
ATOM     72  C   UNL A   1      43.983  33.401  30.631  1.00  0.00     0.034 A 
BRANCH  59  73
ATOM     73  C   UNL A   1      48.652  29.755  28.777  1.00  0.00     0.023 A 
ATOM     74  C   UNL A   1      49.317  30.121  27.593  1.00  0.00     0.031 A 
ATOM     75  C   UNL A   1      49.420  29.180  29.807  1.00  0.00     0.131 A 
ATOM     76  C   UNL A   1      50.683  29.835  27.437  1.00  0.00     0.055 A 
ATOM     77  C   UNL A   1      50.795  28.980  29.679  1.00  0.00     0.041 A 
ATOM     78  F   UNL A   1      48.841  28.790  30.954  1.00  0.00    -0.206 F 
ATOM     79  C   UNL A   1      51.433  29.293  28.482  1.00  0.00     0.022 A 
BRANCH  76  80
ATOM     80  S   UNL A   1      51.427  30.040  25.795  1.00  0.00     0.124 S 
ATOM     81  O   UNL A   1      52.845  29.848  26.089  1.00  0.00    -0.237 OA
ATOM     82  O   UNL A   1      50.785  28.982  25.023  1.00  0.00    -0.237 OA
ATOM     83  O   UNL A   1      51.056  31.403  25.418  1.00  0.00    -0.744 OA
ENDBRANCH  76  80
ENDBRANCH  59  73
BRANCH  60  84
ATOM     84  C   UNL A   1      38.731  30.413  30.066  1.00  0.00     0.023 A 
ATOM     85  C   UNL A   1      37.910  31.219  29.261  1.00  0.00     0.031 A 
ATOM     86  C   UNL A   1      38.133  29.733  31.142  1.00  0.00     0.131 A 
ATOM     87  C   UNL A   1      36.549  31.366  29.574  1.00  0.00     0.055 A 
ATOM     88  C   UNL A   1      36.767  29.833  31.412  1.00  0.00     0.041 A 
ATOM     89  F   UNL A   1      38.870  28.946  31.943  1.00  0.00    -0.206 F 
ATOM     90  C   UNL A   1      35.969  30.667  30.635  1.00  0.00     0.022 A 
BRANCH  87  91
ATOM     91  S   UNL A   1      35.565  32.564  28.632  1.00  0.00     0.124 S 
ATOM     92  O   UNL A   1      35.258  31.809  27.423  1.00  0.00    -0.237 OA
ATOM     93  O   UNL A   1      34.447  32.814  29.535  1.00  0.00    -0.237 OA
ATOM     94  O   UNL A   1      36.481  33.688  28.451  1.00  0.00    -0.744 OA
ENDBRANCH  87  91
ENDBRANCH  60  84
BRANCH  72  95
ATOM     95  C   UNL A   1      44.032  34.837  31.099  1.00  0.00     0.023 A 
ATOM     96  C   UNL A   1      43.903  35.917  30.208  1.00  0.00     0.031 A 
ATOM     97  C   UNL A   1      44.222  35.126  32.463  1.00  0.00     0.131 A 
ATOM     98  C   UNL A   1      44.024  37.232  30.682  1.00  0.00     0.055 A 
ATOM     99  C   UNL A   1      44.273  36.437  32.938  1.00  0.00     0.041 A 
ATOM    100  F   UNL A   1      44.356  34.135  33.360  1.00  0.00    -0.206 F 
ATOM    101  C   UNL A   1      44.187  37.499  32.044  1.00  0.00     0.022 A 
BRANCH  98 102
ATOM    102  S   UNL A   1      44.066  38.591  29.481  1.00  0.00     0.124 S 
ATOM    103  O   UNL A   1      44.000  39.763  30.347  1.00  0.00    -0.237 OA
ATOM    104  O   UNL A   1      45.340  38.370  28.804  1.00  0.00    -0.237 OA
ATOM    105  O   UNL A   1      42.880  38.360  28.658  1.00  0.00    -0.744 OA
ENDBRANCH  98 102
ENDBRANCH  72  95
ENDBRANCH  46  47
ENDBRANCH  38  41
ENDBRANCH  36  37
ENDBRANCH  35  36
ENDBRANCH  34  35
ENDBRANCH  33  34
ENDBRANCH   1  33
TORSDOF 22
ENDMDL
