MODEL 1
REMARK VINA RESULT:     -12.5      0.000      0.000
REMARK SMILES Cc1cc(C(=O)N[C@@H]2C(=O)N3C(C(=O)NCCCCCCNC(=O)c4ccc(-c5c6nc(c(-c7cc(S(=O)(=O)[O-])ccc7F)c7ccc([nH]7)c(-c7cc(S(=O)(=O)[O-])ccc7F)c7nc(c(-c8cc(S(=O)(=O)[O-])ccc8F)c8ccc5[nH]8)C=C7)C=C6)cc4)=C(CSc4nnc(C)s4)CS[C@H]23)n(C)n1
REMARK SMILES IDX 18 1 17 2 16 3 15 4 13 5 14 6 12 8 8 9 9 10 99 11 10 12
REMARK SMILES IDX 11 13 98 14 97 15 88 16 7 17 5 18 6 19 4 21 1 22 2 23 3 24
REMARK SMILES IDX 102 25 100 26 101 27 89 28 90 29 91 30 92 31 96 32 93 33
REMARK SMILES IDX 94 34 95 35 19 36 20 37 21 38 22 39 23 40 24 42 25 43 26 44
REMARK SMILES IDX 87 45 27 46 86 47 28 48 29 49 30 50 80 51 31 52 85 53 79 54
REMARK SMILES IDX 81 55 32 56 84 57 78 58 77 59 33 61 65 62 45 63 64 64 46 65
REMARK SMILES IDX 49 66 63 67 82 68 47 69 48 70 62 72 83 73 50 74 34 75 35 76
REMARK SMILES IDX 43 77 36 78 42 79 44 80 41 81 37 82 38 83 39 84 40 85 66 86
REMARK SMILES IDX 67 87 75 88 68 89 74 90 76 91 73 92 69 93 70 94 71 95 72 96
REMARK SMILES IDX 51 97 52 98 60 99 53 100 59 101 61 102 58 103 54 104 55 105
REMARK SMILES IDX 56 106 57 107
REMARK H PARENT 15 7 7 20 22 41 81 60 49 71
REMARK Flexibility Score: inf
ROOT
ATOM      1  C   UNL A   1      32.804  29.438  26.332  1.00  0.00     0.002 C 
ENDROOT
BRANCH   1   2
ATOM      2  C   UNL A   1      33.680  28.749  25.296  1.00  0.00     0.021 C 
BRANCH   2   3
ATOM      3  C   UNL A   1      33.649  29.332  23.877  1.00  0.00     0.116 C 
BRANCH   3   4
ATOM      4  N   UNL A   1      33.739  28.276  22.889  1.00  0.00    -0.351 N 
ATOM      5  C   UNL A   1      33.088  27.144  22.543  1.00  0.00     0.268 C 
ATOM      6  O   UNL A   1      33.472  26.718  21.444  1.00  0.00    -0.268 OA
ATOM      7  H   UNL A   1      34.504  28.431  22.288  1.00  0.00     0.163 HD
BRANCH   5   8
ATOM      8  C   UNL A   1      31.867  26.482  23.215  1.00  0.00     0.111 C 
ATOM      9  C   UNL A   1      32.493  23.611  25.029  1.00  0.00     0.206 C 
ATOM     10  C   UNL A   1      33.192  24.964  24.726  1.00  0.00     0.253 C 
ATOM     11  C   UNL A   1      31.293  24.282  24.306  1.00  0.00     0.181 C 
ATOM     12  O   UNL A   1      34.151  25.549  25.207  1.00  0.00    -0.272 OA
ATOM     13  N   UNL A   1      32.222  25.277  23.815  1.00  0.00    -0.290 N 
ATOM     14  S   UNL A   1      30.062  25.111  25.351  1.00  0.00    -0.129 SA
ATOM     15  C   UNL A   1      29.472  26.014  23.920  1.00  0.00     0.106 C 
ATOM     16  C   UNL A   1      30.579  26.919  23.389  1.00  0.00    -0.020 C 
BRANCH   9  17
ATOM     17  N   UNL A   1      32.358  23.183  26.450  1.00  0.00    -0.336 N 
ATOM     18  C   UNL A   1      33.153  22.326  27.190  1.00  0.00     0.270 C 
ATOM     19  O   UNL A   1      32.849  22.143  28.367  1.00  0.00    -0.268 OA
ATOM     20  H   UNL A   1      31.590  23.565  26.932  1.00  0.00     0.164 HD
BRANCH  18  21
ATOM     21  C   UNL A   1      34.247  21.641  26.535  1.00  0.00     0.126 A 
ATOM     22  C   UNL A   1      37.268  21.588  24.504  1.00  0.00     0.069 C 
ATOM     23  C   UNL A   1      36.059  21.283  25.308  1.00  0.00     0.060 A 
ATOM     24  C   UNL A   1      35.603  21.927  26.479  1.00  0.00     0.059 A 
ATOM     25  N   UNL A   1      35.180  20.371  24.893  1.00  0.00    -0.178 NA
ATOM     26  N   UNL A   1      34.118  20.540  25.714  1.00  0.00    -0.263 N 
ATOM     27  C   UNL A   1      33.014  19.623  25.567  1.00  0.00     0.174 C 
ENDBRANCH  18  21
ENDBRANCH   9  17
BRANCH  16  28
ATOM     28  C   UNL A   1      30.062  28.339  23.335  1.00  0.00     0.111 C 
BRANCH  28  29
ATOM     29  S   UNL A   1      28.337  28.328  22.875  1.00  0.00    -0.089 SA
BRANCH  29  30
ATOM     30  C   UNL A   1      27.829  29.962  22.755  1.00  0.00     0.174 A 
ATOM     31  N   UNL A   1      27.030  30.557  23.609  1.00  0.00    -0.132 NA
ATOM     32  S   UNL A   1      28.727  31.026  21.758  1.00  0.00    -0.091 S 
ATOM     33  N   UNL A   1      27.359  31.900  23.723  1.00  0.00    -0.143 NA
ATOM     34  C   UNL A   1      28.374  32.213  22.941  1.00  0.00     0.115 A 
ATOM     35  C   UNL A   1      29.273  33.378  23.097  1.00  0.00     0.081 C 
ENDBRANCH  29  30
ENDBRANCH  28  29
ENDBRANCH  16  28
ENDBRANCH   5   8
ENDBRANCH   3   4
ENDBRANCH   2   3
ENDBRANCH   1   2
BRANCH   1  36
ATOM     36  C   UNL A   1      31.713  30.323  25.742  1.00  0.00     0.002 C 
BRANCH  36  37
ATOM     37  C   UNL A   1      31.511  31.666  26.451  1.00  0.00     0.021 C 
BRANCH  37  38
ATOM     38  C   UNL A   1      32.770  32.249  27.088  1.00  0.00     0.116 C 
BRANCH  38  39
ATOM     39  N   UNL A   1      32.600  33.654  27.422  1.00  0.00    -0.352 N 
ATOM     40  C   UNL A   1      33.160  34.374  28.447  1.00  0.00     0.251 C 
ATOM     41  H   UNL A   1      31.998  34.161  26.829  1.00  0.00     0.163 HD
ATOM     42  O   UNL A   1      32.686  35.457  28.771  1.00  0.00    -0.269 OA
BRANCH  40  43
ATOM     43  C   UNL A   1      34.335  33.823  29.152  1.00  0.00     0.039 A 
ATOM     44  C   UNL A   1      34.157  32.841  30.129  1.00  0.00     0.014 A 
ATOM     45  C   UNL A   1      35.615  34.287  28.838  1.00  0.00     0.014 A 
ATOM     46  C   UNL A   1      35.274  32.284  30.756  1.00  0.00     0.010 A 
ATOM     47  C   UNL A   1      36.727  33.676  29.403  1.00  0.00     0.010 A 
ATOM     48  C   UNL A   1      36.569  32.677  30.376  1.00  0.00    -0.014 A 
BRANCH  48  49
ATOM     49  C   UNL A   1      37.782  32.098  31.007  1.00  0.00     0.031 A 
ATOM     50  C   UNL A   1      38.566  31.049  30.267  1.00  0.00     0.074 A 
ATOM     51  C   UNL A   1      38.124  32.446  32.263  1.00  0.00     0.049 A 
ATOM     52  N   UNL A   1      39.553  30.300  30.686  1.00  0.00    -0.248 NA
ATOM     53  C   UNL A   1      38.155  30.781  28.880  1.00  0.00     0.031 C 
ATOM     54  C   UNL A   1      37.430  33.439  33.084  1.00  0.00     0.029 A 
ATOM     55  N   UNL A   1      39.132  31.991  33.075  1.00  0.00    -0.354 N 
ATOM     56  C   UNL A   1      39.866  29.460  29.622  1.00  0.00     0.074 A 
ATOM     57  C   UNL A   1      38.919  29.747  28.567  1.00  0.00     0.031 C 
ATOM     58  C   UNL A   1      38.043  33.530  34.276  1.00  0.00     0.029 A 
ATOM     59  C   UNL A   1      39.135  32.563  34.327  1.00  0.00     0.049 A 
ATOM     60  H   UNL A   1      39.793  31.319  32.789  1.00  0.00     0.167 HD
ATOM     61  C   UNL A   1      40.866  28.548  29.528  1.00  0.00     0.034 A 
ATOM     62  C   UNL A   1      39.914  32.316  35.400  1.00  0.00     0.034 A 
ATOM     63  C   UNL A   1      41.806  28.287  30.590  1.00  0.00     0.049 A 
ATOM     64  C   UNL A   1      40.992  31.266  35.289  1.00  0.00     0.074 A 
ATOM     65  C   UNL A   1      42.883  27.418  30.592  1.00  0.00     0.029 A 
ATOM     66  N   UNL A   1      41.779  28.888  31.842  1.00  0.00    -0.354 N 
ATOM     67  N   UNL A   1      41.296  30.496  34.268  1.00  0.00    -0.248 NA
ATOM     68  C   UNL A   1      41.838  31.056  36.471  1.00  0.00     0.031 C 
ATOM     69  C   UNL A   1      43.457  27.435  31.867  1.00  0.00     0.029 A 
ATOM     70  C   UNL A   1      42.801  28.386  32.633  1.00  0.00     0.049 A 
ATOM     71  H   UNL A   1      41.129  29.571  32.127  1.00  0.00     0.167 HD
ATOM     72  C   UNL A   1      42.397  29.744  34.672  1.00  0.00     0.074 A 
ATOM     73  C   UNL A   1      42.703  30.155  36.026  1.00  0.00     0.031 C 
ATOM     74  C   UNL A   1      43.098  28.809  33.982  1.00  0.00     0.034 A 
BRANCH  61  75
ATOM     75  C   UNL A   1      40.964  27.753  28.248  1.00  0.00     0.023 A 
ATOM     76  C   UNL A   1      40.562  26.406  28.179  1.00  0.00     0.031 A 
ATOM     77  C   UNL A   1      41.502  28.335  27.086  1.00  0.00     0.131 A 
ATOM     78  C   UNL A   1      40.783  25.667  27.008  1.00  0.00     0.055 A 
ATOM     79  C   UNL A   1      41.632  27.619  25.895  1.00  0.00     0.041 A 
ATOM     80  F   UNL A   1      41.927  29.609  27.093  1.00  0.00    -0.206 F 
ATOM     81  C   UNL A   1      41.288  26.271  25.856  1.00  0.00     0.022 A 
BRANCH  78  82
ATOM     82  S   UNL A   1      40.559  23.868  27.068  1.00  0.00     0.124 S 
ATOM     83  O   UNL A   1      39.115  23.745  26.879  1.00  0.00    -0.237 OA
ATOM     84  O   UNL A   1      41.390  23.409  25.962  1.00  0.00    -0.237 OA
ATOM     85  O   UNL A   1      41.037  23.508  28.402  1.00  0.00    -0.744 OA
ENDBRANCH  78  82
ENDBRANCH  61  75
BRANCH  62  86
ATOM     86  C   UNL A   1      39.703  33.060  36.676  1.00  0.00     0.023 A 
ATOM     87  C   UNL A   1      38.891  32.535  37.692  1.00  0.00     0.031 A 
ATOM     88  C   UNL A   1      40.275  34.330  36.880  1.00  0.00     0.131 A 
ATOM     89  C   UNL A   1      38.629  33.295  38.843  1.00  0.00     0.055 A 
ATOM     90  C   UNL A   1      40.060  35.055  38.053  1.00  0.00     0.041 A 
ATOM     91  F   UNL A   1      41.064  34.880  35.943  1.00  0.00    -0.206 F 
ATOM     92  C   UNL A   1      39.220  34.545  39.037  1.00  0.00     0.022 A 
BRANCH  89  93
ATOM     93  S   UNL A   1      37.421  32.666  40.041  1.00  0.00     0.124 S 
ATOM     94  O   UNL A   1      37.215  33.833  40.892  1.00  0.00    -0.237 OA
ATOM     95  O   UNL A   1      36.305  32.294  39.179  1.00  0.00    -0.237 OA
ATOM     96  O   UNL A   1      38.119  31.548  40.672  1.00  0.00    -0.744 OA
ENDBRANCH  89  93
ENDBRANCH  62  86
BRANCH  74  97
ATOM     97  C   UNL A   1      44.315  28.218  34.653  1.00  0.00     0.023 A 
ATOM     98  C   UNL A   1      44.256  27.034  35.406  1.00  0.00     0.031 A 
ATOM     99  C   UNL A   1      45.564  28.854  34.518  1.00  0.00     0.131 A 
ATOM    100  C   UNL A   1      45.413  26.548  36.035  1.00  0.00     0.055 A 
ATOM    101  C   UNL A   1      46.723  28.331  35.089  1.00  0.00     0.041 A 
ATOM    102  F   UNL A   1      45.678  29.991  33.812  1.00  0.00    -0.206 F 
ATOM    103  C   UNL A   1      46.649  27.177  35.863  1.00  0.00     0.022 A 
BRANCH 100 104
ATOM    104  S   UNL A   1      45.267  25.129  37.155  1.00  0.00     0.124 S 
ATOM    105  O   UNL A   1      46.657  24.900  37.536  1.00  0.00    -0.237 OA
ATOM    106  O   UNL A   1      44.397  25.647  38.204  1.00  0.00    -0.237 OA
ATOM    107  O   UNL A   1      44.675  24.089  36.316  1.00  0.00    -0.744 OA
ENDBRANCH 100 104
ENDBRANCH  74  97
ENDBRANCH  48  49
ENDBRANCH  40  43
ENDBRANCH  38  39
ENDBRANCH  37  38
ENDBRANCH  36  37
ENDBRANCH   1  36
TORSDOF 21
ENDMDL
MODEL 2
REMARK VINA RESULT:     -12.3      1.787      7.380
REMARK SMILES Cc1cc(C(=O)N[C@@H]2C(=O)N3C(C(=O)NCCCCCCNC(=O)c4ccc(-c5c6nc(c(-c7cc(S(=O)(=O)[O-])ccc7F)c7ccc([nH]7)c(-c7cc(S(=O)(=O)[O-])ccc7F)c7nc(c(-c8cc(S(=O)(=O)[O-])ccc8F)c8ccc5[nH]8)C=C7)C=C6)cc4)=C(CSc4nnc(C)s4)CS[C@H]23)n(C)n1
REMARK SMILES IDX 18 1 17 2 16 3 15 4 13 5 14 6 12 8 8 9 9 10 99 11 10 12
REMARK SMILES IDX 11 13 98 14 97 15 88 16 7 17 5 18 6 19 4 21 1 22 2 23 3 24
REMARK SMILES IDX 102 25 100 26 101 27 89 28 90 29 91 30 92 31 96 32 93 33
REMARK SMILES IDX 94 34 95 35 19 36 20 37 21 38 22 39 23 40 24 42 25 43 26 44
REMARK SMILES IDX 87 45 27 46 86 47 28 48 29 49 30 50 80 51 31 52 85 53 79 54
REMARK SMILES IDX 81 55 32 56 84 57 78 58 77 59 33 61 65 62 45 63 64 64 46 65
REMARK SMILES IDX 49 66 63 67 82 68 47 69 48 70 62 72 83 73 50 74 34 75 35 76
REMARK SMILES IDX 43 77 36 78 42 79 44 80 41 81 37 82 38 83 39 84 40 85 66 86
REMARK SMILES IDX 67 87 75 88 68 89 74 90 76 91 73 92 69 93 70 94 71 95 72 96
REMARK SMILES IDX 51 97 52 98 60 99 53 100 59 101 61 102 58 103 54 104 55 105
REMARK SMILES IDX 56 106 57 107
REMARK H PARENT 15 7 7 20 22 41 81 60 49 71
REMARK Flexibility Score: inf
ROOT
ATOM      1  C   UNL A   1      33.702  28.462  24.843  1.00  0.00     0.002 C 
ENDROOT
BRANCH   1   2
ATOM      2  C   UNL A   1      34.430  28.790  23.548  1.00  0.00     0.021 C 
BRANCH   2   3
ATOM      3  C   UNL A   1      33.562  28.917  22.289  1.00  0.00     0.116 C 
BRANCH   3   4
ATOM      4  N   UNL A   1      33.545  27.669  21.551  1.00  0.00    -0.351 N 
ATOM      5  C   UNL A   1      32.923  26.471  21.587  1.00  0.00     0.268 C 
ATOM      6  O   UNL A   1      33.132  25.821  20.551  1.00  0.00    -0.268 OA
ATOM      7  H   UNL A   1      34.179  27.706  20.798  1.00  0.00     0.163 HD
BRANCH   5   8
ATOM      8  C   UNL A   1      31.889  25.944  22.603  1.00  0.00     0.111 C 
ATOM      9  C   UNL A   1      32.900  23.293  24.572  1.00  0.00     0.206 C 
ATOM     10  C   UNL A   1      33.520  24.571  23.944  1.00  0.00     0.253 C 
ATOM     11  C   UNL A   1      31.570  23.917  24.069  1.00  0.00     0.181 C 
ATOM     12  O   UNL A   1      34.570  25.173  24.111  1.00  0.00    -0.272 OA
ATOM     13  N   UNL A   1      32.365  24.808  23.253  1.00  0.00    -0.290 N 
ATOM     14  S   UNL A   1      30.627  24.914  25.258  1.00  0.00    -0.129 SA
ATOM     15  C   UNL A   1      29.724  25.657  23.901  1.00  0.00     0.106 C 
ATOM     16  C   UNL A   1      30.682  26.448  23.015  1.00  0.00    -0.020 C 
BRANCH   9  17
ATOM     17  N   UNL A   1      33.101  23.047  26.028  1.00  0.00    -0.336 N 
ATOM     18  C   UNL A   1      34.180  22.482  26.684  1.00  0.00     0.270 C 
ATOM     19  O   UNL A   1      34.122  22.404  27.910  1.00  0.00    -0.268 OA
ATOM     20  H   UNL A   1      32.356  23.327  26.607  1.00  0.00     0.164 HD
BRANCH  18  21
ATOM     21  C   UNL A   1      35.277  21.951  25.904  1.00  0.00     0.126 A 
ATOM     22  C   UNL A   1      37.500  19.257  24.877  1.00  0.00     0.069 C 
ATOM     23  C   UNL A   1      36.794  20.540  25.112  1.00  0.00     0.060 A 
ATOM     24  C   UNL A   1      35.403  20.771  25.186  1.00  0.00     0.059 A 
ATOM     25  N   UNL A   1      37.476  21.648  25.402  1.00  0.00    -0.178 NA
ATOM     26  N   UNL A   1      36.526  22.527  25.793  1.00  0.00    -0.263 N 
ATOM     27  C   UNL A   1      36.951  23.873  26.096  1.00  0.00     0.174 C 
ENDBRANCH  18  21
ENDBRANCH   9  17
BRANCH  16  28
ATOM     28  C   UNL A   1      30.180  27.869  22.903  1.00  0.00     0.111 C 
BRANCH  28  29
ATOM     29  S   UNL A   1      28.432  27.913  23.263  1.00  0.00    -0.089 SA
BRANCH  29  30
ATOM     30  C   UNL A   1      27.867  29.485  22.870  1.00  0.00     0.174 A 
ATOM     31  N   UNL A   1      26.959  30.141  23.554  1.00  0.00    -0.132 NA
ATOM     32  S   UNL A   1      28.816  30.458  21.829  1.00  0.00    -0.091 S 
ATOM     33  N   UNL A   1      27.215  31.504  23.514  1.00  0.00    -0.143 NA
ATOM     34  C   UNL A   1      28.291  31.769  22.798  1.00  0.00     0.115 A 
ATOM     35  C   UNL A   1      29.117  32.994  22.880  1.00  0.00     0.081 C 
ENDBRANCH  29  30
ENDBRANCH  28  29
ENDBRANCH  16  28
ENDBRANCH   5   8
ENDBRANCH   3   4
ENDBRANCH   2   3
ENDBRANCH   1   2
BRANCH   1  36
ATOM     36  C   UNL A   1      32.389  29.212  25.032  1.00  0.00     0.002 C 
BRANCH  36  37
ATOM     37  C   UNL A   1      31.930  29.363  26.486  1.00  0.00     0.021 C 
BRANCH  37  38
ATOM     38  C   UNL A   1      32.985  29.926  27.435  1.00  0.00     0.116 C 
BRANCH  38  39
ATOM     39  N   UNL A   1      33.218  31.342  27.198  1.00  0.00    -0.352 N 
ATOM     40  C   UNL A   1      34.232  32.141  27.664  1.00  0.00     0.251 C 
ATOM     41  H   UNL A   1      32.555  31.790  26.624  1.00  0.00     0.163 HD
ATOM     42  O   UNL A   1      34.120  33.362  27.627  1.00  0.00    -0.269 OA
BRANCH  40  43
ATOM     43  C   UNL A   1      35.450  31.511  28.209  1.00  0.00     0.039 A 
ATOM     44  C   UNL A   1      36.630  32.252  28.303  1.00  0.00     0.014 A 
ATOM     45  C   UNL A   1      35.415  30.178  28.628  1.00  0.00     0.014 A 
ATOM     46  C   UNL A   1      37.765  31.669  28.870  1.00  0.00     0.010 A 
ATOM     47  C   UNL A   1      36.520  29.627  29.264  1.00  0.00     0.010 A 
ATOM     48  C   UNL A   1      37.710  30.362  29.381  1.00  0.00    -0.014 A 
BRANCH  48  49
ATOM     49  C   UNL A   1      38.891  29.711  30.004  1.00  0.00     0.031 A 
ATOM     50  C   UNL A   1      39.366  30.186  31.351  1.00  0.00     0.074 A 
ATOM     51  C   UNL A   1      39.578  28.768  29.332  1.00  0.00     0.049 A 
ATOM     52  N   UNL A   1      40.456  29.877  32.003  1.00  0.00    -0.248 NA
ATOM     53  C   UNL A   1      38.515  31.173  32.035  1.00  0.00     0.031 C 
ATOM     54  C   UNL A   1      39.223  28.241  28.014  1.00  0.00     0.029 A 
ATOM     55  N   UNL A   1      40.731  28.098  29.657  1.00  0.00    -0.354 N 
ATOM     56  C   UNL A   1      40.433  30.645  33.163  1.00  0.00     0.074 A 
ATOM     57  C   UNL A   1      39.255  31.482  33.088  1.00  0.00     0.031 C 
ATOM     58  C   UNL A   1      40.128  27.317  27.651  1.00  0.00     0.029 A 
ATOM     59  C   UNL A   1      41.159  27.228  28.681  1.00  0.00     0.049 A 
ATOM     60  H   UNL A   1      41.206  28.226  30.510  1.00  0.00     0.167 HD
ATOM     61  C   UNL A   1      41.303  30.637  34.203  1.00  0.00     0.034 A 
ATOM     62  C   UNL A   1      42.270  26.466  28.613  1.00  0.00     0.034 A 
ATOM     63  C   UNL A   1      42.464  29.784  34.261  1.00  0.00     0.049 A 
ATOM     64  C   UNL A   1      43.248  26.504  29.761  1.00  0.00     0.074 A 
ATOM     65  C   UNL A   1      43.391  29.660  35.281  1.00  0.00     0.029 A 
ATOM     66  N   UNL A   1      42.864  28.914  33.254  1.00  0.00    -0.354 N 
ATOM     67  N   UNL A   1      43.201  27.216  30.865  1.00  0.00    -0.248 NA
ATOM     68  C   UNL A   1      44.425  25.632  29.661  1.00  0.00     0.031 C 
ATOM     69  C   UNL A   1      44.390  28.777  34.860  1.00  0.00     0.029 A 
ATOM     70  C   UNL A   1      44.038  28.274  33.617  1.00  0.00     0.049 A 
ATOM     71  H   UNL A   1      42.383  28.773  32.407  1.00  0.00     0.167 HD
ATOM     72  C   UNL A   1      44.318  26.840  31.608  1.00  0.00     0.074 A 
ATOM     73  C   UNL A   1      45.016  25.840  30.828  1.00  0.00     0.031 C 
ATOM     74  C   UNL A   1      44.722  27.274  32.830  1.00  0.00     0.034 A 
BRANCH  61  75
ATOM     75  C   UNL A   1      41.040  31.599  35.338  1.00  0.00     0.023 A 
ATOM     76  C   UNL A   1      39.971  31.414  36.233  1.00  0.00     0.031 A 
ATOM     77  C   UNL A   1      41.847  32.738  35.508  1.00  0.00     0.131 A 
ATOM     78  C   UNL A   1      39.685  32.393  37.196  1.00  0.00     0.055 A 
ATOM     79  C   UNL A   1      41.614  33.660  36.529  1.00  0.00     0.041 A 
ATOM     80  F   UNL A   1      42.869  32.984  34.672  1.00  0.00    -0.206 F 
ATOM     81  C   UNL A   1      40.517  33.501  37.370  1.00  0.00     0.022 A 
BRANCH  78  82
ATOM     82  S   UNL A   1      38.118  32.281  38.102  1.00  0.00     0.124 S 
ATOM     83  O   UNL A   1      37.426  33.484  37.643  1.00  0.00    -0.237 OA
ATOM     84  O   UNL A   1      37.573  31.012  37.633  1.00  0.00    -0.237 OA
ATOM     85  O   UNL A   1      38.530  32.305  39.504  1.00  0.00    -0.744 OA
ENDBRANCH  78  82
ENDBRANCH  61  75
BRANCH  62  86
ATOM     86  C   UNL A   1      42.530  25.611  27.418  1.00  0.00     0.023 A 
ATOM     87  C   UNL A   1      42.103  24.275  27.379  1.00  0.00     0.031 A 
ATOM     88  C   UNL A   1      43.250  26.104  26.314  1.00  0.00     0.131 A 
ATOM     89  C   UNL A   1      42.443  23.463  26.287  1.00  0.00     0.055 A 
ATOM     90  C   UNL A   1      43.534  25.308  25.203  1.00  0.00     0.041 A 
ATOM     91  F   UNL A   1      43.681  27.376  26.295  1.00  0.00    -0.206 F 
ATOM     92  C   UNL A   1      43.142  23.974  25.191  1.00  0.00     0.022 A 
BRANCH  89  93
ATOM     93  S   UNL A   1      42.042  21.695  26.362  1.00  0.00     0.124 S 
ATOM     94  O   UNL A   1      42.969  21.140  25.383  1.00  0.00    -0.237 OA
ATOM     95  O   UNL A   1      42.319  21.382  27.760  1.00  0.00    -0.237 OA
ATOM     96  O   UNL A   1      40.632  21.650  25.983  1.00  0.00    -0.744 OA
ENDBRANCH  89  93
ENDBRANCH  62  86
BRANCH  74  97
ATOM     97  C   UNL A   1      45.938  26.614  33.433  1.00  0.00     0.023 A 
ATOM     98  C   UNL A   1      45.856  25.421  34.172  1.00  0.00     0.031 A 
ATOM     99  C   UNL A   1      47.209  27.190  33.248  1.00  0.00     0.131 A 
ATOM    100  C   UNL A   1      47.016  24.870  34.739  1.00  0.00     0.055 A 
ATOM    101  C   UNL A   1      48.367  26.602  33.756  1.00  0.00     0.041 A 
ATOM    102  F   UNL A   1      47.346  28.331  32.554  1.00  0.00    -0.206 F 
ATOM    103  C   UNL A   1      48.273  25.441  34.517  1.00  0.00     0.022 A 
BRANCH 100 104
ATOM    104  S   UNL A   1      46.853  23.442  35.844  1.00  0.00     0.124 S 
ATOM    105  O   UNL A   1      47.356  22.354  35.011  1.00  0.00    -0.237 OA
ATOM    106  O   UNL A   1      47.697  23.822  36.972  1.00  0.00    -0.237 OA
ATOM    107  O   UNL A   1      45.421  23.392  36.132  1.00  0.00    -0.744 OA
ENDBRANCH 100 104
ENDBRANCH  74  97
ENDBRANCH  48  49
ENDBRANCH  40  43
ENDBRANCH  38  39
ENDBRANCH  37  38
ENDBRANCH  36  37
ENDBRANCH   1  36
TORSDOF 21
ENDMDL
MODEL 3
REMARK VINA RESULT:     -12.1      2.875      7.781
REMARK SMILES Cc1cc(C(=O)N[C@@H]2C(=O)N3C(C(=O)NCCCCCCNC(=O)c4ccc(-c5c6nc(c(-c7cc(S(=O)(=O)[O-])ccc7F)c7ccc([nH]7)c(-c7cc(S(=O)(=O)[O-])ccc7F)c7nc(c(-c8cc(S(=O)(=O)[O-])ccc8F)c8ccc5[nH]8)C=C7)C=C6)cc4)=C(CSc4nnc(C)s4)CS[C@H]23)n(C)n1
REMARK SMILES IDX 18 1 17 2 16 3 15 4 13 5 14 6 12 8 8 9 9 10 99 11 10 12
REMARK SMILES IDX 11 13 98 14 97 15 88 16 7 17 5 18 6 19 4 21 1 22 2 23 3 24
REMARK SMILES IDX 102 25 100 26 101 27 89 28 90 29 91 30 92 31 96 32 93 33
REMARK SMILES IDX 94 34 95 35 19 36 20 37 21 38 22 39 23 40 24 42 25 43 26 44
REMARK SMILES IDX 87 45 27 46 86 47 28 48 29 49 30 50 80 51 31 52 85 53 79 54
REMARK SMILES IDX 81 55 32 56 84 57 78 58 77 59 33 61 65 62 45 63 64 64 46 65
REMARK SMILES IDX 49 66 63 67 82 68 47 69 48 70 62 72 83 73 50 74 34 75 35 76
REMARK SMILES IDX 43 77 36 78 42 79 44 80 41 81 37 82 38 83 39 84 40 85 66 86
REMARK SMILES IDX 67 87 75 88 68 89 74 90 76 91 73 92 69 93 70 94 71 95 72 96
REMARK SMILES IDX 51 97 52 98 60 99 53 100 59 101 61 102 58 103 54 104 55 105
REMARK SMILES IDX 56 106 57 107
REMARK H PARENT 15 7 7 20 22 41 81 60 49 71
REMARK Flexibility Score: inf
ROOT
ATOM      1  C   UNL A   1      32.962  28.960  24.549  1.00  0.00     0.002 C 
ENDROOT
BRANCH   1   2
ATOM      2  C   UNL A   1      33.883  28.144  23.653  1.00  0.00     0.021 C 
BRANCH   2   3
ATOM      3  C   UNL A   1      33.901  28.521  22.166  1.00  0.00     0.116 C 
BRANCH   3   4
ATOM      4  N   UNL A   1      33.705  27.347  21.338  1.00  0.00    -0.351 N 
ATOM      5  C   UNL A   1      32.934  26.238  21.306  1.00  0.00     0.268 C 
ATOM      6  O   UNL A   1      33.032  25.651  20.218  1.00  0.00    -0.268 OA
ATOM      7  H   UNL A   1      34.319  27.363  20.568  1.00  0.00     0.163 HD
BRANCH   5   8
ATOM      8  C   UNL A   1      31.867  25.768  22.316  1.00  0.00     0.111 C 
ATOM      9  C   UNL A   1      32.661  22.975  24.185  1.00  0.00     0.206 C 
ATOM     10  C   UNL A   1      33.384  24.215  23.592  1.00  0.00     0.253 C 
ATOM     11  C   UNL A   1      31.386  23.728  23.717  1.00  0.00     0.181 C 
ATOM     12  O   UNL A   1      34.484  24.718  23.767  1.00  0.00    -0.272 OA
ATOM     13  N   UNL A   1      32.248  24.574  22.922  1.00  0.00    -0.290 N 
ATOM     14  S   UNL A   1      30.542  24.761  24.949  1.00  0.00    -0.129 SA
ATOM     15  C   UNL A   1      29.696  25.625  23.627  1.00  0.00     0.106 C 
ATOM     16  C   UNL A   1      30.711  26.360  22.758  1.00  0.00    -0.020 C 
BRANCH   9  17
ATOM     17  N   UNL A   1      32.852  22.663  25.629  1.00  0.00    -0.336 N 
ATOM     18  C   UNL A   1      33.399  21.539  26.222  1.00  0.00     0.270 C 
ATOM     19  O   UNL A   1      33.470  21.521  27.449  1.00  0.00    -0.268 OA
ATOM     20  H   UNL A   1      32.541  23.358  26.252  1.00  0.00     0.164 HD
BRANCH  18  21
ATOM     21  C   UNL A   1      33.792  20.424  25.386  1.00  0.00     0.126 A 
ATOM     22  C   UNL A   1      33.748  16.899  24.479  1.00  0.00     0.069 C 
ATOM     23  C   UNL A   1      33.994  18.356  24.613  1.00  0.00     0.060 A 
ATOM     24  C   UNL A   1      33.053  19.383  24.844  1.00  0.00     0.059 A 
ATOM     25  N   UNL A   1      35.237  18.835  24.635  1.00  0.00    -0.178 NA
ATOM     26  N   UNL A   1      35.087  20.124  25.017  1.00  0.00    -0.263 N 
ATOM     27  C   UNL A   1      36.270  20.948  25.051  1.00  0.00     0.174 C 
ENDBRANCH  18  21
ENDBRANCH   9  17
BRANCH  16  28
ATOM     28  C   UNL A   1      30.333  27.822  22.698  1.00  0.00     0.111 C 
BRANCH  28  29
ATOM     29  S   UNL A   1      28.739  28.056  23.466  1.00  0.00    -0.089 SA
BRANCH  29  30
ATOM     30  C   UNL A   1      28.128  29.567  22.931  1.00  0.00     0.174 A 
ATOM     31  N   UNL A   1      27.054  30.147  23.411  1.00  0.00    -0.132 NA
ATOM     32  S   UNL A   1      29.174  30.609  22.062  1.00  0.00    -0.091 S 
ATOM     33  N   UNL A   1      27.196  31.527  23.383  1.00  0.00    -0.143 NA
ATOM     34  C   UNL A   1      28.363  31.879  22.877  1.00  0.00     0.115 A 
ATOM     35  C   UNL A   1      29.051  33.173  23.080  1.00  0.00     0.081 C 
ENDBRANCH  29  30
ENDBRANCH  28  29
ENDBRANCH  16  28
ENDBRANCH   5   8
ENDBRANCH   3   4
ENDBRANCH   2   3
ENDBRANCH   1   2
BRANCH   1  36
ATOM     36  C   UNL A   1      32.438  28.203  25.764  1.00  0.00     0.002 C 
BRANCH  36  37
ATOM     37  C   UNL A   1      32.850  28.785  27.119  1.00  0.00     0.021 C 
BRANCH  37  38
ATOM     38  C   UNL A   1      34.198  29.501  27.125  1.00  0.00     0.116 C 
BRANCH  38  39
ATOM     39  N   UNL A   1      34.077  30.868  27.606  1.00  0.00    -0.352 N 
ATOM     40  C   UNL A   1      34.768  31.495  28.613  1.00  0.00     0.251 C 
ATOM     41  H   UNL A   1      33.406  31.421  27.145  1.00  0.00     0.163 HD
ATOM     42  O   UNL A   1      34.342  32.540  29.094  1.00  0.00    -0.269 OA
BRANCH  40  43
ATOM     43  C   UNL A   1      36.021  30.893  29.107  1.00  0.00     0.039 A 
ATOM     44  C   UNL A   1      35.969  29.818  29.996  1.00  0.00     0.014 A 
ATOM     45  C   UNL A   1      37.252  31.402  28.682  1.00  0.00     0.014 A 
ATOM     46  C   UNL A   1      37.155  29.216  30.420  1.00  0.00     0.010 A 
ATOM     47  C   UNL A   1      38.426  30.751  29.040  1.00  0.00     0.010 A 
ATOM     48  C   UNL A   1      38.392  29.660  29.921  1.00  0.00    -0.014 A 
BRANCH  48  49
ATOM     49  C   UNL A   1      39.675  29.037  30.335  1.00  0.00     0.031 A 
ATOM     50  C   UNL A   1      40.397  29.574  31.541  1.00  0.00     0.074 A 
ATOM     51  C   UNL A   1      40.227  28.062  29.587  1.00  0.00     0.049 A 
ATOM     52  N   UNL A   1      41.595  29.293  31.985  1.00  0.00    -0.248 NA
ATOM     53  C   UNL A   1      39.687  30.593  32.330  1.00  0.00     0.031 C 
ATOM     54  C   UNL A   1      39.628  27.474  28.388  1.00  0.00     0.029 A 
ATOM     55  N   UNL A   1      41.425  27.406  29.715  1.00  0.00    -0.354 N 
ATOM     56  C   UNL A   1      41.789  30.115  33.090  1.00  0.00     0.074 A 
ATOM     57  C   UNL A   1      40.613  30.950  33.204  1.00  0.00     0.031 C 
ATOM     58  C   UNL A   1      40.453  26.533  27.901  1.00  0.00     0.029 A 
ATOM     59  C   UNL A   1      41.664  26.490  28.715  1.00  0.00     0.049 A 
ATOM     60  H   UNL A   1      42.055  27.573  30.453  1.00  0.00     0.167 HD
ATOM     61  C   UNL A   1      42.843  30.154  33.943  1.00  0.00     0.034 A 
ATOM     62  C   UNL A   1      42.746  25.724  28.471  1.00  0.00     0.034 A 
ATOM     63  C   UNL A   1      44.001  29.303  33.815  1.00  0.00     0.049 A 
ATOM     64  C   UNL A   1      43.927  25.814  29.406  1.00  0.00     0.074 A 
ATOM     65  C   UNL A   1      45.107  29.225  34.642  1.00  0.00     0.029 A 
ATOM     66  N   UNL A   1      44.205  28.386  32.792  1.00  0.00    -0.354 N 
ATOM     67  N   UNL A   1      44.088  26.577  30.464  1.00  0.00    -0.248 NA
ATOM     68  C   UNL A   1      45.069  24.935  29.121  1.00  0.00     0.031 C 
ATOM     69  C   UNL A   1      46.013  28.322  34.078  1.00  0.00     0.029 A 
ATOM     70  C   UNL A   1      45.432  27.761  32.950  1.00  0.00     0.049 A 
ATOM     71  H   UNL A   1      43.571  28.206  32.060  1.00  0.00     0.167 HD
ATOM     72  C   UNL A   1      45.330  26.234  30.995  1.00  0.00     0.074 A 
ATOM     73  C   UNL A   1      45.872  25.197  30.142  1.00  0.00     0.031 C 
ATOM     74  C   UNL A   1      45.959  26.724  32.094  1.00  0.00     0.034 A 
BRANCH  61  75
ATOM     75  C   UNL A   1      42.798  31.169  35.061  1.00  0.00     0.023 A 
ATOM     76  C   UNL A   1      43.304  32.472  34.899  1.00  0.00     0.031 A 
ATOM     77  C   UNL A   1      42.274  30.821  36.318  1.00  0.00     0.131 A 
ATOM     78  C   UNL A   1      43.356  33.345  35.996  1.00  0.00     0.055 A 
ATOM     79  C   UNL A   1      42.242  31.728  37.380  1.00  0.00     0.041 A 
ATOM     80  F   UNL A   1      41.797  29.586  36.544  1.00  0.00    -0.206 F 
ATOM     81  C   UNL A   1      42.802  32.993  37.228  1.00  0.00     0.022 A 
BRANCH  78  82
ATOM     82  S   UNL A   1      44.309  34.879  35.832  1.00  0.00     0.124 S 
ATOM     83  O   UNL A   1      45.284  34.512  34.808  1.00  0.00    -0.237 OA
ATOM     84  O   UNL A   1      43.290  35.841  35.428  1.00  0.00    -0.237 OA
ATOM     85  O   UNL A   1      44.865  35.081  37.168  1.00  0.00    -0.744 OA
ENDBRANCH  78  82
ENDBRANCH  61  75
BRANCH  62  86
ATOM     86  C   UNL A   1      42.778  24.813  27.289  1.00  0.00     0.023 A 
ATOM     87  C   UNL A   1      42.203  23.534  27.347  1.00  0.00     0.031 A 
ATOM     88  C   UNL A   1      43.423  25.191  26.097  1.00  0.00     0.131 A 
ATOM     89  C   UNL A   1      42.329  22.659  26.257  1.00  0.00     0.055 A 
ATOM     90  C   UNL A   1      43.493  24.339  24.994  1.00  0.00     0.041 A 
ATOM     91  F   UNL A   1      43.987  26.404  25.983  1.00  0.00    -0.206 F 
ATOM     92  C   UNL A   1      42.956  23.058  25.075  1.00  0.00     0.022 A 
BRANCH  89  93
ATOM     93  S   UNL A   1      41.745  20.952  26.443  1.00  0.00     0.124 S 
ATOM     94  O   UNL A   1      42.120  20.661  27.822  1.00  0.00    -0.237 OA
ATOM     95  O   UNL A   1      40.317  21.091  26.182  1.00  0.00    -0.237 OA
ATOM     96  O   UNL A   1      42.496  20.223  25.424  1.00  0.00    -0.744 OA
ENDBRANCH  89  93
ENDBRANCH  62  86
BRANCH  74  97
ATOM     97  C   UNL A   1      47.273  26.091  32.482  1.00  0.00     0.023 A 
ATOM     98  C   UNL A   1      47.357  25.058  33.430  1.00  0.00     0.031 A 
ATOM     99  C   UNL A   1      48.465  26.527  31.872  1.00  0.00     0.131 A 
ATOM    100  C   UNL A   1      48.611  24.529  33.777  1.00  0.00     0.055 A 
ATOM    101  C   UNL A   1      49.699  25.952  32.171  1.00  0.00     0.041 A 
ATOM    102  F   UNL A   1      48.444  27.514  30.962  1.00  0.00    -0.206 F 
ATOM    103  C   UNL A   1      49.778  24.954  33.137  1.00  0.00     0.022 A 
BRANCH 100 104
ATOM    104  S   UNL A   1      48.708  23.335  35.139  1.00  0.00     0.124 S 
ATOM    105  O   UNL A   1      48.604  22.061  34.434  1.00  0.00    -0.237 OA
ATOM    106  O   UNL A   1      50.010  23.634  35.724  1.00  0.00    -0.237 OA
ATOM    107  O   UNL A   1      47.559  23.675  35.976  1.00  0.00    -0.744 OA
ENDBRANCH 100 104
ENDBRANCH  74  97
ENDBRANCH  48  49
ENDBRANCH  40  43
ENDBRANCH  38  39
ENDBRANCH  37  38
ENDBRANCH  36  37
ENDBRANCH   1  36
TORSDOF 21
ENDMDL
