MODEL 1
REMARK VINA RESULT:      -9.7      0.000      0.000
REMARK SMILES O=C(NCCCCCCNC(=O)c1ccccc1NC(=O)c1ccc(N2C(=O)[C@H]3CC=CC[C@H]3C2=O)cc1)c1ccc(-c2c3nc(c(-c4cc(S(=O)(=O)[O-])ccc4F)c4ccc([nH]4)c(-c4cc(S(=O)(=O)[O-])ccc4F)c4nc(c(-c5cc(S(=O)(=O)[O-])ccc5F)c5ccc2[nH]5)C=C4)C=C3)cc1
REMARK SMILES IDX 6 1 5 2 4 3 3 4 1 5 2 6 39 8 40 9 101 10 41 11 100 12 42 13
REMARK SMILES IDX 43 14 44 15 94 16 45 17 99 18 93 19 95 20 46 21 98 22 92 23
REMARK SMILES IDX 91 24 47 26 79 27 59 28 78 29 60 30 63 31 77 32 96 33 61 34
REMARK SMILES IDX 62 35 76 37 97 38 64 39 48 40 49 41 57 42 50 43 56 44 58 45
REMARK SMILES IDX 55 46 51 47 52 48 53 49 54 50 80 51 81 52 89 53 82 54 88 55
REMARK SMILES IDX 90 56 87 57 83 58 84 59 85 60 86 61 65 62 66 63 74 64 67 65
REMARK SMILES IDX 73 66 75 67 72 68 68 69 69 70 70 71 71 72 7 73 8 74 9 75
REMARK SMILES IDX 10 76 11 77 12 79 13 80 14 81 18 82 15 83 17 84 16 85 19 86
REMARK SMILES IDX 20 87 21 89 22 90 23 91 38 92 24 93 37 94 25 95 26 96 27 97
REMARK SMILES IDX 35 98 28 99 29 100 34 101 36 102 30 103 33 104 31 105 32 106
REMARK H PARENT 3 7 95 25 63 36 10 78 19 88
REMARK Flexibility Score: inf
ROOT
ATOM      1  C   UNL A   1      36.109  34.903  33.070  1.00  0.00     0.002 C 
ENDROOT
BRANCH   1   2
ATOM      2  C   UNL A   1      36.372  33.663  33.925  1.00  0.00     0.021 C 
BRANCH   2   3
ATOM      3  C   UNL A   1      37.615  33.743  34.802  1.00  0.00     0.116 C 
BRANCH   3   4
ATOM      4  N   UNL A   1      37.555  32.827  35.929  1.00  0.00    -0.352 N 
ATOM      5  O   UNL A   1      37.882  30.888  37.031  1.00  0.00    -0.269 OA
ATOM      6  C   UNL A   1      38.185  31.618  36.093  1.00  0.00     0.251 C 
ATOM      7  H   UNL A   1      36.985  33.113  36.678  1.00  0.00     0.163 HD
BRANCH   6   8
ATOM      8  C   UNL A   1      39.220  31.198  35.125  1.00  0.00     0.039 A 
ATOM      9  C   UNL A   1      40.552  31.590  35.291  1.00  0.00     0.014 A 
ATOM     10  C   UNL A   1      38.852  30.391  34.047  1.00  0.00     0.014 A 
ATOM     11  C   UNL A   1      41.495  31.268  34.320  1.00  0.00     0.010 A 
ATOM     12  C   UNL A   1      39.817  30.003  33.115  1.00  0.00     0.010 A 
ATOM     13  C   UNL A   1      41.143  30.453  33.234  1.00  0.00    -0.014 A 
BRANCH  13  14
ATOM     14  C   UNL A   1      42.175  30.021  32.259  1.00  0.00     0.031 A 
ATOM     15  C   UNL A   1      42.890  28.712  32.428  1.00  0.00     0.074 A 
ATOM     16  C   UNL A   1      42.493  30.841  31.239  1.00  0.00     0.049 A 
ATOM     17  N   UNL A   1      43.891  28.223  31.743  1.00  0.00    -0.248 NA
ATOM     18  C   UNL A   1      42.427  27.848  33.522  1.00  0.00     0.031 C 
ATOM     19  C   UNL A   1      41.861  32.136  30.978  1.00  0.00     0.029 A 
ATOM     20  N   UNL A   1      43.431  30.723  30.247  1.00  0.00    -0.354 N 
ATOM     21  C   UNL A   1      44.195  27.001  32.334  1.00  0.00     0.074 A 
ATOM     22  C   UNL A   1      43.291  26.848  33.457  1.00  0.00     0.031 C 
ATOM     23  C   UNL A   1      42.426  32.690  29.897  1.00  0.00     0.029 A 
ATOM     24  C   UNL A   1      43.511  31.830  29.436  1.00  0.00     0.049 A 
ATOM     25  H   UNL A   1      43.993  29.923  30.127  1.00  0.00     0.167 HD
ATOM     26  C   UNL A   1      45.139  26.097  31.967  1.00  0.00     0.034 A 
ATOM     27  C   UNL A   1      44.389  32.150  28.467  1.00  0.00     0.034 A 
ATOM     28  C   UNL A   1      46.037  26.287  30.851  1.00  0.00     0.049 A 
ATOM     29  C   UNL A   1      45.477  31.170  28.119  1.00  0.00     0.074 A 
ATOM     30  C   UNL A   1      47.001  25.423  30.362  1.00  0.00     0.029 A 
ATOM     31  N   UNL A   1      46.102  27.433  30.065  1.00  0.00    -0.354 N 
ATOM     32  N   UNL A   1      45.739  30.006  28.666  1.00  0.00    -0.248 NA
ATOM     33  C   UNL A   1      46.383  31.541  27.027  1.00  0.00     0.031 C 
ATOM     34  C   UNL A   1      47.707  26.078  29.348  1.00  0.00     0.029 A 
ATOM     35  C   UNL A   1      47.119  27.314  29.128  1.00  0.00     0.049 A 
ATOM     36  H   UNL A   1      45.512  28.215  30.159  1.00  0.00     0.167 HD
ATOM     37  C   UNL A   1      46.824  29.490  27.964  1.00  0.00     0.074 A 
ATOM     38  C   UNL A   1      47.166  30.473  26.954  1.00  0.00     0.031 C 
ATOM     39  C   UNL A   1      47.463  28.304  28.131  1.00  0.00     0.034 A 
BRANCH  26  40
ATOM     40  C   UNL A   1      45.286  24.859  32.824  1.00  0.00     0.023 A 
ATOM     41  C   UNL A   1      46.220  24.787  33.873  1.00  0.00     0.031 A 
ATOM     42  C   UNL A   1      44.520  23.711  32.554  1.00  0.00     0.131 A 
ATOM     43  C   UNL A   1      46.438  23.570  34.538  1.00  0.00     0.055 A 
ATOM     44  C   UNL A   1      44.671  22.531  33.287  1.00  0.00     0.041 A 
ATOM     45  F   UNL A   1      43.623  23.706  31.556  1.00  0.00    -0.206 F 
ATOM     46  C   UNL A   1      45.652  22.448  34.270  1.00  0.00     0.022 A 
BRANCH  43  47
ATOM     47  S   UNL A   1      47.893  23.423  35.613  1.00  0.00     0.124 S 
ATOM     48  O   UNL A   1      47.751  22.058  36.116  1.00  0.00    -0.237 OA
ATOM     49  O   UNL A   1      48.994  23.649  34.684  1.00  0.00    -0.237 OA
ATOM     50  O   UNL A   1      47.689  24.470  36.610  1.00  0.00    -0.744 OA
ENDBRANCH  43  47
ENDBRANCH  26  40
BRANCH  27  51
ATOM     51  C   UNL A   1      44.298  33.482  27.808  1.00  0.00     0.023 A 
ATOM     52  C   UNL A   1      44.642  34.659  28.486  1.00  0.00     0.031 A 
ATOM     53  C   UNL A   1      43.889  33.586  26.464  1.00  0.00     0.131 A 
ATOM     54  C   UNL A   1      44.552  35.896  27.826  1.00  0.00     0.055 A 
ATOM     55  C   UNL A   1      43.852  34.810  25.797  1.00  0.00     0.041 A 
ATOM     56  F   UNL A   1      43.557  32.487  25.769  1.00  0.00    -0.206 F 
ATOM     57  C   UNL A   1      44.178  35.976  26.481  1.00  0.00     0.022 A 
BRANCH  54  58
ATOM     58  S   UNL A   1      44.883  37.411  28.764  1.00  0.00     0.124 S 
ATOM     59  O   UNL A   1      44.287  37.095  30.056  1.00  0.00    -0.237 OA
ATOM     60  O   UNL A   1      46.340  37.479  28.728  1.00  0.00    -0.237 OA
ATOM     61  O   UNL A   1      44.194  38.445  27.995  1.00  0.00    -0.744 OA
ENDBRANCH  54  58
ENDBRANCH  27  51
BRANCH  39  62
ATOM     62  C   UNL A   1      48.567  27.966  27.158  1.00  0.00     0.023 A 
ATOM     63  C   UNL A   1      48.318  27.713  25.798  1.00  0.00     0.031 A 
ATOM     64  C   UNL A   1      49.901  27.937  27.604  1.00  0.00     0.131 A 
ATOM     65  C   UNL A   1      49.389  27.418  24.938  1.00  0.00     0.055 A 
ATOM     66  C   UNL A   1      50.964  27.699  26.734  1.00  0.00     0.041 A 
ATOM     67  F   UNL A   1      50.194  28.163  28.896  1.00  0.00    -0.206 F 
ATOM     68  C   UNL A   1      50.710  27.432  25.393  1.00  0.00     0.022 A 
BRANCH  65  69
ATOM     69  S   UNL A   1      49.032  26.953  23.220  1.00  0.00     0.124 S 
ATOM     70  O   UNL A   1      48.382  25.658  23.386  1.00  0.00    -0.237 OA
ATOM     71  O   UNL A   1      48.174  28.045  22.771  1.00  0.00    -0.237 OA
ATOM     72  O   UNL A   1      50.354  26.909  22.596  1.00  0.00    -0.744 OA
ENDBRANCH  65  69
ENDBRANCH  39  62
ENDBRANCH  13  14
ENDBRANCH   6   8
ENDBRANCH   3   4
ENDBRANCH   2   3
ENDBRANCH   1   2
BRANCH   1  73
ATOM     73  C   UNL A   1      34.677  35.048  32.547  1.00  0.00     0.002 C 
BRANCH  73  74
ATOM     74  C   UNL A   1      34.215  33.962  31.567  1.00  0.00     0.021 C 
BRANCH  74  75
ATOM     75  C   UNL A   1      34.141  34.404  30.109  1.00  0.00     0.116 C 
BRANCH  75  76
ATOM     76  N   UNL A   1      34.553  33.343  29.203  1.00  0.00    -0.352 N 
ATOM     77  C   UNL A   1      35.807  32.876  28.918  1.00  0.00     0.253 C 
ATOM     78  H   UNL A   1      33.819  32.894  28.724  1.00  0.00     0.163 HD
ATOM     79  O   UNL A   1      35.973  32.113  27.969  1.00  0.00    -0.269 OA
BRANCH  77  80
ATOM     80  C   UNL A   1      36.972  33.266  29.742  1.00  0.00     0.063 A 
ATOM     81  C   UNL A   1      37.469  34.561  29.520  1.00  0.00     0.016 A 
ATOM     82  C   UNL A   1      37.615  32.384  30.636  1.00  0.00     0.054 A 
ATOM     83  C   UNL A   1      38.614  34.994  30.181  1.00  0.00     0.001 A 
ATOM     84  C   UNL A   1      38.812  32.815  31.217  1.00  0.00     0.027 A 
ATOM     85  C   UNL A   1      39.295  34.113  31.013  1.00  0.00     0.002 A 
BRANCH  82  86
ATOM     86  N   UNL A   1      37.041  31.117  30.891  1.00  0.00    -0.321 N 
ATOM     87  C   UNL A   1      37.272  29.849  30.406  1.00  0.00     0.255 C 
ATOM     88  H   UNL A   1      36.320  31.148  31.560  1.00  0.00     0.170 HD
ATOM     89  O   UNL A   1      36.588  28.915  30.819  1.00  0.00    -0.269 OA
BRANCH  87  90
ATOM     90  C   UNL A   1      38.315  29.573  29.407  1.00  0.00     0.040 A 
ATOM     91  C   UNL A   1      39.492  28.986  29.863  1.00  0.00     0.016 A 
ATOM     92  C   UNL A   1      38.123  29.804  28.043  1.00  0.00     0.016 A 
ATOM     93  C   UNL A   1      40.410  28.481  28.942  1.00  0.00     0.027 A 
ATOM     94  C   UNL A   1      39.057  29.306  27.125  1.00  0.00     0.027 A 
ATOM     95  C   UNL A   1      40.178  28.577  27.561  1.00  0.00     0.052 A 
BRANCH  95  96
ATOM     96  N   UNL A   1      41.003  27.874  26.639  1.00  0.00    -0.250 N 
ATOM     97  C   UNL A   1      42.096  28.437  26.020  1.00  0.00     0.238 C 
ATOM     98  C   UNL A   1      40.880  26.537  26.350  1.00  0.00     0.238 C 
ATOM     99  O   UNL A   1      42.519  29.584  26.112  1.00  0.00    -0.274 OA
ATOM    100  C   UNL A   1      42.815  27.385  25.210  1.00  0.00     0.096 C 
ATOM    101  C   UNL A   1      42.033  26.100  25.480  1.00  0.00     0.096 C 
ATOM    102  O   UNL A   1      40.000  25.762  26.699  1.00  0.00    -0.274 OA
ATOM    103  C   UNL A   1      44.298  27.348  25.600  1.00  0.00     0.041 C 
ATOM    104  C   UNL A   1      42.798  24.980  26.195  1.00  0.00     0.041 C 
ATOM    105  C   UNL A   1      44.534  26.596  26.876  1.00  0.00    -0.030 C 
ATOM    106  C   UNL A   1      43.829  25.494  27.156  1.00  0.00    -0.030 C 
ENDBRANCH  95  96
ENDBRANCH  87  90
ENDBRANCH  82  86
ENDBRANCH  77  80
ENDBRANCH  75  76
ENDBRANCH  74  75
ENDBRANCH  73  74
ENDBRANCH   1  73
TORSDOF 19
ENDMDL
MODEL 2
REMARK VINA RESULT:      -9.3      5.985     10.697
REMARK SMILES O=C(NCCCCCCNC(=O)c1ccccc1NC(=O)c1ccc(N2C(=O)[C@H]3CC=CC[C@H]3C2=O)cc1)c1ccc(-c2c3nc(c(-c4cc(S(=O)(=O)[O-])ccc4F)c4ccc([nH]4)c(-c4cc(S(=O)(=O)[O-])ccc4F)c4nc(c(-c5cc(S(=O)(=O)[O-])ccc5F)c5ccc2[nH]5)C=C4)C=C3)cc1
REMARK SMILES IDX 6 1 5 2 4 3 3 4 1 5 2 6 39 8 40 9 101 10 41 11 100 12 42 13
REMARK SMILES IDX 43 14 44 15 94 16 45 17 99 18 93 19 95 20 46 21 98 22 92 23
REMARK SMILES IDX 91 24 47 26 79 27 59 28 78 29 60 30 63 31 77 32 96 33 61 34
REMARK SMILES IDX 62 35 76 37 97 38 64 39 48 40 49 41 57 42 50 43 56 44 58 45
REMARK SMILES IDX 55 46 51 47 52 48 53 49 54 50 80 51 81 52 89 53 82 54 88 55
REMARK SMILES IDX 90 56 87 57 83 58 84 59 85 60 86 61 65 62 66 63 74 64 67 65
REMARK SMILES IDX 73 66 75 67 72 68 68 69 69 70 70 71 71 72 7 73 8 74 9 75
REMARK SMILES IDX 10 76 11 77 12 79 13 80 14 81 18 82 15 83 17 84 16 85 19 86
REMARK SMILES IDX 20 87 21 89 22 90 23 91 38 92 24 93 37 94 25 95 26 96 27 97
REMARK SMILES IDX 35 98 28 99 29 100 34 101 36 102 30 103 33 104 31 105 32 106
REMARK H PARENT 3 7 95 25 63 36 10 78 19 88
REMARK Flexibility Score: inf
ROOT
ATOM      1  C   UNL A   1      38.513  22.507  25.907  1.00  0.00     0.002 C 
ENDROOT
BRANCH   1   2
ATOM      2  C   UNL A   1      38.832  21.108  25.380  1.00  0.00     0.021 C 
BRANCH   2   3
ATOM      3  C   UNL A   1      39.156  20.079  26.455  1.00  0.00     0.116 C 
BRANCH   3   4
ATOM      4  N   UNL A   1      40.314  19.270  26.113  1.00  0.00    -0.352 N 
ATOM      5  O   UNL A   1      42.443  18.876  25.485  1.00  0.00    -0.269 OA
ATOM      6  C   UNL A   1      41.620  19.658  25.951  1.00  0.00     0.251 C 
ATOM      7  H   UNL A   1      40.137  18.311  25.980  1.00  0.00     0.163 HD
BRANCH   6   8
ATOM      8  C   UNL A   1      42.027  21.028  26.330  1.00  0.00     0.039 A 
ATOM      9  C   UNL A   1      42.165  22.025  25.359  1.00  0.00     0.014 A 
ATOM     10  C   UNL A   1      42.259  21.318  27.676  1.00  0.00     0.014 A 
ATOM     11  C   UNL A   1      42.641  23.281  25.718  1.00  0.00     0.010 A 
ATOM     12  C   UNL A   1      42.662  22.603  28.044  1.00  0.00     0.010 A 
ATOM     13  C   UNL A   1      42.874  23.591  27.066  1.00  0.00    -0.014 A 
BRANCH  13  14
ATOM     14  C   UNL A   1      43.277  24.965  27.458  1.00  0.00     0.031 A 
ATOM     15  C   UNL A   1      42.299  25.893  28.117  1.00  0.00     0.074 A 
ATOM     16  C   UNL A   1      44.526  25.382  27.177  1.00  0.00     0.049 A 
ATOM     17  N   UNL A   1      42.439  27.156  28.428  1.00  0.00    -0.248 NA
ATOM     18  C   UNL A   1      40.985  25.329  28.455  1.00  0.00     0.031 C 
ATOM     19  C   UNL A   1      45.560  24.563  26.541  1.00  0.00     0.029 A 
ATOM     20  N   UNL A   1      45.135  26.596  27.370  1.00  0.00    -0.354 N 
ATOM     21  C   UNL A   1      41.224  27.549  28.980  1.00  0.00     0.074 A 
ATOM     22  C   UNL A   1      40.351  26.393  28.924  1.00  0.00     0.031 C 
ATOM     23  C   UNL A   1      46.673  25.295  26.398  1.00  0.00     0.029 A 
ATOM     24  C   UNL A   1      46.410  26.654  26.858  1.00  0.00     0.049 A 
ATOM     25  H   UNL A   1      44.701  27.351  27.828  1.00  0.00     0.167 HD
ATOM     26  C   UNL A   1      40.878  28.760  29.486  1.00  0.00     0.034 A 
ATOM     27  C   UNL A   1      47.256  27.693  26.721  1.00  0.00     0.034 A 
ATOM     28  C   UNL A   1      41.768  29.898  29.512  1.00  0.00     0.049 A 
ATOM     29  C   UNL A   1      46.832  29.047  27.220  1.00  0.00     0.074 A 
ATOM     30  C   UNL A   1      41.541  31.159  30.037  1.00  0.00     0.029 A 
ATOM     31  N   UNL A   1      43.046  29.925  28.965  1.00  0.00    -0.354 N 
ATOM     32  N   UNL A   1      45.691  29.401  27.765  1.00  0.00    -0.248 NA
ATOM     33  C   UNL A   1      47.803  30.138  27.090  1.00  0.00     0.031 C 
ATOM     34  C   UNL A   1      42.638  31.969  29.727  1.00  0.00     0.029 A 
ATOM     35  C   UNL A   1      43.599  31.192  29.099  1.00  0.00     0.049 A 
ATOM     36  H   UNL A   1      43.496  29.157  28.543  1.00  0.00     0.167 HD
ATOM     37  C   UNL A   1      45.819  30.753  28.071  1.00  0.00     0.074 A 
ATOM     38  C   UNL A   1      47.148  31.148  27.648  1.00  0.00     0.031 C 
ATOM     39  C   UNL A   1      44.922  31.582  28.664  1.00  0.00     0.034 A 
BRANCH  26  40
ATOM     40  C   UNL A   1      39.460  28.925  29.986  1.00  0.00     0.023 A 
ATOM     41  C   UNL A   1      38.430  29.404  29.157  1.00  0.00     0.031 A 
ATOM     42  C   UNL A   1      39.143  28.653  31.329  1.00  0.00     0.131 A 
ATOM     43  C   UNL A   1      37.169  29.695  29.701  1.00  0.00     0.055 A 
ATOM     44  C   UNL A   1      37.858  28.850  31.840  1.00  0.00     0.041 A 
ATOM     45  F   UNL A   1      40.084  28.211  32.178  1.00  0.00    -0.206 F 
ATOM     46  C   UNL A   1      36.868  29.397  31.031  1.00  0.00     0.022 A 
BRANCH  43  47
ATOM     47  S   UNL A   1      35.997  30.650  28.697  1.00  0.00     0.124 S 
ATOM     48  O   UNL A   1      35.229  29.588  28.049  1.00  0.00    -0.237 OA
ATOM     49  O   UNL A   1      35.285  31.431  29.701  1.00  0.00    -0.237 OA
ATOM     50  O   UNL A   1      36.859  31.418  27.802  1.00  0.00    -0.744 OA
ENDBRANCH  43  47
ENDBRANCH  26  40
BRANCH  27  51
ATOM     51  C   UNL A   1      48.558  27.487  26.029  1.00  0.00     0.023 A 
ATOM     52  C   UNL A   1      48.671  27.581  24.636  1.00  0.00     0.031 A 
ATOM     53  C   UNL A   1      49.725  27.221  26.772  1.00  0.00     0.131 A 
ATOM     54  C   UNL A   1      49.920  27.391  24.023  1.00  0.00     0.055 A 
ATOM     55  C   UNL A   1      50.973  27.085  26.164  1.00  0.00     0.041 A 
ATOM     56  F   UNL A   1      49.671  27.129  28.111  1.00  0.00    -0.206 F 
ATOM     57  C   UNL A   1      51.074  27.163  24.779  1.00  0.00     0.022 A 
BRANCH  54  58
ATOM     58  S   UNL A   1      50.012  27.395  22.212  1.00  0.00     0.124 S 
ATOM     59  O   UNL A   1      49.664  28.776  21.902  1.00  0.00    -0.237 OA
ATOM     60  O   UNL A   1      51.400  27.013  21.977  1.00  0.00    -0.237 OA
ATOM     61  O   UNL A   1      49.019  26.397  21.819  1.00  0.00    -0.744 OA
ENDBRANCH  54  58
ENDBRANCH  27  51
BRANCH  39  62
ATOM     62  C   UNL A   1      45.367  32.995  28.953  1.00  0.00     0.023 A 
ATOM     63  C   UNL A   1      45.207  34.038  28.024  1.00  0.00     0.031 A 
ATOM     64  C   UNL A   1      45.928  33.304  30.205  1.00  0.00     0.131 A 
ATOM     65  C   UNL A   1      45.628  35.336  28.355  1.00  0.00     0.055 A 
ATOM     66  C   UNL A   1      46.292  34.606  30.549  1.00  0.00     0.041 A 
ATOM     67  F   UNL A   1      46.112  32.344  31.127  1.00  0.00    -0.206 F 
ATOM     68  C   UNL A   1      46.148  35.630  29.618  1.00  0.00     0.022 A 
BRANCH  65  69
ATOM     69  S   UNL A   1      45.545  36.635  27.090  1.00  0.00     0.124 S 
ATOM     70  O   UNL A   1      46.212  37.749  27.756  1.00  0.00    -0.237 OA
ATOM     71  O   UNL A   1      46.268  36.033  25.975  1.00  0.00    -0.237 OA
ATOM     72  O   UNL A   1      44.110  36.812  26.873  1.00  0.00    -0.744 OA
ENDBRANCH  65  69
ENDBRANCH  39  62
ENDBRANCH  13  14
ENDBRANCH   6   8
ENDBRANCH   3   4
ENDBRANCH   2   3
ENDBRANCH   1   2
BRANCH   1  73
ATOM     73  C   UNL A   1      37.074  22.981  25.681  1.00  0.00     0.002 C 
BRANCH  73  74
ATOM     74  C   UNL A   1      36.583  22.946  24.229  1.00  0.00     0.021 C 
BRANCH  74  75
ATOM     75  C   UNL A   1      35.400  23.860  23.929  1.00  0.00     0.116 C 
BRANCH  75  76
ATOM     76  N   UNL A   1      35.086  24.723  25.057  1.00  0.00    -0.352 N 
ATOM     77  C   UNL A   1      34.154  25.718  25.163  1.00  0.00     0.253 C 
ATOM     78  H   UNL A   1      35.627  24.567  25.866  1.00  0.00     0.163 HD
ATOM     79  O   UNL A   1      34.178  26.478  26.128  1.00  0.00    -0.269 OA
BRANCH  77  80
ATOM     80  C   UNL A   1      33.104  25.891  24.135  1.00  0.00     0.063 A 
ATOM     81  C   UNL A   1      33.543  26.363  22.887  1.00  0.00     0.016 A 
ATOM     82  C   UNL A   1      31.732  25.686  24.392  1.00  0.00     0.054 A 
ATOM     83  C   UNL A   1      32.625  26.642  21.881  1.00  0.00     0.001 A 
ATOM     84  C   UNL A   1      30.827  26.059  23.392  1.00  0.00     0.027 A 
ATOM     85  C   UNL A   1      31.266  26.509  22.141  1.00  0.00     0.002 A 
BRANCH  82  86
ATOM     86  N   UNL A   1      31.334  25.138  25.633  1.00  0.00    -0.321 N 
ATOM     87  C   UNL A   1      31.505  23.911  26.234  1.00  0.00     0.255 C 
ATOM     88  H   UNL A   1      30.824  25.771  26.188  1.00  0.00     0.170 HD
ATOM     89  O   UNL A   1      31.023  23.716  27.349  1.00  0.00    -0.269 OA
BRANCH  87  90
ATOM     90  C   UNL A   1      32.249  22.821  25.586  1.00  0.00     0.040 A 
ATOM     91  C   UNL A   1      33.076  22.046  26.396  1.00  0.00     0.016 A 
ATOM     92  C   UNL A   1      32.087  22.505  24.236  1.00  0.00     0.016 A 
ATOM     93  C   UNL A   1      33.611  20.860  25.895  1.00  0.00     0.027 A 
ATOM     94  C   UNL A   1      32.641  21.319  23.737  1.00  0.00     0.027 A 
ATOM     95  C   UNL A   1      33.353  20.446  24.580  1.00  0.00     0.052 A 
BRANCH  95  96
ATOM     96  N   UNL A   1      33.719  19.141  24.147  1.00  0.00    -0.250 N 
ATOM     97  C   UNL A   1      34.941  18.569  24.418  1.00  0.00     0.238 C 
ATOM     98  C   UNL A   1      32.869  18.264  23.519  1.00  0.00     0.238 C 
ATOM     99  O   UNL A   1      35.897  19.056  25.013  1.00  0.00    -0.274 OA
ATOM    100  C   UNL A   1      34.951  17.141  23.927  1.00  0.00     0.096 C 
ATOM    101  C   UNL A   1      33.541  16.921  23.379  1.00  0.00     0.096 C 
ATOM    102  O   UNL A   1      31.736  18.469  23.104  1.00  0.00    -0.274 OA
ATOM    103  C   UNL A   1      35.370  16.201  25.063  1.00  0.00     0.041 C 
ATOM    104  C   UNL A   1      32.694  15.863  24.097  1.00  0.00     0.041 C 
ATOM    105  C   UNL A   1      34.246  15.917  26.015  1.00  0.00    -0.030 C 
ATOM    106  C   UNL A   1      32.996  15.766  25.563  1.00  0.00    -0.030 C 
ENDBRANCH  95  96
ENDBRANCH  87  90
ENDBRANCH  82  86
ENDBRANCH  77  80
ENDBRANCH  75  76
ENDBRANCH  74  75
ENDBRANCH  73  74
ENDBRANCH   1  73
TORSDOF 19
ENDMDL
MODEL 3
REMARK VINA RESULT:      -9.1      1.391      7.205
REMARK SMILES O=C(NCCCCCCNC(=O)c1ccccc1NC(=O)c1ccc(N2C(=O)[C@H]3CC=CC[C@H]3C2=O)cc1)c1ccc(-c2c3nc(c(-c4cc(S(=O)(=O)[O-])ccc4F)c4ccc([nH]4)c(-c4cc(S(=O)(=O)[O-])ccc4F)c4nc(c(-c5cc(S(=O)(=O)[O-])ccc5F)c5ccc2[nH]5)C=C4)C=C3)cc1
REMARK SMILES IDX 6 1 5 2 4 3 3 4 1 5 2 6 39 8 40 9 101 10 41 11 100 12 42 13
REMARK SMILES IDX 43 14 44 15 94 16 45 17 99 18 93 19 95 20 46 21 98 22 92 23
REMARK SMILES IDX 91 24 47 26 79 27 59 28 78 29 60 30 63 31 77 32 96 33 61 34
REMARK SMILES IDX 62 35 76 37 97 38 64 39 48 40 49 41 57 42 50 43 56 44 58 45
REMARK SMILES IDX 55 46 51 47 52 48 53 49 54 50 80 51 81 52 89 53 82 54 88 55
REMARK SMILES IDX 90 56 87 57 83 58 84 59 85 60 86 61 65 62 66 63 74 64 67 65
REMARK SMILES IDX 73 66 75 67 72 68 68 69 69 70 70 71 71 72 7 73 8 74 9 75
REMARK SMILES IDX 10 76 11 77 12 79 13 80 14 81 18 82 15 83 17 84 16 85 19 86
REMARK SMILES IDX 20 87 21 89 22 90 23 91 38 92 24 93 37 94 25 95 26 96 27 97
REMARK SMILES IDX 35 98 28 99 29 100 34 101 36 102 30 103 33 104 31 105 32 106
REMARK H PARENT 3 7 95 25 63 36 10 78 19 88
REMARK Flexibility Score: inf
ROOT
ATOM      1  C   UNL A   1      35.751  34.948  32.812  1.00  0.00     0.002 C 
ENDROOT
BRANCH   1   2
ATOM      2  C   UNL A   1      35.730  33.700  33.695  1.00  0.00     0.021 C 
BRANCH   2   3
ATOM      3  C   UNL A   1      37.091  33.060  33.932  1.00  0.00     0.116 C 
BRANCH   3   4
ATOM      4  N   UNL A   1      37.226  32.533  35.280  1.00  0.00    -0.352 N 
ATOM      5  O   UNL A   1      38.000  31.159  36.890  1.00  0.00    -0.269 OA
ATOM      6  C   UNL A   1      38.140  31.633  35.767  1.00  0.00     0.251 C 
ATOM      7  H   UNL A   1      36.572  32.869  35.934  1.00  0.00     0.163 HD
BRANCH   6   8
ATOM      8  C   UNL A   1      39.287  31.230  34.926  1.00  0.00     0.039 A 
ATOM      9  C   UNL A   1      40.561  31.759  35.157  1.00  0.00     0.014 A 
ATOM     10  C   UNL A   1      39.084  30.302  33.903  1.00  0.00     0.014 A 
ATOM     11  C   UNL A   1      41.608  31.444  34.297  1.00  0.00     0.010 A 
ATOM     12  C   UNL A   1      40.155  29.928  33.089  1.00  0.00     0.010 A 
ATOM     13  C   UNL A   1      41.422  30.510  33.268  1.00  0.00    -0.014 A 
BRANCH  13  14
ATOM     14  C   UNL A   1      42.568  30.094  32.420  1.00  0.00     0.031 A 
ATOM     15  C   UNL A   1      42.995  30.925  31.246  1.00  0.00     0.074 A 
ATOM     16  C   UNL A   1      43.197  28.936  32.697  1.00  0.00     0.049 A 
ATOM     17  N   UNL A   1      43.896  30.666  30.334  1.00  0.00    -0.248 NA
ATOM     18  C   UNL A   1      42.304  32.209  31.065  1.00  0.00     0.031 C 
ATOM     19  C   UNL A   1      42.867  28.050  33.815  1.00  0.00     0.029 A 
ATOM     20  N   UNL A   1      44.226  28.294  32.057  1.00  0.00    -0.354 N 
ATOM     21  C   UNL A   1      43.869  31.743  29.455  1.00  0.00     0.074 A 
ATOM     22  C   UNL A   1      42.833  32.639  29.929  1.00  0.00     0.031 C 
ATOM     23  C   UNL A   1      43.678  26.984  33.784  1.00  0.00     0.029 A 
ATOM     24  C   UNL A   1      44.529  27.070  32.603  1.00  0.00     0.049 A 
ATOM     25  H   UNL A   1      44.700  28.673  31.282  1.00  0.00     0.167 HD
ATOM     26  C   UNL A   1      44.641  31.960  28.359  1.00  0.00     0.034 A 
ATOM     27  C   UNL A   1      45.357  26.097  32.177  1.00  0.00     0.034 A 
ATOM     28  C   UNL A   1      45.657  31.038  27.903  1.00  0.00     0.049 A 
ATOM     29  C   UNL A   1      46.153  26.319  30.920  1.00  0.00     0.074 A 
ATOM     30  C   UNL A   1      46.526  31.172  26.834  1.00  0.00     0.029 A 
ATOM     31  N   UNL A   1      45.921  29.796  28.471  1.00  0.00    -0.354 N 
ATOM     32  N   UNL A   1      46.140  27.353  30.111  1.00  0.00    -0.248 NA
ATOM     33  C   UNL A   1      47.075  25.250  30.519  1.00  0.00     0.031 C 
ATOM     34  C   UNL A   1      47.246  29.980  26.700  1.00  0.00     0.029 A 
ATOM     35  C   UNL A   1      46.906  29.138  27.747  1.00  0.00     0.049 A 
ATOM     36  H   UNL A   1      45.476  29.435  29.271  1.00  0.00     0.167 HD
ATOM     37  C   UNL A   1      47.075  27.073  29.119  1.00  0.00     0.074 A 
ATOM     38  C   UNL A   1      47.631  25.771  29.432  1.00  0.00     0.031 C 
ATOM     39  C   UNL A   1      47.448  27.833  28.059  1.00  0.00     0.034 A 
BRANCH  26  40
ATOM     40  C   UNL A   1      44.366  33.207  27.550  1.00  0.00     0.023 A 
ATOM     41  C   UNL A   1      44.631  34.493  28.053  1.00  0.00     0.031 A 
ATOM     42  C   UNL A   1      43.777  33.114  26.276  1.00  0.00     0.131 A 
ATOM     43  C   UNL A   1      44.213  35.627  27.339  1.00  0.00     0.055 A 
ATOM     44  C   UNL A   1      43.455  34.248  25.525  1.00  0.00     0.041 A 
ATOM     45  F   UNL A   1      43.482  31.918  25.744  1.00  0.00    -0.206 F 
ATOM     46  C   UNL A   1      43.650  35.514  26.066  1.00  0.00     0.022 A 
BRANCH  43  47
ATOM     47  S   UNL A   1      44.235  37.234  28.182  1.00  0.00     0.124 S 
ATOM     48  O   UNL A   1      45.644  37.606  28.073  1.00  0.00    -0.237 OA
ATOM     49  O   UNL A   1      43.303  38.022  27.383  1.00  0.00    -0.237 OA
ATOM     50  O   UNL A   1      43.786  36.916  29.535  1.00  0.00    -0.744 OA
ENDBRANCH  43  47
ENDBRANCH  26  40
BRANCH  27  51
ATOM     51  C   UNL A   1      45.418  24.810  32.924  1.00  0.00     0.023 A 
ATOM     52  C   UNL A   1      46.327  24.614  33.972  1.00  0.00     0.031 A 
ATOM     53  C   UNL A   1      44.533  23.761  32.608  1.00  0.00     0.131 A 
ATOM     54  C   UNL A   1      46.345  23.389  34.659  1.00  0.00     0.055 A 
ATOM     55  C   UNL A   1      44.519  22.566  33.327  1.00  0.00     0.041 A 
ATOM     56  F   UNL A   1      43.638  23.902  31.617  1.00  0.00    -0.206 F 
ATOM     57  C   UNL A   1      45.435  22.372  34.356  1.00  0.00     0.022 A 
BRANCH  54  58
ATOM     58  S   UNL A   1      47.612  23.120  35.927  1.00  0.00     0.124 S 
ATOM     59  O   UNL A   1      47.994  21.735  35.675  1.00  0.00    -0.237 OA
ATOM     60  O   UNL A   1      48.605  24.132  35.584  1.00  0.00    -0.237 OA
ATOM     61  O   UNL A   1      46.896  23.353  37.179  1.00  0.00    -0.744 OA
ENDBRANCH  54  58
ENDBRANCH  27  51
BRANCH  39  62
ATOM     62  C   UNL A   1      48.560  27.308  27.183  1.00  0.00     0.023 A 
ATOM     63  C   UNL A   1      49.916  27.465  27.516  1.00  0.00     0.031 A 
ATOM     64  C   UNL A   1      48.243  26.601  26.008  1.00  0.00     0.131 A 
ATOM     65  C   UNL A   1      50.906  26.941  26.668  1.00  0.00     0.055 A 
ATOM     66  C   UNL A   1      49.229  26.035  25.201  1.00  0.00     0.041 A 
ATOM     67  F   UNL A   1      46.963  26.430  25.638  1.00  0.00    -0.206 F 
ATOM     68  C   UNL A   1      50.570  26.209  25.526  1.00  0.00     0.022 A 
BRANCH  65  69
ATOM     69  S   UNL A   1      52.650  27.280  27.041  1.00  0.00     0.124 S 
ATOM     70  O   UNL A   1      52.910  26.352  28.136  1.00  0.00    -0.237 OA
ATOM     71  O   UNL A   1      53.306  26.973  25.774  1.00  0.00    -0.237 OA
ATOM     72  O   UNL A   1      52.652  28.694  27.412  1.00  0.00    -0.744 OA
ENDBRANCH  65  69
ENDBRANCH  39  62
ENDBRANCH  13  14
ENDBRANCH   6   8
ENDBRANCH   3   4
ENDBRANCH   2   3
ENDBRANCH   1   2
BRANCH   1  73
ATOM     73  C   UNL A   1      34.635  35.032  31.767  1.00  0.00     0.002 C 
BRANCH  73  74
ATOM     74  C   UNL A   1      34.355  33.741  30.988  1.00  0.00     0.021 C 
BRANCH  74  75
ATOM     75  C   UNL A   1      34.134  33.930  29.491  1.00  0.00     0.116 C 
BRANCH  75  76
ATOM     76  N   UNL A   1      34.575  32.771  28.731  1.00  0.00    -0.352 N 
ATOM     77  C   UNL A   1      35.838  32.289  28.526  1.00  0.00     0.253 C 
ATOM     78  H   UNL A   1      33.855  32.255  28.300  1.00  0.00     0.163 HD
ATOM     79  O   UNL A   1      36.031  31.417  27.682  1.00  0.00    -0.269 OA
BRANCH  77  80
ATOM     80  C   UNL A   1      36.985  32.795  29.313  1.00  0.00     0.063 A 
ATOM     81  C   UNL A   1      37.478  34.054  28.931  1.00  0.00     0.016 A 
ATOM     82  C   UNL A   1      37.615  32.045  30.328  1.00  0.00     0.054 A 
ATOM     83  C   UNL A   1      38.606  34.581  29.551  1.00  0.00     0.001 A 
ATOM     84  C   UNL A   1      38.797  32.560  30.869  1.00  0.00     0.027 A 
ATOM     85  C   UNL A   1      39.277  33.824  30.505  1.00  0.00     0.002 A 
BRANCH  82  86
ATOM     86  N   UNL A   1      37.044  30.817  30.737  1.00  0.00    -0.321 N 
ATOM     87  C   UNL A   1      37.363  29.496  30.519  1.00  0.00     0.255 C 
ATOM     88  H   UNL A   1      36.246  30.934  31.301  1.00  0.00     0.170 HD
ATOM     89  O   UNL A   1      36.655  28.619  31.010  1.00  0.00    -0.269 OA
BRANCH  87  90
ATOM     90  C   UNL A   1      38.527  29.096  29.715  1.00  0.00     0.040 A 
ATOM     91  C   UNL A   1      39.511  28.344  30.350  1.00  0.00     0.016 A 
ATOM     92  C   UNL A   1      38.624  29.376  28.350  1.00  0.00     0.016 A 
ATOM     93  C   UNL A   1      40.508  27.734  29.590  1.00  0.00     0.027 A 
ATOM     94  C   UNL A   1      39.637  28.771  27.595  1.00  0.00     0.027 A 
ATOM     95  C   UNL A   1      40.552  27.886  28.196  1.00  0.00     0.052 A 
BRANCH  95  96
ATOM     96  N   UNL A   1      41.432  27.092  27.409  1.00  0.00    -0.250 N 
ATOM     97  C   UNL A   1      42.794  27.288  27.366  1.00  0.00     0.238 C 
ATOM     98  C   UNL A   1      41.051  25.979  26.701  1.00  0.00     0.238 C 
ATOM     99  O   UNL A   1      43.459  28.150  27.933  1.00  0.00    -0.274 OA
ATOM    100  C   UNL A   1      43.436  26.201  26.540  1.00  0.00     0.096 C 
ATOM    101  C   UNL A   1      42.273  25.291  26.145  1.00  0.00     0.096 C 
ATOM    102  O   UNL A   1      39.921  25.555  26.502  1.00  0.00    -0.274 OA
ATOM    103  C   UNL A   1      44.556  25.527  27.342  1.00  0.00     0.041 C 
ATOM    104  C   UNL A   1      42.324  23.856  26.683  1.00  0.00     0.041 C 
ATOM    105  C   UNL A   1      44.030  24.532  28.333  1.00  0.00    -0.030 C 
ATOM    106  C   UNL A   1      42.983  23.756  28.027  1.00  0.00    -0.030 C 
ENDBRANCH  95  96
ENDBRANCH  87  90
ENDBRANCH  82  86
ENDBRANCH  77  80
ENDBRANCH  75  76
ENDBRANCH  74  75
ENDBRANCH  73  74
ENDBRANCH   1  73
TORSDOF 19
ENDMDL
