MODEL 1
REMARK VINA RESULT:     -11.5      0.000      0.000
REMARK SMILES CC[C@@H](Oc1ccccc1/C=C1\S/C(=[NH+]\c2cccc(O)c2)N(CC)C1=O)C(=O)NCCCCCCNC(=O)c1ccc(-c2c3nc(c(-c4cc(S(=O)(=O)[O-])ccc4F)c4ccc([nH]4)c(-c4cc(S(=O)(=O)[O-])ccc4F)c4nc(c(-c5cc(S(=O)(=O)[O-])ccc5F)c5ccc2[nH]5)C=C4)C=C3)cc1
REMARK SMILES IDX 32 1 31 2 30 3 28 4 29 5 3 7 2 8 1 9 4 10 5 11 6 12 10 13
REMARK SMILES IDX 7 14 9 15 8 16 11 17 12 18 13 19 26 20 14 21 23 22 27 23
REMARK SMILES IDX 15 24 24 26 25 27 16 28 17 29 22 30 18 31 20 32 19 33 21 34
REMARK SMILES IDX 33 36 34 37 35 38 36 39 37 40 38 41 39 43 40 44 41 45 102 46
REMARK SMILES IDX 42 47 101 48 43 49 44 50 45 51 95 52 46 53 100 54 94 55
REMARK SMILES IDX 96 56 47 57 99 58 93 59 92 60 48 62 80 63 60 64 79 65 61 66
REMARK SMILES IDX 64 67 78 68 97 69 62 70 63 71 77 73 98 74 65 75 49 76 50 77
REMARK SMILES IDX 58 78 51 79 57 80 59 81 56 82 52 83 53 84 54 85 55 86 81 87
REMARK SMILES IDX 82 88 90 89 83 90 89 91 91 92 88 93 84 94 85 95 86 96 87 97
REMARK SMILES IDX 66 98 67 99 75 100 68 101 74 102 76 103 73 104 69 105 70 106
REMARK SMILES IDX 71 107 72 108
REMARK H PARENT 30 6 15 25 21 35 37 42 96 61 64 72
REMARK Flexibility Score: inf
ROOT
ATOM      1  C   UNL A   1      31.922  25.587  24.687  1.00  0.00     0.021 C 
ENDROOT
BRANCH   1   2
ATOM      2  C   UNL A   1      32.796  26.207  25.761  1.00  0.00     0.116 C 
BRANCH   2   3
ATOM      3  N   UNL A   1      31.988  26.837  26.784  1.00  0.00    -0.353 N 
ATOM      4  C   UNL A   1      31.773  28.147  27.073  1.00  0.00     0.261 C 
ATOM      5  O   UNL A   1      30.999  28.396  28.005  1.00  0.00    -0.271 OA
ATOM      6  H   UNL A   1      31.513  26.207  27.372  1.00  0.00     0.163 HD
BRANCH   4   7
ATOM      7  C   UNL A   1      32.529  29.291  26.360  1.00  0.00     0.261 C 
BRANCH   7   8
ATOM      8  C   UNL A   1      31.477  30.111  25.596  1.00  0.00     0.052 C 
ATOM      9  C   UNL A   1      30.913  29.350  24.404  1.00  0.00     0.008 C 
ENDBRANCH   7   8
BRANCH   7  10
ATOM     10  O   UNL A   1      33.184  30.168  27.265  1.00  0.00    -0.480 OA
BRANCH  10  11
ATOM     11  C   UNL A   1      34.535  30.079  27.413  1.00  0.00     0.127 A 
ATOM     12  C   UNL A   1      35.182  28.865  27.171  1.00  0.00     0.047 A 
ATOM     13  C   UNL A   1      35.217  31.164  27.999  1.00  0.00     0.018 A 
ATOM     14  C   UNL A   1      36.537  28.737  27.475  1.00  0.00     0.004 A 
ATOM     15  C   UNL A   1      36.578  31.026  28.280  1.00  0.00     0.012 A 
ATOM     16  C   UNL A   1      37.234  29.815  28.024  1.00  0.00     0.001 A 
BRANCH  13  17
ATOM     17  C   UNL A   1      34.560  32.474  28.157  1.00  0.00     0.036 C 
ATOM     18  C   UNL A   1      34.716  33.398  29.119  1.00  0.00     0.110 C 
ATOM     19  S   UNL A   1      35.871  33.496  30.376  1.00  0.00     0.007 SA
ATOM     20  C   UNL A   1      33.652  34.419  29.333  1.00  0.00     0.348 C 
ATOM     21  C   UNL A   1      34.943  34.688  31.287  1.00  0.00     0.324 C 
ATOM     22  N   UNL A   1      33.814  35.019  30.568  1.00  0.00    -0.186 N 
ATOM     23  O   UNL A   1      32.710  34.586  28.568  1.00  0.00    -0.240 OA
ATOM     24  N   UNL A   1      35.145  35.167  32.475  1.00  0.00    -0.234 N 
ATOM     25  H   UNL A   1      34.537  35.870  32.799  1.00  0.00     0.313 HD
BRANCH  22  26
ATOM     26  C   UNL A   1      32.706  35.759  31.161  1.00  0.00     0.244 C 
ATOM     27  C   UNL A   1      32.903  37.263  31.140  1.00  0.00     0.055 C 
ENDBRANCH  22  26
BRANCH  24  28
ATOM     28  C   UNL A   1      36.178  34.747  33.329  1.00  0.00     0.129 A 
ATOM     29  C   UNL A   1      37.889  35.021  32.819  1.00  0.00     0.052 A 
ATOM     30  C   UNL A   1      35.862  33.982  34.928  1.00  0.00     0.097 A 
ATOM     31  C   UNL A   1      39.277  34.585  33.954  1.00  0.00     0.008 A 
ATOM     32  C   UNL A   1      37.194  33.573  36.020  1.00  0.00     0.119 A 
ATOM     33  C   UNL A   1      38.910  33.847  35.552  1.00  0.00     0.046 A 
BRANCH  32  34
ATOM     34  O   UNL A   1      36.933  33.030  37.241  1.00  0.00    -0.508 OA
ATOM     35  H   UNL A   1      36.386  32.272  37.310  1.00  0.00     0.293 HD
ENDBRANCH  32  34
ENDBRANCH  24  28
ENDBRANCH  13  17
ENDBRANCH  10  11
ENDBRANCH   7  10
ENDBRANCH   4   7
ENDBRANCH   2   3
ENDBRANCH   1   2
BRANCH   1  36
ATOM     36  C   UNL A   1      32.705  24.591  23.854  1.00  0.00     0.002 C 
BRANCH  36  37
ATOM     37  C   UNL A   1      34.241  24.683  24.040  1.00  0.00     0.002 C 
BRANCH  37  38
ATOM     38  C   UNL A   1      35.179  23.401  24.836  1.00  0.00     0.021 C 
BRANCH  38  39
ATOM     39  C   UNL A   1      37.206  23.318  25.661  1.00  0.00     0.116 C 
BRANCH  39  40
ATOM     40  N   UNL A   1      38.063  21.999  26.225  1.00  0.00    -0.352 N 
ATOM     41  C   UNL A   1      39.407  21.839  26.420  1.00  0.00     0.251 C 
ATOM     42  H   UNL A   1      37.513  21.215  26.455  1.00  0.00     0.163 HD
ATOM     43  O   UNL A   1      39.929  20.732  26.394  1.00  0.00    -0.269 OA
BRANCH  41  44
ATOM     44  C   UNL A   1      40.178  23.040  26.720  1.00  0.00     0.039 A 
ATOM     45  C   UNL A   1      39.890  24.247  26.089  1.00  0.00     0.014 A 
ATOM     46  C   UNL A   1      41.194  22.925  27.673  1.00  0.00     0.014 A 
ATOM     47  C   UNL A   1      40.615  25.370  26.461  1.00  0.00     0.010 A 
ATOM     48  C   UNL A   1      41.836  24.057  28.116  1.00  0.00     0.010 A 
ATOM     49  C   UNL A   1      41.567  25.278  27.492  1.00  0.00    -0.014 A 
BRANCH  49  50
ATOM     50  C   UNL A   1      42.331  26.460  27.918  1.00  0.00     0.031 A 
ATOM     51  C   UNL A   1      43.684  26.702  27.321  1.00  0.00     0.074 A 
ATOM     52  C   UNL A   1      41.803  27.251  28.868  1.00  0.00     0.049 A 
ATOM     53  N   UNL A   1      44.534  27.659  27.572  1.00  0.00    -0.248 NA
ATOM     54  C   UNL A   1      44.168  25.713  26.339  1.00  0.00     0.031 C 
ATOM     55  C   UNL A   1      40.519  27.019  29.541  1.00  0.00     0.029 A 
ATOM     56  N   UNL A   1      42.266  28.407  29.427  1.00  0.00    -0.354 N 
ATOM     57  C   UNL A   1      45.644  27.390  26.779  1.00  0.00     0.074 A 
ATOM     58  C   UNL A   1      45.401  26.135  26.111  1.00  0.00     0.031 C 
ATOM     59  C   UNL A   1      40.276  28.035  30.382  1.00  0.00     0.029 A 
ATOM     60  C   UNL A   1      41.402  28.958  30.343  1.00  0.00     0.049 A 
ATOM     61  H   UNL A   1      43.135  28.808  29.196  1.00  0.00     0.167 HD
ATOM     62  C   UNL A   1      46.745  28.156  26.600  1.00  0.00     0.034 A 
ATOM     63  C   UNL A   1      41.522  30.090  31.061  1.00  0.00     0.034 A 
ATOM     64  C   UNL A   1      46.936  29.410  27.281  1.00  0.00     0.049 A 
ATOM     65  C   UNL A   1      42.759  30.923  30.837  1.00  0.00     0.074 A 
ATOM     66  C   UNL A   1      47.990  30.298  27.179  1.00  0.00     0.029 A 
ATOM     67  N   UNL A   1      46.038  29.955  28.193  1.00  0.00    -0.354 N 
ATOM     68  N   UNL A   1      43.780  30.688  30.041  1.00  0.00    -0.248 NA
ATOM     69  C   UNL A   1      42.853  32.178  31.587  1.00  0.00     0.031 C 
ATOM     70  C   UNL A   1      47.757  31.347  28.075  1.00  0.00     0.029 A 
ATOM     71  C   UNL A   1      46.524  31.156  28.679  1.00  0.00     0.049 A 
ATOM     72  H   UNL A   1      45.183  29.544  28.456  1.00  0.00     0.167 HD
ATOM     73  C   UNL A   1      44.628  31.781  30.179  1.00  0.00     0.074 A 
ATOM     74  C   UNL A   1      43.973  32.690  31.102  1.00  0.00     0.031 C 
ATOM     75  C   UNL A   1      45.839  32.020  29.612  1.00  0.00     0.034 A 
BRANCH  62  76
ATOM     76  C   UNL A   1      47.801  27.648  25.649  1.00  0.00     0.023 A 
ATOM     77  C   UNL A   1      47.793  27.999  24.286  1.00  0.00     0.031 A 
ATOM     78  C   UNL A   1      48.811  26.782  26.098  1.00  0.00     0.131 A 
ATOM     79  C   UNL A   1      48.736  27.440  23.411  1.00  0.00     0.055 A 
ATOM     80  C   UNL A   1      49.795  26.290  25.236  1.00  0.00     0.041 A 
ATOM     81  F   UNL A   1      48.852  26.387  27.380  1.00  0.00    -0.206 F 
ATOM     82  C   UNL A   1      49.755  26.610  23.882  1.00  0.00     0.022 A 
BRANCH  79  83
ATOM     83  S   UNL A   1      48.539  27.716  21.629  1.00  0.00     0.124 S 
ATOM     84  O   UNL A   1      48.722  26.367  21.100  1.00  0.00    -0.237 OA
ATOM     85  O   UNL A   1      47.190  28.260  21.539  1.00  0.00    -0.237 OA
ATOM     86  O   UNL A   1      49.613  28.654  21.307  1.00  0.00    -0.744 OA
ENDBRANCH  79  83
ENDBRANCH  62  76
BRANCH  63  87
ATOM     87  C   UNL A   1      40.468  30.497  32.034  1.00  0.00     0.023 A 
ATOM     88  C   UNL A   1      40.665  30.357  33.417  1.00  0.00     0.031 A 
ATOM     89  C   UNL A   1      39.224  30.985  31.596  1.00  0.00     0.131 A 
ATOM     90  C   UNL A   1      39.613  30.628  34.307  1.00  0.00     0.055 A 
ATOM     91  C   UNL A   1      38.204  31.319  32.489  1.00  0.00     0.041 A 
ATOM     92  F   UNL A   1      38.979  31.148  30.285  1.00  0.00    -0.206 F 
ATOM     93  C   UNL A   1      38.389  31.121  33.853  1.00  0.00     0.022 A 
BRANCH  90  94
ATOM     94  S   UNL A   1      39.827  30.197  36.056  1.00  0.00     0.124 S 
ATOM     95  O   UNL A   1      38.448  30.200  36.532  1.00  0.00    -0.237 OA
ATOM     96  O   UNL A   1      40.474  28.893  35.969  1.00  0.00    -0.237 OA
ATOM     97  O   UNL A   1      40.667  31.277  36.570  1.00  0.00    -0.744 OA
ENDBRANCH  90  94
ENDBRANCH  63  87
BRANCH  75  98
ATOM     98  C   UNL A   1      46.498  33.325  29.974  1.00  0.00     0.023 A 
ATOM     99  C   UNL A   1      47.353  33.427  31.083  1.00  0.00     0.031 A 
ATOM    100  C   UNL A   1      46.241  34.485  29.222  1.00  0.00     0.131 A 
ATOM    101  C   UNL A   1      47.852  34.679  31.463  1.00  0.00     0.055 A 
ATOM    102  C   UNL A   1      46.806  35.714  29.558  1.00  0.00     0.041 A 
ATOM    103  F   UNL A   1      45.431  34.442  28.151  1.00  0.00    -0.206 F 
ATOM    104  C   UNL A   1      47.602  35.820  30.697  1.00  0.00     0.022 A 
BRANCH 101 105
ATOM    105  S   UNL A   1      48.720  34.814  33.048  1.00  0.00     0.124 S 
ATOM    106  O   UNL A   1      49.646  33.689  32.982  1.00  0.00    -0.237 OA
ATOM    107  O   UNL A   1      49.323  36.140  32.962  1.00  0.00    -0.237 OA
ATOM    108  O   UNL A   1      47.650  34.682  34.036  1.00  0.00    -0.744 OA
ENDBRANCH 101 105
ENDBRANCH  75  98
ENDBRANCH  49  50
ENDBRANCH  41  44
ENDBRANCH  39  40
ENDBRANCH  38  39
ENDBRANCH  37  38
ENDBRANCH  36  37
ENDBRANCH   1  36
TORSDOF 23
ENDMDL
MODEL 2
REMARK VINA RESULT:     -11.1      3.845      9.939
REMARK SMILES CC[C@@H](Oc1ccccc1/C=C1\S/C(=[NH+]\c2cccc(O)c2)N(CC)C1=O)C(=O)NCCCCCCNC(=O)c1ccc(-c2c3nc(c(-c4cc(S(=O)(=O)[O-])ccc4F)c4ccc([nH]4)c(-c4cc(S(=O)(=O)[O-])ccc4F)c4nc(c(-c5cc(S(=O)(=O)[O-])ccc5F)c5ccc2[nH]5)C=C4)C=C3)cc1
REMARK SMILES IDX 32 1 31 2 30 3 28 4 29 5 3 7 2 8 1 9 4 10 5 11 6 12 10 13
REMARK SMILES IDX 7 14 9 15 8 16 11 17 12 18 13 19 26 20 14 21 23 22 27 23
REMARK SMILES IDX 15 24 24 26 25 27 16 28 17 29 22 30 18 31 20 32 19 33 21 34
REMARK SMILES IDX 33 36 34 37 35 38 36 39 37 40 38 41 39 43 40 44 41 45 102 46
REMARK SMILES IDX 42 47 101 48 43 49 44 50 45 51 95 52 46 53 100 54 94 55
REMARK SMILES IDX 96 56 47 57 99 58 93 59 92 60 48 62 80 63 60 64 79 65 61 66
REMARK SMILES IDX 64 67 78 68 97 69 62 70 63 71 77 73 98 74 65 75 49 76 50 77
REMARK SMILES IDX 58 78 51 79 57 80 59 81 56 82 52 83 53 84 54 85 55 86 81 87
REMARK SMILES IDX 82 88 90 89 83 90 89 91 91 92 88 93 84 94 85 95 86 96 87 97
REMARK SMILES IDX 66 98 67 99 75 100 68 101 74 102 76 103 73 104 69 105 70 106
REMARK SMILES IDX 71 107 72 108
REMARK H PARENT 30 6 15 25 21 35 37 42 96 61 64 72
REMARK Flexibility Score: inf
ROOT
ATOM      1  C   UNL A   1      43.179  30.041  34.041  1.00  0.00     0.021 C 
ENDROOT
BRANCH   1   2
ATOM      2  C   UNL A   1      41.683  30.293  33.997  1.00  0.00     0.116 C 
BRANCH   2   3
ATOM      3  N   UNL A   1      40.953  29.048  33.886  1.00  0.00    -0.353 N 
ATOM      4  C   UNL A   1      39.900  28.695  33.103  1.00  0.00     0.261 C 
ATOM      5  O   UNL A   1      39.490  27.532  33.205  1.00  0.00    -0.271 OA
ATOM      6  H   UNL A   1      41.276  28.334  34.482  1.00  0.00     0.163 HD
BRANCH   4   7
ATOM      7  C   UNL A   1      39.159  29.707  32.201  1.00  0.00     0.261 C 
BRANCH   7   8
ATOM      8  C   UNL A   1      38.830  30.927  33.078  1.00  0.00     0.052 C 
ATOM      9  C   UNL A   1      38.846  32.224  32.282  1.00  0.00     0.008 C 
ENDBRANCH   7   8
BRANCH   7  10
ATOM     10  O   UNL A   1      39.950  30.160  31.112  1.00  0.00    -0.480 OA
BRANCH  10  11
ATOM     11  C   UNL A   1      39.873  29.507  29.920  1.00  0.00     0.127 A 
ATOM     12  C   UNL A   1      40.746  28.450  29.650  1.00  0.00     0.047 A 
ATOM     13  C   UNL A   1      39.047  30.045  28.914  1.00  0.00     0.018 A 
ATOM     14  C   UNL A   1      40.770  27.889  28.372  1.00  0.00     0.004 A 
ATOM     15  C   UNL A   1      39.069  29.460  27.646  1.00  0.00     0.012 A 
ATOM     16  C   UNL A   1      39.931  28.391  27.375  1.00  0.00     0.001 A 
BRANCH  13  17
ATOM     17  C   UNL A   1      38.055  31.090  29.227  1.00  0.00     0.036 C 
ATOM     18  C   UNL A   1      36.751  31.151  28.915  1.00  0.00     0.110 C 
ATOM     19  S   UNL A   1      35.721  29.964  28.241  1.00  0.00     0.007 SA
ATOM     20  C   UNL A   1      36.056  32.470  28.929  1.00  0.00     0.348 C 
ATOM     21  C   UNL A   1      34.479  31.134  27.796  1.00  0.00     0.324 C 
ATOM     22  N   UNL A   1      34.863  32.383  28.236  1.00  0.00    -0.186 N 
ATOM     23  O   UNL A   1      36.555  33.493  29.381  1.00  0.00    -0.240 OA
ATOM     24  N   UNL A   1      33.399  30.973  27.095  1.00  0.00    -0.234 N 
ATOM     25  H   UNL A   1      32.796  31.745  26.993  1.00  0.00     0.313 HD
BRANCH  22  26
ATOM     26  C   UNL A   1      34.199  33.601  27.788  1.00  0.00     0.244 C 
ATOM     27  C   UNL A   1      33.258  34.193  28.820  1.00  0.00     0.055 C 
ENDBRANCH  22  26
BRANCH  24  28
ATOM     28  C   UNL A   1      33.035  29.768  26.474  1.00  0.00     0.129 A 
ATOM     29  C   UNL A   1      33.902  29.273  24.968  1.00  0.00     0.052 A 
ATOM     30  C   UNL A   1      31.766  28.679  27.141  1.00  0.00     0.097 A 
ATOM     31  C   UNL A   1      33.534  27.647  24.177  1.00  0.00     0.008 A 
ATOM     32  C   UNL A   1      31.421  27.115  26.387  1.00  0.00     0.119 A 
ATOM     33  C   UNL A   1      32.276  26.582  24.896  1.00  0.00     0.046 A 
BRANCH  32  34
ATOM     34  O   UNL A   1      30.484  26.288  26.929  1.00  0.00    -0.508 OA
ATOM     35  H   UNL A   1      29.897  26.611  27.585  1.00  0.00     0.293 HD
ENDBRANCH  32  34
ENDBRANCH  24  28
ENDBRANCH  13  17
ENDBRANCH  10  11
ENDBRANCH   7  10
ENDBRANCH   4   7
ENDBRANCH   2   3
ENDBRANCH   1   2
BRANCH   1  36
ATOM     36  C   UNL A   1      43.655  29.831  35.465  1.00  0.00     0.002 C 
BRANCH  36  37
ATOM     37  C   UNL A   1      45.097  29.274  35.572  1.00  0.00     0.002 C 
BRANCH  37  38
ATOM     38  C   UNL A   1      45.477  27.792  36.475  1.00  0.00     0.021 C 
BRANCH  38  39
ATOM     39  C   UNL A   1      44.336  26.555  37.877  1.00  0.00     0.116 C 
BRANCH  39  40
ATOM     40  N   UNL A   1      43.228  25.346  37.559  1.00  0.00    -0.352 N 
ATOM     41  C   UNL A   1      42.655  24.964  36.378  1.00  0.00     0.251 C 
ATOM     42  H   UNL A   1      42.945  24.826  38.346  1.00  0.00     0.163 HD
ATOM     43  O   UNL A   1      41.567  24.404  36.347  1.00  0.00    -0.269 OA
BRANCH  41  44
ATOM     44  C   UNL A   1      43.427  25.199  35.163  1.00  0.00     0.039 A 
ATOM     45  C   UNL A   1      44.533  24.410  34.859  1.00  0.00     0.014 A 
ATOM     46  C   UNL A   1      42.997  26.231  34.323  1.00  0.00     0.014 A 
ATOM     47  C   UNL A   1      45.191  24.638  33.659  1.00  0.00     0.010 A 
ATOM     48  C   UNL A   1      43.584  26.384  33.089  1.00  0.00     0.010 A 
ATOM     49  C   UNL A   1      44.699  25.606  32.765  1.00  0.00    -0.014 A 
BRANCH  49  50
ATOM     50  C   UNL A   1      45.366  25.851  31.478  1.00  0.00     0.031 A 
ATOM     51  C   UNL A   1      46.295  27.021  31.354  1.00  0.00     0.074 A 
ATOM     52  C   UNL A   1      45.076  25.039  30.446  1.00  0.00     0.049 A 
ATOM     53  N   UNL A   1      46.962  27.434  30.312  1.00  0.00    -0.248 NA
ATOM     54  C   UNL A   1      46.467  27.868  32.550  1.00  0.00     0.031 C 
ATOM     55  C   UNL A   1      44.119  23.928  30.490  1.00  0.00     0.029 A 
ATOM     56  N   UNL A   1      45.556  25.013  29.168  1.00  0.00    -0.354 N 
ATOM     57  C   UNL A   1      47.632  28.579  30.728  1.00  0.00     0.074 A 
ATOM     58  C   UNL A   1      47.220  28.850  32.084  1.00  0.00     0.031 C 
ATOM     59  C   UNL A   1      44.126  23.296  29.307  1.00  0.00     0.029 A 
ATOM     60  C   UNL A   1      45.047  23.984  28.412  1.00  0.00     0.049 A 
ATOM     61  H   UNL A   1      46.205  25.668  28.822  1.00  0.00     0.167 HD
ATOM     62  C   UNL A   1      48.543  29.307  30.041  1.00  0.00     0.034 A 
ATOM     63  C   UNL A   1      45.311  23.647  27.137  1.00  0.00     0.034 A 
ATOM     64  C   UNL A   1      48.931  28.989  28.692  1.00  0.00     0.049 A 
ATOM     65  C   UNL A   1      46.332  24.475  26.399  1.00  0.00     0.074 A 
ATOM     66  C   UNL A   1      49.855  29.625  27.884  1.00  0.00     0.029 A 
ATOM     67  N   UNL A   1      48.411  27.931  27.952  1.00  0.00    -0.354 N 
ATOM     68  N   UNL A   1      47.004  25.525  26.820  1.00  0.00    -0.248 NA
ATOM     69  C   UNL A   1      46.647  24.066  25.028  1.00  0.00     0.031 C 
ATOM     70  C   UNL A   1      49.848  28.989  26.638  1.00  0.00     0.029 A 
ATOM     71  C   UNL A   1      48.978  27.910  26.690  1.00  0.00     0.049 A 
ATOM     72  H   UNL A   1      47.737  27.293  28.278  1.00  0.00     0.167 HD
ATOM     73  C   UNL A   1      47.839  25.887  25.770  1.00  0.00     0.074 A 
ATOM     74  C   UNL A   1      47.613  24.915  24.716  1.00  0.00     0.031 C 
ATOM     75  C   UNL A   1      48.708  26.927  25.666  1.00  0.00     0.034 A 
BRANCH  62  76
ATOM     76  C   UNL A   1      49.154  30.497  30.738  1.00  0.00     0.023 A 
ATOM     77  C   UNL A   1      48.594  31.783  30.626  1.00  0.00     0.031 A 
ATOM     78  C   UNL A   1      50.325  30.356  31.502  1.00  0.00     0.131 A 
ATOM     79  C   UNL A   1      49.237  32.884  31.212  1.00  0.00     0.055 A 
ATOM     80  C   UNL A   1      50.917  31.443  32.149  1.00  0.00     0.041 A 
ATOM     81  F   UNL A   1      50.923  29.160  31.621  1.00  0.00    -0.206 F 
ATOM     82  C   UNL A   1      50.379  32.718  31.998  1.00  0.00     0.022 A 
BRANCH  79  83
ATOM     83  S   UNL A   1      48.627  34.550  30.834  1.00  0.00     0.124 S 
ATOM     84  O   UNL A   1      48.876  35.246  32.094  1.00  0.00    -0.237 OA
ATOM     85  O   UNL A   1      49.464  34.946  29.709  1.00  0.00    -0.237 OA
ATOM     86  O   UNL A   1      47.217  34.335  30.518  1.00  0.00    -0.744 OA
ENDBRANCH  79  83
ENDBRANCH  62  76
BRANCH  63  87
ATOM     87  C   UNL A   1      44.618  22.496  26.489  1.00  0.00     0.023 A 
ATOM     88  C   UNL A   1      45.338  21.380  26.032  1.00  0.00     0.031 A 
ATOM     89  C   UNL A   1      43.230  22.514  26.266  1.00  0.00     0.131 A 
ATOM     90  C   UNL A   1      44.683  20.368  25.313  1.00  0.00     0.055 A 
ATOM     91  C   UNL A   1      42.571  21.472  25.613  1.00  0.00     0.041 A 
ATOM     92  F   UNL A   1      42.486  23.550  26.688  1.00  0.00    -0.206 F 
ATOM     93  C   UNL A   1      43.302  20.400  25.113  1.00  0.00     0.022 A 
BRANCH  90  94
ATOM     94  S   UNL A   1      45.686  19.076  24.529  1.00  0.00     0.124 S 
ATOM     95  O   UNL A   1      47.016  19.674  24.557  1.00  0.00    -0.237 OA
ATOM     96  O   UNL A   1      45.472  17.943  25.423  1.00  0.00    -0.237 OA
ATOM     97  O   UNL A   1      45.089  18.944  23.201  1.00  0.00    -0.744 OA
ENDBRANCH  90  94
ENDBRANCH  63  87
BRANCH  75  98
ATOM     98  C   UNL A   1      49.476  27.028  24.375  1.00  0.00     0.023 A 
ATOM     99  C   UNL A   1      50.826  26.647  24.298  1.00  0.00     0.031 A 
ATOM    100  C   UNL A   1      48.863  27.545  23.221  1.00  0.00     0.131 A 
ATOM    101  C   UNL A   1      51.544  26.868  23.117  1.00  0.00     0.055 A 
ATOM    102  C   UNL A   1      49.562  27.687  22.023  1.00  0.00     0.041 A 
ATOM    103  F   UNL A   1      47.575  27.924  23.241  1.00  0.00    -0.206 F 
ATOM    104  C   UNL A   1      50.917  27.367  21.972  1.00  0.00     0.022 A 
BRANCH 101 105
ATOM    105  S   UNL A   1      53.339  26.621  23.143  1.00  0.00     0.124 S 
ATOM    106  O   UNL A   1      53.468  25.426  23.969  1.00  0.00    -0.237 OA
ATOM    107  O   UNL A   1      53.651  26.452  21.727  1.00  0.00    -0.237 OA
ATOM    108  O   UNL A   1      53.845  27.853  23.747  1.00  0.00    -0.744 OA
ENDBRANCH 101 105
ENDBRANCH  75  98
ENDBRANCH  49  50
ENDBRANCH  41  44
ENDBRANCH  39  40
ENDBRANCH  38  39
ENDBRANCH  37  38
ENDBRANCH  36  37
ENDBRANCH   1  36
TORSDOF 23
ENDMDL
MODEL 3
REMARK VINA RESULT:     -11.0      1.340      7.449
REMARK SMILES CC[C@@H](Oc1ccccc1/C=C1\S/C(=[NH+]\c2cccc(O)c2)N(CC)C1=O)C(=O)NCCCCCCNC(=O)c1ccc(-c2c3nc(c(-c4cc(S(=O)(=O)[O-])ccc4F)c4ccc([nH]4)c(-c4cc(S(=O)(=O)[O-])ccc4F)c4nc(c(-c5cc(S(=O)(=O)[O-])ccc5F)c5ccc2[nH]5)C=C4)C=C3)cc1
REMARK SMILES IDX 32 1 31 2 30 3 28 4 29 5 3 7 2 8 1 9 4 10 5 11 6 12 10 13
REMARK SMILES IDX 7 14 9 15 8 16 11 17 12 18 13 19 26 20 14 21 23 22 27 23
REMARK SMILES IDX 15 24 24 26 25 27 16 28 17 29 22 30 18 31 20 32 19 33 21 34
REMARK SMILES IDX 33 36 34 37 35 38 36 39 37 40 38 41 39 43 40 44 41 45 102 46
REMARK SMILES IDX 42 47 101 48 43 49 44 50 45 51 95 52 46 53 100 54 94 55
REMARK SMILES IDX 96 56 47 57 99 58 93 59 92 60 48 62 80 63 60 64 79 65 61 66
REMARK SMILES IDX 64 67 78 68 97 69 62 70 63 71 77 73 98 74 65 75 49 76 50 77
REMARK SMILES IDX 58 78 51 79 57 80 59 81 56 82 52 83 53 84 54 85 55 86 81 87
REMARK SMILES IDX 82 88 90 89 83 90 89 91 91 92 88 93 84 94 85 95 86 96 87 97
REMARK SMILES IDX 66 98 67 99 75 100 68 101 74 102 76 103 73 104 69 105 70 106
REMARK SMILES IDX 71 107 72 108
REMARK H PARENT 30 6 15 25 21 35 37 42 96 61 64 72
REMARK Flexibility Score: inf
ROOT
ATOM      1  C   UNL A   1      31.922  25.861  25.098  1.00  0.00     0.021 C 
ENDROOT
BRANCH   1   2
ATOM      2  C   UNL A   1      32.373  26.082  26.529  1.00  0.00     0.116 C 
BRANCH   2   3
ATOM      3  N   UNL A   1      31.680  27.207  27.120  1.00  0.00    -0.353 N 
ATOM      4  C   UNL A   1      31.961  28.536  27.111  1.00  0.00     0.261 C 
ATOM      5  O   UNL A   1      31.163  29.283  27.690  1.00  0.00    -0.271 OA
ATOM      6  H   UNL A   1      30.863  26.967  27.615  1.00  0.00     0.163 HD
BRANCH   4   7
ATOM      7  C   UNL A   1      33.266  29.106  26.510  1.00  0.00     0.261 C 
BRANCH   7   8
ATOM      8  C   UNL A   1      32.898  29.716  25.147  1.00  0.00     0.052 C 
ATOM      9  C   UNL A   1      33.456  28.903  23.987  1.00  0.00     0.008 C 
ENDBRANCH   7   8
BRANCH   7  10
ATOM     10  O   UNL A   1      33.837  30.136  27.303  1.00  0.00    -0.480 OA
BRANCH  10  11
ATOM     11  C   UNL A   1      35.177  30.124  27.541  1.00  0.00     0.127 A 
ATOM     12  C   UNL A   1      35.919  28.970  27.278  1.00  0.00     0.047 A 
ATOM     13  C   UNL A   1      35.744  31.212  28.233  1.00  0.00     0.018 A 
ATOM     14  C   UNL A   1      37.257  28.910  27.669  1.00  0.00     0.004 A 
ATOM     15  C   UNL A   1      37.090  31.144  28.602  1.00  0.00     0.012 A 
ATOM     16  C   UNL A   1      37.841  29.995  28.326  1.00  0.00     0.001 A 
BRANCH  13  17
ATOM     17  C   UNL A   1      34.992  32.467  28.418  1.00  0.00     0.036 C 
ATOM     18  C   UNL A   1      35.049  33.358  29.420  1.00  0.00     0.110 C 
ATOM     19  S   UNL A   1      36.151  33.484  30.722  1.00  0.00     0.007 SA
ATOM     20  C   UNL A   1      33.909  34.294  29.634  1.00  0.00     0.348 C 
ATOM     21  C   UNL A   1      35.110  34.570  31.643  1.00  0.00     0.324 C 
ATOM     22  N   UNL A   1      33.986  34.852  30.896  1.00  0.00    -0.186 N 
ATOM     23  O   UNL A   1      32.984  34.427  28.842  1.00  0.00    -0.240 OA
ATOM     24  N   UNL A   1      35.237  35.012  32.856  1.00  0.00    -0.234 N 
ATOM     25  H   UNL A   1      34.570  35.658  33.184  1.00  0.00     0.313 HD
BRANCH  22  26
ATOM     26  C   UNL A   1      32.809  35.489  31.476  1.00  0.00     0.244 C 
ATOM     27  C   UNL A   1      32.797  36.997  31.318  1.00  0.00     0.055 C 
ENDBRANCH  22  26
BRANCH  24  28
ATOM     28  C   UNL A   1      36.267  34.629  33.730  1.00  0.00     0.129 A 
ATOM     29  C   UNL A   1      37.975  35.002  33.274  1.00  0.00     0.052 A 
ATOM     30  C   UNL A   1      35.948  33.817  35.306  1.00  0.00     0.097 A 
ATOM     31  C   UNL A   1      39.353  34.616  34.439  1.00  0.00     0.008 A 
ATOM     32  C   UNL A   1      37.270  33.457  36.427  1.00  0.00     0.119 A 
ATOM     33  C   UNL A   1      38.982  33.829  36.012  1.00  0.00     0.046 A 
BRANCH  32  34
ATOM     34  O   UNL A   1      37.005  32.877  37.631  1.00  0.00    -0.508 OA
ATOM     35  H   UNL A   1      36.348  33.241  38.191  1.00  0.00     0.293 HD
ENDBRANCH  32  34
ENDBRANCH  24  28
ENDBRANCH  13  17
ENDBRANCH  10  11
ENDBRANCH   7  10
ENDBRANCH   4   7
ENDBRANCH   2   3
ENDBRANCH   1   2
BRANCH   1  36
ATOM     36  C   UNL A   1      33.010  25.189  24.281  1.00  0.00     0.002 C 
BRANCH  36  37
ATOM     37  C   UNL A   1      34.427  25.315  24.894  1.00  0.00     0.002 C 
BRANCH  37  38
ATOM     38  C   UNL A   1      35.378  23.896  25.384  1.00  0.00     0.021 C 
BRANCH  38  39
ATOM     39  C   UNL A   1      37.418  23.646  26.143  1.00  0.00     0.116 C 
BRANCH  39  40
ATOM     40  N   UNL A   1      38.270  22.240  26.438  1.00  0.00    -0.352 N 
ATOM     41  C   UNL A   1      39.618  22.029  26.532  1.00  0.00     0.251 C 
ATOM     42  H   UNL A   1      37.714  21.437  26.566  1.00  0.00     0.163 HD
ATOM     43  O   UNL A   1      40.111  20.933  26.299  1.00  0.00    -0.269 OA
BRANCH  41  44
ATOM     44  C   UNL A   1      40.432  23.153  26.982  1.00  0.00     0.039 A 
ATOM     45  C   UNL A   1      41.303  23.014  28.059  1.00  0.00     0.014 A 
ATOM     46  C   UNL A   1      40.308  24.354  26.277  1.00  0.00     0.014 A 
ATOM     47  C   UNL A   1      42.098  24.098  28.403  1.00  0.00     0.010 A 
ATOM     48  C   UNL A   1      41.171  25.388  26.550  1.00  0.00     0.010 A 
ATOM     49  C   UNL A   1      42.050  25.273  27.631  1.00  0.00    -0.014 A 
BRANCH  49  50
ATOM     50  C   UNL A   1      42.899  26.427  27.962  1.00  0.00     0.031 A 
ATOM     51  C   UNL A   1      42.408  27.422  28.969  1.00  0.00     0.074 A 
ATOM     52  C   UNL A   1      44.065  26.567  27.308  1.00  0.00     0.049 A 
ATOM     53  N   UNL A   1      42.979  28.519  29.386  1.00  0.00    -0.248 NA
ATOM     54  C   UNL A   1      41.078  27.177  29.558  1.00  0.00     0.031 C 
ATOM     55  C   UNL A   1      44.558  25.666  26.260  1.00  0.00     0.029 A 
ATOM     56  N   UNL A   1      45.048  27.507  27.427  1.00  0.00    -0.354 N 
ATOM     57  C   UNL A   1      42.083  29.087  30.285  1.00  0.00     0.074 A 
ATOM     58  C   UNL A   1      40.895  28.268  30.283  1.00  0.00     0.031 C 
ATOM     59  C   UNL A   1      45.778  26.069  25.874  1.00  0.00     0.029 A 
ATOM     60  C   UNL A   1      46.128  27.278  26.608  1.00  0.00     0.049 A 
ATOM     61  H   UNL A   1      44.990  28.274  28.041  1.00  0.00     0.167 HD
ATOM     62  C   UNL A   1      42.266  30.174  31.069  1.00  0.00     0.034 A 
ATOM     63  C   UNL A   1      47.270  27.978  26.480  1.00  0.00     0.034 A 
ATOM     64  C   UNL A   1      43.476  30.953  31.044  1.00  0.00     0.049 A 
ATOM     65  C   UNL A   1      47.446  29.182  27.370  1.00  0.00     0.074 A 
ATOM     66  C   UNL A   1      43.808  32.063  31.797  1.00  0.00     0.029 A 
ATOM     67  N   UNL A   1      44.563  30.691  30.215  1.00  0.00    -0.354 N 
ATOM     68  N   UNL A   1      46.614  29.680  28.260  1.00  0.00    -0.248 NA
ATOM     69  C   UNL A   1      48.715  29.905  27.258  1.00  0.00     0.031 C 
ATOM     70  C   UNL A   1      45.067  32.507  31.380  1.00  0.00     0.029 A 
ATOM     71  C   UNL A   1      45.557  31.632  30.423  1.00  0.00     0.049 A 
ATOM     72  H   UNL A   1      44.616  29.946  29.574  1.00  0.00     0.167 HD
ATOM     73  C   UNL A   1      47.272  30.764  28.829  1.00  0.00     0.074 A 
ATOM     74  C   UNL A   1      48.584  30.815  28.209  1.00  0.00     0.031 C 
ATOM     75  C   UNL A   1      46.844  31.649  29.767  1.00  0.00     0.034 A 
BRANCH  62  76
ATOM     76  C   UNL A   1      41.139  30.567  31.992  1.00  0.00     0.023 A 
ATOM     77  C   UNL A   1      41.201  30.320  33.376  1.00  0.00     0.031 A 
ATOM     78  C   UNL A   1      39.976  31.170  31.485  1.00  0.00     0.131 A 
ATOM     79  C   UNL A   1      40.100  30.616  34.193  1.00  0.00     0.055 A 
ATOM     80  C   UNL A   1      38.914  31.535  32.316  1.00  0.00     0.041 A 
ATOM     81  F   UNL A   1      39.845  31.402  30.169  1.00  0.00    -0.206 F 
ATOM     82  C   UNL A   1      38.967  31.249  33.677  1.00  0.00     0.022 A 
BRANCH  79  83
ATOM     83  S   UNL A   1      40.121  30.054  35.918  1.00  0.00     0.124 S 
ATOM     84  O   UNL A   1      40.953  31.074  36.549  1.00  0.00    -0.237 OA
ATOM     85  O   UNL A   1      38.707  30.071  36.274  1.00  0.00    -0.237 OA
ATOM     86  O   UNL A   1      40.727  28.726  35.837  1.00  0.00    -0.744 OA
ENDBRANCH  79  83
ENDBRANCH  62  76
BRANCH  63  87
ATOM     87  C   UNL A   1      48.315  27.569  25.499  1.00  0.00     0.023 A 
ATOM     88  C   UNL A   1      48.227  27.944  24.148  1.00  0.00     0.031 A 
ATOM     89  C   UNL A   1      49.392  26.750  25.882  1.00  0.00     0.131 A 
ATOM     90  C   UNL A   1      49.153  27.443  23.219  1.00  0.00     0.055 A 
ATOM     91  C   UNL A   1      50.350  26.311  24.966  1.00  0.00     0.041 A 
ATOM     92  F   UNL A   1      49.534  26.365  27.160  1.00  0.00    -0.206 F 
ATOM     93  C   UNL A   1      50.221  26.641  23.621  1.00  0.00     0.022 A 
BRANCH  90  94
ATOM     94  S   UNL A   1      48.859  27.749  21.455  1.00  0.00     0.124 S 
ATOM     95  O   UNL A   1      47.412  27.921  21.421  1.00  0.00    -0.237 OA
ATOM     96  O   UNL A   1      49.655  28.949  21.220  1.00  0.00    -0.237 OA
ATOM     97  O   UNL A   1      49.359  26.534  20.814  1.00  0.00    -0.744 OA
ENDBRANCH  90  94
ENDBRANCH  63  87
BRANCH  75  98
ATOM     98  C   UNL A   1      47.825  32.716  30.175  1.00  0.00     0.023 A 
ATOM     99  C   UNL A   1      47.906  33.935  29.481  1.00  0.00     0.031 A 
ATOM    100  C   UNL A   1      48.711  32.498  31.244  1.00  0.00     0.131 A 
ATOM    101  C   UNL A   1      48.910  34.855  29.808  1.00  0.00     0.055 A 
ATOM    102  C   UNL A   1      49.656  33.453  31.617  1.00  0.00     0.041 A 
ATOM    103  F   UNL A   1      48.675  31.351  31.941  1.00  0.00    -0.206 F 
ATOM    104  C   UNL A   1      49.772  34.633  30.884  1.00  0.00     0.022 A 
BRANCH 101 105
ATOM    105  S   UNL A   1      49.155  36.283  28.719  1.00  0.00     0.124 S 
ATOM    106  O   UNL A   1      49.978  35.715  27.657  1.00  0.00    -0.237 OA
ATOM    107  O   UNL A   1      47.787  36.630  28.347  1.00  0.00    -0.237 OA
ATOM    108  O   UNL A   1      49.830  37.255  29.577  1.00  0.00    -0.744 OA
ENDBRANCH 101 105
ENDBRANCH  75  98
ENDBRANCH  49  50
ENDBRANCH  41  44
ENDBRANCH  39  40
ENDBRANCH  38  39
ENDBRANCH  37  38
ENDBRANCH  36  37
ENDBRANCH   1  36
TORSDOF 23
ENDMDL
