MODEL 1
REMARK VINA RESULT:      -9.9      0.000      0.000
REMARK SMILES CCNS(=O)(=O)c1ccc(CC(=O)NCCCCCCNC(=O)c2ccc(-c3c4nc(c(-c5cc(S(=O)(=O)[O-])ccc5F)c5ccc([nH]5)c(-c5cc(S(=O)(=O)[O-])ccc5F)c5nc(c(-c6cc(S(=O)(=O)[O-])ccc6F)c6ccc3[nH]6)C=C5)C=C4)cc2)cc1
REMARK SMILES IDX 17 1 16 2 15 3 14 4 12 5 13 6 11 8 10 9 7 10 8 11 88 12 9 13
REMARK SMILES IDX 87 14 4 15 5 16 6 17 3 18 2 20 1 21 18 22 19 23 20 24 21 25
REMARK SMILES IDX 22 26 23 28 24 29 25 30 86 31 26 32 85 33 27 34 28 35 29 36
REMARK SMILES IDX 79 37 30 38 84 39 78 40 80 41 31 42 83 43 77 44 76 45 32 47
REMARK SMILES IDX 64 48 44 49 63 50 45 51 48 52 62 53 81 54 46 55 47 56 61 58
REMARK SMILES IDX 82 59 49 60 33 61 34 62 42 63 35 64 41 65 43 66 40 67 36 68
REMARK SMILES IDX 37 69 38 70 39 71 65 72 66 73 74 74 67 75 73 76 75 77 72 78
REMARK SMILES IDX 68 79 69 80 70 81 71 82 50 83 51 84 59 85 52 86 58 87 60 88
REMARK SMILES IDX 57 89 53 90 54 91 55 92 56 93
REMARK H PARENT 14 7 3 19 21 27 80 46 48 57
REMARK Flexibility Score: inf
ROOT
ATOM      1  C   UNL A   1      39.617  22.349  26.507  1.00  0.00     0.002 C 
ENDROOT
BRANCH   1   2
ATOM      2  C   UNL A   1      39.023  23.764  26.526  1.00  0.00     0.021 C 
BRANCH   2   3
ATOM      3  C   UNL A   1      37.546  23.820  26.130  1.00  0.00     0.116 C 
BRANCH   3   4
ATOM      4  N   UNL A   1      37.385  23.781  24.688  1.00  0.00    -0.356 N 
ATOM      5  C   UNL A   1      36.331  23.327  23.949  1.00  0.00     0.224 C 
ATOM      6  O   UNL A   1      36.448  23.282  22.723  1.00  0.00    -0.275 OA
ATOM      7  H   UNL A   1      38.145  24.132  24.169  1.00  0.00     0.163 HD
BRANCH   5   8
ATOM      8  C   UNL A   1      35.027  22.950  24.630  1.00  0.00     0.135 C 
BRANCH   8   9
ATOM      9  C   UNL A   1      34.717  21.471  24.623  1.00  0.00    -0.039 A 
ATOM     10  C   UNL A   1      34.201  18.725  24.556  1.00  0.00     0.082 A 
ATOM     11  C   UNL A   1      33.182  19.625  24.239  1.00  0.00     0.022 A 
ATOM     12  C   UNL A   1      35.476  19.183  24.892  1.00  0.00     0.022 A 
ATOM     13  C   UNL A   1      33.444  20.999  24.270  1.00  0.00     0.005 A 
ATOM     14  C   UNL A   1      35.720  20.551  24.963  1.00  0.00     0.005 A 
BRANCH  10  15
ATOM     15  S   UNL A   1      33.926  16.977  24.466  1.00  0.00     0.240 S 
ATOM     16  O   UNL A   1      35.206  16.311  24.534  1.00  0.00    -0.207 OA
ATOM     17  O   UNL A   1      32.992  16.721  23.389  1.00  0.00    -0.207 OA
BRANCH  15  18
ATOM     18  N   UNL A   1      33.077  16.655  25.887  1.00  0.00    -0.211 NA
ATOM     19  H   UNL A   1      33.759  16.353  26.584  1.00  0.00     0.141 HD
BRANCH  18  20
ATOM     20  C   UNL A   1      32.015  15.645  25.853  1.00  0.00     0.095 C 
ATOM     21  C   UNL A   1      32.631  14.265  25.712  1.00  0.00     0.022 C 
ENDBRANCH  18  20
ENDBRANCH  15  18
ENDBRANCH  10  15
ENDBRANCH   8   9
ENDBRANCH   5   8
ENDBRANCH   3   4
ENDBRANCH   2   3
ENDBRANCH   1   2
BRANCH   1  22
ATOM     22  C   UNL A   1      38.817  21.317  25.703  1.00  0.00     0.002 C 
BRANCH  22  23
ATOM     23  C   UNL A   1      39.401  19.902  25.696  1.00  0.00     0.021 C 
BRANCH  23  24
ATOM     24  C   UNL A   1      40.540  19.675  26.685  1.00  0.00     0.116 C 
BRANCH  24  25
ATOM     25  N   UNL A   1      41.707  19.089  26.045  1.00  0.00    -0.352 N 
ATOM     26  C   UNL A   1      42.866  19.692  25.621  1.00  0.00     0.251 C 
ATOM     27  H   UNL A   1      41.659  18.118  25.893  1.00  0.00     0.163 HD
ATOM     28  O   UNL A   1      43.651  19.066  24.914  1.00  0.00    -0.269 OA
BRANCH  26  29
ATOM     29  C   UNL A   1      43.154  21.095  25.994  1.00  0.00     0.039 A 
ATOM     30  C   UNL A   1      43.427  21.397  27.331  1.00  0.00     0.014 A 
ATOM     31  C   UNL A   1      43.139  22.112  25.035  1.00  0.00     0.014 A 
ATOM     32  C   UNL A   1      43.747  22.708  27.695  1.00  0.00     0.010 A 
ATOM     33  C   UNL A   1      43.522  23.406  25.389  1.00  0.00     0.010 A 
ATOM     34  C   UNL A   1      43.830  23.717  26.722  1.00  0.00    -0.014 A 
BRANCH  34  35
ATOM     35  C   UNL A   1      44.241  25.100  27.079  1.00  0.00     0.031 A 
ATOM     36  C   UNL A   1      43.233  26.069  27.638  1.00  0.00     0.074 A 
ATOM     37  C   UNL A   1      45.505  25.502  26.839  1.00  0.00     0.049 A 
ATOM     38  N   UNL A   1      43.377  27.335  27.934  1.00  0.00    -0.248 NA
ATOM     39  C   UNL A   1      41.877  25.549  27.864  1.00  0.00     0.031 C 
ATOM     40  C   UNL A   1      46.561  24.667  26.263  1.00  0.00     0.029 A 
ATOM     41  N   UNL A   1      46.114  26.717  27.035  1.00  0.00    -0.354 N 
ATOM     42  C   UNL A   1      42.129  27.768  28.368  1.00  0.00     0.074 A 
ATOM     43  C   UNL A   1      41.229  26.641  28.240  1.00  0.00     0.031 C 
ATOM     44  C   UNL A   1      47.689  25.388  26.170  1.00  0.00     0.029 A 
ATOM     45  C   UNL A   1      47.430  26.747  26.635  1.00  0.00     0.049 A 
ATOM     46  H   UNL A   1      45.653  27.494  27.426  1.00  0.00     0.167 HD
ATOM     47  C   UNL A   1      41.771  28.987  28.845  1.00  0.00     0.034 A 
ATOM     48  C   UNL A   1      48.323  27.757  26.628  1.00  0.00     0.034 A 
ATOM     49  C   UNL A   1      42.685  30.097  28.976  1.00  0.00     0.049 A 
ATOM     50  C   UNL A   1      47.899  29.107  27.148  1.00  0.00     0.074 A 
ATOM     51  C   UNL A   1      42.444  31.354  29.504  1.00  0.00     0.029 A 
ATOM     52  N   UNL A   1      44.012  30.088  28.567  1.00  0.00    -0.354 N 
ATOM     53  N   UNL A   1      46.728  29.486  27.605  1.00  0.00    -0.248 NA
ATOM     54  C   UNL A   1      48.921  30.161  27.163  1.00  0.00     0.031 C 
ATOM     55  C   UNL A   1      43.603  32.124  29.352  1.00  0.00     0.029 A 
ATOM     56  C   UNL A   1      44.592  31.327  28.800  1.00  0.00     0.049 A 
ATOM     57  H   UNL A   1      44.474  29.316  28.168  1.00  0.00     0.167 HD
ATOM     58  C   UNL A   1      46.881  30.815  27.988  1.00  0.00     0.074 A 
ATOM     59  C   UNL A   1      48.263  31.166  27.722  1.00  0.00     0.031 C 
ATOM     60  C   UNL A   1      45.966  31.668  28.516  1.00  0.00     0.034 A 
BRANCH  47  61
ATOM     61  C   UNL A   1      40.324  29.184  29.233  1.00  0.00     0.023 A 
ATOM     62  C   UNL A   1      39.910  29.171  30.577  1.00  0.00     0.031 A 
ATOM     63  C   UNL A   1      39.339  29.360  28.245  1.00  0.00     0.131 A 
ATOM     64  C   UNL A   1      38.545  29.251  30.891  1.00  0.00     0.055 A 
ATOM     65  C   UNL A   1      37.991  29.522  28.569  1.00  0.00     0.041 A 
ATOM     66  F   UNL A   1      39.668  29.363  26.943  1.00  0.00    -0.206 F 
ATOM     67  C   UNL A   1      37.584  29.453  29.898  1.00  0.00     0.022 A 
BRANCH  64  68
ATOM     68  S   UNL A   1      38.031  28.944  32.604  1.00  0.00     0.124 S 
ATOM     69  O   UNL A   1      39.058  29.665  33.353  1.00  0.00    -0.237 OA
ATOM     70  O   UNL A   1      36.693  29.521  32.639  1.00  0.00    -0.237 OA
ATOM     71  O   UNL A   1      38.088  27.489  32.723  1.00  0.00    -0.744 OA
ENDBRANCH  64  68
ENDBRANCH  47  61
BRANCH  48  72
ATOM     72  C   UNL A   1      49.700  27.541  26.102  1.00  0.00     0.023 A 
ATOM     73  C   UNL A   1      49.993  27.725  24.741  1.00  0.00     0.031 A 
ATOM     74  C   UNL A   1      50.738  27.110  26.947  1.00  0.00     0.131 A 
ATOM     75  C   UNL A   1      51.278  27.437  24.257  1.00  0.00     0.055 A 
ATOM     76  C   UNL A   1      52.029  26.875  26.470  1.00  0.00     0.041 A 
ATOM     77  F   UNL A   1      50.515  26.926  28.258  1.00  0.00    -0.206 F 
ATOM     78  C   UNL A   1      52.302  27.026  25.114  1.00  0.00     0.022 A 
BRANCH  75  79
ATOM     79  S   UNL A   1      51.574  27.532  22.470  1.00  0.00     0.124 S 
ATOM     80  O   UNL A   1      50.299  27.072  21.931  1.00  0.00    -0.237 OA
ATOM     81  O   UNL A   1      51.874  28.949  22.288  1.00  0.00    -0.237 OA
ATOM     82  O   UNL A   1      52.704  26.628  22.264  1.00  0.00    -0.744 OA
ENDBRANCH  75  79
ENDBRANCH  48  72
BRANCH  60  83
ATOM     83  C   UNL A   1      46.450  33.051  28.879  1.00  0.00     0.023 A 
ATOM     84  C   UNL A   1      46.465  34.099  27.943  1.00  0.00     0.031 A 
ATOM     85  C   UNL A   1      46.917  33.317  30.179  1.00  0.00     0.131 A 
ATOM     86  C   UNL A   1      46.988  35.351  28.304  1.00  0.00     0.055 A 
ATOM     87  C   UNL A   1      47.380  34.579  30.550  1.00  0.00     0.041 A 
ATOM     88  F   UNL A   1      46.928  32.351  31.111  1.00  0.00    -0.206 F 
ATOM     89  C   UNL A   1      47.430  35.602  29.606  1.00  0.00     0.022 A 
BRANCH  86  90
ATOM     90  S   UNL A   1      47.166  36.624  27.024  1.00  0.00     0.124 S 
ATOM     91  O   UNL A   1      46.866  37.844  27.767  1.00  0.00    -0.237 OA
ATOM     92  O   UNL A   1      48.554  36.457  26.607  1.00  0.00    -0.237 OA
ATOM     93  O   UNL A   1      46.168  36.247  26.024  1.00  0.00    -0.744 OA
ENDBRANCH  86  90
ENDBRANCH  60  83
ENDBRANCH  34  35
ENDBRANCH  26  29
ENDBRANCH  24  25
ENDBRANCH  23  24
ENDBRANCH  22  23
ENDBRANCH   1  22
TORSDOF 20
ENDMDL
MODEL 2
REMARK VINA RESULT:      -9.7      4.168     10.689
REMARK SMILES CCNS(=O)(=O)c1ccc(CC(=O)NCCCCCCNC(=O)c2ccc(-c3c4nc(c(-c5cc(S(=O)(=O)[O-])ccc5F)c5ccc([nH]5)c(-c5cc(S(=O)(=O)[O-])ccc5F)c5nc(c(-c6cc(S(=O)(=O)[O-])ccc6F)c6ccc3[nH]6)C=C5)C=C4)cc2)cc1
REMARK SMILES IDX 17 1 16 2 15 3 14 4 12 5 13 6 11 8 10 9 7 10 8 11 88 12 9 13
REMARK SMILES IDX 87 14 4 15 5 16 6 17 3 18 2 20 1 21 18 22 19 23 20 24 21 25
REMARK SMILES IDX 22 26 23 28 24 29 25 30 86 31 26 32 85 33 27 34 28 35 29 36
REMARK SMILES IDX 79 37 30 38 84 39 78 40 80 41 31 42 83 43 77 44 76 45 32 47
REMARK SMILES IDX 64 48 44 49 63 50 45 51 48 52 62 53 81 54 46 55 47 56 61 58
REMARK SMILES IDX 82 59 49 60 33 61 34 62 42 63 35 64 41 65 43 66 40 67 36 68
REMARK SMILES IDX 37 69 38 70 39 71 65 72 66 73 74 74 67 75 73 76 75 77 72 78
REMARK SMILES IDX 68 79 69 80 70 81 71 82 50 83 51 84 59 85 52 86 58 87 60 88
REMARK SMILES IDX 57 89 53 90 54 91 55 92 56 93
REMARK H PARENT 14 7 3 19 21 27 80 46 48 57
REMARK Flexibility Score: inf
ROOT
ATOM      1  C   UNL A   1      44.230  23.397  27.254  1.00  0.00     0.002 C 
ENDROOT
BRANCH   1   2
ATOM      2  C   UNL A   1      43.501  23.318  28.602  1.00  0.00     0.021 C 
BRANCH   2   3
ATOM      3  C   UNL A   1      44.359  23.746  29.795  1.00  0.00     0.116 C 
BRANCH   3   4
ATOM      4  N   UNL A   1      43.855  23.183  31.035  1.00  0.00    -0.356 N 
ATOM      5  C   UNL A   1      44.197  23.484  32.321  1.00  0.00     0.224 C 
ATOM      6  O   UNL A   1      43.723  22.801  33.232  1.00  0.00    -0.275 OA
ATOM      7  H   UNL A   1      43.168  22.484  30.933  1.00  0.00     0.163 HD
BRANCH   5   8
ATOM      8  C   UNL A   1      45.091  24.676  32.615  1.00  0.00     0.135 C 
BRANCH   8   9
ATOM      9  C   UNL A   1      44.361  25.990  32.758  1.00  0.00    -0.039 A 
ATOM     10  C   UNL A   1      42.941  28.384  33.026  1.00  0.00     0.082 A 
ATOM     11  C   UNL A   1      43.726  28.171  31.891  1.00  0.00     0.022 A 
ATOM     12  C   UNL A   1      42.848  27.407  34.019  1.00  0.00     0.022 A 
ATOM     13  C   UNL A   1      44.433  26.973  31.758  1.00  0.00     0.005 A 
ATOM     14  C   UNL A   1      43.586  26.234  33.902  1.00  0.00     0.005 A 
BRANCH  10  15
ATOM     15  S   UNL A   1      41.981  29.863  33.200  1.00  0.00     0.240 S 
ATOM     16  O   UNL A   1      42.780  30.979  32.752  1.00  0.00    -0.207 OA
ATOM     17  O   UNL A   1      41.362  29.848  34.510  1.00  0.00    -0.207 OA
BRANCH  15  18
ATOM     18  N   UNL A   1      40.723  29.627  32.102  1.00  0.00    -0.211 NA
ATOM     19  H   UNL A   1      39.995  30.306  32.327  1.00  0.00     0.141 HD
BRANCH  18  20
ATOM     20  C   UNL A   1      40.084  28.309  32.045  1.00  0.00     0.095 C 
ATOM     21  C   UNL A   1      38.649  28.419  32.526  1.00  0.00     0.022 C 
ENDBRANCH  18  20
ENDBRANCH  15  18
ENDBRANCH  10  15
ENDBRANCH   8   9
ENDBRANCH   5   8
ENDBRANCH   3   4
ENDBRANCH   2   3
ENDBRANCH   1   2
BRANCH   1  22
ATOM     22  C   UNL A   1      43.939  22.243  26.288  1.00  0.00     0.002 C 
BRANCH  22  23
ATOM     23  C   UNL A   1      42.497  22.165  25.780  1.00  0.00     0.021 C 
BRANCH  23  24
ATOM     24  C   UNL A   1      41.508  21.536  26.757  1.00  0.00     0.116 C 
BRANCH  24  25
ATOM     25  N   UNL A   1      40.156  21.512  26.223  1.00  0.00    -0.352 N 
ATOM     26  C   UNL A   1      39.185  22.483  26.256  1.00  0.00     0.251 C 
ATOM     27  H   UNL A   1      39.898  20.676  25.771  1.00  0.00     0.163 HD
ATOM     28  O   UNL A   1      38.035  22.200  25.933  1.00  0.00    -0.269 OA
BRANCH  26  29
ATOM     29  C   UNL A   1      39.520  23.854  26.702  1.00  0.00     0.039 A 
ATOM     30  C   UNL A   1      39.297  24.204  28.036  1.00  0.00     0.014 A 
ATOM     31  C   UNL A   1      40.033  24.797  25.807  1.00  0.00     0.014 A 
ATOM     32  C   UNL A   1      39.650  25.479  28.487  1.00  0.00     0.010 A 
ATOM     33  C   UNL A   1      40.444  26.046  26.273  1.00  0.00     0.010 A 
ATOM     34  C   UNL A   1      40.257  26.399  27.618  1.00  0.00    -0.014 A 
BRANCH  34  35
ATOM     35  C   UNL A   1      40.706  27.733  28.098  1.00  0.00     0.031 A 
ATOM     36  C   UNL A   1      42.175  28.048  28.193  1.00  0.00     0.074 A 
ATOM     37  C   UNL A   1      39.792  28.635  28.509  1.00  0.00     0.049 A 
ATOM     38  N   UNL A   1      42.764  29.119  28.661  1.00  0.00    -0.248 NA
ATOM     39  C   UNL A   1      43.102  27.006  27.729  1.00  0.00     0.031 C 
ATOM     40  C   UNL A   1      38.342  28.430  28.502  1.00  0.00     0.029 A 
ATOM     41  N   UNL A   1      39.945  29.898  29.025  1.00  0.00    -0.354 N 
ATOM     42  C   UNL A   1      44.129  28.875  28.560  1.00  0.00     0.074 A 
ATOM     43  C   UNL A   1      44.277  27.532  28.041  1.00  0.00     0.031 C 
ATOM     44  C   UNL A   1      37.741  29.533  28.973  1.00  0.00     0.029 A 
ATOM     45  C   UNL A   1      38.758  30.507  29.357  1.00  0.00     0.049 A 
ATOM     46  H   UNL A   1      40.823  30.328  29.144  1.00  0.00     0.167 HD
ATOM     47  C   UNL A   1      45.163  29.703  28.857  1.00  0.00     0.034 A 
ATOM     48  C   UNL A   1      38.515  31.707  29.922  1.00  0.00     0.034 A 
ATOM     49  C   UNL A   1      44.998  31.045  29.364  1.00  0.00     0.049 A 
ATOM     50  C   UNL A   1      39.680  32.603  30.259  1.00  0.00     0.074 A 
ATOM     51  C   UNL A   1      45.972  31.989  29.639  1.00  0.00     0.029 A 
ATOM     52  N   UNL A   1      43.779  31.630  29.682  1.00  0.00    -0.354 N 
ATOM     53  N   UNL A   1      40.964  32.379  30.108  1.00  0.00    -0.248 NA
ATOM     54  C   UNL A   1      39.360  33.918  30.828  1.00  0.00     0.031 C 
ATOM     55  C   UNL A   1      45.349  33.117  30.186  1.00  0.00     0.029 A 
ATOM     56  C   UNL A   1      43.980  32.909  30.182  1.00  0.00     0.049 A 
ATOM     57  H   UNL A   1      42.901  31.200  29.571  1.00  0.00     0.167 HD
ATOM     58  C   UNL A   1      41.605  33.537  30.538  1.00  0.00     0.074 A 
ATOM     59  C   UNL A   1      40.563  34.461  30.940  1.00  0.00     0.031 C 
ATOM     60  C   UNL A   1      42.933  33.815  30.593  1.00  0.00     0.034 A 
BRANCH  47  61
ATOM     61  C   UNL A   1      46.562  29.164  28.663  1.00  0.00     0.023 A 
ATOM     62  C   UNL A   1      47.100  28.945  27.383  1.00  0.00     0.031 A 
ATOM     63  C   UNL A   1      47.360  28.838  29.774  1.00  0.00     0.131 A 
ATOM     64  C   UNL A   1      48.361  28.345  27.244  1.00  0.00     0.055 A 
ATOM     65  C   UNL A   1      48.647  28.318  29.630  1.00  0.00     0.041 A 
ATOM     66  F   UNL A   1      46.896  29.007  31.023  1.00  0.00    -0.206 F 
ATOM     67  C   UNL A   1      49.149  28.053  28.359  1.00  0.00     0.022 A 
BRANCH  64  68
ATOM     68  S   UNL A   1      48.893  27.820  25.592  1.00  0.00     0.124 S 
ATOM     69  O   UNL A   1      50.099  28.623  25.402  1.00  0.00    -0.237 OA
ATOM     70  O   UNL A   1      49.102  26.388  25.769  1.00  0.00    -0.237 OA
ATOM     71  O   UNL A   1      47.768  28.187  24.736  1.00  0.00    -0.744 OA
ENDBRANCH  64  68
ENDBRANCH  47  61
BRANCH  48  72
ATOM     72  C   UNL A   1      37.117  32.130  30.220  1.00  0.00     0.023 A 
ATOM     73  C   UNL A   1      36.323  32.747  29.241  1.00  0.00     0.031 A 
ATOM     74  C   UNL A   1      36.567  31.956  31.503  1.00  0.00     0.131 A 
ATOM     75  C   UNL A   1      35.040  33.208  29.570  1.00  0.00     0.055 A 
ATOM     76  C   UNL A   1      35.270  32.370  31.812  1.00  0.00     0.041 A 
ATOM     77  F   UNL A   1      37.281  31.365  32.474  1.00  0.00    -0.206 F 
ATOM     78  C   UNL A   1      34.502  33.013  30.845  1.00  0.00     0.022 A 
BRANCH  75  79
ATOM     79  S   UNL A   1      34.106  34.142  28.326  1.00  0.00     0.124 S 
ATOM     80  O   UNL A   1      33.057  33.195  27.968  1.00  0.00    -0.237 OA
ATOM     81  O   UNL A   1      33.683  35.315  29.084  1.00  0.00    -0.237 OA
ATOM     82  O   UNL A   1      35.097  34.403  27.283  1.00  0.00    -0.744 OA
ENDBRANCH  75  79
ENDBRANCH  48  72
BRANCH  60  83
ATOM     83  C   UNL A   1      43.325  35.193  31.067  1.00  0.00     0.023 A 
ATOM     84  C   UNL A   1      43.542  36.251  30.168  1.00  0.00     0.031 A 
ATOM     85  C   UNL A   1      43.499  35.444  32.440  1.00  0.00     0.131 A 
ATOM     86  C   UNL A   1      43.973  37.498  30.648  1.00  0.00     0.055 A 
ATOM     87  C   UNL A   1      43.869  36.702  32.916  1.00  0.00     0.041 A 
ATOM     88  F   UNL A   1      43.308  34.468  33.342  1.00  0.00    -0.206 F 
ATOM     89  C   UNL A   1      44.122  37.735  32.017  1.00  0.00     0.022 A 
BRANCH  86  90
ATOM     90  S   UNL A   1      44.424  38.785  29.450  1.00  0.00     0.124 S 
ATOM     91  O   UNL A   1      43.120  39.179  28.925  1.00  0.00    -0.237 OA
ATOM     92  O   UNL A   1      45.098  39.770  30.288  1.00  0.00    -0.237 OA
ATOM     93  O   UNL A   1      45.287  38.083  28.501  1.00  0.00    -0.744 OA
ENDBRANCH  86  90
ENDBRANCH  60  83
ENDBRANCH  34  35
ENDBRANCH  26  29
ENDBRANCH  24  25
ENDBRANCH  23  24
ENDBRANCH  22  23
ENDBRANCH   1  22
TORSDOF 20
ENDMDL
MODEL 3
REMARK VINA RESULT:      -9.7      2.840      8.358
REMARK SMILES CCNS(=O)(=O)c1ccc(CC(=O)NCCCCCCNC(=O)c2ccc(-c3c4nc(c(-c5cc(S(=O)(=O)[O-])ccc5F)c5ccc([nH]5)c(-c5cc(S(=O)(=O)[O-])ccc5F)c5nc(c(-c6cc(S(=O)(=O)[O-])ccc6F)c6ccc3[nH]6)C=C5)C=C4)cc2)cc1
REMARK SMILES IDX 17 1 16 2 15 3 14 4 12 5 13 6 11 8 10 9 7 10 8 11 88 12 9 13
REMARK SMILES IDX 87 14 4 15 5 16 6 17 3 18 2 20 1 21 18 22 19 23 20 24 21 25
REMARK SMILES IDX 22 26 23 28 24 29 25 30 86 31 26 32 85 33 27 34 28 35 29 36
REMARK SMILES IDX 79 37 30 38 84 39 78 40 80 41 31 42 83 43 77 44 76 45 32 47
REMARK SMILES IDX 64 48 44 49 63 50 45 51 48 52 62 53 81 54 46 55 47 56 61 58
REMARK SMILES IDX 82 59 49 60 33 61 34 62 42 63 35 64 41 65 43 66 40 67 36 68
REMARK SMILES IDX 37 69 38 70 39 71 65 72 66 73 74 74 67 75 73 76 75 77 72 78
REMARK SMILES IDX 68 79 69 80 70 81 71 82 50 83 51 84 59 85 52 86 58 87 60 88
REMARK SMILES IDX 57 89 53 90 54 91 55 92 56 93
REMARK H PARENT 14 7 3 19 21 27 80 46 48 57
REMARK Flexibility Score: inf
ROOT
ATOM      1  C   UNL A   1      39.665  22.366  26.619  1.00  0.00     0.002 C 
ENDROOT
BRANCH   1   2
ATOM      2  C   UNL A   1      39.011  23.745  26.460  1.00  0.00     0.021 C 
BRANCH   2   3
ATOM      3  C   UNL A   1      37.520  23.687  26.119  1.00  0.00     0.116 C 
BRANCH   3   4
ATOM      4  N   UNL A   1      37.307  23.701  24.684  1.00  0.00    -0.356 N 
ATOM      5  C   UNL A   1      36.400  23.003  23.939  1.00  0.00     0.224 C 
ATOM      6  O   UNL A   1      36.464  23.080  22.711  1.00  0.00    -0.275 OA
ATOM      7  H   UNL A   1      37.902  24.298  24.174  1.00  0.00     0.163 HD
BRANCH   5   8
ATOM      8  C   UNL A   1      35.302  22.206  24.622  1.00  0.00     0.135 C 
BRANCH   8   9
ATOM      9  C   UNL A   1      34.051  22.994  24.930  1.00  0.00    -0.039 A 
ATOM     10  C   UNL A   1      31.760  24.460  25.575  1.00  0.00     0.082 A 
ATOM     11  C   UNL A   1      31.630  23.159  25.087  1.00  0.00     0.022 A 
ATOM     12  C   UNL A   1      33.021  25.029  25.758  1.00  0.00     0.022 A 
ATOM     13  C   UNL A   1      32.778  22.427  24.767  1.00  0.00     0.005 A 
ATOM     14  C   UNL A   1      34.158  24.312  25.399  1.00  0.00     0.005 A 
BRANCH  10  15
ATOM     15  S   UNL A   1      30.332  25.396  26.051  1.00  0.00     0.240 S 
ATOM     16  O   UNL A   1      30.770  26.698  26.496  1.00  0.00    -0.207 OA
ATOM     17  O   UNL A   1      29.493  24.553  26.877  1.00  0.00    -0.207 OA
BRANCH  15  18
ATOM     18  N   UNL A   1      29.499  25.578  24.596  1.00  0.00    -0.211 NA
ATOM     19  H   UNL A   1      29.847  24.862  23.957  1.00  0.00     0.141 HD
BRANCH  18  20
ATOM     20  C   UNL A   1      29.589  26.864  23.896  1.00  0.00     0.095 C 
ATOM     21  C   UNL A   1      30.753  26.832  22.923  1.00  0.00     0.022 C 
ENDBRANCH  18  20
ENDBRANCH  15  18
ENDBRANCH  10  15
ENDBRANCH   8   9
ENDBRANCH   5   8
ENDBRANCH   3   4
ENDBRANCH   2   3
ENDBRANCH   1   2
BRANCH   1  22
ATOM     22  C   UNL A   1      39.048  21.250  25.768  1.00  0.00     0.002 C 
BRANCH  22  23
ATOM     23  C   UNL A   1      39.748  19.892  25.867  1.00  0.00     0.021 C 
BRANCH  23  24
ATOM     24  C   UNL A   1      41.008  19.883  26.729  1.00  0.00     0.116 C 
BRANCH  24  25
ATOM     25  N   UNL A   1      42.200  19.596  25.947  1.00  0.00    -0.352 N 
ATOM     26  C   UNL A   1      43.164  20.453  25.478  1.00  0.00     0.251 C 
ATOM     27  H   UNL A   1      42.335  18.648  25.721  1.00  0.00     0.163 HD
ATOM     28  O   UNL A   1      43.986  20.051  24.659  1.00  0.00    -0.269 OA
BRANCH  26  29
ATOM     29  C   UNL A   1      43.197  21.860  25.939  1.00  0.00     0.039 A 
ATOM     30  C   UNL A   1      43.411  22.122  27.295  1.00  0.00     0.014 A 
ATOM     31  C   UNL A   1      43.001  22.916  25.044  1.00  0.00     0.014 A 
ATOM     32  C   UNL A   1      43.492  23.444  27.741  1.00  0.00     0.010 A 
ATOM     33  C   UNL A   1      43.146  24.232  25.480  1.00  0.00     0.010 A 
ATOM     34  C   UNL A   1      43.394  24.510  26.833  1.00  0.00    -0.014 A 
BRANCH  34  35
ATOM     35  C   UNL A   1      43.551  25.919  27.278  1.00  0.00     0.031 A 
ATOM     36  C   UNL A   1      44.908  26.569  27.268  1.00  0.00     0.074 A 
ATOM     37  C   UNL A   1      42.482  26.591  27.752  1.00  0.00     0.049 A 
ATOM     38  N   UNL A   1      45.262  27.756  27.692  1.00  0.00    -0.248 NA
ATOM     39  C   UNL A   1      46.018  25.764  26.739  1.00  0.00     0.031 C 
ATOM     40  C   UNL A   1      41.124  26.054  27.849  1.00  0.00     0.029 A 
ATOM     41  N   UNL A   1      42.372  27.864  28.255  1.00  0.00    -0.354 N 
ATOM     42  C   UNL A   1      46.636  27.836  27.494  1.00  0.00     0.074 A 
ATOM     43  C   UNL A   1      47.057  26.555  26.966  1.00  0.00     0.031 C 
ATOM     44  C   UNL A   1      40.315  26.995  28.361  1.00  0.00     0.029 A 
ATOM     45  C   UNL A   1      41.101  28.186  28.671  1.00  0.00     0.049 A 
ATOM     46  H   UNL A   1      43.131  28.488  28.311  1.00  0.00     0.167 HD
ATOM     47  C   UNL A   1      47.466  28.887  27.715  1.00  0.00     0.034 A 
ATOM     48  C   UNL A   1      40.624  29.306  29.250  1.00  0.00     0.034 A 
ATOM     49  C   UNL A   1      47.028  30.162  28.231  1.00  0.00     0.049 A 
ATOM     50  C   UNL A   1      41.568  30.454  29.502  1.00  0.00     0.074 A 
ATOM     51  C   UNL A   1      47.771  31.311  28.435  1.00  0.00     0.029 A 
ATOM     52  N   UNL A   1      45.731  30.453  28.635  1.00  0.00    -0.354 N 
ATOM     53  N   UNL A   1      42.855  30.533  29.259  1.00  0.00    -0.248 NA
ATOM     54  C   UNL A   1      40.990  31.668  30.091  1.00  0.00     0.031 C 
ATOM     55  C   UNL A   1      46.941  32.273  29.023  1.00  0.00     0.029 A 
ATOM     56  C   UNL A   1      45.662  31.752  29.117  1.00  0.00     0.049 A 
ATOM     57  H   UNL A   1      44.972  29.829  28.588  1.00  0.00     0.167 HD
ATOM     58  C   UNL A   1      43.236  31.816  29.642  1.00  0.00     0.074 A 
ATOM     59  C   UNL A   1      42.037  32.479  30.117  1.00  0.00     0.031 C 
ATOM     60  C   UNL A   1      44.463  32.396  29.601  1.00  0.00     0.034 A 
BRANCH  47  61
ATOM     61  C   UNL A   1      48.935  28.685  27.422  1.00  0.00     0.023 A 
ATOM     62  C   UNL A   1      49.430  28.652  26.106  1.00  0.00     0.031 A 
ATOM     63  C   UNL A   1      49.851  28.496  28.472  1.00  0.00     0.131 A 
ATOM     64  C   UNL A   1      50.782  28.357  25.872  1.00  0.00     0.055 A 
ATOM     65  C   UNL A   1      51.211  28.286  28.236  1.00  0.00     0.041 A 
ATOM     66  F   UNL A   1      49.438  28.499  29.750  1.00  0.00    -0.206 F 
ATOM     67  C   UNL A   1      51.681  28.199  26.928  1.00  0.00     0.022 A 
BRANCH  64  68
ATOM     68  S   UNL A   1      51.317  28.041  24.168  1.00  0.00     0.124 S 
ATOM     69  O   UNL A   1      52.315  29.090  23.973  1.00  0.00    -0.237 OA
ATOM     70  O   UNL A   1      51.829  26.678  24.247  1.00  0.00    -0.237 OA
ATOM     71  O   UNL A   1      50.092  28.204  23.388  1.00  0.00    -0.744 OA
ENDBRANCH  64  68
ENDBRANCH  47  61
BRANCH  48  72
ATOM     72  C   UNL A   1      39.190  29.397  29.647  1.00  0.00     0.023 A 
ATOM     73  C   UNL A   1      38.268  30.116  28.871  1.00  0.00     0.031 A 
ATOM     74  C   UNL A   1      38.728  28.795  30.831  1.00  0.00     0.131 A 
ATOM     75  C   UNL A   1      36.942  30.254  29.308  1.00  0.00     0.055 A 
ATOM     76  C   UNL A   1      37.395  28.891  31.236  1.00  0.00     0.041 A 
ATOM     77  F   UNL A   1      39.566  28.090  31.607  1.00  0.00    -0.206 F 
ATOM     78  C   UNL A   1      36.496  29.636  30.479  1.00  0.00     0.022 A 
BRANCH  75  79
ATOM     79  S   UNL A   1      35.822  31.323  28.362  1.00  0.00     0.124 S 
ATOM     80  O   UNL A   1      35.437  30.450  27.259  1.00  0.00    -0.237 OA
ATOM     81  O   UNL A   1      34.782  31.614  29.344  1.00  0.00    -0.237 OA
ATOM     82  O   UNL A   1      36.665  32.459  27.997  1.00  0.00    -0.744 OA
ENDBRANCH  75  79
ENDBRANCH  48  72
BRANCH  60  83
ATOM     83  C   UNL A   1      44.554  33.836  30.045  1.00  0.00     0.023 A 
ATOM     84  C   UNL A   1      44.306  34.900  29.161  1.00  0.00     0.031 A 
ATOM     85  C   UNL A   1      44.910  34.145  31.370  1.00  0.00     0.131 A 
ATOM     86  C   UNL A   1      44.471  36.224  29.597  1.00  0.00     0.055 A 
ATOM     87  C   UNL A   1      45.013  35.463  31.815  1.00  0.00     0.041 A 
ATOM     88  F   UNL A   1      45.161  33.168  32.255  1.00  0.00    -0.206 F 
ATOM     89  C   UNL A   1      44.806  36.513  30.923  1.00  0.00     0.022 A 
BRANCH  86  90
ATOM     90  S   UNL A   1      44.326  37.566  28.385  1.00  0.00     0.124 S 
ATOM     91  O   UNL A   1      43.294  38.406  28.985  1.00  0.00    -0.237 OA
ATOM     92  O   UNL A   1      45.674  38.124  28.373  1.00  0.00    -0.237 OA
ATOM     93  O   UNL A   1      43.929  36.879  27.158  1.00  0.00    -0.744 OA
ENDBRANCH  86  90
ENDBRANCH  60  83
ENDBRANCH  34  35
ENDBRANCH  26  29
ENDBRANCH  24  25
ENDBRANCH  23  24
ENDBRANCH  22  23
ENDBRANCH   1  22
TORSDOF 20
ENDMDL
