MODEL 1
REMARK VINA RESULT:     -13.9      0.000      0.000
REMARK SMILES C[N@H+]1CCO[C@H](c2noc(-c3ccccc3C(=O)NCCCCCCNC(=O)c3ccc(-c4c5nc(c(-c6cc(S(=O)(=O)[O-])ccc6F)c6ccc([nH]6)c(-c6cc(S(=O)(=O)[O-])ccc6F)c6nc(c(-c7cc(S(=O)(=O)[O-])ccc7F)c7ccc4[nH]7)C=C6)C=C5)cc3)n2)C1
REMARK SMILES IDX 23 1 22 2 21 3 20 4 19 5 17 6 18 7 16 9 11 10 12 11 13 12
REMARK SMILES IDX 15 13 14 14 10 15 7 16 8 17 92 18 9 19 6 20 1 21 2 22 3 23
REMARK SMILES IDX 93 24 4 26 5 27 24 28 25 29 26 30 27 31 28 33 29 34 30 35
REMARK SMILES IDX 91 36 31 37 90 38 32 39 33 40 34 41 84 42 35 43 89 44 83 45
REMARK SMILES IDX 85 46 36 47 88 48 82 49 81 50 37 52 69 53 49 54 68 55 50 56
REMARK SMILES IDX 53 57 67 58 86 59 51 60 52 61 66 63 87 64 54 65 38 66 39 67
REMARK SMILES IDX 47 68 40 69 46 70 48 71 45 72 41 73 42 74 43 75 44 76 70 77
REMARK SMILES IDX 71 78 79 79 72 80 78 81 80 82 77 83 73 84 74 85 75 86 76 87
REMARK SMILES IDX 55 88 56 89 64 90 57 91 63 92 65 93 62 94 58 95 59 96 60 97
REMARK SMILES IDX 61 98
REMARK H PARENT 19 8 2 25 26 32 85 51 53 62
REMARK Flexibility Score: inf
ROOT
ATOM      1  C   UNL A   1      31.764  29.820  25.614  1.00  0.00     0.002 C 
ENDROOT
BRANCH   1   2
ATOM      2  C   UNL A   1      32.233  28.146  26.113  1.00  0.00     0.002 C 
BRANCH   2   3
ATOM      3  C   UNL A   1      31.222  27.119  26.660  1.00  0.00     0.021 C 
BRANCH   3   4
ATOM      4  C   UNL A   1      30.789  26.070  25.681  1.00  0.00     0.116 C 
BRANCH   4   5
ATOM      5  N   UNL A   1      29.444  25.887  25.287  1.00  0.00    -0.352 N 
ATOM      6  C   UNL A   1      28.955  26.351  24.080  1.00  0.00     0.252 C 
ATOM      7  O   UNL A   1      27.942  25.792  23.649  1.00  0.00    -0.269 OA
ATOM      8  H   UNL A   1      28.832  25.411  25.895  1.00  0.00     0.163 HD
BRANCH   6   9
ATOM      9  C   UNL A   1      29.478  27.570  23.334  1.00  0.00     0.052 A 
ATOM     10  C   UNL A   1      30.703  27.840  22.657  1.00  0.00     0.053 A 
ATOM     11  C   UNL A   1      30.863  29.101  22.026  1.00  0.00     0.015 A 
ATOM     12  C   UNL A   1      29.874  30.083  22.061  1.00  0.00     0.001 A 
ATOM     13  C   UNL A   1      28.497  28.597  23.345  1.00  0.00     0.014 A 
ATOM     14  C   UNL A   1      28.690  29.834  22.730  1.00  0.00     0.001 A 
BRANCH  10  15
ATOM     15  C   UNL A   1      31.881  26.974  22.586  1.00  0.00     0.258 A 
ATOM     16  C   UNL A   1      33.317  25.483  23.011  1.00  0.00     0.206 A 
ATOM     17  N   UNL A   1      34.027  26.614  23.098  1.00  0.00    -0.059 NA
ATOM     18  N   UNL A   1      32.023  25.669  22.531  1.00  0.00    -0.189 NA
ATOM     19  O   UNL A   1      33.080  27.609  22.813  1.00  0.00    -0.334 OA
BRANCH  16  20
ATOM     20  C   UNL A   1      33.868  24.109  23.362  1.00  0.00     0.245 C 
ATOM     21  C   UNL A   1      33.983  21.851  26.966  1.00  0.00     0.332 C 
ATOM     22  N   UNL A   1      34.738  22.870  26.234  1.00  0.00    -0.333 N 
ATOM     23  C   UNL A   1      36.187  22.162  25.551  1.00  0.00     0.290 C 
ATOM     24  C   UNL A   1      33.630  23.810  25.263  1.00  0.00     0.303 C 
ATOM     25  H   UNL A   1      35.158  23.597  26.813  1.00  0.00     0.348 HD
ATOM     26  C   UNL A   1      36.668  22.431  23.702  1.00  0.00     0.222 C 
ATOM     27  O   UNL A   1      35.491  23.475  22.624  1.00  0.00    -0.358 OA
ENDBRANCH  16  20
ENDBRANCH  10  15
ENDBRANCH   6   9
ENDBRANCH   4   5
ENDBRANCH   3   4
ENDBRANCH   2   3
ENDBRANCH   1   2
BRANCH   1  28
ATOM     28  C   UNL A   1      31.818  31.662  26.681  1.00  0.00     0.021 C 
BRANCH  28  29
ATOM     29  C   UNL A   1      33.137  32.405  27.602  1.00  0.00     0.116 C 
BRANCH  29  30
ATOM     30  N   UNL A   1      33.138  33.864  27.646  1.00  0.00    -0.352 N 
ATOM     31  C   UNL A   1      33.292  34.636  28.768  1.00  0.00     0.251 C 
ATOM     32  H   UNL A   1      33.018  34.338  26.791  1.00  0.00     0.163 HD
ATOM     33  O   UNL A   1      32.688  35.680  28.955  1.00  0.00    -0.269 OA
BRANCH  31  34
ATOM     34  C   UNL A   1      34.348  34.155  29.662  1.00  0.00     0.039 A 
ATOM     35  C   UNL A   1      34.079  33.344  30.760  1.00  0.00     0.014 A 
ATOM     36  C   UNL A   1      35.653  34.449  29.250  1.00  0.00     0.014 A 
ATOM     37  C   UNL A   1      35.159  32.786  31.439  1.00  0.00     0.010 A 
ATOM     38  C   UNL A   1      36.710  33.826  29.869  1.00  0.00     0.010 A 
ATOM     39  C   UNL A   1      36.471  33.011  30.981  1.00  0.00    -0.014 A 
BRANCH  39  40
ATOM     40  C   UNL A   1      37.650  32.445  31.659  1.00  0.00     0.031 A 
ATOM     41  C   UNL A   1      38.381  31.311  30.998  1.00  0.00     0.074 A 
ATOM     42  C   UNL A   1      37.963  32.868  32.896  1.00  0.00     0.049 A 
ATOM     43  N   UNL A   1      39.349  30.570  31.463  1.00  0.00    -0.248 NA
ATOM     44  C   UNL A   1      37.918  30.928  29.652  1.00  0.00     0.031 C 
ATOM     45  C   UNL A   1      37.261  33.923  33.632  1.00  0.00     0.029 A 
ATOM     46  N   UNL A   1      38.944  32.457  33.755  1.00  0.00    -0.354 N 
ATOM     47  C   UNL A   1      39.602  29.628  30.473  1.00  0.00     0.074 A 
ATOM     48  C   UNL A   1      38.623  29.832  29.430  1.00  0.00     0.031 C 
ATOM     49  C   UNL A   1      37.863  34.102  34.818  1.00  0.00     0.029 A 
ATOM     50  C   UNL A   1      38.952  33.142  34.947  1.00  0.00     0.049 A 
ATOM     51  H   UNL A   1      39.582  31.739  33.541  1.00  0.00     0.167 HD
ATOM     52  C   UNL A   1      40.591  28.704  30.427  1.00  0.00     0.034 A 
ATOM     53  C   UNL A   1      39.754  32.995  36.019  1.00  0.00     0.034 A 
ATOM     54  C   UNL A   1      41.550  28.537  31.487  1.00  0.00     0.049 A 
ATOM     55  C   UNL A   1      40.828  31.937  35.960  1.00  0.00     0.074 A 
ATOM     56  C   UNL A   1      42.628  27.675  31.550  1.00  0.00     0.029 A 
ATOM     57  N   UNL A   1      41.540  29.252  32.682  1.00  0.00    -0.354 N 
ATOM     58  N   UNL A   1      41.103  31.091  34.992  1.00  0.00    -0.248 NA
ATOM     59  C   UNL A   1      41.705  31.823  37.130  1.00  0.00     0.031 C 
ATOM     60  C   UNL A   1      43.221  27.812  32.809  1.00  0.00     0.029 A 
ATOM     61  C   UNL A   1      42.572  28.826  33.499  1.00  0.00     0.049 A 
ATOM     62  H   UNL A   1      40.892  29.957  32.911  1.00  0.00     0.167 HD
ATOM     63  C   UNL A   1      42.210  30.367  35.425  1.00  0.00     0.074 A 
ATOM     64  C   UNL A   1      42.556  30.890  36.732  1.00  0.00     0.031 C 
ATOM     65  C   UNL A   1      42.885  29.366  34.803  1.00  0.00     0.034 A 
BRANCH  52  66
ATOM     66  C   UNL A   1      40.652  27.814  29.209  1.00  0.00     0.023 A 
ATOM     67  C   UNL A   1      41.593  28.032  28.184  1.00  0.00     0.031 A 
ATOM     68  C   UNL A   1      39.728  26.770  29.036  1.00  0.00     0.131 A 
ATOM     69  C   UNL A   1      41.527  27.284  27.000  1.00  0.00     0.055 A 
ATOM     70  C   UNL A   1      39.732  25.965  27.895  1.00  0.00     0.041 A 
ATOM     71  F   UNL A   1      38.788  26.527  29.963  1.00  0.00    -0.206 F 
ATOM     72  C   UNL A   1      40.622  26.232  26.859  1.00  0.00     0.022 A 
BRANCH  69  73
ATOM     73  S   UNL A   1      42.525  27.823  25.584  1.00  0.00     0.124 S 
ATOM     74  O   UNL A   1      43.823  28.064  26.212  1.00  0.00    -0.237 OA
ATOM     75  O   UNL A   1      42.453  26.673  24.690  1.00  0.00    -0.237 OA
ATOM     76  O   UNL A   1      41.835  29.024  25.116  1.00  0.00    -0.744 OA
ENDBRANCH  69  73
ENDBRANCH  52  66
BRANCH  53  77
ATOM     77  C   UNL A   1      39.590  33.869  37.213  1.00  0.00     0.023 A 
ATOM     78  C   UNL A   1      38.945  33.393  38.365  1.00  0.00     0.031 A 
ATOM     79  C   UNL A   1      40.045  35.200  37.216  1.00  0.00     0.131 A 
ATOM     80  C   UNL A   1      38.723  34.254  39.450  1.00  0.00     0.055 A 
ATOM     81  C   UNL A   1      39.877  36.034  38.322  1.00  0.00     0.041 A 
ATOM     82  F   UNL A   1      40.677  35.705  36.145  1.00  0.00    -0.206 F 
ATOM     83  C   UNL A   1      39.198  35.566  39.443  1.00  0.00     0.022 A 
BRANCH  80  84
ATOM     84  S   UNL A   1      37.716  33.657  40.834  1.00  0.00     0.124 S 
ATOM     85  O   UNL A   1      38.627  32.717  41.479  1.00  0.00    -0.237 OA
ATOM     86  O   UNL A   1      37.444  34.890  41.565  1.00  0.00    -0.237 OA
ATOM     87  O   UNL A   1      36.559  33.054  40.177  1.00  0.00    -0.744 OA
ENDBRANCH  80  84
ENDBRANCH  53  77
BRANCH  65  88
ATOM     88  C   UNL A   1      44.091  28.810  35.516  1.00  0.00     0.023 A 
ATOM     89  C   UNL A   1      43.990  27.737  36.417  1.00  0.00     0.031 A 
ATOM     90  C   UNL A   1      45.363  29.364  35.285  1.00  0.00     0.131 A 
ATOM     91  C   UNL A   1      45.130  27.290  37.099  1.00  0.00     0.055 A 
ATOM     92  C   UNL A   1      46.506  28.866  35.910  1.00  0.00     0.041 A 
ATOM     93  F   UNL A   1      45.517  30.394  34.436  1.00  0.00    -0.206 F 
ATOM     94  C   UNL A   1      46.391  27.832  36.834  1.00  0.00     0.022 A 
BRANCH  91  95
ATOM     95  S   UNL A   1      44.926  26.057  38.412  1.00  0.00     0.124 S 
ATOM     96  O   UNL A   1      46.273  25.985  38.969  1.00  0.00    -0.237 OA
ATOM     97  O   UNL A   1      43.916  26.672  39.266  1.00  0.00    -0.237 OA
ATOM     98  O   UNL A   1      44.486  24.862  37.694  1.00  0.00    -0.744 OA
ENDBRANCH  91  95
ENDBRANCH  65  88
ENDBRANCH  39  40
ENDBRANCH  31  34
ENDBRANCH  29  30
ENDBRANCH  28  29
ENDBRANCH   1  28
TORSDOF 18
ENDMDL
MODEL 2
REMARK VINA RESULT:     -13.7      1.681      4.068
REMARK SMILES C[N@H+]1CCO[C@H](c2noc(-c3ccccc3C(=O)NCCCCCCNC(=O)c3ccc(-c4c5nc(c(-c6cc(S(=O)(=O)[O-])ccc6F)c6ccc([nH]6)c(-c6cc(S(=O)(=O)[O-])ccc6F)c6nc(c(-c7cc(S(=O)(=O)[O-])ccc7F)c7ccc4[nH]7)C=C6)C=C5)cc3)n2)C1
REMARK SMILES IDX 23 1 22 2 21 3 20 4 19 5 17 6 18 7 16 9 11 10 12 11 13 12
REMARK SMILES IDX 15 13 14 14 10 15 7 16 8 17 92 18 9 19 6 20 1 21 2 22 3 23
REMARK SMILES IDX 93 24 4 26 5 27 24 28 25 29 26 30 27 31 28 33 29 34 30 35
REMARK SMILES IDX 91 36 31 37 90 38 32 39 33 40 34 41 84 42 35 43 89 44 83 45
REMARK SMILES IDX 85 46 36 47 88 48 82 49 81 50 37 52 69 53 49 54 68 55 50 56
REMARK SMILES IDX 53 57 67 58 86 59 51 60 52 61 66 63 87 64 54 65 38 66 39 67
REMARK SMILES IDX 47 68 40 69 46 70 48 71 45 72 41 73 42 74 43 75 44 76 70 77
REMARK SMILES IDX 71 78 79 79 72 80 78 81 80 82 77 83 73 84 74 85 75 86 76 87
REMARK SMILES IDX 55 88 56 89 64 90 57 91 63 92 65 93 62 94 58 95 59 96 60 97
REMARK SMILES IDX 61 98
REMARK H PARENT 19 8 2 25 26 32 85 51 53 62
REMARK Flexibility Score: inf
ROOT
ATOM      1  C   UNL A   1      34.260  29.135  27.277  1.00  0.00     0.002 C 
ENDROOT
BRANCH   1   2
ATOM      2  C   UNL A   1      33.369  27.853  26.362  1.00  0.00     0.002 C 
BRANCH   2   3
ATOM      3  C   UNL A   1      34.066  26.624  25.748  1.00  0.00     0.021 C 
BRANCH   3   4
ATOM      4  C   UNL A   1      33.664  26.303  24.339  1.00  0.00     0.116 C 
BRANCH   4   5
ATOM      5  N   UNL A   1      34.284  25.295  23.567  1.00  0.00    -0.352 N 
ATOM      6  C   UNL A   1      34.078  23.949  23.802  1.00  0.00     0.252 C 
ATOM      7  O   UNL A   1      34.297  23.187  22.855  1.00  0.00    -0.269 OA
ATOM      8  H   UNL A   1      34.887  25.561  22.835  1.00  0.00     0.163 HD
BRANCH   6   9
ATOM      9  C   UNL A   1      33.747  23.337  25.157  1.00  0.00     0.052 A 
ATOM     10  C   UNL A   1      32.589  23.387  25.985  1.00  0.00     0.053 A 
ATOM     11  C   UNL A   1      32.599  22.661  27.205  1.00  0.00     0.015 A 
ATOM     12  C   UNL A   1      33.704  21.920  27.623  1.00  0.00     0.001 A 
ATOM     13  C   UNL A   1      34.850  22.570  25.618  1.00  0.00     0.014 A 
ATOM     14  C   UNL A   1      34.836  21.881  26.831  1.00  0.00     0.001 A 
BRANCH  10  15
ATOM     15  C   UNL A   1      31.375  24.173  25.759  1.00  0.00     0.258 A 
ATOM     16  C   UNL A   1      30.001  25.591  25.004  1.00  0.00     0.206 A 
ATOM     17  N   UNL A   1      30.107  25.934  26.294  1.00  0.00    -0.059 NA
ATOM     18  N   UNL A   1      30.650  24.399  24.688  1.00  0.00    -0.189 NA
ATOM     19  O   UNL A   1      31.015  24.995  26.802  1.00  0.00    -0.334 OA
BRANCH  16  20
ATOM     20  C   UNL A   1      29.218  26.392  23.976  1.00  0.00     0.245 C 
ATOM     21  C   UNL A   1      30.004  30.023  21.902  1.00  0.00     0.332 C 
ATOM     22  N   UNL A   1      29.432  29.527  23.155  1.00  0.00    -0.333 N 
ATOM     23  C   UNL A   1      27.689  29.694  23.125  1.00  0.00     0.290 C 
ATOM     24  C   UNL A   1      30.202  28.013  23.570  1.00  0.00     0.303 C 
ATOM     25  H   UNL A   1      29.645  30.088  23.981  1.00  0.00     0.348 HD
ATOM     26  C   UNL A   1      26.525  28.231  23.603  1.00  0.00     0.222 C 
ATOM     27  O   UNL A   1      27.338  26.575  24.085  1.00  0.00    -0.358 OA
ENDBRANCH  16  20
ENDBRANCH  10  15
ENDBRANCH   6   9
ENDBRANCH   4   5
ENDBRANCH   3   4
ENDBRANCH   2   3
ENDBRANCH   1   2
BRANCH   1  28
ATOM     28  C   UNL A   1      34.059  31.255  27.263  1.00  0.00     0.021 C 
BRANCH  28  29
ATOM     29  C   UNL A   1      32.642  32.266  27.596  1.00  0.00     0.116 C 
BRANCH  29  30
ATOM     30  N   UNL A   1      32.844  33.706  27.465  1.00  0.00    -0.352 N 
ATOM     31  C   UNL A   1      33.217  34.561  28.469  1.00  0.00     0.251 C 
ATOM     32  H   UNL A   1      32.700  34.100  26.575  1.00  0.00     0.163 HD
ATOM     33  O   UNL A   1      32.782  35.696  28.584  1.00  0.00    -0.269 OA
BRANCH  31  34
ATOM     34  C   UNL A   1      34.287  34.029  29.317  1.00  0.00     0.039 A 
ATOM     35  C   UNL A   1      34.029  33.193  30.400  1.00  0.00     0.014 A 
ATOM     36  C   UNL A   1      35.586  34.300  28.874  1.00  0.00     0.014 A 
ATOM     37  C   UNL A   1      35.114  32.590  31.031  1.00  0.00     0.010 A 
ATOM     38  C   UNL A   1      36.644  33.633  29.442  1.00  0.00     0.010 A 
ATOM     39  C   UNL A   1      36.417  32.793  30.539  1.00  0.00    -0.014 A 
BRANCH  39  40
ATOM     40  C   UNL A   1      37.600  32.179  31.165  1.00  0.00     0.031 A 
ATOM     41  C   UNL A   1      38.362  31.140  30.392  1.00  0.00     0.074 A 
ATOM     42  C   UNL A   1      37.892  32.468  32.445  1.00  0.00     0.049 A 
ATOM     43  N   UNL A   1      39.340  30.372  30.784  1.00  0.00    -0.248 NA
ATOM     44  C   UNL A   1      37.921  30.901  29.006  1.00  0.00     0.031 C 
ATOM     45  C   UNL A   1      37.160  33.421  33.284  1.00  0.00     0.029 A 
ATOM     46  N   UNL A   1      38.872  31.983  33.266  1.00  0.00    -0.354 N 
ATOM     47  C   UNL A   1      39.623  29.550  29.697  1.00  0.00     0.074 A 
ATOM     48  C   UNL A   1      38.650  29.850  28.672  1.00  0.00     0.031 C 
ATOM     49  C   UNL A   1      37.746  33.478  34.491  1.00  0.00     0.029 A 
ATOM     50  C   UNL A   1      38.854  32.531  34.526  1.00  0.00     0.049 A 
ATOM     51  H   UNL A   1      39.527  31.305  32.981  1.00  0.00     0.167 HD
ATOM     52  C   UNL A   1      40.631  28.657  29.562  1.00  0.00     0.034 A 
ATOM     53  C   UNL A   1      39.647  32.281  35.585  1.00  0.00     0.034 A 
ATOM     54  C   UNL A   1      41.583  28.392  30.609  1.00  0.00     0.049 A 
ATOM     55  C   UNL A   1      40.744  31.258  35.423  1.00  0.00     0.074 A 
ATOM     56  C   UNL A   1      42.678  27.550  30.589  1.00  0.00     0.029 A 
ATOM     57  N   UNL A   1      41.545  28.969  31.875  1.00  0.00    -0.354 N 
ATOM     58  N   UNL A   1      41.046  30.530  34.370  1.00  0.00    -0.248 NA
ATOM     59  C   UNL A   1      41.610  31.031  36.584  1.00  0.00     0.031 C 
ATOM     60  C   UNL A   1      43.254  27.557  31.863  1.00  0.00     0.029 A 
ATOM     61  C   UNL A   1      42.577  28.475  32.653  1.00  0.00     0.049 A 
ATOM     62  H   UNL A   1      40.881  29.631  32.173  1.00  0.00     0.167 HD
ATOM     63  C   UNL A   1      42.164  29.784  34.734  1.00  0.00     0.074 A 
ATOM     64  C   UNL A   1      42.485  30.165  36.096  1.00  0.00     0.031 C 
ATOM     65  C   UNL A   1      42.866  28.872  34.014  1.00  0.00     0.034 A 
BRANCH  52  66
ATOM     66  C   UNL A   1      40.723  27.910  28.254  1.00  0.00     0.023 A 
ATOM     67  C   UNL A   1      40.116  26.651  28.079  1.00  0.00     0.031 A 
ATOM     68  C   UNL A   1      41.470  28.429  27.183  1.00  0.00     0.131 A 
ATOM     69  C   UNL A   1      40.345  25.918  26.906  1.00  0.00     0.055 A 
ATOM     70  C   UNL A   1      41.613  27.734  25.980  1.00  0.00     0.041 A 
ATOM     71  F   UNL A   1      42.098  29.610  27.295  1.00  0.00    -0.206 F 
ATOM     72  C   UNL A   1      41.065  26.462  25.842  1.00  0.00     0.022 A 
BRANCH  69  73
ATOM     73  S   UNL A   1      39.834  24.177  26.865  1.00  0.00     0.124 S 
ATOM     74  O   UNL A   1      40.982  23.548  26.216  1.00  0.00    -0.237 OA
ATOM     75  O   UNL A   1      39.652  23.867  28.278  1.00  0.00    -0.237 OA
ATOM     76  O   UNL A   1      38.610  24.198  26.067  1.00  0.00    -0.744 OA
ENDBRANCH  69  73
ENDBRANCH  52  66
BRANCH  53  77
ATOM     77  C   UNL A   1      39.453  33.014  36.867  1.00  0.00     0.023 A 
ATOM     78  C   UNL A   1      38.652  32.473  37.886  1.00  0.00     0.031 A 
ATOM     79  C   UNL A   1      40.034  34.275  37.086  1.00  0.00     0.131 A 
ATOM     80  C   UNL A   1      38.410  33.212  39.053  1.00  0.00     0.055 A 
ATOM     81  C   UNL A   1      39.840  34.980  38.276  1.00  0.00     0.041 A 
ATOM     82  F   UNL A   1      40.817  34.836  36.151  1.00  0.00    -0.206 F 
ATOM     83  C   UNL A   1      39.010  34.455  39.262  1.00  0.00     0.022 A 
BRANCH  80  84
ATOM     84  S   UNL A   1      37.216  32.564  40.253  1.00  0.00     0.124 S 
ATOM     85  O   UNL A   1      35.960  32.697  39.522  1.00  0.00    -0.237 OA
ATOM     86  O   UNL A   1      37.700  31.203  40.456  1.00  0.00    -0.237 OA
ATOM     87  O   UNL A   1      37.369  33.456  41.400  1.00  0.00    -0.744 OA
ENDBRANCH  80  84
ENDBRANCH  53  77
BRANCH  65  88
ATOM     88  C   UNL A   1      44.075  28.264  34.676  1.00  0.00     0.023 A 
ATOM     89  C   UNL A   1      44.012  27.030  35.344  1.00  0.00     0.031 A 
ATOM     90  C   UNL A   1      45.312  28.933  34.632  1.00  0.00     0.131 A 
ATOM     91  C   UNL A   1      45.150  26.531  35.993  1.00  0.00     0.055 A 
ATOM     92  C   UNL A   1      46.459  28.394  35.215  1.00  0.00     0.041 A 
ATOM     93  F   UNL A   1      45.429  30.117  34.009  1.00  0.00    -0.206 F 
ATOM     94  C   UNL A   1      46.378  27.193  35.913  1.00  0.00     0.022 A 
BRANCH  91  95
ATOM     95  S   UNL A   1      44.978  25.053  37.028  1.00  0.00     0.124 S 
ATOM     96  O   UNL A   1      46.232  25.060  37.774  1.00  0.00    -0.237 OA
ATOM     97  O   UNL A   1      43.776  25.348  37.800  1.00  0.00    -0.237 OA
ATOM     98  O   UNL A   1      44.840  23.969  36.057  1.00  0.00    -0.744 OA
ENDBRANCH  91  95
ENDBRANCH  65  88
ENDBRANCH  39  40
ENDBRANCH  31  34
ENDBRANCH  29  30
ENDBRANCH  28  29
ENDBRANCH   1  28
TORSDOF 18
ENDMDL
MODEL 3
REMARK VINA RESULT:     -13.6      1.828      8.454
REMARK SMILES C[N@H+]1CCO[C@H](c2noc(-c3ccccc3C(=O)NCCCCCCNC(=O)c3ccc(-c4c5nc(c(-c6cc(S(=O)(=O)[O-])ccc6F)c6ccc([nH]6)c(-c6cc(S(=O)(=O)[O-])ccc6F)c6nc(c(-c7cc(S(=O)(=O)[O-])ccc7F)c7ccc4[nH]7)C=C6)C=C5)cc3)n2)C1
REMARK SMILES IDX 23 1 22 2 21 3 20 4 19 5 17 6 18 7 16 9 11 10 12 11 13 12
REMARK SMILES IDX 15 13 14 14 10 15 7 16 8 17 92 18 9 19 6 20 1 21 2 22 3 23
REMARK SMILES IDX 93 24 4 26 5 27 24 28 25 29 26 30 27 31 28 33 29 34 30 35
REMARK SMILES IDX 91 36 31 37 90 38 32 39 33 40 34 41 84 42 35 43 89 44 83 45
REMARK SMILES IDX 85 46 36 47 88 48 82 49 81 50 37 52 69 53 49 54 68 55 50 56
REMARK SMILES IDX 53 57 67 58 86 59 51 60 52 61 66 63 87 64 54 65 38 66 39 67
REMARK SMILES IDX 47 68 40 69 46 70 48 71 45 72 41 73 42 74 43 75 44 76 70 77
REMARK SMILES IDX 71 78 79 79 72 80 78 81 80 82 77 83 73 84 74 85 75 86 76 87
REMARK SMILES IDX 55 88 56 89 64 90 57 91 63 92 65 93 62 94 58 95 59 96 60 97
REMARK SMILES IDX 61 98
REMARK H PARENT 19 8 2 25 26 32 85 51 53 62
REMARK Flexibility Score: inf
ROOT
ATOM      1  C   UNL A   1      34.115  29.192  27.324  1.00  0.00     0.002 C 
ENDROOT
BRANCH   1   2
ATOM      2  C   UNL A   1      33.328  27.940  26.281  1.00  0.00     0.002 C 
BRANCH   2   3
ATOM      3  C   UNL A   1      34.099  26.761  25.657  1.00  0.00     0.021 C 
BRANCH   3   4
ATOM      4  C   UNL A   1      33.640  26.353  24.290  1.00  0.00     0.116 C 
BRANCH   4   5
ATOM      5  N   UNL A   1      34.301  25.378  23.509  1.00  0.00    -0.352 N 
ATOM      6  C   UNL A   1      34.145  24.022  23.727  1.00  0.00     0.252 C 
ATOM      7  O   UNL A   1      34.398  23.281  22.772  1.00  0.00    -0.269 OA
ATOM      8  H   UNL A   1      34.897  25.676  22.784  1.00  0.00     0.163 HD
BRANCH   6   9
ATOM      9  C   UNL A   1      33.831  23.382  25.072  1.00  0.00     0.052 A 
ATOM     10  C   UNL A   1      32.678  23.402  25.909  1.00  0.00     0.053 A 
ATOM     11  C   UNL A   1      32.705  22.655  27.115  1.00  0.00     0.015 A 
ATOM     12  C   UNL A   1      33.823  21.921  27.513  1.00  0.00     0.001 A 
ATOM     13  C   UNL A   1      34.947  22.622  25.513  1.00  0.00     0.014 A 
ATOM     14  C   UNL A   1      34.950  21.911  26.713  1.00  0.00     0.001 A 
BRANCH  10  15
ATOM     15  C   UNL A   1      31.453  24.177  25.705  1.00  0.00     0.258 A 
ATOM     16  C   UNL A   1      30.052  25.581  24.975  1.00  0.00     0.206 A 
ATOM     17  N   UNL A   1      30.177  25.925  26.263  1.00  0.00    -0.059 NA
ATOM     18  N   UNL A   1      30.706  24.396  24.647  1.00  0.00    -0.189 NA
ATOM     19  O   UNL A   1      31.104  24.994  26.755  1.00  0.00    -0.334 OA
BRANCH  16  20
ATOM     20  C   UNL A   1      29.243  26.375  23.962  1.00  0.00     0.245 C 
ATOM     21  C   UNL A   1      29.994  29.966  21.808  1.00  0.00     0.332 C 
ATOM     22  N   UNL A   1      29.459  29.495  23.087  1.00  0.00    -0.333 N 
ATOM     23  C   UNL A   1      27.718  29.679  23.112  1.00  0.00     0.290 C 
ATOM     24  C   UNL A   1      30.228  27.979  23.499  1.00  0.00     0.303 C 
ATOM     25  H   UNL A   1      29.705  30.066  23.896  1.00  0.00     0.348 HD
ATOM     26  C   UNL A   1      26.557  28.236  23.651  1.00  0.00     0.222 C 
ATOM     27  O   UNL A   1      27.369  26.579  24.131  1.00  0.00    -0.358 OA
ENDBRANCH  16  20
ENDBRANCH  10  15
ENDBRANCH   6   9
ENDBRANCH   4   5
ENDBRANCH   3   4
ENDBRANCH   2   3
ENDBRANCH   1   2
BRANCH   1  28
ATOM     28  C   UNL A   1      34.035  31.318  27.255  1.00  0.00     0.021 C 
BRANCH  28  29
ATOM     29  C   UNL A   1      32.720  32.421  27.696  1.00  0.00     0.116 C 
BRANCH  29  30
ATOM     30  N   UNL A   1      33.041  33.845  27.647  1.00  0.00    -0.352 N 
ATOM     31  C   UNL A   1      33.524  34.597  28.686  1.00  0.00     0.251 C 
ATOM     32  H   UNL A   1      32.899  34.307  26.790  1.00  0.00     0.163 HD
ATOM     33  O   UNL A   1      33.193  35.754  28.891  1.00  0.00    -0.269 OA
BRANCH  31  34
ATOM     34  C   UNL A   1      34.574  33.921  29.453  1.00  0.00     0.039 A 
ATOM     35  C   UNL A   1      34.285  33.049  30.498  1.00  0.00     0.014 A 
ATOM     36  C   UNL A   1      35.873  34.102  28.967  1.00  0.00     0.014 A 
ATOM     37  C   UNL A   1      35.335  32.314  31.043  1.00  0.00     0.010 A 
ATOM     38  C   UNL A   1      36.888  33.311  29.447  1.00  0.00     0.010 A 
ATOM     39  C   UNL A   1      36.629  32.430  30.505  1.00  0.00    -0.014 A 
BRANCH  39  40
ATOM     40  C   UNL A   1      37.776  31.676  31.039  1.00  0.00     0.031 A 
ATOM     41  C   UNL A   1      38.298  32.035  32.401  1.00  0.00     0.074 A 
ATOM     42  C   UNL A   1      38.398  30.780  30.253  1.00  0.00     0.049 A 
ATOM     43  N   UNL A   1      39.369  31.610  33.014  1.00  0.00    -0.248 NA
ATOM     44  C   UNL A   1      37.536  33.052  33.148  1.00  0.00     0.031 C 
ATOM     45  C   UNL A   1      37.989  30.421  28.892  1.00  0.00     0.029 A 
ATOM     46  N   UNL A   1      39.511  30.019  30.480  1.00  0.00    -0.354 N 
ATOM     47  C   UNL A   1      39.414  32.317  34.211  1.00  0.00     0.074 A 
ATOM     48  C   UNL A   1      38.322  33.262  34.190  1.00  0.00     0.031 C 
ATOM     49  C   UNL A   1      38.819  29.477  28.422  1.00  0.00     0.029 A 
ATOM     50  C   UNL A   1      39.845  29.207  29.422  1.00  0.00     0.049 A 
ATOM     51  H   UNL A   1      40.024  30.050  31.319  1.00  0.00     0.167 HD
ATOM     52  C   UNL A   1      40.272  32.157  35.246  1.00  0.00     0.034 A 
ATOM     53  C   UNL A   1      40.874  28.348  29.287  1.00  0.00     0.034 A 
ATOM     54  C   UNL A   1      41.346  31.198  35.227  1.00  0.00     0.049 A 
ATOM     55  C   UNL A   1      41.836  28.209  30.441  1.00  0.00     0.074 A 
ATOM     56  C   UNL A   1      42.256  30.900  36.223  1.00  0.00     0.029 A 
ATOM     57  N   UNL A   1      41.656  30.381  34.144  1.00  0.00    -0.354 N 
ATOM     58  N   UNL A   1      41.837  28.835  31.597  1.00  0.00    -0.248 NA
ATOM     59  C   UNL A   1      42.927  27.243  30.276  1.00  0.00     0.031 C 
ATOM     60  C   UNL A   1      43.162  29.963  35.716  1.00  0.00     0.029 A 
ATOM     61  C   UNL A   1      42.764  29.605  34.437  1.00  0.00     0.049 A 
ATOM     62  H   UNL A   1      41.160  30.360  33.294  1.00  0.00     0.167 HD
ATOM     63  C   UNL A   1      42.909  28.309  32.312  1.00  0.00     0.074 A 
ATOM     64  C   UNL A   1      43.518  27.307  31.459  1.00  0.00     0.031 C 
ATOM     65  C   UNL A   1      43.351  28.618  33.558  1.00  0.00     0.034 A 
BRANCH  52  66
ATOM     66  C   UNL A   1      40.079  33.048  36.449  1.00  0.00     0.023 A 
ATOM     67  C   UNL A   1      39.366  32.612  37.582  1.00  0.00     0.031 A 
ATOM     68  C   UNL A   1      40.563  34.367  36.449  1.00  0.00     0.131 A 
ATOM     69  C   UNL A   1      39.076  33.511  38.619  1.00  0.00     0.055 A 
ATOM     70  C   UNL A   1      40.354  35.228  37.529  1.00  0.00     0.041 A 
ATOM     71  F   UNL A   1      41.227  34.854  35.389  1.00  0.00    -0.206 F 
ATOM     72  C   UNL A   1      39.590  34.808  38.615  1.00  0.00     0.022 A 
BRANCH  69  73
ATOM     73  S   UNL A   1      37.875  33.011  39.883  1.00  0.00     0.124 S 
ATOM     74  O   UNL A   1      38.471  31.774  40.383  1.00  0.00    -0.237 OA
ATOM     75  O   UNL A   1      37.892  34.144  40.801  1.00  0.00    -0.237 OA
ATOM     76  O   UNL A   1      36.635  32.837  39.128  1.00  0.00    -0.744 OA
ENDBRANCH  69  73
ENDBRANCH  52  66
BRANCH  53  77
ATOM     77  C   UNL A   1      41.035  27.548  28.041  1.00  0.00     0.023 A 
ATOM     78  C   UNL A   1      40.701  26.185  28.018  1.00  0.00     0.031 A 
ATOM     79  C   UNL A   1      41.551  28.120  26.865  1.00  0.00     0.131 A 
ATOM     80  C   UNL A   1      40.938  25.426  26.863  1.00  0.00     0.055 A 
ATOM     81  C   UNL A   1      41.727  27.373  25.698  1.00  0.00     0.041 A 
ATOM     82  F   UNL A   1      41.879  29.421  26.827  1.00  0.00    -0.206 F 
ATOM     83  C   UNL A   1      41.434  26.013  25.698  1.00  0.00     0.022 A 
BRANCH  80  84
ATOM     84  S   UNL A   1      40.677  23.634  26.939  1.00  0.00     0.124 S 
ATOM     85  O   UNL A   1      39.278  23.521  26.540  1.00  0.00    -0.237 OA
ATOM     86  O   UNL A   1      41.660  23.143  25.979  1.00  0.00    -0.237 OA
ATOM     87  O   UNL A   1      40.956  23.309  28.336  1.00  0.00    -0.744 OA
ENDBRANCH  80  84
ENDBRANCH  53  77
BRANCH  65  88
ATOM     88  C   UNL A   1      44.522  27.826  34.083  1.00  0.00     0.023 A 
ATOM     89  C   UNL A   1      44.349  26.597  34.740  1.00  0.00     0.031 A 
ATOM     90  C   UNL A   1      45.831  28.312  33.917  1.00  0.00     0.131 A 
ATOM     91  C   UNL A   1      45.463  25.924  35.260  1.00  0.00     0.055 A 
ATOM     92  C   UNL A   1      46.941  27.600  34.370  1.00  0.00     0.041 A 
ATOM     93  F   UNL A   1      46.053  29.484  33.298  1.00  0.00    -0.206 F 
ATOM     94  C   UNL A   1      46.760  26.405  35.059  1.00  0.00     0.022 A 
BRANCH  91  95
ATOM     95  S   UNL A   1      45.186  24.459  36.291  1.00  0.00     0.124 S 
ATOM     96  O   UNL A   1      43.811  24.659  36.737  1.00  0.00    -0.237 OA
ATOM     97  O   UNL A   1      45.397  23.366  35.347  1.00  0.00    -0.237 OA
ATOM     98  O   UNL A   1      46.201  24.579  37.336  1.00  0.00    -0.744 OA
ENDBRANCH  91  95
ENDBRANCH  65  88
ENDBRANCH  39  40
ENDBRANCH  31  34
ENDBRANCH  29  30
ENDBRANCH  28  29
ENDBRANCH   1  28
TORSDOF 18
ENDMDL
