MODEL 1
REMARK VINA RESULT:     -12.4      0.000      0.000
REMARK SMILES C[C@@H]1OCC[C@@H]1C(=O)Nc1ccc(C(=O)NCCCCCCNC(=O)c2ccc(-c3c4nc(c(-c5cc(S(=O)(=O)[O-])ccc5F)c5ccc([nH]5)c(-c5cc(S(=O)(=O)[O-])ccc5F)c5nc(c(-c6cc(S(=O)(=O)[O-])ccc6F)c6ccc3[nH]6)C=C5)C=C4)cc2)cc1F
REMARK SMILES IDX 20 1 19 2 18 3 17 4 16 5 14 6 15 7 13 9 10 10 11 11 90 12
REMARK SMILES IDX 12 13 89 14 91 15 9 16 7 17 8 18 6 20 1 21 2 22 3 23 4 24
REMARK SMILES IDX 5 25 21 26 22 27 23 28 24 29 25 31 26 32 27 33 88 34 28 35
REMARK SMILES IDX 87 36 29 37 30 38 31 39 81 40 32 41 86 42 80 43 82 44 33 45
REMARK SMILES IDX 85 46 79 47 78 48 34 50 66 51 46 52 65 53 47 54 50 55 64 56
REMARK SMILES IDX 83 57 48 58 49 59 63 61 84 62 51 63 35 64 36 65 44 66 37 67
REMARK SMILES IDX 43 68 45 69 42 70 38 71 39 72 40 73 41 74 67 75 68 76 76 77
REMARK SMILES IDX 69 78 75 79 77 80 74 81 70 82 71 83 72 84 73 85 52 86 53 87
REMARK SMILES IDX 61 88 54 89 60 90 62 91 59 92 55 93 56 94 57 95 58 96
REMARK H PARENT 16 8 9 19 23 30 82 49 50 60
REMARK Flexibility Score: inf
ROOT
ATOM      1  C   UNL A   1      34.541  22.454  24.236  1.00  0.00     0.002 C 
ENDROOT
BRANCH   1   2
ATOM      2  C   UNL A   1      33.196  21.742  24.422  1.00  0.00     0.002 C 
BRANCH   2   3
ATOM      3  C   UNL A   1      32.249  21.881  23.228  1.00  0.00     0.021 C 
BRANCH   3   4
ATOM      4  C   UNL A   1      31.693  23.307  23.091  1.00  0.00     0.116 C 
BRANCH   4   5
ATOM      5  N   UNL A   1      32.304  23.994  21.950  1.00  0.00    -0.352 N 
ATOM      6  C   UNL A   1      32.543  25.319  21.643  1.00  0.00     0.251 C 
ATOM      7  O   UNL A   1      33.101  25.583  20.580  1.00  0.00    -0.269 OA
ATOM      8  H   UNL A   1      32.613  23.375  21.249  1.00  0.00     0.163 HD
BRANCH   6   9
ATOM      9  C   UNL A   1      32.233  26.429  22.582  1.00  0.00     0.042 A 
ATOM     10  C   UNL A   1      31.588  28.866  23.885  1.00  0.00     0.077 A 
ATOM     11  C   UNL A   1      30.621  27.862  23.734  1.00  0.00     0.030 A 
ATOM     12  C   UNL A   1      32.830  28.584  23.344  1.00  0.00     0.147 A 
ATOM     13  C   UNL A   1      30.924  26.681  23.017  1.00  0.00     0.016 A 
ATOM     14  C   UNL A   1      33.202  27.325  22.945  1.00  0.00     0.055 A 
ATOM     15  F   UNL A   1      33.696  29.518  22.961  1.00  0.00    -0.205 F 
BRANCH  10  16
ATOM     16  N   UNL A   1      31.253  30.031  24.612  1.00  0.00    -0.323 N 
ATOM     17  C   UNL A   1      31.777  30.650  25.723  1.00  0.00     0.230 C 
ATOM     18  O   UNL A   1      31.133  31.597  26.186  1.00  0.00    -0.274 OA
ATOM     19  H   UNL A   1      30.472  30.504  24.241  1.00  0.00     0.170 HD
BRANCH  17  20
ATOM     20  C   UNL A   1      33.108  30.250  26.324  1.00  0.00     0.110 C 
ATOM     21  C   UNL A   1      32.003  28.285  27.611  1.00  0.00     0.039 C 
ATOM     22  C   UNL A   1      33.230  28.827  26.898  1.00  0.00     0.127 C 
ATOM     23  O   UNL A   1      34.323  28.867  27.844  1.00  0.00    -0.378 OA
ATOM     24  C   UNL A   1      34.794  30.220  27.913  1.00  0.00     0.161 C 
ATOM     25  C   UNL A   1      33.608  31.069  27.501  1.00  0.00     0.044 C 
ENDBRANCH  17  20
ENDBRANCH  10  16
ENDBRANCH   6   9
ENDBRANCH   4   5
ENDBRANCH   3   4
ENDBRANCH   2   3
ENDBRANCH   1   2
BRANCH   1  26
ATOM     26  C   UNL A   1      35.652  21.996  25.186  1.00  0.00     0.021 C 
BRANCH  26  27
ATOM     27  C   UNL A   1      37.017  21.838  24.523  1.00  0.00     0.116 C 
BRANCH  27  28
ATOM     28  N   UNL A   1      37.777  20.754  25.124  1.00  0.00    -0.352 N 
ATOM     29  C   UNL A   1      38.997  20.789  25.753  1.00  0.00     0.251 C 
ATOM     30  H   UNL A   1      37.355  19.865  25.073  1.00  0.00     0.163 HD
ATOM     31  O   UNL A   1      39.608  19.747  25.954  1.00  0.00    -0.269 OA
BRANCH  29  32
ATOM     32  C   UNL A   1      39.567  22.088  26.173  1.00  0.00     0.039 A 
ATOM     33  C   UNL A   1      40.884  22.133  26.635  1.00  0.00     0.014 A 
ATOM     34  C   UNL A   1      38.794  23.252  26.132  1.00  0.00     0.014 A 
ATOM     35  C   UNL A   1      41.443  23.358  27.004  1.00  0.00     0.010 A 
ATOM     36  C   UNL A   1      39.376  24.481  26.431  1.00  0.00     0.010 A 
ATOM     37  C   UNL A   1      40.704  24.547  26.874  1.00  0.00    -0.014 A 
BRANCH  37  38
ATOM     38  C   UNL A   1      41.308  25.866  27.197  1.00  0.00     0.031 A 
ATOM     39  C   UNL A   1      42.683  26.211  26.691  1.00  0.00     0.074 A 
ATOM     40  C   UNL A   1      40.636  26.730  27.985  1.00  0.00     0.049 A 
ATOM     41  N   UNL A   1      43.406  27.273  26.935  1.00  0.00    -0.248 NA
ATOM     42  C   UNL A   1      43.342  25.226  25.815  1.00  0.00     0.031 C 
ATOM     43  C   UNL A   1      39.309  26.492  28.560  1.00  0.00     0.029 A 
ATOM     44  N   UNL A   1      40.973  27.979  28.446  1.00  0.00    -0.354 N 
ATOM     45  C   UNL A   1      44.603  27.083  26.253  1.00  0.00     0.074 A 
ATOM     46  C   UNL A   1      44.530  25.785  25.620  1.00  0.00     0.031 C 
ATOM     47  C   UNL A   1      38.936  27.569  29.270  1.00  0.00     0.029 A 
ATOM     48  C   UNL A   1      40.014  28.552  29.250  1.00  0.00     0.049 A 
ATOM     49  H   UNL A   1      41.822  28.423  28.222  1.00  0.00     0.167 HD
ATOM     50  C   UNL A   1      45.657  27.925  26.153  1.00  0.00     0.034 A 
ATOM     51  C   UNL A   1      40.008  29.727  29.912  1.00  0.00     0.034 A 
ATOM     52  C   UNL A   1      45.705  29.230  26.759  1.00  0.00     0.049 A 
ATOM     53  C   UNL A   1      41.206  30.635  29.797  1.00  0.00     0.074 A 
ATOM     54  C   UNL A   1      46.705  30.181  26.660  1.00  0.00     0.029 A 
ATOM     55  N   UNL A   1      44.720  29.768  27.573  1.00  0.00    -0.354 N 
ATOM     56  N   UNL A   1      42.318  30.444  29.127  1.00  0.00    -0.248 NA
ATOM     57  C   UNL A   1      41.151  31.910  30.522  1.00  0.00     0.031 C 
ATOM     58  C   UNL A   1      46.357  31.265  27.469  1.00  0.00     0.029 A 
ATOM     59  C   UNL A   1      45.104  31.024  28.009  1.00  0.00     0.049 A 
ATOM     60  H   UNL A   1      43.873  29.322  27.807  1.00  0.00     0.167 HD
ATOM     61  C   UNL A   1      43.084  31.587  29.332  1.00  0.00     0.074 A 
ATOM     62  C   UNL A   1      42.306  32.466  30.180  1.00  0.00     0.031 C 
ATOM     63  C   UNL A   1      44.319  31.885  28.858  1.00  0.00     0.034 A 
BRANCH  50  64
ATOM     64  C   UNL A   1      46.858  27.477  25.364  1.00  0.00     0.023 A 
ATOM     65  C   UNL A   1      47.011  27.807  24.008  1.00  0.00     0.031 A 
ATOM     66  C   UNL A   1      47.905  26.792  26.007  1.00  0.00     0.131 A 
ATOM     67  C   UNL A   1      48.185  27.441  23.332  1.00  0.00     0.055 A 
ATOM     68  C   UNL A   1      49.091  26.478  25.342  1.00  0.00     0.041 A 
ATOM     69  F   UNL A   1      47.799  26.443  27.298  1.00  0.00    -0.206 F 
ATOM     70  C   UNL A   1      49.236  26.802  23.998  1.00  0.00     0.022 A 
BRANCH  67  71
ATOM     71  S   UNL A   1      48.314  27.786  21.557  1.00  0.00     0.124 S 
ATOM     72  O   UNL A   1      48.699  26.479  21.031  1.00  0.00    -0.237 OA
ATOM     73  O   UNL A   1      46.969  28.238  21.221  1.00  0.00    -0.237 OA
ATOM     74  O   UNL A   1      49.352  28.813  21.482  1.00  0.00    -0.744 OA
ENDBRANCH  67  71
ENDBRANCH  50  64
BRANCH  51  75
ATOM     75  C   UNL A   1      38.845  30.103  30.767  1.00  0.00     0.023 A 
ATOM     76  C   UNL A   1      37.943  31.101  30.369  1.00  0.00     0.031 A 
ATOM     77  C   UNL A   1      38.636  29.481  32.011  1.00  0.00     0.131 A 
ATOM     78  C   UNL A   1      36.892  31.474  31.224  1.00  0.00     0.055 A 
ATOM     79  C   UNL A   1      37.563  29.821  32.836  1.00  0.00     0.041 A 
ATOM     80  F   UNL A   1      39.467  28.517  32.437  1.00  0.00    -0.206 F 
ATOM     81  C   UNL A   1      36.688  30.831  32.447  1.00  0.00     0.022 A 
BRANCH  78  82
ATOM     82  S   UNL A   1      35.825  32.859  30.740  1.00  0.00     0.124 S 
ATOM     83  O   UNL A   1      36.298  33.919  31.623  1.00  0.00    -0.237 OA
ATOM     84  O   UNL A   1      36.146  33.010  29.324  1.00  0.00    -0.237 OA
ATOM     85  O   UNL A   1      34.479  32.365  31.021  1.00  0.00    -0.744 OA
ENDBRANCH  78  82
ENDBRANCH  51  75
BRANCH  63  86
ATOM     86  C   UNL A   1      44.899  33.229  29.211  1.00  0.00     0.023 A 
ATOM     87  C   UNL A   1      44.716  34.347  28.383  1.00  0.00     0.031 A 
ATOM     88  C   UNL A   1      45.588  33.401  30.424  1.00  0.00     0.131 A 
ATOM     89  C   UNL A   1      45.239  35.590  28.770  1.00  0.00     0.055 A 
ATOM     90  C   UNL A   1      46.062  34.648  30.827  1.00  0.00     0.041 A 
ATOM     91  F   UNL A   1      45.785  32.361  31.252  1.00  0.00    -0.206 F 
ATOM     92  C   UNL A   1      45.893  35.752  29.995  1.00  0.00     0.022 A 
BRANCH  89  93
ATOM     93  S   UNL A   1      45.079  36.994  27.635  1.00  0.00     0.124 S 
ATOM     94  O   UNL A   1      45.624  38.090  28.429  1.00  0.00    -0.237 OA
ATOM     95  O   UNL A   1      45.884  36.573  26.493  1.00  0.00    -0.237 OA
ATOM     96  O   UNL A   1      43.640  37.068  27.381  1.00  0.00    -0.744 OA
ENDBRANCH  89  93
ENDBRANCH  63  86
ENDBRANCH  37  38
ENDBRANCH  29  32
ENDBRANCH  27  28
ENDBRANCH  26  27
ENDBRANCH   1  26
TORSDOF 18
ENDMDL
MODEL 2
REMARK VINA RESULT:     -12.4      2.712      4.244
REMARK SMILES C[C@@H]1OCC[C@@H]1C(=O)Nc1ccc(C(=O)NCCCCCCNC(=O)c2ccc(-c3c4nc(c(-c5cc(S(=O)(=O)[O-])ccc5F)c5ccc([nH]5)c(-c5cc(S(=O)(=O)[O-])ccc5F)c5nc(c(-c6cc(S(=O)(=O)[O-])ccc6F)c6ccc3[nH]6)C=C5)C=C4)cc2)cc1F
REMARK SMILES IDX 20 1 19 2 18 3 17 4 16 5 14 6 15 7 13 9 10 10 11 11 90 12
REMARK SMILES IDX 12 13 89 14 91 15 9 16 7 17 8 18 6 20 1 21 2 22 3 23 4 24
REMARK SMILES IDX 5 25 21 26 22 27 23 28 24 29 25 31 26 32 27 33 88 34 28 35
REMARK SMILES IDX 87 36 29 37 30 38 31 39 81 40 32 41 86 42 80 43 82 44 33 45
REMARK SMILES IDX 85 46 79 47 78 48 34 50 66 51 46 52 65 53 47 54 50 55 64 56
REMARK SMILES IDX 83 57 48 58 49 59 63 61 84 62 51 63 35 64 36 65 44 66 37 67
REMARK SMILES IDX 43 68 45 69 42 70 38 71 39 72 40 73 41 74 67 75 68 76 76 77
REMARK SMILES IDX 69 78 75 79 77 80 74 81 70 82 71 83 72 84 73 85 52 86 53 87
REMARK SMILES IDX 61 88 54 89 60 90 62 91 59 92 55 93 56 94 57 95 58 96
REMARK H PARENT 16 8 9 19 23 30 82 49 50 60
REMARK Flexibility Score: inf
ROOT
ATOM      1  C   UNL A   1      40.728  21.942  27.684  1.00  0.00     0.002 C 
ENDROOT
BRANCH   1   2
ATOM      2  C   UNL A   1      40.245  22.646  26.411  1.00  0.00     0.002 C 
BRANCH   2   3
ATOM      3  C   UNL A   1      38.845  23.252  26.528  1.00  0.00     0.021 C 
BRANCH   3   4
ATOM      4  C   UNL A   1      37.761  22.325  25.956  1.00  0.00     0.116 C 
BRANCH   4   5
ATOM      5  N   UNL A   1      37.633  22.510  24.508  1.00  0.00    -0.352 N 
ATOM      6  C   UNL A   1      36.596  22.879  23.675  1.00  0.00     0.251 C 
ATOM      7  O   UNL A   1      36.813  22.956  22.467  1.00  0.00    -0.269 OA
ATOM      8  H   UNL A   1      38.471  22.330  24.023  1.00  0.00     0.163 HD
BRANCH   6   9
ATOM      9  C   UNL A   1      35.256  23.272  24.187  1.00  0.00     0.042 A 
ATOM     10  C   UNL A   1      32.786  23.586  25.547  1.00  0.00     0.077 A 
ATOM     11  C   UNL A   1      33.853  24.460  25.798  1.00  0.00     0.030 A 
ATOM     12  C   UNL A   1      33.040  22.582  24.629  1.00  0.00     0.147 A 
ATOM     13  C   UNL A   1      35.107  24.254  25.176  1.00  0.00     0.016 A 
ATOM     14  C   UNL A   1      34.136  22.587  23.801  1.00  0.00     0.055 A 
ATOM     15  F   UNL A   1      32.385  21.425  24.601  1.00  0.00    -0.205 F 
BRANCH  10  16
ATOM     16  N   UNL A   1      31.545  23.824  26.181  1.00  0.00    -0.323 N 
ATOM     17  C   UNL A   1      30.563  24.776  26.036  1.00  0.00     0.230 C 
ATOM     18  O   UNL A   1      29.656  24.770  26.874  1.00  0.00    -0.274 OA
ATOM     19  H   UNL A   1      31.339  23.162  26.880  1.00  0.00     0.170 HD
BRANCH  17  20
ATOM     20  C   UNL A   1      30.541  25.751  24.878  1.00  0.00     0.110 C 
ATOM     21  C   UNL A   1      31.407  27.670  26.397  1.00  0.00     0.039 C 
ATOM     22  C   UNL A   1      31.373  27.039  25.015  1.00  0.00     0.127 C 
ATOM     23  O   UNL A   1      30.793  27.993  24.096  1.00  0.00    -0.378 OA
ATOM     24  C   UNL A   1      29.647  27.378  23.491  1.00  0.00     0.161 C 
ATOM     25  C   UNL A   1      29.192  26.330  24.488  1.00  0.00     0.044 C 
ENDBRANCH  17  20
ENDBRANCH  10  16
ENDBRANCH   6   9
ENDBRANCH   4   5
ENDBRANCH   3   4
ENDBRANCH   2   3
ENDBRANCH   1   2
BRANCH   1  26
ATOM     26  C   UNL A   1      41.123  20.473  27.502  1.00  0.00     0.021 C 
BRANCH  26  27
ATOM     27  C   UNL A   1      41.034  19.976  26.062  1.00  0.00     0.116 C 
BRANCH  27  28
ATOM     28  N   UNL A   1      42.259  19.305  25.656  1.00  0.00    -0.352 N 
ATOM     29  C   UNL A   1      43.477  19.842  25.317  1.00  0.00     0.251 C 
ATOM     30  H   UNL A   1      42.207  18.322  25.618  1.00  0.00     0.163 HD
ATOM     31  O   UNL A   1      44.307  19.151  24.741  1.00  0.00    -0.269 OA
BRANCH  29  32
ATOM     32  C   UNL A   1      43.769  21.255  25.644  1.00  0.00     0.039 A 
ATOM     33  C   UNL A   1      43.495  22.241  24.694  1.00  0.00     0.014 A 
ATOM     34  C   UNL A   1      44.335  21.600  26.875  1.00  0.00     0.014 A 
ATOM     35  C   UNL A   1      43.737  23.581  25.003  1.00  0.00     0.010 A 
ATOM     36  C   UNL A   1      44.507  22.941  27.207  1.00  0.00     0.010 A 
ATOM     37  C   UNL A   1      44.214  23.945  26.274  1.00  0.00    -0.014 A 
BRANCH  37  38
ATOM     38  C   UNL A   1      44.412  25.371  26.641  1.00  0.00     0.031 A 
ATOM     39  C   UNL A   1      45.775  26.000  26.520  1.00  0.00     0.074 A 
ATOM     40  C   UNL A   1      43.374  26.084  27.127  1.00  0.00     0.049 A 
ATOM     41  N   UNL A   1      46.160  27.200  26.866  1.00  0.00    -0.248 NA
ATOM     42  C   UNL A   1      46.851  25.165  25.956  1.00  0.00     0.031 C 
ATOM     43  C   UNL A   1      42.014  25.572  27.318  1.00  0.00     0.029 A 
ATOM     44  N   UNL A   1      43.298  27.386  27.555  1.00  0.00    -0.354 N 
ATOM     45  C   UNL A   1      47.518  27.264  26.573  1.00  0.00     0.074 A 
ATOM     46  C   UNL A   1      47.902  25.967  26.061  1.00  0.00     0.031 C 
ATOM     47  C   UNL A   1      41.236  26.556  27.797  1.00  0.00     0.029 A 
ATOM     48  C   UNL A   1      42.047  27.752  27.999  1.00  0.00     0.049 A 
ATOM     49  H   UNL A   1      44.065  28.002  27.544  1.00  0.00     0.167 HD
ATOM     50  C   UNL A   1      48.359  28.315  26.705  1.00  0.00     0.034 A 
ATOM     51  C   UNL A   1      41.605  28.911  28.528  1.00  0.00     0.034 A 
ATOM     52  C   UNL A   1      47.957  29.612  27.184  1.00  0.00     0.049 A 
ATOM     53  C   UNL A   1      42.571  30.058  28.681  1.00  0.00     0.074 A 
ATOM     54  C   UNL A   1      48.725  30.758  27.292  1.00  0.00     0.029 A 
ATOM     55  N   UNL A   1      46.686  29.937  27.634  1.00  0.00    -0.354 N 
ATOM     56  N   UNL A   1      43.847  30.102  28.375  1.00  0.00    -0.248 NA
ATOM     57  C   UNL A   1      42.044  31.306  29.247  1.00  0.00     0.031 C 
ATOM     58  C   UNL A   1      47.939  31.756  27.872  1.00  0.00     0.029 A 
ATOM     59  C   UNL A   1      46.659  31.257  28.052  1.00  0.00     0.049 A 
ATOM     60  H   UNL A   1      45.918  29.322  27.655  1.00  0.00     0.167 HD
ATOM     61  C   UNL A   1      44.267  31.390  28.690  1.00  0.00     0.074 A 
ATOM     62  C   UNL A   1      43.110  32.094  29.202  1.00  0.00     0.031 C 
ATOM     63  C   UNL A   1      45.499  31.942  28.564  1.00  0.00     0.034 A 
BRANCH  50  64
ATOM     64  C   UNL A   1      49.804  28.125  26.333  1.00  0.00     0.023 A 
ATOM     65  C   UNL A   1      50.267  28.371  25.030  1.00  0.00     0.031 A 
ATOM     66  C   UNL A   1      50.745  27.786  27.322  1.00  0.00     0.131 A 
ATOM     67  C   UNL A   1      51.636  28.263  24.746  1.00  0.00     0.055 A 
ATOM     68  C   UNL A   1      52.112  27.731  27.044  1.00  0.00     0.041 A 
ATOM     69  F   UNL A   1      50.351  27.528  28.579  1.00  0.00    -0.206 F 
ATOM     70  C   UNL A   1      52.564  27.970  25.751  1.00  0.00     0.022 A 
BRANCH  67  71
ATOM     71  S   UNL A   1      52.194  28.482  23.036  1.00  0.00     0.124 S 
ATOM     72  O   UNL A   1      51.380  29.616  22.604  1.00  0.00    -0.237 OA
ATOM     73  O   UNL A   1      53.619  28.745  23.195  1.00  0.00    -0.237 OA
ATOM     74  O   UNL A   1      51.864  27.207  22.401  1.00  0.00    -0.744 OA
ENDBRANCH  67  71
ENDBRANCH  50  64
BRANCH  51  75
ATOM     75  C   UNL A   1      40.189  29.040  28.981  1.00  0.00     0.023 A 
ATOM     76  C   UNL A   1      39.850  28.950  30.340  1.00  0.00     0.031 A 
ATOM     77  C   UNL A   1      39.152  29.230  28.052  1.00  0.00     0.131 A 
ATOM     78  C   UNL A   1      38.502  29.015  30.729  1.00  0.00     0.055 A 
ATOM     79  C   UNL A   1      37.818  29.342  28.447  1.00  0.00     0.041 A 
ATOM     80  F   UNL A   1      39.422  29.327  26.741  1.00  0.00    -0.206 F 
ATOM     81  C   UNL A   1      37.485  29.225  29.793  1.00  0.00     0.022 A 
BRANCH  78  82
ATOM     82  S   UNL A   1      38.085  28.761  32.475  1.00  0.00     0.124 S 
ATOM     83  O   UNL A   1      36.727  29.289  32.535  1.00  0.00    -0.237 OA
ATOM     84  O   UNL A   1      38.221  27.314  32.613  1.00  0.00    -0.237 OA
ATOM     85  O   UNL A   1      39.093  29.547  33.183  1.00  0.00    -0.744 OA
ENDBRANCH  78  82
ENDBRANCH  51  75
BRANCH  63  86
ATOM     86  C   UNL A   1      45.661  33.389  28.949  1.00  0.00     0.023 A 
ATOM     87  C   UNL A   1      45.423  34.424  28.033  1.00  0.00     0.031 A 
ATOM     88  C   UNL A   1      45.996  33.731  30.271  1.00  0.00     0.131 A 
ATOM     89  C   UNL A   1      45.546  35.759  28.445  1.00  0.00     0.055 A 
ATOM     90  C   UNL A   1      46.068  35.059  30.688  1.00  0.00     0.041 A 
ATOM     91  F   UNL A   1      46.230  32.775  31.186  1.00  0.00    -0.206 F 
ATOM     92  C   UNL A   1      45.848  36.083  29.771  1.00  0.00     0.022 A 
BRANCH  89  93
ATOM     93  S   UNL A   1      45.334  37.074  27.215  1.00  0.00     0.124 S 
ATOM     94  O   UNL A   1      45.730  38.260  27.969  1.00  0.00    -0.237 OA
ATOM     95  O   UNL A   1      46.243  36.662  26.150  1.00  0.00    -0.237 OA
ATOM     96  O   UNL A   1      43.914  37.001  26.876  1.00  0.00    -0.744 OA
ENDBRANCH  89  93
ENDBRANCH  63  86
ENDBRANCH  37  38
ENDBRANCH  29  32
ENDBRANCH  27  28
ENDBRANCH  26  27
ENDBRANCH   1  26
TORSDOF 18
ENDMDL
MODEL 3
REMARK VINA RESULT:     -12.3      4.873      9.733
REMARK SMILES C[C@@H]1OCC[C@@H]1C(=O)Nc1ccc(C(=O)NCCCCCCNC(=O)c2ccc(-c3c4nc(c(-c5cc(S(=O)(=O)[O-])ccc5F)c5ccc([nH]5)c(-c5cc(S(=O)(=O)[O-])ccc5F)c5nc(c(-c6cc(S(=O)(=O)[O-])ccc6F)c6ccc3[nH]6)C=C5)C=C4)cc2)cc1F
REMARK SMILES IDX 20 1 19 2 18 3 17 4 16 5 14 6 15 7 13 9 10 10 11 11 90 12
REMARK SMILES IDX 12 13 89 14 91 15 9 16 7 17 8 18 6 20 1 21 2 22 3 23 4 24
REMARK SMILES IDX 5 25 21 26 22 27 23 28 24 29 25 31 26 32 27 33 88 34 28 35
REMARK SMILES IDX 87 36 29 37 30 38 31 39 81 40 32 41 86 42 80 43 82 44 33 45
REMARK SMILES IDX 85 46 79 47 78 48 34 50 66 51 46 52 65 53 47 54 50 55 64 56
REMARK SMILES IDX 83 57 48 58 49 59 63 61 84 62 51 63 35 64 36 65 44 66 37 67
REMARK SMILES IDX 43 68 45 69 42 70 38 71 39 72 40 73 41 74 67 75 68 76 76 77
REMARK SMILES IDX 69 78 75 79 77 80 74 81 70 82 71 83 72 84 73 85 52 86 53 87
REMARK SMILES IDX 61 88 54 89 60 90 62 91 59 92 55 93 56 94 57 95 58 96
REMARK H PARENT 16 8 9 19 23 30 82 49 50 60
REMARK Flexibility Score: inf
ROOT
ATOM      1  C   UNL A   1      31.633  28.561  26.824  1.00  0.00     0.002 C 
ENDROOT
BRANCH   1   2
ATOM      2  C   UNL A   1      31.120  28.139  25.442  1.00  0.00     0.002 C 
BRANCH   2   3
ATOM      3  C   UNL A   1      31.070  29.279  24.423  1.00  0.00     0.021 C 
BRANCH   3   4
ATOM      4  C   UNL A   1      31.083  28.764  22.975  1.00  0.00     0.116 C 
BRANCH   4   5
ATOM      5  N   UNL A   1      32.434  28.838  22.411  1.00  0.00    -0.352 N 
ATOM      6  C   UNL A   1      33.486  27.949  22.320  1.00  0.00     0.251 C 
ATOM      7  O   UNL A   1      34.518  28.317  21.762  1.00  0.00    -0.269 OA
ATOM      8  H   UNL A   1      32.635  29.714  22.009  1.00  0.00     0.163 HD
BRANCH   6   9
ATOM      9  C   UNL A   1      33.391  26.541  22.789  1.00  0.00     0.042 A 
ATOM     10  C   UNL A   1      32.698  24.030  23.914  1.00  0.00     0.077 A 
ATOM     11  C   UNL A   1      32.537  24.264  22.541  1.00  0.00     0.030 A 
ATOM     12  C   UNL A   1      33.184  25.098  24.648  1.00  0.00     0.147 A 
ATOM     13  C   UNL A   1      32.811  25.540  21.997  1.00  0.00     0.016 A 
ATOM     14  C   UNL A   1      33.746  26.208  24.068  1.00  0.00     0.055 A 
ATOM     15  F   UNL A   1      32.968  25.256  25.951  1.00  0.00    -0.205 F 
BRANCH  10  16
ATOM     16  N   UNL A   1      32.420  22.741  24.424  1.00  0.00    -0.323 N 
ATOM     17  C   UNL A   1      33.179  21.615  24.645  1.00  0.00     0.230 C 
ATOM     18  O   UNL A   1      32.571  20.592  24.973  1.00  0.00    -0.274 OA
ATOM     19  H   UNL A   1      31.476  22.623  24.676  1.00  0.00     0.170 HD
BRANCH  17  20
ATOM     20  C   UNL A   1      34.691  21.625  24.559  1.00  0.00     0.110 C 
ATOM     21  C   UNL A   1      34.876  22.765  26.885  1.00  0.00     0.039 C 
ATOM     22  C   UNL A   1      35.477  21.806  25.870  1.00  0.00     0.127 C 
ATOM     23  O   UNL A   1      36.780  22.306  25.492  1.00  0.00    -0.378 OA
ATOM     24  C   UNL A   1      36.782  22.494  24.071  1.00  0.00     0.161 C 
ATOM     25  C   UNL A   1      35.327  22.704  23.701  1.00  0.00     0.044 C 
ENDBRANCH  17  20
ENDBRANCH  10  16
ENDBRANCH   6   9
ENDBRANCH   4   5
ENDBRANCH   3   4
ENDBRANCH   2   3
ENDBRANCH   1   2
BRANCH   1  26
ATOM     26  C   UNL A   1      33.132  28.344  27.052  1.00  0.00     0.021 C 
BRANCH  26  27
ATOM     27  C   UNL A   1      34.023  29.389  26.387  1.00  0.00     0.116 C 
BRANCH  27  28
ATOM     28  N   UNL A   1      33.887  30.687  27.027  1.00  0.00    -0.352 N 
ATOM     29  C   UNL A   1      34.608  31.228  28.064  1.00  0.00     0.251 C 
ATOM     30  H   UNL A   1      33.174  31.262  26.666  1.00  0.00     0.163 HD
ATOM     31  O   UNL A   1      34.182  32.214  28.651  1.00  0.00    -0.269 OA
BRANCH  29  32
ATOM     32  C   UNL A   1      35.889  30.607  28.466  1.00  0.00     0.039 A 
ATOM     33  C   UNL A   1      37.056  30.955  27.782  1.00  0.00     0.014 A 
ATOM     34  C   UNL A   1      35.932  29.668  29.501  1.00  0.00     0.014 A 
ATOM     35  C   UNL A   1      38.275  30.400  28.174  1.00  0.00     0.010 A 
ATOM     36  C   UNL A   1      37.158  29.172  29.936  1.00  0.00     0.010 A 
ATOM     37  C   UNL A   1      38.342  29.529  29.275  1.00  0.00    -0.014 A 
BRANCH  37  38
ATOM     38  C   UNL A   1      39.641  28.984  29.746  1.00  0.00     0.031 A 
ATOM     39  C   UNL A   1      40.389  29.670  30.859  1.00  0.00     0.074 A 
ATOM     40  C   UNL A   1      40.168  27.901  29.138  1.00  0.00     0.049 A 
ATOM     41  N   UNL A   1      41.568  29.393  31.349  1.00  0.00    -0.248 NA
ATOM     42  C   UNL A   1      39.736  30.831  31.489  1.00  0.00     0.031 C 
ATOM     43  C   UNL A   1      39.549  27.170  28.029  1.00  0.00     0.029 A 
ATOM     44  N   UNL A   1      41.344  27.226  29.360  1.00  0.00    -0.354 N 
ATOM     45  C   UNL A   1      41.804  30.345  32.334  1.00  0.00     0.074 A 
ATOM     46  C   UNL A   1      40.665  31.235  32.345  1.00  0.00     0.031 C 
ATOM     47  C   UNL A   1      40.336  26.137  27.688  1.00  0.00     0.029 A 
ATOM     48  C   UNL A   1      41.538  26.158  28.514  1.00  0.00     0.049 A 
ATOM     49  H   UNL A   1      41.986  27.481  30.061  1.00  0.00     0.167 HD
ATOM     50  C   UNL A   1      42.867  30.452  33.164  1.00  0.00     0.034 A 
ATOM     51  C   UNL A   1      42.576  25.303  28.400  1.00  0.00     0.034 A 
ATOM     52  C   UNL A   1      43.980  29.539  33.167  1.00  0.00     0.049 A 
ATOM     53  C   UNL A   1      43.755  25.461  29.325  1.00  0.00     0.074 A 
ATOM     54  C   UNL A   1      45.074  29.530  34.015  1.00  0.00     0.029 A 
ATOM     55  N   UNL A   1      44.146  28.480  32.288  1.00  0.00    -0.354 N 
ATOM     56  N   UNL A   1      43.946  26.355  30.267  1.00  0.00    -0.248 NA
ATOM     57  C   UNL A   1      44.855  24.500  29.177  1.00  0.00     0.031 C 
ATOM     58  C   UNL A   1      45.934  28.509  33.605  1.00  0.00     0.029 A 
ATOM     59  C   UNL A   1      45.340  27.831  32.553  1.00  0.00     0.049 A 
ATOM     60  H   UNL A   1      43.509  28.227  31.581  1.00  0.00     0.167 HD
ATOM     61  C   UNL A   1      45.177  26.049  30.837  1.00  0.00     0.074 A 
ATOM     62  C   UNL A   1      45.681  24.883  30.141  1.00  0.00     0.031 C 
ATOM     63  C   UNL A   1      45.830  26.673  31.848  1.00  0.00     0.034 A 
BRANCH  50  64
ATOM     64  C   UNL A   1      42.898  31.594  34.144  1.00  0.00     0.023 A 
ATOM     65  C   UNL A   1      42.273  31.504  35.398  1.00  0.00     0.031 A 
ATOM     66  C   UNL A   1      43.644  32.750  33.852  1.00  0.00     0.131 A 
ATOM     67  C   UNL A   1      42.397  32.559  36.314  1.00  0.00     0.055 A 
ATOM     68  C   UNL A   1      43.806  33.773  34.787  1.00  0.00     0.041 A 
ATOM     69  F   UNL A   1      44.248  32.889  32.661  1.00  0.00    -0.206 F 
ATOM     70  C   UNL A   1      43.181  33.680  36.026  1.00  0.00     0.022 A 
BRANCH  67  71
ATOM     71  S   UNL A   1      41.495  32.463  37.883  1.00  0.00     0.124 S 
ATOM     72  O   UNL A   1      40.206  31.931  37.449  1.00  0.00    -0.237 OA
ATOM     73  O   UNL A   1      42.324  31.560  38.674  1.00  0.00    -0.237 OA
ATOM     74  O   UNL A   1      41.468  33.849  38.348  1.00  0.00    -0.744 OA
ENDBRANCH  67  71
ENDBRANCH  50  64
BRANCH  51  75
ATOM     75  C   UNL A   1      42.563  24.240  27.353  1.00  0.00     0.023 A 
ATOM     76  C   UNL A   1      41.862  23.040  27.545  1.00  0.00     0.031 A 
ATOM     77  C   UNL A   1      43.278  24.404  26.154  1.00  0.00     0.131 A 
ATOM     78  C   UNL A   1      41.918  22.034  26.566  1.00  0.00     0.055 A 
ATOM     79  C   UNL A   1      43.292  23.421  25.163  1.00  0.00     0.041 A 
ATOM     80  F   UNL A   1      43.962  25.535  25.918  1.00  0.00    -0.206 F 
ATOM     81  C   UNL A   1      42.617  22.222  25.371  1.00  0.00     0.022 A 
BRANCH  78  82
ATOM     82  S   UNL A   1      41.113  20.445  26.903  1.00  0.00     0.124 S 
ATOM     83  O   UNL A   1      39.935  20.522  26.045  1.00  0.00    -0.237 OA
ATOM     84  O   UNL A   1      42.141  19.490  26.501  1.00  0.00    -0.237 OA
ATOM     85  O   UNL A   1      40.844  20.497  28.338  1.00  0.00    -0.744 OA
ENDBRANCH  78  82
ENDBRANCH  51  75
BRANCH  63  86
ATOM     86  C   UNL A   1      47.146  26.094  32.294  1.00  0.00     0.023 A 
ATOM     87  C   UNL A   1      47.226  25.196  33.370  1.00  0.00     0.031 A 
ATOM     88  C   UNL A   1      48.324  26.398  31.590  1.00  0.00     0.131 A 
ATOM     89  C   UNL A   1      48.467  24.648  33.727  1.00  0.00     0.055 A 
ATOM     90  C   UNL A   1      49.546  25.813  31.917  1.00  0.00     0.041 A 
ATOM     91  F   UNL A   1      48.298  27.249  30.550  1.00  0.00    -0.206 F 
ATOM     92  C   UNL A   1      49.623  24.936  32.996  1.00  0.00     0.022 A 
BRANCH  89  93
ATOM     93  S   UNL A   1      48.558  23.573  35.183  1.00  0.00     0.124 S 
ATOM     94  O   UNL A   1      49.991  23.555  35.457  1.00  0.00    -0.237 OA
ATOM     95  O   UNL A   1      47.732  24.283  36.155  1.00  0.00    -0.237 OA
ATOM     96  O   UNL A   1      48.001  22.306  34.710  1.00  0.00    -0.744 OA
ENDBRANCH  89  93
ENDBRANCH  63  86
ENDBRANCH  37  38
ENDBRANCH  29  32
ENDBRANCH  27  28
ENDBRANCH  26  27
ENDBRANCH   1  26
TORSDOF 18
ENDMDL
