MODEL 1
REMARK VINA RESULT:     -11.5      0.000      0.000
REMARK SMILES CCCCc1cc(S(F)(F)(F)(F)F)cc2c1O[C@@H](C(F)(F)F)C(C(=O)NCCCCCCNC(=O)c1ccc(-c3c4nc(c(-c5cc(S(=O)(=O)[O-])ccc5F)c5ccc([nH]5)c(-c5cc(S(=O)(=O)[O-])ccc5F)c5nc(c(-c6cc(S(=O)(=O)[O-])ccc6F)c6ccc3[nH]6)C=C5)C=C4)cc1)=C2
REMARK SMILES IDX 29 1 28 2 27 3 26 4 24 5 25 6 23 8 5 9 6 10 16 11 7 12 15 13
REMARK SMILES IDX 17 14 14 15 99 16 18 17 4 18 3 19 2 20 1 21 8 22 9 23 10 24
REMARK SMILES IDX 11 25 12 26 13 27 19 28 20 29 21 30 22 31 30 32 31 33 32 34
REMARK SMILES IDX 33 35 34 36 35 38 36 39 37 40 98 41 38 42 97 43 39 44 40 45
REMARK SMILES IDX 41 46 91 47 42 48 96 49 90 50 92 51 43 52 95 53 89 54 88 55
REMARK SMILES IDX 44 57 76 58 56 59 75 60 57 61 60 62 74 63 93 64 58 65 59 66
REMARK SMILES IDX 73 68 94 69 61 70 45 71 46 72 54 73 47 74 53 75 55 76 52 77
REMARK SMILES IDX 48 78 49 79 50 80 51 81 77 82 78 83 86 84 79 85 85 86 87 87
REMARK SMILES IDX 84 88 80 89 81 90 82 91 83 92 62 93 63 94 71 95 64 96 70 97
REMARK SMILES IDX 72 98 69 99 65 100 66 101 67 102 68 103
REMARK H PARENT 26 7 33 37 92 56 60 67
REMARK Flexibility Score: inf
ROOT
ATOM      1  C   UNL A   1      30.893  27.339  26.458  1.00  0.00     0.002 C 
ENDROOT
BRANCH   1   2
ATOM      2  C   UNL A   1      31.379  25.908  26.619  1.00  0.00     0.021 C 
BRANCH   2   3
ATOM      3  C   UNL A   1      30.399  24.961  25.947  1.00  0.00     0.116 C 
BRANCH   3   4
ATOM      4  N   UNL A   1      30.265  25.322  24.528  1.00  0.00    -0.352 N 
ATOM      5  C   UNL A   1      31.088  24.643  23.517  1.00  0.00     0.251 C 
ATOM      6  O   UNL A   1      30.973  24.955  22.290  1.00  0.00    -0.270 OA
ATOM      7  H   UNL A   1      29.622  26.016  24.254  1.00  0.00     0.163 HD
BRANCH   5   8
ATOM      8  C   UNL A   1      32.079  23.571  23.938  1.00  0.00     0.067 C 
ATOM      9  C   UNL A   1      35.033  20.701  24.642  1.00  0.00    -0.004 A 
ATOM     10  C   UNL A   1      34.692  19.363  24.713  1.00  0.00     0.032 A 
ATOM     11  C   UNL A   1      34.051  21.619  24.356  1.00  0.00     0.131 A 
ATOM     12  C   UNL A   1      33.403  18.952  24.497  1.00  0.00     0.108 A 
ATOM     13  C   UNL A   1      32.736  21.242  24.152  1.00  0.00     0.019 A 
ATOM     14  O   UNL A   1      34.424  22.928  24.179  1.00  0.00    -0.475 OA
ATOM     15  C   UNL A   1      32.427  19.889  24.224  1.00  0.00     0.036 A 
ATOM     16  C   UNL A   1      31.778  22.284  23.817  1.00  0.00     0.025 C 
ATOM     17  C   UNL A   1      33.440  23.949  24.508  1.00  0.00     0.314 C 
BRANCH   9  18
ATOM     18  C   UNL A   1      36.466  21.149  24.878  1.00  0.00     0.039 C 
BRANCH  18  19
ATOM     19  C   UNL A   1      36.558  21.877  26.208  1.00  0.00     0.005 C 
BRANCH  19  20
ATOM     20  C   UNL A   1      37.741  22.831  26.183  1.00  0.00    -0.003 C 
ATOM     21  C   UNL A   1      37.617  23.760  24.985  1.00  0.00     0.004 C 
ENDBRANCH  19  20
ENDBRANCH  18  19
ENDBRANCH   9  18
BRANCH  12  22
ATOM     22  S   UNL A   1      32.982  17.193  24.569  1.00  0.00     0.310 S 
ATOM     23  F   UNL A   1      34.508  16.762  24.541  1.00  0.00    -0.094 F 
ATOM     24  F   UNL A   1      33.010  17.145  22.995  1.00  0.00    -0.094 F 
ATOM     25  F   UNL A   1      32.619  15.683  24.637  1.00  0.00    -0.094 F 
ATOM     26  F   UNL A   1      33.095  17.228  26.144  1.00  0.00    -0.094 F 
ATOM     27  F   UNL A   1      33.460  18.699  24.516  1.00  0.00    -0.094 F 
ENDBRANCH  12  22
BRANCH  17  28
ATOM     28  C   UNL A   1      33.880  25.274  23.905  1.00  0.00     0.429 C 
ATOM     29  F   UNL A   1      35.035  25.646  24.447  1.00  0.00    -0.167 F 
ATOM     30  F   UNL A   1      34.032  25.133  22.591  1.00  0.00    -0.167 F 
ATOM     31  F   UNL A   1      32.956  26.199  24.148  1.00  0.00    -0.167 F 
ENDBRANCH  17  28
ENDBRANCH   5   8
ENDBRANCH   3   4
ENDBRANCH   2   3
ENDBRANCH   1   2
BRANCH   1  32
ATOM     32  C   UNL A   1      31.861  28.284  27.152  1.00  0.00     0.002 C 
BRANCH  32  33
ATOM     33  C   UNL A   1      33.287  27.820  26.906  1.00  0.00     0.021 C 
BRANCH  33  34
ATOM     34  C   UNL A   1      34.040  28.888  26.130  1.00  0.00     0.116 C 
BRANCH  34  35
ATOM     35  N   UNL A   1      33.571  30.218  26.546  1.00  0.00    -0.352 N 
ATOM     36  C   UNL A   1      34.357  31.007  27.506  1.00  0.00     0.251 C 
ATOM     37  H   UNL A   1      32.732  30.581  26.181  1.00  0.00     0.163 HD
ATOM     38  O   UNL A   1      33.951  32.157  27.865  1.00  0.00    -0.269 OA
BRANCH  36  39
ATOM     39  C   UNL A   1      35.654  30.448  28.068  1.00  0.00     0.039 A 
ATOM     40  C   UNL A   1      35.624  29.553  29.125  1.00  0.00     0.014 A 
ATOM     41  C   UNL A   1      36.801  30.832  27.521  1.00  0.00     0.014 A 
ATOM     42  C   UNL A   1      36.886  29.338  29.729  1.00  0.00     0.010 A 
ATOM     43  C   UNL A   1      38.000  30.472  28.087  1.00  0.00     0.010 A 
ATOM     44  C   UNL A   1      38.045  29.637  29.169  1.00  0.00    -0.014 A 
BRANCH  44  45
ATOM     45  C   UNL A   1      39.356  29.083  29.701  1.00  0.00     0.031 A 
ATOM     46  C   UNL A   1      39.940  29.718  30.799  1.00  0.00     0.074 A 
ATOM     47  C   UNL A   1      39.900  27.980  29.066  1.00  0.00     0.049 A 
ATOM     48  N   UNL A   1      41.060  29.376  31.435  1.00  0.00    -0.248 NA
ATOM     49  C   UNL A   1      39.381  30.911  31.453  1.00  0.00     0.031 C 
ATOM     50  C   UNL A   1      39.315  27.328  27.963  1.00  0.00     0.029 A 
ATOM     51  N   UNL A   1      41.073  27.323  29.369  1.00  0.00    -0.354 N 
ATOM     52  C   UNL A   1      41.287  30.212  32.451  1.00  0.00     0.074 A 
ATOM     53  C   UNL A   1      40.213  31.215  32.473  1.00  0.00     0.031 C 
ATOM     54  C   UNL A   1      40.127  26.301  27.598  1.00  0.00     0.029 A 
ATOM     55  C   UNL A   1      41.235  26.294  28.468  1.00  0.00     0.049 A 
ATOM     56  H   UNL A   1      41.689  27.551  30.101  1.00  0.00     0.167 HD
ATOM     57  C   UNL A   1      42.345  30.177  33.360  1.00  0.00     0.034 A 
ATOM     58  C   UNL A   1      42.282  25.389  28.392  1.00  0.00     0.034 A 
ATOM     59  C   UNL A   1      43.370  29.245  33.311  1.00  0.00     0.049 A 
ATOM     60  C   UNL A   1      43.372  25.390  29.266  1.00  0.00     0.074 A 
ATOM     61  C   UNL A   1      44.440  29.190  34.224  1.00  0.00     0.029 A 
ATOM     62  N   UNL A   1      43.544  28.230  32.396  1.00  0.00    -0.354 N 
ATOM     63  N   UNL A   1      43.576  26.200  30.305  1.00  0.00    -0.248 NA
ATOM     64  C   UNL A   1      44.502  24.457  29.175  1.00  0.00     0.031 C 
ATOM     65  C   UNL A   1      45.253  28.163  33.860  1.00  0.00     0.029 A 
ATOM     66  C   UNL A   1      44.704  27.560  32.712  1.00  0.00     0.049 A 
ATOM     67  H   UNL A   1      42.943  28.020  31.644  1.00  0.00     0.167 HD
ATOM     68  C   UNL A   1      44.720  25.884  30.917  1.00  0.00     0.074 A 
ATOM     69  C   UNL A   1      45.336  24.762  30.194  1.00  0.00     0.031 C 
ATOM     70  C   UNL A   1      45.272  26.482  32.050  1.00  0.00     0.034 A 
BRANCH  57  71
ATOM     71  C   UNL A   1      42.374  31.217  34.468  1.00  0.00     0.023 A 
ATOM     72  C   UNL A   1      41.473  31.125  35.515  1.00  0.00     0.031 A 
ATOM     73  C   UNL A   1      43.279  32.188  34.421  1.00  0.00     0.131 A 
ATOM     74  C   UNL A   1      41.417  32.282  36.328  1.00  0.00     0.055 A 
ATOM     75  C   UNL A   1      43.248  33.217  35.331  1.00  0.00     0.041 A 
ATOM     76  F   UNL A   1      44.224  32.164  33.486  1.00  0.00    -0.206 F 
ATOM     77  C   UNL A   1      42.345  33.221  36.358  1.00  0.00     0.022 A 
BRANCH  74  78
ATOM     78  S   UNL A   1      39.973  32.490  37.399  1.00  0.00     0.124 S 
ATOM     79  O   UNL A   1      40.419  32.478  38.863  1.00  0.00    -0.237 OA
ATOM     80  O   UNL A   1      39.291  33.823  37.084  1.00  0.00    -0.237 OA
ATOM     81  O   UNL A   1      38.874  31.208  37.127  1.00  0.00    -0.744 OA
ENDBRANCH  74  78
ENDBRANCH  57  71
BRANCH  58  82
ATOM     82  C   UNL A   1      42.243  24.338  27.295  1.00  0.00     0.023 A 
ATOM     83  C   UNL A   1      41.499  23.184  27.482  1.00  0.00     0.031 A 
ATOM     84  C   UNL A   1      42.940  24.534  26.182  1.00  0.00     0.131 A 
ATOM     85  C   UNL A   1      41.786  22.159  26.550  1.00  0.00     0.055 A 
ATOM     86  C   UNL A   1      43.066  23.533  25.250  1.00  0.00     0.041 A 
ATOM     87  F   UNL A   1      43.520  25.712  25.967  1.00  0.00    -0.206 F 
ATOM     88  C   UNL A   1      42.406  22.345  25.399  1.00  0.00     0.022 A 
BRANCH  85  89
ATOM     89  S   UNL A   1      41.267  20.475  26.965  1.00  0.00     0.124 S 
ATOM     90  O   UNL A   1      40.872  20.413  28.442  1.00  0.00    -0.237 OA
ATOM     91  O   UNL A   1      40.068  20.083  26.099  1.00  0.00    -0.237 OA
ATOM     92  O   UNL A   1      42.559  19.394  26.674  1.00  0.00    -0.744 OA
ENDBRANCH  85  89
ENDBRANCH  58  82
BRANCH  70  93
ATOM     93  C   UNL A   1      46.575  25.918  32.592  1.00  0.00     0.023 A 
ATOM     94  C   UNL A   1      46.557  24.862  33.490  1.00  0.00     0.031 A 
ATOM     95  C   UNL A   1      47.719  26.452  32.181  1.00  0.00     0.131 A 
ATOM     96  C   UNL A   1      47.799  24.628  34.124  1.00  0.00     0.055 A 
ATOM     97  C   UNL A   1      48.911  26.076  32.752  1.00  0.00     0.041 A 
ATOM     98  F   UNL A   1      47.711  27.359  31.209  1.00  0.00    -0.206 F 
ATOM     99  C   UNL A   1      48.961  25.082  33.689  1.00  0.00     0.022 A 
BRANCH  96 100
ATOM    100  S   UNL A   1      47.797  23.637  35.639  1.00  0.00     0.124 S 
ATOM    101  O   UNL A   1      48.627  24.344  36.712  1.00  0.00    -0.237 OA
ATOM    102  O   UNL A   1      46.360  23.467  36.135  1.00  0.00    -0.237 OA
ATOM    103  O   UNL A   1      48.474  22.100  35.316  1.00  0.00    -0.744 OA
ENDBRANCH  96 100
ENDBRANCH  70  93
ENDBRANCH  44  45
ENDBRANCH  36  39
ENDBRANCH  34  35
ENDBRANCH  33  34
ENDBRANCH  32  33
ENDBRANCH   1  32
TORSDOF 21
ENDMDL
MODEL 2
REMARK VINA RESULT:     -11.4      1.343      7.226
REMARK SMILES CCCCc1cc(S(F)(F)(F)(F)F)cc2c1O[C@@H](C(F)(F)F)C(C(=O)NCCCCCCNC(=O)c1ccc(-c3c4nc(c(-c5cc(S(=O)(=O)[O-])ccc5F)c5ccc([nH]5)c(-c5cc(S(=O)(=O)[O-])ccc5F)c5nc(c(-c6cc(S(=O)(=O)[O-])ccc6F)c6ccc3[nH]6)C=C5)C=C4)cc1)=C2
REMARK SMILES IDX 29 1 28 2 27 3 26 4 24 5 25 6 23 8 5 9 6 10 16 11 7 12 15 13
REMARK SMILES IDX 17 14 14 15 99 16 18 17 4 18 3 19 2 20 1 21 8 22 9 23 10 24
REMARK SMILES IDX 11 25 12 26 13 27 19 28 20 29 21 30 22 31 30 32 31 33 32 34
REMARK SMILES IDX 33 35 34 36 35 38 36 39 37 40 98 41 38 42 97 43 39 44 40 45
REMARK SMILES IDX 41 46 91 47 42 48 96 49 90 50 92 51 43 52 95 53 89 54 88 55
REMARK SMILES IDX 44 57 76 58 56 59 75 60 57 61 60 62 74 63 93 64 58 65 59 66
REMARK SMILES IDX 73 68 94 69 61 70 45 71 46 72 54 73 47 74 53 75 55 76 52 77
REMARK SMILES IDX 48 78 49 79 50 80 51 81 77 82 78 83 86 84 79 85 85 86 87 87
REMARK SMILES IDX 84 88 80 89 81 90 82 91 83 92 62 93 63 94 71 95 64 96 70 97
REMARK SMILES IDX 72 98 69 99 65 100 66 101 67 102 68 103
REMARK H PARENT 26 7 33 37 92 56 60 67
REMARK Flexibility Score: inf
ROOT
ATOM      1  C   UNL A   1      30.976  27.687  26.368  1.00  0.00     0.002 C 
ENDROOT
BRANCH   1   2
ATOM      2  C   UNL A   1      31.192  26.196  26.565  1.00  0.00     0.021 C 
BRANCH   2   3
ATOM      3  C   UNL A   1      30.046  25.429  25.923  1.00  0.00     0.116 C 
BRANCH   3   4
ATOM      4  N   UNL A   1      29.914  25.833  24.516  1.00  0.00    -0.352 N 
ATOM      5  C   UNL A   1      30.783  25.231  23.495  1.00  0.00     0.251 C 
ATOM      6  O   UNL A   1      30.670  25.579  22.278  1.00  0.00    -0.270 OA
ATOM      7  H   UNL A   1      29.243  26.505  24.257  1.00  0.00     0.163 HD
BRANCH   5   8
ATOM      8  C   UNL A   1      31.819  24.193  23.894  1.00  0.00     0.067 C 
ATOM      9  C   UNL A   1      34.861  21.398  24.519  1.00  0.00    -0.004 A 
ATOM     10  C   UNL A   1      34.548  20.060  24.674  1.00  0.00     0.032 A 
ATOM     11  C   UNL A   1      33.847  22.288  24.261  1.00  0.00     0.131 A 
ATOM     12  C   UNL A   1      33.254  19.622  24.569  1.00  0.00     0.108 A 
ATOM     13  C   UNL A   1      32.527  21.885  24.167  1.00  0.00     0.019 A 
ATOM     14  O   UNL A   1      34.185  23.593  23.998  1.00  0.00    -0.475 OA
ATOM     15  C   UNL A   1      32.247  20.533  24.323  1.00  0.00     0.036 A 
ATOM     16  C   UNL A   1      31.531  22.897  23.853  1.00  0.00     0.025 C 
ATOM     17  C   UNL A   1      33.210  24.615  24.348  1.00  0.00     0.314 C 
BRANCH   9  18
ATOM     18  C   UNL A   1      36.300  21.875  24.632  1.00  0.00     0.039 C 
BRANCH  18  19
ATOM     19  C   UNL A   1      36.323  23.292  25.180  1.00  0.00     0.005 C 
BRANCH  19  20
ATOM     20  C   UNL A   1      37.538  23.469  26.076  1.00  0.00    -0.003 C 
ATOM     21  C   UNL A   1      38.476  22.286  25.896  1.00  0.00     0.004 C 
ENDBRANCH  19  20
ENDBRANCH  18  19
ENDBRANCH   9  18
BRANCH  12  22
ATOM     22  S   UNL A   1      32.868  17.863  24.751  1.00  0.00     0.310 S 
ATOM     23  F   UNL A   1      34.393  17.487  24.971  1.00  0.00    -0.094 F 
ATOM     24  F   UNL A   1      33.115  17.673  23.206  1.00  0.00    -0.094 F 
ATOM     25  F   UNL A   1      32.535  16.354  24.913  1.00  0.00    -0.094 F 
ATOM     26  F   UNL A   1      32.761  18.046  26.316  1.00  0.00    -0.094 F 
ATOM     27  F   UNL A   1      33.314  19.375  24.619  1.00  0.00    -0.094 F 
ENDBRANCH  12  22
BRANCH  17  28
ATOM     28  C   UNL A   1      33.584  25.915  23.656  1.00  0.00     0.429 C 
ATOM     29  F   UNL A   1      32.621  26.812  23.847  1.00  0.00    -0.167 F 
ATOM     30  F   UNL A   1      34.725  26.375  24.163  1.00  0.00    -0.167 F 
ATOM     31  F   UNL A   1      33.734  25.696  22.352  1.00  0.00    -0.167 F 
ENDBRANCH  17  28
ENDBRANCH   5   8
ENDBRANCH   3   4
ENDBRANCH   2   3
ENDBRANCH   1   2
BRANCH   1  32
ATOM     32  C   UNL A   1      32.004  28.459  27.180  1.00  0.00     0.002 C 
BRANCH  32  33
ATOM     33  C   UNL A   1      33.395  27.924  26.877  1.00  0.00     0.021 C 
BRANCH  33  34
ATOM     34  C   UNL A   1      34.219  29.007  26.202  1.00  0.00     0.116 C 
BRANCH  34  35
ATOM     35  N   UNL A   1      33.766  30.327  26.667  1.00  0.00    -0.352 N 
ATOM     36  C   UNL A   1      34.571  31.079  27.641  1.00  0.00     0.251 C 
ATOM     37  H   UNL A   1      32.926  30.708  26.325  1.00  0.00     0.163 HD
ATOM     38  O   UNL A   1      34.180  32.220  28.042  1.00  0.00    -0.269 OA
BRANCH  36  39
ATOM     39  C   UNL A   1      35.871  30.493  28.168  1.00  0.00     0.039 A 
ATOM     40  C   UNL A   1      37.071  30.790  27.544  1.00  0.00     0.014 A 
ATOM     41  C   UNL A   1      35.826  29.702  29.233  1.00  0.00     0.014 A 
ATOM     42  C   UNL A   1      38.147  29.965  27.948  1.00  0.00     0.010 A 
ATOM     43  C   UNL A   1      36.948  29.032  29.655  1.00  0.00     0.010 A 
ATOM     44  C   UNL A   1      38.157  29.233  29.048  1.00  0.00    -0.014 A 
BRANCH  44  45
ATOM     45  C   UNL A   1      39.442  28.643  29.605  1.00  0.00     0.031 A 
ATOM     46  C   UNL A   1      39.983  27.526  28.967  1.00  0.00     0.074 A 
ATOM     47  C   UNL A   1      40.005  29.247  30.716  1.00  0.00     0.049 A 
ATOM     48  N   UNL A   1      41.109  26.880  29.271  1.00  0.00    -0.248 NA
ATOM     49  C   UNL A   1      39.368  26.862  27.807  1.00  0.00     0.031 C 
ATOM     50  C   UNL A   1      39.470  30.379  31.362  1.00  0.00     0.029 A 
ATOM     51  N   UNL A   1      41.150  28.880  31.388  1.00  0.00    -0.354 N 
ATOM     52  C   UNL A   1      41.307  25.871  28.420  1.00  0.00     0.074 A 
ATOM     53  C   UNL A   1      40.186  25.842  27.470  1.00  0.00     0.031 C 
ATOM     54  C   UNL A   1      40.274  30.684  32.415  1.00  0.00     0.029 A 
ATOM     55  C   UNL A   1      41.326  29.748  32.444  1.00  0.00     0.049 A 
ATOM     56  H   UNL A   1      41.740  28.129  31.156  1.00  0.00     0.167 HD
ATOM     57  C   UNL A   1      42.378  24.976  28.398  1.00  0.00     0.034 A 
ATOM     58  C   UNL A   1      42.338  29.738  33.391  1.00  0.00     0.034 A 
ATOM     59  C   UNL A   1      43.413  24.995  29.319  1.00  0.00     0.049 A 
ATOM     60  C   UNL A   1      43.378  28.807  33.404  1.00  0.00     0.074 A 
ATOM     61  C   UNL A   1      44.504  24.105  29.306  1.00  0.00     0.029 A 
ATOM     62  N   UNL A   1      43.576  25.847  30.389  1.00  0.00    -0.354 N 
ATOM     63  N   UNL A   1      43.597  27.824  32.530  1.00  0.00    -0.248 NA
ATOM     64  C   UNL A   1      44.438  28.767  34.420  1.00  0.00     0.031 C 
ATOM     65  C   UNL A   1      45.309  24.410  30.360  1.00  0.00     0.029 A 
ATOM     66  C   UNL A   1      44.733  25.495  31.047  1.00  0.00     0.049 A 
ATOM     67  H   UNL A   1      42.970  26.581  30.640  1.00  0.00     0.167 HD
ATOM     68  C   UNL A   1      44.702  27.152  32.860  1.00  0.00     0.074 A 
ATOM     69  C   UNL A   1      45.255  27.745  34.085  1.00  0.00     0.031 C 
ATOM     70  C   UNL A   1      45.273  26.072  32.186  1.00  0.00     0.034 A 
BRANCH  57  71
ATOM     71  C   UNL A   1      42.411  23.924  27.302  1.00  0.00     0.023 A 
ATOM     72  C   UNL A   1      41.719  22.736  27.475  1.00  0.00     0.031 A 
ATOM     73  C   UNL A   1      43.087  24.171  26.187  1.00  0.00     0.131 A 
ATOM     74  C   UNL A   1      42.042  21.741  26.522  1.00  0.00     0.055 A 
ATOM     75  C   UNL A   1      43.248  23.193  25.235  1.00  0.00     0.041 A 
ATOM     76  F   UNL A   1      43.613  25.376  25.988  1.00  0.00    -0.206 F 
ATOM     77  C   UNL A   1      42.642  21.975  25.369  1.00  0.00     0.022 A 
BRANCH  74  78
ATOM     78  S   UNL A   1      41.601  20.029  26.911  1.00  0.00     0.124 S 
ATOM     79  O   UNL A   1      42.872  19.181  26.994  1.00  0.00    -0.237 OA
ATOM     80  O   UNL A   1      40.869  19.983  28.254  1.00  0.00    -0.237 OA
ATOM     81  O   UNL A   1      40.583  19.411  25.684  1.00  0.00    -0.744 OA
ENDBRANCH  74  78
ENDBRANCH  57  71
BRANCH  58  82
ATOM     82  C   UNL A   1      42.313  30.802  34.477  1.00  0.00     0.023 A 
ATOM     83  C   UNL A   1      42.886  32.040  34.232  1.00  0.00     0.031 A 
ATOM     84  C   UNL A   1      41.760  30.520  35.650  1.00  0.00     0.131 A 
ATOM     85  C   UNL A   1      43.083  32.821  35.395  1.00  0.00     0.055 A 
ATOM     86  C   UNL A   1      41.876  31.392  36.705  1.00  0.00     0.041 A 
ATOM     87  F   UNL A   1      41.087  29.383  35.805  1.00  0.00    -0.206 F 
ATOM     88  C   UNL A   1      42.481  32.608  36.551  1.00  0.00     0.022 A 
BRANCH  85  89
ATOM     89  S   UNL A   1      44.240  34.209  35.291  1.00  0.00     0.124 S 
ATOM     90  O   UNL A   1      44.939  34.189  33.929  1.00  0.00    -0.237 OA
ATOM     91  O   UNL A   1      43.474  35.524  35.453  1.00  0.00    -0.237 OA
ATOM     92  O   UNL A   1      45.407  34.071  36.532  1.00  0.00    -0.744 OA
ENDBRANCH  85  89
ENDBRANCH  58  82
BRANCH  70  93
ATOM     93  C   UNL A   1      46.568  25.493  32.734  1.00  0.00     0.023 A 
ATOM     94  C   UNL A   1      46.533  24.485  33.684  1.00  0.00     0.031 A 
ATOM     95  C   UNL A   1      47.720  25.969  32.277  1.00  0.00     0.131 A 
ATOM     96  C   UNL A   1      47.779  24.242  34.308  1.00  0.00     0.055 A 
ATOM     97  C   UNL A   1      48.911  25.584  32.846  1.00  0.00     0.041 A 
ATOM     98  F   UNL A   1      47.722  26.826  31.261  1.00  0.00    -0.206 F 
ATOM     99  C   UNL A   1      48.946  24.636  33.830  1.00  0.00     0.022 A 
BRANCH  96 100
ATOM    100  S   UNL A   1      47.774  23.328  35.870  1.00  0.00     0.124 S 
ATOM    101  O   UNL A   1      46.477  22.526  35.988  1.00  0.00    -0.237 OA
ATOM    102  O   UNL A   1      48.970  22.373  35.906  1.00  0.00    -0.237 OA
ATOM    103  O   UNL A   1      47.885  24.429  37.175  1.00  0.00    -0.744 OA
ENDBRANCH  96 100
ENDBRANCH  70  93
ENDBRANCH  44  45
ENDBRANCH  36  39
ENDBRANCH  34  35
ENDBRANCH  33  34
ENDBRANCH  32  33
ENDBRANCH   1  32
TORSDOF 21
ENDMDL
MODEL 3
REMARK VINA RESULT:     -11.3      5.624     10.191
REMARK SMILES CCCCc1cc(S(F)(F)(F)(F)F)cc2c1O[C@@H](C(F)(F)F)C(C(=O)NCCCCCCNC(=O)c1ccc(-c3c4nc(c(-c5cc(S(=O)(=O)[O-])ccc5F)c5ccc([nH]5)c(-c5cc(S(=O)(=O)[O-])ccc5F)c5nc(c(-c6cc(S(=O)(=O)[O-])ccc6F)c6ccc3[nH]6)C=C5)C=C4)cc1)=C2
REMARK SMILES IDX 29 1 28 2 27 3 26 4 24 5 25 6 23 8 5 9 6 10 16 11 7 12 15 13
REMARK SMILES IDX 17 14 14 15 99 16 18 17 4 18 3 19 2 20 1 21 8 22 9 23 10 24
REMARK SMILES IDX 11 25 12 26 13 27 19 28 20 29 21 30 22 31 30 32 31 33 32 34
REMARK SMILES IDX 33 35 34 36 35 38 36 39 37 40 98 41 38 42 97 43 39 44 40 45
REMARK SMILES IDX 41 46 91 47 42 48 96 49 90 50 92 51 43 52 95 53 89 54 88 55
REMARK SMILES IDX 44 57 76 58 56 59 75 60 57 61 60 62 74 63 93 64 58 65 59 66
REMARK SMILES IDX 73 68 94 69 61 70 45 71 46 72 54 73 47 74 53 75 55 76 52 77
REMARK SMILES IDX 48 78 49 79 50 80 51 81 77 82 78 83 86 84 79 85 85 86 87 87
REMARK SMILES IDX 84 88 80 89 81 90 82 91 83 92 62 93 63 94 71 95 64 96 70 97
REMARK SMILES IDX 72 98 69 99 65 100 66 101 67 102 68 103
REMARK H PARENT 26 7 33 37 92 56 60 67
REMARK Flexibility Score: inf
ROOT
ATOM      1  C   UNL A   1      39.360  23.497  25.919  1.00  0.00     0.002 C 
ENDROOT
BRANCH   1   2
ATOM      2  C   UNL A   1      37.938  23.967  26.176  1.00  0.00     0.021 C 
BRANCH   2   3
ATOM      3  C   UNL A   1      37.037  23.504  25.042  1.00  0.00     0.116 C 
BRANCH   3   4
ATOM      4  N   UNL A   1      36.250  22.344  25.485  1.00  0.00    -0.352 N 
ATOM      5  C   UNL A   1      34.785  22.437  25.562  1.00  0.00     0.251 C 
ATOM      6  O   UNL A   1      34.104  21.434  25.945  1.00  0.00    -0.270 OA
ATOM      7  H   UNL A   1      36.704  21.505  25.730  1.00  0.00     0.163 HD
BRANCH   5   8
ATOM      8  C   UNL A   1      34.084  23.732  25.185  1.00  0.00     0.067 C 
ATOM      9  C   UNL A   1      32.523  27.346  23.788  1.00  0.00    -0.004 A 
ATOM     10  C   UNL A   1      32.559  28.470  24.593  1.00  0.00     0.032 A 
ATOM     11  C   UNL A   1      33.092  26.184  24.251  1.00  0.00     0.131 A 
ATOM     12  C   UNL A   1      33.152  28.434  25.827  1.00  0.00     0.108 A 
ATOM     13  C   UNL A   1      33.683  26.106  25.499  1.00  0.00     0.019 A 
ATOM     14  O   UNL A   1      33.149  25.110  23.398  1.00  0.00    -0.475 OA
ATOM     15  C   UNL A   1      33.706  27.255  26.281  1.00  0.00     0.036 A 
ATOM     16  C   UNL A   1      34.291  24.842  25.882  1.00  0.00     0.025 C 
ATOM     17  C   UNL A   1      33.132  23.784  23.998  1.00  0.00     0.314 C 
BRANCH   9  18
ATOM     18  C   UNL A   1      31.867  27.395  22.418  1.00  0.00     0.039 C 
BRANCH  18  19
ATOM     19  C   UNL A   1      30.393  27.730  22.572  1.00  0.00     0.005 C 
BRANCH  19  20
ATOM     20  C   UNL A   1      30.166  29.190  22.215  1.00  0.00    -0.003 C 
ATOM     21  C   UNL A   1      28.792  29.622  22.702  1.00  0.00     0.004 C 
ENDBRANCH  19  20
ENDBRANCH  18  19
ENDBRANCH   9  18
BRANCH  12  22
ATOM     22  S   UNL A   1      33.209  29.923  26.856  1.00  0.00     0.310 S 
ATOM     23  F   UNL A   1      33.475  29.080  28.172  1.00  0.00    -0.094 F 
ATOM     24  F   UNL A   1      31.669  29.757  27.142  1.00  0.00    -0.094 F 
ATOM     25  F   UNL A   1      33.265  31.202  27.737  1.00  0.00    -0.094 F 
ATOM     26  F   UNL A   1      34.777  29.993  26.671  1.00  0.00    -0.094 F 
ATOM     27  F   UNL A   1      33.190  28.562  26.050  1.00  0.00    -0.094 F 
ENDBRANCH  12  22
BRANCH  17  28
ATOM     28  C   UNL A   1      33.575  22.765  22.961  1.00  0.00     0.429 C 
ATOM     29  F   UNL A   1      32.946  22.999  21.812  1.00  0.00    -0.167 F 
ATOM     30  F   UNL A   1      34.889  22.864  22.775  1.00  0.00    -0.167 F 
ATOM     31  F   UNL A   1      33.278  21.541  23.388  1.00  0.00    -0.167 F 
ENDBRANCH  17  28
ENDBRANCH   5   8
ENDBRANCH   3   4
ENDBRANCH   2   3
ENDBRANCH   1   2
BRANCH   1  32
ATOM     32  C   UNL A   1      39.696  22.359  26.869  1.00  0.00     0.002 C 
BRANCH  32  33
ATOM     33  C   UNL A   1      39.784  21.056  26.090  1.00  0.00     0.021 C 
BRANCH  33  34
ATOM     34  C   UNL A   1      40.511  20.015  26.924  1.00  0.00     0.116 C 
BRANCH  34  35
ATOM     35  N   UNL A   1      41.379  19.208  26.053  1.00  0.00    -0.352 N 
ATOM     36  C   UNL A   1      42.645  19.767  25.556  1.00  0.00     0.251 C 
ATOM     37  H   UNL A   1      41.113  18.294  25.803  1.00  0.00     0.163 HD
ATOM     38  O   UNL A   1      43.395  19.069  24.803  1.00  0.00    -0.269 OA
BRANCH  36  39
ATOM     39  C   UNL A   1      43.057  21.178  25.943  1.00  0.00     0.039 A 
ATOM     40  C   UNL A   1      43.387  21.470  27.256  1.00  0.00     0.014 A 
ATOM     41  C   UNL A   1      43.097  22.110  24.998  1.00  0.00     0.014 A 
ATOM     42  C   UNL A   1      43.470  22.855  27.531  1.00  0.00     0.010 A 
ATOM     43  C   UNL A   1      43.318  23.426  25.324  1.00  0.00     0.010 A 
ATOM     44  C   UNL A   1      43.593  23.796  26.611  1.00  0.00    -0.014 A 
BRANCH  44  45
ATOM     45  C   UNL A   1      44.015  25.212  26.966  1.00  0.00     0.031 A 
ATOM     46  C   UNL A   1      45.350  25.569  26.766  1.00  0.00     0.074 A 
ATOM     47  C   UNL A   1      43.052  26.070  27.467  1.00  0.00     0.049 A 
ATOM     48  N   UNL A   1      45.915  26.757  26.979  1.00  0.00    -0.248 NA
ATOM     49  C   UNL A   1      46.383  24.648  26.266  1.00  0.00     0.031 C 
ATOM     50  C   UNL A   1      41.702  25.722  27.664  1.00  0.00     0.029 A 
ATOM     51  N   UNL A   1      43.210  27.381  27.859  1.00  0.00    -0.354 N 
ATOM     52  C   UNL A   1      47.210  26.718  26.653  1.00  0.00     0.074 A 
ATOM     53  C   UNL A   1      47.529  25.358  26.196  1.00  0.00     0.031 C 
ATOM     54  C   UNL A   1      41.057  26.802  28.178  1.00  0.00     0.029 A 
ATOM     55  C   UNL A   1      41.994  27.845  28.311  1.00  0.00     0.049 A 
ATOM     56  H   UNL A   1      44.046  27.898  27.824  1.00  0.00     0.167 HD
ATOM     57  C   UNL A   1      48.134  27.762  26.719  1.00  0.00     0.034 A 
ATOM     58  C   UNL A   1      41.698  29.102  28.815  1.00  0.00     0.034 A 
ATOM     59  C   UNL A   1      47.827  29.031  27.181  1.00  0.00     0.049 A 
ATOM     60  C   UNL A   1      42.637  30.129  28.935  1.00  0.00     0.074 A 
ATOM     61  C   UNL A   1      48.746  30.097  27.246  1.00  0.00     0.029 A 
ATOM     62  N   UNL A   1      46.617  29.488  27.655  1.00  0.00    -0.354 N 
ATOM     63  N   UNL A   1      43.920  30.100  28.572  1.00  0.00    -0.248 NA
ATOM     64  C   UNL A   1      42.343  31.453  29.497  1.00  0.00     0.031 C 
ATOM     65  C   UNL A   1      48.101  31.178  27.761  1.00  0.00     0.029 A 
ATOM     66  C   UNL A   1      46.770  30.805  28.026  1.00  0.00     0.049 A 
ATOM     67  H   UNL A   1      45.787  28.963  27.718  1.00  0.00     0.167 HD
ATOM     68  C   UNL A   1      44.495  31.278  28.824  1.00  0.00     0.074 A 
ATOM     69  C   UNL A   1      43.491  32.163  29.429  1.00  0.00     0.031 C 
ATOM     70  C   UNL A   1      45.816  31.651  28.570  1.00  0.00     0.034 A 
BRANCH  57  71
ATOM     71  C   UNL A   1      49.556  27.490  26.254  1.00  0.00     0.023 A 
ATOM     72  C   UNL A   1      49.945  27.881  24.983  1.00  0.00     0.031 A 
ATOM     73  C   UNL A   1      50.407  26.900  27.084  1.00  0.00     0.131 A 
ATOM     74  C   UNL A   1      51.186  27.340  24.572  1.00  0.00     0.055 A 
ATOM     75  C   UNL A   1      51.655  26.520  26.653  1.00  0.00     0.041 A 
ATOM     76  F   UNL A   1      50.049  26.674  28.345  1.00  0.00    -0.206 F 
ATOM     77  C   UNL A   1      52.084  26.821  25.390  1.00  0.00     0.022 A 
BRANCH  74  78
ATOM     78  S   UNL A   1      51.569  27.361  22.804  1.00  0.00     0.124 S 
ATOM     79  O   UNL A   1      50.341  26.913  22.010  1.00  0.00    -0.237 OA
ATOM     80  O   UNL A   1      51.958  28.780  22.383  1.00  0.00    -0.237 OA
ATOM     81  O   UNL A   1      52.871  26.297  22.491  1.00  0.00    -0.744 OA
ENDBRANCH  74  78
ENDBRANCH  57  71
BRANCH  58  82
ATOM     82  C   UNL A   1      40.272  29.377  29.263  1.00  0.00     0.023 A 
ATOM     83  C   UNL A   1      39.980  29.425  30.616  1.00  0.00     0.031 A 
ATOM     84  C   UNL A   1      39.325  29.546  28.348  1.00  0.00     0.131 A 
ATOM     85  C   UNL A   1      38.596  29.371  30.907  1.00  0.00     0.055 A 
ATOM     86  C   UNL A   1      38.003  29.622  28.715  1.00  0.00     0.041 A 
ATOM     87  F   UNL A   1      39.659  29.645  27.064  1.00  0.00    -0.206 F 
ATOM     88  C   UNL A   1      37.637  29.616  30.033  1.00  0.00     0.022 A 
BRANCH  85  89
ATOM     89  S   UNL A   1      38.107  28.937  32.594  1.00  0.00     0.124 S 
ATOM     90  O   UNL A   1      39.063  29.598  33.589  1.00  0.00    -0.237 OA
ATOM     91  O   UNL A   1      36.681  29.427  32.854  1.00  0.00    -0.237 OA
ATOM     92  O   UNL A   1      38.170  27.239  32.786  1.00  0.00    -0.744 OA
ENDBRANCH  85  89
ENDBRANCH  58  82
BRANCH  70  93
ATOM     93  C   UNL A   1      46.233  33.074  28.908  1.00  0.00     0.023 A 
ATOM     94  C   UNL A   1      46.064  34.088  27.980  1.00  0.00     0.031 A 
ATOM     95  C   UNL A   1      46.752  33.315  30.106  1.00  0.00     0.131 A 
ATOM     96  C   UNL A   1      46.745  35.284  28.308  1.00  0.00     0.055 A 
ATOM     97  C   UNL A   1      47.279  34.549  30.404  1.00  0.00     0.041 A 
ATOM     98  F   UNL A   1      46.763  32.355  31.025  1.00  0.00    -0.206 F 
ATOM     99  C   UNL A   1      47.200  35.582  29.512  1.00  0.00     0.022 A 
BRANCH  96 100
ATOM    100  S   UNL A   1      47.014  36.489  26.984  1.00  0.00     0.124 S 
ATOM    101  O   UNL A   1      47.030  35.770  25.634  1.00  0.00    -0.237 OA
ATOM    102  O   UNL A   1      45.885  37.522  26.999  1.00  0.00    -0.237 OA
ATOM    103  O   UNL A   1      48.512  37.278  27.228  1.00  0.00    -0.744 OA
ENDBRANCH  96 100
ENDBRANCH  70  93
ENDBRANCH  44  45
ENDBRANCH  36  39
ENDBRANCH  34  35
ENDBRANCH  33  34
ENDBRANCH  32  33
ENDBRANCH   1  32
TORSDOF 21
ENDMDL
