MODEL 1
REMARK VINA RESULT:     -11.5      0.000      0.000
REMARK SMILES CC(C)C[C@H](Nc1ncnc2scc(-c3ccccc3)c12)C(=O)NCCCCCCNC(=O)c1ccc(-c2c3nc(c(-c4cc(S(=O)(=O)[O-])ccc4F)c4ccc([nH]4)c(-c4cc(S(=O)(=O)[O-])ccc4F)c4nc(c(-c5cc(S(=O)(=O)[O-])ccc5F)c5ccc2[nH]5)C=C4)C=C3)cc1
REMARK SMILES IDX 27 1 26 2 25 3 24 4 22 5 23 6 5 8 4 9 2 10 1 11 3 12 6 13
REMARK SMILES IDX 7 15 8 16 21 17 9 18 11 19 14 20 10 21 12 22 13 23 15 24
REMARK SMILES IDX 16 25 20 26 17 27 19 28 18 29 28 30 29 31 30 32 31 33 32 34
REMARK SMILES IDX 33 36 34 37 35 38 96 39 36 40 95 41 37 42 38 43 39 44 89 45
REMARK SMILES IDX 40 46 94 47 88 48 90 49 41 50 93 51 87 52 86 53 42 55 74 56
REMARK SMILES IDX 54 57 73 58 55 59 58 60 72 61 91 62 56 63 57 64 71 66 92 67
REMARK SMILES IDX 59 68 43 69 44 70 52 71 45 72 51 73 53 74 50 75 46 76 47 77
REMARK SMILES IDX 48 78 49 79 75 80 76 81 84 82 77 83 83 84 85 85 82 86 78 87
REMARK SMILES IDX 79 88 80 89 81 90 60 91 61 92 69 93 62 94 68 95 70 96 67 97
REMARK SMILES IDX 63 98 64 99 65 100 66 101
REMARK H PARENT 24 7 6 14 31 35 90 54 58 65
REMARK Flexibility Score: inf
ROOT
ATOM      1  C   UNL A   1      32.314  29.983  26.909  1.00  0.00     0.002 C 
ENDROOT
BRANCH   1   2
ATOM      2  C   UNL A   1      31.759  28.716  27.566  1.00  0.00     0.021 C 
BRANCH   2   3
ATOM      3  C   UNL A   1      32.074  27.416  26.831  1.00  0.00     0.116 C 
BRANCH   3   4
ATOM      4  N   UNL A   1      31.008  26.456  27.005  1.00  0.00    -0.354 N 
ATOM      5  C   UNL A   1      30.181  25.864  26.100  1.00  0.00     0.242 C 
ATOM      6  O   UNL A   1      29.322  25.102  26.563  1.00  0.00    -0.273 OA
ATOM      7  H   UNL A   1      30.854  26.183  27.938  1.00  0.00     0.163 HD
BRANCH   5   8
ATOM      8  C   UNL A   1      30.327  26.048  24.572  1.00  0.00     0.170 C 
BRANCH   8   9
ATOM      9  C   UNL A   1      29.083  26.696  23.926  1.00  0.00     0.038 C 
BRANCH   9  10
ATOM     10  C   UNL A   1      29.354  27.914  23.025  1.00  0.00    -0.015 C 
ATOM     11  C   UNL A   1      28.128  28.816  22.882  1.00  0.00     0.007 C 
ATOM     12  C   UNL A   1      30.518  28.717  23.614  1.00  0.00     0.007 C 
ENDBRANCH   9  10
ENDBRANCH   8   9
BRANCH   8  13
ATOM     13  N   UNL A   1      30.659  24.796  23.860  1.00  0.00    -0.358 N 
ATOM     14  H   UNL A   1      30.364  24.624  22.937  1.00  0.00     0.162 HD
BRANCH  13  15
ATOM     15  C   UNL A   1      31.416  23.877  24.581  1.00  0.00     0.139 A 
ATOM     16  N   UNL A   1      30.766  22.805  25.100  1.00  0.00    -0.219 NA
ATOM     17  C   UNL A   1      32.791  24.035  24.880  1.00  0.00     0.062 A 
ATOM     18  C   UNL A   1      31.427  21.933  25.867  1.00  0.00     0.225 A 
ATOM     19  C   UNL A   1      33.333  23.059  25.713  1.00  0.00     0.129 A 
ATOM     20  C   UNL A   1      33.799  25.025  24.568  1.00  0.00     0.006 A 
ATOM     21  N   UNL A   1      32.704  21.989  26.227  1.00  0.00    -0.225 NA
ATOM     22  S   UNL A   1      34.967  23.328  26.107  1.00  0.00    -0.123 S 
ATOM     23  C   UNL A   1      35.008  24.757  25.189  1.00  0.00     0.076 A 
BRANCH  20  24
ATOM     24  C   UNL A   1      33.718  26.230  23.760  1.00  0.00    -0.017 A 
ATOM     25  C   UNL A   1      33.534  26.126  22.376  1.00  0.00     0.009 A 
ATOM     26  C   UNL A   1      33.988  27.478  24.332  1.00  0.00     0.009 A 
ATOM     27  C   UNL A   1      33.646  27.258  21.567  1.00  0.00     0.001 A 
ATOM     28  C   UNL A   1      34.107  28.606  23.519  1.00  0.00     0.001 A 
ATOM     29  C   UNL A   1      33.944  28.494  22.137  1.00  0.00     0.000 A 
ENDBRANCH  20  24
ENDBRANCH  13  15
ENDBRANCH   8  13
ENDBRANCH   5   8
ENDBRANCH   3   4
ENDBRANCH   2   3
ENDBRANCH   1   2
BRANCH   1  30
ATOM     30  C   UNL A   1      31.289  30.877  26.201  1.00  0.00     0.002 C 
BRANCH  30  31
ATOM     31  C   UNL A   1      31.376  32.378  26.495  1.00  0.00     0.021 C 
BRANCH  31  32
ATOM     32  C   UNL A   1      32.591  32.834  27.300  1.00  0.00     0.116 C 
BRANCH  32  33
ATOM     33  N   UNL A   1      32.455  34.191  27.794  1.00  0.00    -0.352 N 
ATOM     34  C   UNL A   1      33.138  34.844  28.792  1.00  0.00     0.251 C 
ATOM     35  H   UNL A   1      31.765  34.729  27.344  1.00  0.00     0.163 HD
ATOM     36  O   UNL A   1      32.747  35.949  29.157  1.00  0.00    -0.269 OA
BRANCH  34  37
ATOM     37  C   UNL A   1      34.314  34.222  29.449  1.00  0.00     0.039 A 
ATOM     38  C   UNL A   1      34.096  33.394  30.554  1.00  0.00     0.014 A 
ATOM     39  C   UNL A   1      35.621  34.477  29.023  1.00  0.00     0.014 A 
ATOM     40  C   UNL A   1      35.177  32.778  31.194  1.00  0.00     0.010 A 
ATOM     41  C   UNL A   1      36.695  33.815  29.626  1.00  0.00     0.010 A 
ATOM     42  C   UNL A   1      36.485  32.956  30.716  1.00  0.00    -0.014 A 
BRANCH  42  43
ATOM     43  C   UNL A   1      37.632  32.241  31.342  1.00  0.00     0.031 A 
ATOM     44  C   UNL A   1      38.204  32.712  32.653  1.00  0.00     0.074 A 
ATOM     45  C   UNL A   1      38.191  31.191  30.706  1.00  0.00     0.049 A 
ATOM     46  N   UNL A   1      39.236  32.258  33.317  1.00  0.00    -0.248 NA
ATOM     47  C   UNL A   1      37.539  33.858  33.287  1.00  0.00     0.031 C 
ATOM     48  C   UNL A   1      37.747  30.653  29.419  1.00  0.00     0.029 A 
ATOM     49  N   UNL A   1      39.257  30.396  31.047  1.00  0.00    -0.354 N 
ATOM     50  C   UNL A   1      39.352  33.065  34.444  1.00  0.00     0.074 A 
ATOM     51  C   UNL A   1      38.314  34.071  34.340  1.00  0.00     0.031 C 
ATOM     52  C   UNL A   1      38.523  29.609  29.088  1.00  0.00     0.029 A 
ATOM     53  C   UNL A   1      39.550  29.430  30.111  1.00  0.00     0.049 A 
ATOM     54  H   UNL A   1      39.766  30.506  31.883  1.00  0.00     0.167 HD
ATOM     55  C   UNL A   1      40.227  32.966  35.476  1.00  0.00     0.034 A 
ATOM     56  C   UNL A   1      40.539  28.516  30.069  1.00  0.00     0.034 A 
ATOM     57  C   UNL A   1      41.254  31.954  35.570  1.00  0.00     0.049 A 
ATOM     58  C   UNL A   1      41.526  28.450  31.207  1.00  0.00     0.074 A 
ATOM     59  C   UNL A   1      42.154  31.732  36.598  1.00  0.00     0.029 A 
ATOM     60  N   UNL A   1      41.526  31.001  34.597  1.00  0.00    -0.354 N 
ATOM     61  N   UNL A   1      41.590  29.193  32.288  1.00  0.00    -0.248 NA
ATOM     62  C   UNL A   1      42.567  27.417  31.123  1.00  0.00     0.031 C 
ATOM     63  C   UNL A   1      43.016  30.697  36.216  1.00  0.00     0.029 A 
ATOM     64  C   UNL A   1      42.604  30.217  34.983  1.00  0.00     0.049 A 
ATOM     65  H   UNL A   1      41.028  30.897  33.754  1.00  0.00     0.167 HD
ATOM     66  C   UNL A   1      42.662  28.696  33.026  1.00  0.00     0.074 A 
ATOM     67  C   UNL A   1      43.204  27.583  32.274  1.00  0.00     0.031 C 
ATOM     68  C   UNL A   1      43.149  29.119  34.220  1.00  0.00     0.034 A 
BRANCH  55  69
ATOM     69  C   UNL A   1      40.130  34.002  36.573  1.00  0.00     0.023 A 
ATOM     70  C   UNL A   1      39.640  33.681  37.851  1.00  0.00     0.031 A 
ATOM     71  C   UNL A   1      40.513  35.333  36.333  1.00  0.00     0.131 A 
ATOM     72  C   UNL A   1      39.474  34.689  38.813  1.00  0.00     0.055 A 
ATOM     73  C   UNL A   1      40.425  36.316  37.321  1.00  0.00     0.041 A 
ATOM     74  F   UNL A   1      40.971  35.706  35.126  1.00  0.00    -0.206 F 
ATOM     75  C   UNL A   1      39.887  36.001  38.564  1.00  0.00     0.022 A 
BRANCH  72  76
ATOM     76  S   UNL A   1      38.573  34.293  40.336  1.00  0.00     0.124 S 
ATOM     77  O   UNL A   1      39.516  33.405  41.013  1.00  0.00    -0.237 OA
ATOM     78  O   UNL A   1      38.385  35.605  40.941  1.00  0.00    -0.237 OA
ATOM     79  O   UNL A   1      37.356  33.644  39.855  1.00  0.00    -0.744 OA
ENDBRANCH  72  76
ENDBRANCH  55  69
BRANCH  56  80
ATOM     80  C   UNL A   1      40.669  27.601  28.898  1.00  0.00     0.023 A 
ATOM     81  C   UNL A   1      41.628  27.830  27.900  1.00  0.00     0.031 A 
ATOM     82  C   UNL A   1      39.804  26.502  28.741  1.00  0.00     0.131 A 
ATOM     83  C   UNL A   1      41.671  27.002  26.767  1.00  0.00     0.055 A 
ATOM     84  C   UNL A   1      39.885  25.650  27.640  1.00  0.00     0.041 A 
ATOM     85  F   UNL A   1      38.871  26.235  29.670  1.00  0.00    -0.206 F 
ATOM     86  C   UNL A   1      40.815  25.905  26.637  1.00  0.00     0.022 A 
BRANCH  83  87
ATOM     87  S   UNL A   1      42.809  27.428  25.421  1.00  0.00     0.124 S 
ATOM     88  O   UNL A   1      42.924  26.157  24.715  1.00  0.00    -0.237 OA
ATOM     89  O   UNL A   1      42.076  28.484  24.730  1.00  0.00    -0.237 OA
ATOM     90  O   UNL A   1      44.015  27.866  26.122  1.00  0.00    -0.744 OA
ENDBRANCH  83  87
ENDBRANCH  56  80
BRANCH  68  91
ATOM     91  C   UNL A   1      44.306  28.343  34.803  1.00  0.00     0.023 A 
ATOM     92  C   UNL A   1      44.108  27.237  35.649  1.00  0.00     0.031 A 
ATOM     93  C   UNL A   1      45.629  28.724  34.513  1.00  0.00     0.131 A 
ATOM     94  C   UNL A   1      45.211  26.583  36.218  1.00  0.00     0.055 A 
ATOM     95  C   UNL A   1      46.725  28.033  35.034  1.00  0.00     0.041 A 
ATOM     96  F   UNL A   1      45.879  29.773  33.715  1.00  0.00    -0.206 F 
ATOM     97  C   UNL A   1      46.518  26.963  35.901  1.00  0.00     0.022 A 
BRANCH  94  98
ATOM     98  S   UNL A   1      44.918  25.280  37.445  1.00  0.00     0.124 S 
ATOM     99  O   UNL A   1      44.642  24.124  36.598  1.00  0.00    -0.237 OA
ATOM    100  O   UNL A   1      46.181  25.248  38.175  1.00  0.00    -0.237 OA
ATOM    101  O   UNL A   1      43.774  25.778  38.207  1.00  0.00    -0.744 OA
ENDBRANCH  94  98
ENDBRANCH  68  91
ENDBRANCH  42  43
ENDBRANCH  34  37
ENDBRANCH  32  33
ENDBRANCH  31  32
ENDBRANCH  30  31
ENDBRANCH   1  30
TORSDOF 21
ENDMDL
MODEL 2
REMARK VINA RESULT:     -11.2      1.145      7.404
REMARK SMILES CC(C)C[C@H](Nc1ncnc2scc(-c3ccccc3)c12)C(=O)NCCCCCCNC(=O)c1ccc(-c2c3nc(c(-c4cc(S(=O)(=O)[O-])ccc4F)c4ccc([nH]4)c(-c4cc(S(=O)(=O)[O-])ccc4F)c4nc(c(-c5cc(S(=O)(=O)[O-])ccc5F)c5ccc2[nH]5)C=C4)C=C3)cc1
REMARK SMILES IDX 27 1 26 2 25 3 24 4 22 5 23 6 5 8 4 9 2 10 1 11 3 12 6 13
REMARK SMILES IDX 7 15 8 16 21 17 9 18 11 19 14 20 10 21 12 22 13 23 15 24
REMARK SMILES IDX 16 25 20 26 17 27 19 28 18 29 28 30 29 31 30 32 31 33 32 34
REMARK SMILES IDX 33 36 34 37 35 38 96 39 36 40 95 41 37 42 38 43 39 44 89 45
REMARK SMILES IDX 40 46 94 47 88 48 90 49 41 50 93 51 87 52 86 53 42 55 74 56
REMARK SMILES IDX 54 57 73 58 55 59 58 60 72 61 91 62 56 63 57 64 71 66 92 67
REMARK SMILES IDX 59 68 43 69 44 70 52 71 45 72 51 73 53 74 50 75 46 76 47 77
REMARK SMILES IDX 48 78 49 79 75 80 76 81 84 82 77 83 83 84 85 85 82 86 78 87
REMARK SMILES IDX 79 88 80 89 81 90 60 91 61 92 69 93 62 94 68 95 70 96 67 97
REMARK SMILES IDX 63 98 64 99 65 100 66 101
REMARK H PARENT 24 7 6 14 31 35 90 54 58 65
REMARK Flexibility Score: inf
ROOT
ATOM      1  C   UNL A   1      32.204  29.960  26.885  1.00  0.00     0.002 C 
ENDROOT
BRANCH   1   2
ATOM      2  C   UNL A   1      31.737  28.683  27.588  1.00  0.00     0.021 C 
BRANCH   2   3
ATOM      3  C   UNL A   1      32.060  27.385  26.852  1.00  0.00     0.116 C 
BRANCH   3   4
ATOM      4  N   UNL A   1      30.968  26.446  26.964  1.00  0.00    -0.354 N 
ATOM      5  C   UNL A   1      30.162  25.894  26.014  1.00  0.00     0.242 C 
ATOM      6  O   UNL A   1      29.270  25.142  26.427  1.00  0.00    -0.273 OA
ATOM      7  H   UNL A   1      30.773  26.154  27.883  1.00  0.00     0.163 HD
BRANCH   5   8
ATOM      8  C   UNL A   1      30.368  26.111  24.498  1.00  0.00     0.170 C 
BRANCH   8   9
ATOM      9  C   UNL A   1      29.122  26.702  23.803  1.00  0.00     0.038 C 
BRANCH   9  10
ATOM     10  C   UNL A   1      29.208  28.191  23.426  1.00  0.00    -0.015 C 
ATOM     11  C   UNL A   1      30.226  28.453  22.316  1.00  0.00     0.007 C 
ATOM     12  C   UNL A   1      27.823  28.669  22.978  1.00  0.00     0.007 C 
ENDBRANCH   9  10
ENDBRANCH   8   9
BRANCH   8  13
ATOM     13  N   UNL A   1      30.801  24.892  23.785  1.00  0.00    -0.358 N 
ATOM     14  H   UNL A   1      30.645  24.764  22.821  1.00  0.00     0.162 HD
BRANCH  13  15
ATOM     15  C   UNL A   1      31.446  23.936  24.566  1.00  0.00     0.139 A 
ATOM     16  N   UNL A   1      30.699  22.901  25.026  1.00  0.00    -0.219 NA
ATOM     17  C   UNL A   1      32.797  24.022  24.980  1.00  0.00     0.062 A 
ATOM     18  C   UNL A   1      31.246  21.997  25.844  1.00  0.00     0.225 A 
ATOM     19  C   UNL A   1      33.215  23.022  25.854  1.00  0.00     0.129 A 
ATOM     20  C   UNL A   1      33.879  24.957  24.755  1.00  0.00     0.006 A 
ATOM     21  N   UNL A   1      32.489  21.987  26.311  1.00  0.00    -0.225 NA
ATOM     22  S   UNL A   1      34.822  23.206  26.384  1.00  0.00    -0.123 S 
ATOM     23  C   UNL A   1      35.015  24.628  25.476  1.00  0.00     0.076 A 
BRANCH  20  24
ATOM     24  C   UNL A   1      33.929  26.163  23.946  1.00  0.00    -0.017 A 
ATOM     25  C   UNL A   1      34.016  27.414  24.569  1.00  0.00     0.009 A 
ATOM     26  C   UNL A   1      33.724  26.089  22.564  1.00  0.00     0.009 A 
ATOM     27  C   UNL A   1      33.872  28.582  23.819  1.00  0.00     0.001 A 
ATOM     28  C   UNL A   1      33.572  27.259  21.818  1.00  0.00     0.001 A 
ATOM     29  C   UNL A   1      33.639  28.504  22.447  1.00  0.00     0.000 A 
ENDBRANCH  20  24
ENDBRANCH  13  15
ENDBRANCH   8  13
ENDBRANCH   5   8
ENDBRANCH   3   4
ENDBRANCH   2   3
ENDBRANCH   1   2
BRANCH   1  30
ATOM     30  C   UNL A   1      31.100  30.938  26.465  1.00  0.00     0.002 C 
BRANCH  30  31
ATOM     31  C   UNL A   1      31.487  32.419  26.408  1.00  0.00     0.021 C 
BRANCH  31  32
ATOM     32  C   UNL A   1      32.758  32.809  27.161  1.00  0.00     0.116 C 
BRANCH  32  33
ATOM     33  N   UNL A   1      32.689  34.147  27.716  1.00  0.00    -0.352 N 
ATOM     34  C   UNL A   1      33.390  34.715  28.752  1.00  0.00     0.251 C 
ATOM     35  H   UNL A   1      32.036  34.743  27.282  1.00  0.00     0.163 HD
ATOM     36  O   UNL A   1      33.054  35.822  29.164  1.00  0.00    -0.269 OA
BRANCH  34  37
ATOM     37  C   UNL A   1      34.520  33.999  29.396  1.00  0.00     0.039 A 
ATOM     38  C   UNL A   1      35.823  34.367  29.047  1.00  0.00     0.014 A 
ATOM     39  C   UNL A   1      34.314  32.950  30.297  1.00  0.00     0.014 A 
ATOM     40  C   UNL A   1      36.915  33.726  29.642  1.00  0.00     0.010 A 
ATOM     41  C   UNL A   1      35.405  32.352  30.934  1.00  0.00     0.010 A 
ATOM     42  C   UNL A   1      36.718  32.734  30.616  1.00  0.00    -0.014 A 
BRANCH  42  43
ATOM     43  C   UNL A   1      37.875  32.103  31.311  1.00  0.00     0.031 A 
ATOM     44  C   UNL A   1      38.635  30.977  30.663  1.00  0.00     0.074 A 
ATOM     45  C   UNL A   1      38.214  32.515  32.549  1.00  0.00     0.049 A 
ATOM     46  N   UNL A   1      39.625  30.264  31.138  1.00  0.00    -0.248 NA
ATOM     47  C   UNL A   1      38.209  30.587  29.311  1.00  0.00     0.031 C 
ATOM     48  C   UNL A   1      37.541  33.579  33.296  1.00  0.00     0.029 A 
ATOM     49  N   UNL A   1      39.200  32.084  33.402  1.00  0.00    -0.354 N 
ATOM     50  C   UNL A   1      39.938  29.337  30.150  1.00  0.00     0.074 A 
ATOM     51  C   UNL A   1      38.992  29.545  29.073  1.00  0.00     0.031 C 
ATOM     52  C   UNL A   1      38.143  33.728  34.487  1.00  0.00     0.029 A 
ATOM     53  C   UNL A   1      39.212  32.741  34.612  1.00  0.00     0.049 A 
ATOM     54  H   UNL A   1      39.839  31.371  33.171  1.00  0.00     0.167 HD
ATOM     55  C   UNL A   1      40.931  28.412  30.134  1.00  0.00     0.034 A 
ATOM     56  C   UNL A   1      39.982  32.562  35.704  1.00  0.00     0.034 A 
ATOM     57  C   UNL A   1      41.872  28.219  31.214  1.00  0.00     0.049 A 
ATOM     58  C   UNL A   1      41.053  31.501  35.680  1.00  0.00     0.074 A 
ATOM     59  C   UNL A   1      42.948  27.349  31.275  1.00  0.00     0.029 A 
ATOM     60  N   UNL A   1      41.844  28.895  32.427  1.00  0.00    -0.354 N 
ATOM     61  N   UNL A   1      41.364  30.664  34.717  1.00  0.00    -0.248 NA
ATOM     62  C   UNL A   1      41.880  31.366  36.886  1.00  0.00     0.031 C 
ATOM     63  C   UNL A   1      43.523  27.446  32.547  1.00  0.00     0.029 A 
ATOM     64  C   UNL A   1      42.859  28.435  33.255  1.00  0.00     0.049 A 
ATOM     65  H   UNL A   1      41.199  29.599  32.666  1.00  0.00     0.167 HD
ATOM     66  C   UNL A   1      42.444  29.925  35.193  1.00  0.00     0.074 A 
ATOM     67  C   UNL A   1      42.737  30.424  36.521  1.00  0.00     0.031 C 
ATOM     68  C   UNL A   1      43.134  28.927  34.584  1.00  0.00     0.034 A 
BRANCH  55  69
ATOM     69  C   UNL A   1      41.030  27.517  28.920  1.00  0.00     0.023 A 
ATOM     70  C   UNL A   1      42.035  27.692  27.953  1.00  0.00     0.031 A 
ATOM     71  C   UNL A   1      40.095  26.487  28.716  1.00  0.00     0.131 A 
ATOM     72  C   UNL A   1      42.036  26.904  26.792  1.00  0.00     0.055 A 
ATOM     73  C   UNL A   1      40.151  25.651  27.598  1.00  0.00     0.041 A 
ATOM     74  F   UNL A   1      39.100  26.283  29.594  1.00  0.00    -0.206 F 
ATOM     75  C   UNL A   1      41.115  25.867  26.620  1.00  0.00     0.022 A 
BRANCH  72  76
ATOM     76  S   UNL A   1      43.163  27.351  25.443  1.00  0.00     0.124 S 
ATOM     77  O   UNL A   1      42.333  28.261  24.656  1.00  0.00    -0.237 OA
ATOM     78  O   UNL A   1      44.280  27.959  26.154  1.00  0.00    -0.237 OA
ATOM     79  O   UNL A   1      43.452  26.072  24.799  1.00  0.00    -0.744 OA
ENDBRANCH  72  76
ENDBRANCH  55  69
BRANCH  56  80
ATOM     80  C   UNL A   1      39.757  33.386  36.926  1.00  0.00     0.023 A 
ATOM     81  C   UNL A   1      40.546  34.515  37.196  1.00  0.00     0.031 A 
ATOM     82  C   UNL A   1      38.772  33.031  37.866  1.00  0.00     0.131 A 
ATOM     83  C   UNL A   1      40.369  35.222  38.396  1.00  0.00     0.055 A 
ATOM     84  C   UNL A   1      38.564  33.768  39.032  1.00  0.00     0.041 A 
ATOM     85  F   UNL A   1      37.986  31.963  37.655  1.00  0.00    -0.206 F 
ATOM     86  C   UNL A   1      39.375  34.864  39.309  1.00  0.00     0.022 A 
BRANCH  83  87
ATOM     87  S   UNL A   1      41.517  36.571  38.787  1.00  0.00     0.124 S 
ATOM     88  O   UNL A   1      42.171  36.065  39.989  1.00  0.00    -0.237 OA
ATOM     89  O   UNL A   1      42.339  36.626  37.583  1.00  0.00    -0.237 OA
ATOM     90  O   UNL A   1      40.635  37.719  38.991  1.00  0.00    -0.744 OA
ENDBRANCH  83  87
ENDBRANCH  56  80
BRANCH  68  91
ATOM     91  C   UNL A   1      44.301  28.338  35.340  1.00  0.00     0.023 A 
ATOM     92  C   UNL A   1      44.162  27.199  36.152  1.00  0.00     0.031 A 
ATOM     93  C   UNL A   1      45.572  28.935  35.252  1.00  0.00     0.131 A 
ATOM     94  C   UNL A   1      45.260  26.722  36.885  1.00  0.00     0.055 A 
ATOM     95  C   UNL A   1      46.676  28.422  35.936  1.00  0.00     0.041 A 
ATOM     96  F   UNL A   1      45.764  30.027  34.495  1.00  0.00    -0.206 F 
ATOM     97  C   UNL A   1      46.520  27.316  36.768  1.00  0.00     0.022 A 
BRANCH  94  98
ATOM     98  S   UNL A   1      45.003  25.365  38.060  1.00  0.00     0.124 S 
ATOM     99  O   UNL A   1      44.353  26.048  39.173  1.00  0.00    -0.237 OA
ATOM    100  O   UNL A   1      44.163  24.446  37.298  1.00  0.00    -0.237 OA
ATOM    101  O   UNL A   1      46.357  24.885  38.331  1.00  0.00    -0.744 OA
ENDBRANCH  94  98
ENDBRANCH  68  91
ENDBRANCH  42  43
ENDBRANCH  34  37
ENDBRANCH  32  33
ENDBRANCH  31  32
ENDBRANCH  30  31
ENDBRANCH   1  30
TORSDOF 21
ENDMDL
MODEL 3
REMARK VINA RESULT:     -11.0      2.866      3.918
REMARK SMILES CC(C)C[C@H](Nc1ncnc2scc(-c3ccccc3)c12)C(=O)NCCCCCCNC(=O)c1ccc(-c2c3nc(c(-c4cc(S(=O)(=O)[O-])ccc4F)c4ccc([nH]4)c(-c4cc(S(=O)(=O)[O-])ccc4F)c4nc(c(-c5cc(S(=O)(=O)[O-])ccc5F)c5ccc2[nH]5)C=C4)C=C3)cc1
REMARK SMILES IDX 27 1 26 2 25 3 24 4 22 5 23 6 5 8 4 9 2 10 1 11 3 12 6 13
REMARK SMILES IDX 7 15 8 16 21 17 9 18 11 19 14 20 10 21 12 22 13 23 15 24
REMARK SMILES IDX 16 25 20 26 17 27 19 28 18 29 28 30 29 31 30 32 31 33 32 34
REMARK SMILES IDX 33 36 34 37 35 38 96 39 36 40 95 41 37 42 38 43 39 44 89 45
REMARK SMILES IDX 40 46 94 47 88 48 90 49 41 50 93 51 87 52 86 53 42 55 74 56
REMARK SMILES IDX 54 57 73 58 55 59 58 60 72 61 91 62 56 63 57 64 71 66 92 67
REMARK SMILES IDX 59 68 43 69 44 70 52 71 45 72 51 73 53 74 50 75 46 76 47 77
REMARK SMILES IDX 48 78 49 79 75 80 76 81 84 82 77 83 83 84 85 85 82 86 78 87
REMARK SMILES IDX 79 88 80 89 81 90 60 91 61 92 69 93 62 94 68 95 70 96 67 97
REMARK SMILES IDX 63 98 64 99 65 100 66 101
REMARK H PARENT 24 7 6 14 31 35 90 54 58 65
REMARK Flexibility Score: inf
ROOT
ATOM      1  C   UNL A   1      31.763  28.368  27.530  1.00  0.00     0.002 C 
ENDROOT
BRANCH   1   2
ATOM      2  C   UNL A   1      31.044  27.094  27.078  1.00  0.00     0.021 C 
BRANCH   2   3
ATOM      3  C   UNL A   1      31.959  25.915  26.759  1.00  0.00     0.116 C 
BRANCH   3   4
ATOM      4  N   UNL A   1      31.216  24.676  26.752  1.00  0.00    -0.354 N 
ATOM      5  C   UNL A   1      30.761  23.912  25.720  1.00  0.00     0.242 C 
ATOM      6  O   UNL A   1      30.107  22.909  26.033  1.00  0.00    -0.273 OA
ATOM      7  H   UNL A   1      31.004  24.322  27.645  1.00  0.00     0.163 HD
BRANCH   5   8
ATOM      8  C   UNL A   1      31.088  24.208  24.238  1.00  0.00     0.170 C 
BRANCH   8   9
ATOM      9  C   UNL A   1      29.927  24.905  23.497  1.00  0.00     0.038 C 
BRANCH   9  10
ATOM     10  C   UNL A   1      29.552  26.307  24.008  1.00  0.00    -0.015 C 
ATOM     11  C   UNL A   1      30.154  27.419  23.149  1.00  0.00     0.007 C 
ATOM     12  C   UNL A   1      28.026  26.437  24.023  1.00  0.00     0.007 C 
ENDBRANCH   9  10
ENDBRANCH   8   9
BRANCH   8  13
ATOM     13  N   UNL A   1      31.511  23.011  23.482  1.00  0.00    -0.358 N 
ATOM     14  H   UNL A   1      31.102  22.763  22.621  1.00  0.00     0.162 HD
BRANCH  13  15
ATOM     15  C   UNL A   1      32.526  22.258  24.066  1.00  0.00     0.139 A 
ATOM     16  N   UNL A   1      32.238  20.974  24.396  1.00  0.00    -0.219 NA
ATOM     17  C   UNL A   1      33.799  22.769  24.415  1.00  0.00     0.062 A 
ATOM     18  C   UNL A   1      33.148  20.230  25.031  1.00  0.00     0.225 A 
ATOM     19  C   UNL A   1      34.629  21.882  25.096  1.00  0.00     0.129 A 
ATOM     20  C   UNL A   1      34.460  24.051  24.283  1.00  0.00     0.006 A 
ATOM     21  N   UNL A   1      34.360  20.606  25.422  1.00  0.00    -0.225 NA
ATOM     22  S   UNL A   1      36.119  22.560  25.561  1.00  0.00    -0.123 S 
ATOM     23  C   UNL A   1      35.709  24.061  24.879  1.00  0.00     0.076 A 
BRANCH  20  24
ATOM     24  C   UNL A   1      34.002  25.288  23.672  1.00  0.00    -0.017 A 
ATOM     25  C   UNL A   1      33.697  25.315  22.306  1.00  0.00     0.009 A 
ATOM     26  C   UNL A   1      34.027  26.480  24.402  1.00  0.00     0.009 A 
ATOM     27  C   UNL A   1      33.443  26.531  21.669  1.00  0.00     0.001 A 
ATOM     28  C   UNL A   1      33.780  27.695  23.759  1.00  0.00     0.001 A 
ATOM     29  C   UNL A   1      33.497  27.720  22.393  1.00  0.00     0.000 A 
ENDBRANCH  20  24
ENDBRANCH  13  15
ENDBRANCH   8  13
ENDBRANCH   5   8
ENDBRANCH   3   4
ENDBRANCH   2   3
ENDBRANCH   1   2
BRANCH   1  30
ATOM     30  C   UNL A   1      31.628  29.581  26.601  1.00  0.00     0.002 C 
BRANCH  30  31
ATOM     31  C   UNL A   1      32.930  30.149  26.029  1.00  0.00     0.021 C 
BRANCH  31  32
ATOM     32  C   UNL A   1      34.090  30.288  27.012  1.00  0.00     0.116 C 
BRANCH  32  33
ATOM     33  N   UNL A   1      33.954  31.446  27.875  1.00  0.00    -0.352 N 
ATOM     34  C   UNL A   1      34.717  31.852  28.943  1.00  0.00     0.251 C 
ATOM     35  H   UNL A   1      33.194  32.035  27.661  1.00  0.00     0.163 HD
ATOM     36  O   UNL A   1      34.323  32.784  29.637  1.00  0.00    -0.269 OA
BRANCH  34  37
ATOM     37  C   UNL A   1      35.986  31.162  29.283  1.00  0.00     0.039 A 
ATOM     38  C   UNL A   1      37.171  31.630  28.707  1.00  0.00     0.014 A 
ATOM     39  C   UNL A   1      36.018  30.042  30.120  1.00  0.00     0.014 A 
ATOM     40  C   UNL A   1      38.390  31.016  29.014  1.00  0.00     0.010 A 
ATOM     41  C   UNL A   1      37.243  29.467  30.471  1.00  0.00     0.010 A 
ATOM     42  C   UNL A   1      38.443  29.949  29.925  1.00  0.00    -0.014 A 
BRANCH  42  43
ATOM     43  C   UNL A   1      39.746  29.341  30.317  1.00  0.00     0.031 A 
ATOM     44  C   UNL A   1      40.555  29.926  31.443  1.00  0.00     0.074 A 
ATOM     45  C   UNL A   1      40.223  28.285  29.627  1.00  0.00     0.049 A 
ATOM     46  N   UNL A   1      41.736  29.574  31.885  1.00  0.00    -0.248 NA
ATOM     47  C   UNL A   1      39.967  31.073  32.150  1.00  0.00     0.031 C 
ATOM     48  C   UNL A   1      39.548  27.641  28.499  1.00  0.00     0.029 A 
ATOM     49  N   UNL A   1      41.390  27.575  29.764  1.00  0.00    -0.354 N 
ATOM     50  C   UNL A   1      42.038  30.458  32.916  1.00  0.00     0.074 A 
ATOM     51  C   UNL A   1      40.936  31.396  32.993  1.00  0.00     0.031 C 
ATOM     52  C   UNL A   1      40.303  26.623  28.058  1.00  0.00     0.029 A 
ATOM     53  C   UNL A   1      41.538  26.568  28.837  1.00  0.00     0.049 A 
ATOM     54  H   UNL A   1      42.059  27.766  30.460  1.00  0.00     0.167 HD
ATOM     55  C   UNL A   1      43.121  30.474  33.733  1.00  0.00     0.034 A 
ATOM     56  C   UNL A   1      42.555  25.709  28.623  1.00  0.00     0.034 A 
ATOM     57  C   UNL A   1      44.211  29.529  33.649  1.00  0.00     0.049 A 
ATOM     58  C   UNL A   1      43.767  25.772  29.516  1.00  0.00     0.074 A 
ATOM     59  C   UNL A   1      45.326  29.424  34.463  1.00  0.00     0.029 A 
ATOM     60  N   UNL A   1      44.330  28.532  32.689  1.00  0.00    -0.354 N 
ATOM     61  N   UNL A   1      44.013  26.586  30.517  1.00  0.00    -0.248 NA
ATOM     62  C   UNL A   1      44.834  24.796  29.257  1.00  0.00     0.031 C 
ATOM     63  C   UNL A   1      46.153  28.417  33.952  1.00  0.00     0.029 A 
ATOM     64  C   UNL A   1      45.517  27.836  32.867  1.00  0.00     0.049 A 
ATOM     65  H   UNL A   1      43.669  28.347  31.984  1.00  0.00     0.167 HD
ATOM     66  C   UNL A   1      45.252  26.198  31.024  1.00  0.00     0.074 A 
ATOM     67  C   UNL A   1      45.692  25.070  30.228  1.00  0.00     0.031 C 
ATOM     68  C   UNL A   1      45.956  26.723  32.058  1.00  0.00     0.034 A 
BRANCH  55  69
ATOM     69  C   UNL A   1      43.195  31.571  34.770  1.00  0.00     0.023 A 
ATOM     70  C   UNL A   1      42.435  31.524  35.952  1.00  0.00     0.031 A 
ATOM     71  C   UNL A   1      44.020  32.692  34.567  1.00  0.00     0.131 A 
ATOM     72  C   UNL A   1      42.456  32.606  36.845  1.00  0.00     0.055 A 
ATOM     73  C   UNL A   1      44.101  33.728  35.499  1.00  0.00     0.041 A 
ATOM     74  F   UNL A   1      44.756  32.805  33.449  1.00  0.00    -0.206 F 
ATOM     75  C   UNL A   1      43.304  33.697  36.639  1.00  0.00     0.022 A 
BRANCH  72  76
ATOM     76  S   UNL A   1      41.250  32.635  38.198  1.00  0.00     0.124 S 
ATOM     77  O   UNL A   1      41.077  34.071  38.408  1.00  0.00    -0.237 OA
ATOM     78  O   UNL A   1      40.111  31.933  37.621  1.00  0.00    -0.237 OA
ATOM     79  O   UNL A   1      41.934  31.934  39.283  1.00  0.00    -0.744 OA
ENDBRANCH  72  76
ENDBRANCH  55  69
BRANCH  56  80
ATOM     80  C   UNL A   1      42.489  24.729  27.501  1.00  0.00     0.023 A 
ATOM     81  C   UNL A   1      41.761  23.535  27.621  1.00  0.00     0.031 A 
ATOM     82  C   UNL A   1      43.189  24.956  26.301  1.00  0.00     0.131 A 
ATOM     83  C   UNL A   1      41.786  22.592  26.581  1.00  0.00     0.055 A 
ATOM     84  C   UNL A   1      43.168  24.040  25.250  1.00  0.00     0.041 A 
ATOM     85  F   UNL A   1      43.897  26.085  26.132  1.00  0.00    -0.206 F 
ATOM     86  C   UNL A   1      42.474  22.843  25.391  1.00  0.00     0.022 A 
BRANCH  83  87
ATOM     87  S   UNL A   1      40.974  20.992  26.840  1.00  0.00     0.124 S 
ATOM     88  O   UNL A   1      41.974  20.064  26.321  1.00  0.00    -0.237 OA
ATOM     89  O   UNL A   1      40.778  20.983  28.286  1.00  0.00    -0.237 OA
ATOM     90  O   UNL A   1      39.751  21.100  26.048  1.00  0.00    -0.744 OA
ENDBRANCH  83  87
ENDBRANCH  56  80
BRANCH  68  91
ATOM     91  C   UNL A   1      47.263  26.052  32.410  1.00  0.00     0.023 A 
ATOM     92  C   UNL A   1      47.347  25.069  33.412  1.00  0.00     0.031 A 
ATOM     93  C   UNL A   1      48.445  26.410  31.735  1.00  0.00     0.131 A 
ATOM     94  C   UNL A   1      48.593  24.516  33.748  1.00  0.00     0.055 A 
ATOM     95  C   UNL A   1      49.672  25.814  32.032  1.00  0.00     0.041 A 
ATOM     96  F   UNL A   1      48.426  27.345  30.772  1.00  0.00    -0.206 F 
ATOM     97  C   UNL A   1      49.752  24.870  33.052  1.00  0.00     0.022 A 
BRANCH  94  98
ATOM     98  S   UNL A   1      48.694  23.388  35.165  1.00  0.00     0.124 S 
ATOM     99  O   UNL A   1      50.098  23.502  35.542  1.00  0.00    -0.237 OA
ATOM    100  O   UNL A   1      47.735  23.971  36.098  1.00  0.00    -0.237 OA
ATOM    101  O   UNL A   1      48.304  22.096  34.603  1.00  0.00    -0.744 OA
ENDBRANCH  94  98
ENDBRANCH  68  91
ENDBRANCH  42  43
ENDBRANCH  34  37
ENDBRANCH  32  33
ENDBRANCH  31  32
ENDBRANCH  30  31
ENDBRANCH   1  30
TORSDOF 21
ENDMDL
