MODEL 1
REMARK VINA RESULT:     -11.4      0.000      0.000
REMARK SMILES O=C(NCCCCCCNC(=O)c1cnc(-c2ccccc2Cl)nc1)c1ccc(-c2c3nc(c(-c4cc(S(=O)(=O)[O-])ccc4F)c4ccc([nH]4)c(-c4cc(S(=O)(=O)[O-])ccc4F)c4nc(c(-c5cc(S(=O)(=O)[O-])ccc5F)c5ccc2[nH]5)C=C4)C=C3)cc1
REMARK SMILES IDX 5 1 4 2 3 3 1 4 2 5 26 7 27 8 88 9 28 10 87 11 29 12 30 13
REMARK SMILES IDX 31 14 81 15 32 16 86 17 80 18 82 19 33 20 85 21 79 22 78 23
REMARK SMILES IDX 34 25 66 26 46 27 65 28 47 29 50 30 64 31 83 32 48 33 49 34
REMARK SMILES IDX 63 36 84 37 51 38 35 39 36 40 44 41 37 42 43 43 45 44 42 45
REMARK SMILES IDX 38 46 39 47 40 48 41 49 67 50 68 51 76 52 69 53 75 54 77 55
REMARK SMILES IDX 74 56 70 57 71 58 72 59 73 60 52 61 53 62 61 63 54 64 60 65
REMARK SMILES IDX 62 66 59 67 55 68 56 69 57 70 58 71 6 72 7 73 8 74 9 75
REMARK SMILES IDX 10 76 11 77 12 79 13 80 14 81 25 82 15 83 24 84 16 85 17 86
REMARK SMILES IDX 18 87 22 88 19 89 21 90 23 91 20 92
REMARK H PARENT 3 6 82 24 50 35 10 78
REMARK Flexibility Score: inf
ROOT
ATOM      1  C   UNL A   1      31.681  31.775  26.736  1.00  0.00     0.021 C 
ENDROOT
BRANCH   1   2
ATOM      2  C   UNL A   1      32.963  32.540  27.030  1.00  0.00     0.116 C 
BRANCH   2   3
ATOM      3  N   UNL A   1      32.708  33.856  27.595  1.00  0.00    -0.352 N 
ATOM      4  O   UNL A   1      32.830  35.499  29.137  1.00  0.00    -0.269 OA
ATOM      5  C   UNL A   1      33.285  34.450  28.693  1.00  0.00     0.251 C 
ATOM      6  H   UNL A   1      32.030  34.395  27.127  1.00  0.00     0.163 HD
BRANCH   5   7
ATOM      7  C   UNL A   1      34.444  33.802  29.343  1.00  0.00     0.039 A 
ATOM      8  C   UNL A   1      34.249  32.763  30.256  1.00  0.00     0.014 A 
ATOM      9  C   UNL A   1      35.736  34.244  29.046  1.00  0.00     0.014 A 
ATOM     10  C   UNL A   1      35.329  32.265  30.976  1.00  0.00     0.010 A 
ATOM     11  C   UNL A   1      36.831  33.672  29.701  1.00  0.00     0.010 A 
ATOM     12  C   UNL A   1      36.634  32.693  30.689  1.00  0.00    -0.014 A 
BRANCH  12  13
ATOM     13  C   UNL A   1      37.777  32.044  31.382  1.00  0.00     0.031 A 
ATOM     14  C   UNL A   1      38.592  30.972  30.714  1.00  0.00     0.074 A 
ATOM     15  C   UNL A   1      38.088  32.457  32.627  1.00  0.00     0.049 A 
ATOM     16  N   UNL A   1      39.615  30.305  31.181  1.00  0.00    -0.248 NA
ATOM     17  C   UNL A   1      38.202  30.594  29.348  1.00  0.00     0.031 C 
ATOM     18  C   UNL A   1      37.363  33.491  33.373  1.00  0.00     0.029 A 
ATOM     19  N   UNL A   1      39.092  32.079  33.480  1.00  0.00    -0.354 N 
ATOM     20  C   UNL A   1      39.987  29.415  30.178  1.00  0.00     0.074 A 
ATOM     21  C   UNL A   1      39.052  29.609  29.088  1.00  0.00     0.031 C 
ATOM     22  C   UNL A   1      37.972  33.696  34.548  1.00  0.00     0.029 A 
ATOM     23  C   UNL A   1      39.077  32.754  34.679  1.00  0.00     0.049 A 
ATOM     24  H   UNL A   1      39.759  31.392  33.257  1.00  0.00     0.167 HD
ATOM     25  C   UNL A   1      41.013  28.528  30.171  1.00  0.00     0.034 A 
ATOM     26  C   UNL A   1      39.842  32.612  35.777  1.00  0.00     0.034 A 
ATOM     27  C   UNL A   1      41.930  28.351  31.274  1.00  0.00     0.049 A 
ATOM     28  C   UNL A   1      40.937  31.581  35.763  1.00  0.00     0.074 A 
ATOM     29  C   UNL A   1      43.024  27.506  31.359  1.00  0.00     0.029 A 
ATOM     30  N   UNL A   1      41.854  29.017  32.493  1.00  0.00    -0.354 N 
ATOM     31  N   UNL A   1      41.287  30.763  34.796  1.00  0.00    -0.248 NA
ATOM     32  C   UNL A   1      41.741  31.455  36.983  1.00  0.00     0.031 C 
ATOM     33  C   UNL A   1      43.555  27.600  32.650  1.00  0.00     0.029 A 
ATOM     34  C   UNL A   1      42.855  28.571  33.346  1.00  0.00     0.049 A 
ATOM     35  H   UNL A   1      41.186  29.705  32.718  1.00  0.00     0.167 HD
ATOM     36  C   UNL A   1      42.370  30.042  35.288  1.00  0.00     0.074 A 
ATOM     37  C   UNL A   1      42.625  30.538  36.625  1.00  0.00     0.031 C 
ATOM     38  C   UNL A   1      43.089  29.060  34.686  1.00  0.00     0.034 A 
BRANCH  25  39
ATOM     39  C   UNL A   1      41.170  27.647  28.952  1.00  0.00     0.023 A 
ATOM     40  C   UNL A   1      42.181  27.865  27.999  1.00  0.00     0.031 A 
ATOM     41  C   UNL A   1      40.286  26.574  28.735  1.00  0.00     0.131 A 
ATOM     42  C   UNL A   1      42.242  27.066  26.846  1.00  0.00     0.055 A 
ATOM     43  C   UNL A   1      40.402  25.733  27.627  1.00  0.00     0.041 A 
ATOM     44  F   UNL A   1      39.287  26.327  29.597  1.00  0.00    -0.206 F 
ATOM     45  C   UNL A   1      41.377  25.985  26.666  1.00  0.00     0.022 A 
BRANCH  42  46
ATOM     46  S   UNL A   1      43.377  27.549  25.516  1.00  0.00     0.124 S 
ATOM     47  O   UNL A   1      44.052  28.703  26.106  1.00  0.00    -0.237 OA
ATOM     48  O   UNL A   1      44.193  26.352  25.345  1.00  0.00    -0.237 OA
ATOM     49  O   UNL A   1      42.486  27.862  24.400  1.00  0.00    -0.744 OA
ENDBRANCH  42  46
ENDBRANCH  25  39
BRANCH  26  50
ATOM     50  C   UNL A   1      39.571  33.435  36.990  1.00  0.00     0.023 A 
ATOM     51  C   UNL A   1      40.309  34.596  37.260  1.00  0.00     0.031 A 
ATOM     52  C   UNL A   1      38.579  33.054  37.914  1.00  0.00     0.131 A 
ATOM     53  C   UNL A   1      40.075  35.313  38.444  1.00  0.00     0.055 A 
ATOM     54  C   UNL A   1      38.308  33.804  39.058  1.00  0.00     0.041 A 
ATOM     55  F   UNL A   1      37.842  31.952  37.703  1.00  0.00    -0.206 F 
ATOM     56  C   UNL A   1      39.068  34.934  39.336  1.00  0.00     0.022 A 
BRANCH  53  57
ATOM     57  S   UNL A   1      41.171  36.699  38.849  1.00  0.00     0.124 S 
ATOM     58  O   UNL A   1      41.921  36.164  39.980  1.00  0.00    -0.237 OA
ATOM     59  O   UNL A   1      41.916  36.868  37.607  1.00  0.00    -0.237 OA
ATOM     60  O   UNL A   1      40.245  37.782  39.171  1.00  0.00    -0.744 OA
ENDBRANCH  53  57
ENDBRANCH  26  50
BRANCH  38  61
ATOM     61  C   UNL A   1      44.252  28.492  35.464  1.00  0.00     0.023 A 
ATOM     62  C   UNL A   1      44.088  27.436  36.378  1.00  0.00     0.031 A 
ATOM     63  C   UNL A   1      45.540  29.033  35.304  1.00  0.00     0.131 A 
ATOM     64  C   UNL A   1      45.181  26.998  37.142  1.00  0.00     0.055 A 
ATOM     65  C   UNL A   1      46.636  28.545  36.016  1.00  0.00     0.041 A 
ATOM     66  F   UNL A   1      45.755  30.047  34.451  1.00  0.00    -0.206 F 
ATOM     67  C   UNL A   1      46.457  27.532  36.952  1.00  0.00     0.022 A 
BRANCH  64  68
ATOM     68  S   UNL A   1      44.890  25.791  38.466  1.00  0.00     0.124 S 
ATOM     69  O   UNL A   1      44.070  26.557  39.398  1.00  0.00    -0.237 OA
ATOM     70  O   UNL A   1      44.210  24.711  37.759  1.00  0.00    -0.237 OA
ATOM     71  O   UNL A   1      46.234  25.472  38.940  1.00  0.00    -0.744 OA
ENDBRANCH  64  68
ENDBRANCH  38  61
ENDBRANCH  12  13
ENDBRANCH   5   7
ENDBRANCH   2   3
ENDBRANCH   1   2
BRANCH   1  72
ATOM     72  C   UNL A   1      31.767  30.268  26.971  1.00  0.00     0.002 C 
BRANCH  72  73
ATOM     73  C   UNL A   1      31.799  29.411  25.701  1.00  0.00     0.002 C 
BRANCH  73  74
ATOM     74  C   UNL A   1      33.186  29.205  25.083  1.00  0.00     0.021 C 
BRANCH  74  75
ATOM     75  C   UNL A   1      33.221  29.244  23.557  1.00  0.00     0.116 C 
BRANCH  75  76
ATOM     76  N   UNL A   1      31.974  28.765  22.976  1.00  0.00    -0.352 N 
ATOM     77  C   UNL A   1      31.619  27.489  22.633  1.00  0.00     0.254 C 
ATOM     78  H   UNL A   1      31.293  29.456  22.806  1.00  0.00     0.163 HD
ATOM     79  O   UNL A   1      30.616  27.271  21.957  1.00  0.00    -0.269 OA
BRANCH  77  80
ATOM     80  C   UNL A   1      32.448  26.367  23.064  1.00  0.00     0.076 A 
ATOM     81  C   UNL A   1      32.394  25.849  24.337  1.00  0.00     0.129 A 
ATOM     82  C   UNL A   1      33.324  25.757  22.199  1.00  0.00     0.129 A 
ATOM     83  N   UNL A   1      33.203  24.857  24.765  1.00  0.00    -0.236 NA
ATOM     84  N   UNL A   1      34.156  24.761  22.574  1.00  0.00    -0.236 NA
ATOM     85  C   UNL A   1      34.091  24.380  23.867  1.00  0.00     0.160 A 
BRANCH  85  86
ATOM     86  C   UNL A   1      35.024  23.359  24.341  1.00  0.00     0.038 A 
ATOM     87  C   UNL A   1      36.332  23.739  24.706  1.00  0.00     0.013 A 
ATOM     88  C   UNL A   1      34.695  21.993  24.422  1.00  0.00     0.052 A 
ATOM     89  C   UNL A   1      37.268  22.803  25.155  1.00  0.00     0.001 A 
ATOM     90  C   UNL A   1      35.636  21.055  24.871  1.00  0.00     0.021 A 
ATOM     91  Cl  UNL A   1      33.159  21.369  23.918  1.00  0.00    -0.084 Cl
ATOM     92  C   UNL A   1      36.917  21.461  25.241  1.00  0.00     0.002 A 
ENDBRANCH  85  86
ENDBRANCH  77  80
ENDBRANCH  75  76
ENDBRANCH  74  75
ENDBRANCH  73  74
ENDBRANCH  72  73
ENDBRANCH   1  72
TORSDOF 17
ENDMDL
MODEL 2
REMARK VINA RESULT:     -11.4      3.173      8.588
REMARK SMILES O=C(NCCCCCCNC(=O)c1cnc(-c2ccccc2Cl)nc1)c1ccc(-c2c3nc(c(-c4cc(S(=O)(=O)[O-])ccc4F)c4ccc([nH]4)c(-c4cc(S(=O)(=O)[O-])ccc4F)c4nc(c(-c5cc(S(=O)(=O)[O-])ccc5F)c5ccc2[nH]5)C=C4)C=C3)cc1
REMARK SMILES IDX 5 1 4 2 3 3 1 4 2 5 26 7 27 8 88 9 28 10 87 11 29 12 30 13
REMARK SMILES IDX 31 14 81 15 32 16 86 17 80 18 82 19 33 20 85 21 79 22 78 23
REMARK SMILES IDX 34 25 66 26 46 27 65 28 47 29 50 30 64 31 83 32 48 33 49 34
REMARK SMILES IDX 63 36 84 37 51 38 35 39 36 40 44 41 37 42 43 43 45 44 42 45
REMARK SMILES IDX 38 46 39 47 40 48 41 49 67 50 68 51 76 52 69 53 75 54 77 55
REMARK SMILES IDX 74 56 70 57 71 58 72 59 73 60 52 61 53 62 61 63 54 64 60 65
REMARK SMILES IDX 62 66 59 67 55 68 56 69 57 70 58 71 6 72 7 73 8 74 9 75
REMARK SMILES IDX 10 76 11 77 12 79 13 80 14 81 25 82 15 83 24 84 16 85 17 86
REMARK SMILES IDX 18 87 22 88 19 89 21 90 23 91 20 92
REMARK H PARENT 3 6 82 24 50 35 10 78
REMARK Flexibility Score: inf
ROOT
ATOM      1  C   UNL A   1      32.658  28.551  25.505  1.00  0.00     0.021 C 
ENDROOT
BRANCH   1   2
ATOM      2  C   UNL A   1      33.847  29.092  26.286  1.00  0.00     0.116 C 
BRANCH   2   3
ATOM      3  N   UNL A   1      33.620  30.442  26.778  1.00  0.00    -0.352 N 
ATOM      4  O   UNL A   1      33.907  32.216  28.142  1.00  0.00    -0.269 OA
ATOM      5  C   UNL A   1      34.336  31.149  27.715  1.00  0.00     0.251 C 
ATOM      6  H   UNL A   1      32.850  30.913  26.386  1.00  0.00     0.163 HD
BRANCH   5   7
ATOM      7  C   UNL A   1      35.615  30.603  28.217  1.00  0.00     0.039 A 
ATOM      8  C   UNL A   1      35.626  29.711  29.291  1.00  0.00     0.014 A 
ATOM      9  C   UNL A   1      36.813  30.994  27.614  1.00  0.00     0.014 A 
ATOM     10  C   UNL A   1      36.837  29.323  29.853  1.00  0.00     0.010 A 
ATOM     11  C   UNL A   1      38.029  30.522  28.121  1.00  0.00     0.010 A 
ATOM     12  C   UNL A   1      38.051  29.702  29.260  1.00  0.00    -0.014 A 
BRANCH  12  13
ATOM     13  C   UNL A   1      39.323  29.160  29.806  1.00  0.00     0.031 A 
ATOM     14  C   UNL A   1      39.961  29.748  31.034  1.00  0.00     0.074 A 
ATOM     15  C   UNL A   1      39.887  28.104  29.186  1.00  0.00     0.049 A 
ATOM     16  N   UNL A   1      41.068  29.396  31.635  1.00  0.00    -0.248 NA
ATOM     17  C   UNL A   1      39.272  30.883  31.663  1.00  0.00     0.031 C 
ATOM     18  C   UNL A   1      39.354  27.455  27.984  1.00  0.00     0.029 A 
ATOM     19  N   UNL A   1      41.014  27.382  29.478  1.00  0.00    -0.354 N 
ATOM     20  C   UNL A   1      41.222  30.272  32.704  1.00  0.00     0.074 A 
ATOM     21  C   UNL A   1      40.107  31.194  32.646  1.00  0.00     0.031 C 
ATOM     22  C   UNL A   1      40.125  26.405  27.671  1.00  0.00     0.029 A 
ATOM     23  C   UNL A   1      41.253  26.355  28.593  1.00  0.00     0.049 A 
ATOM     24  H   UNL A   1      41.597  27.578  30.246  1.00  0.00     0.167 HD
ATOM     25  C   UNL A   1      42.200  30.295  33.645  1.00  0.00     0.034 A 
ATOM     26  C   UNL A   1      42.279  25.489  28.509  1.00  0.00     0.034 A 
ATOM     27  C   UNL A   1      43.306  29.365  33.677  1.00  0.00     0.049 A 
ATOM     28  C   UNL A   1      43.380  25.575  29.531  1.00  0.00     0.074 A 
ATOM     29  C   UNL A   1      44.332  29.278  34.604  1.00  0.00     0.029 A 
ATOM     30  N   UNL A   1      43.543  28.369  32.736  1.00  0.00    -0.354 N 
ATOM     31  N   UNL A   1      43.497  26.396  30.549  1.00  0.00    -0.248 NA
ATOM     32  C   UNL A   1      44.482  24.616  29.396  1.00  0.00     0.031 C 
ATOM     33  C   UNL A   1      45.228  28.291  34.178  1.00  0.00     0.029 A 
ATOM     34  C   UNL A   1      44.718  27.694  33.038  1.00  0.00     0.049 A 
ATOM     35  H   UNL A   1      42.961  28.172  31.966  1.00  0.00     0.167 HD
ATOM     36  C   UNL A   1      44.678  26.035  31.190  1.00  0.00     0.074 A 
ATOM     37  C   UNL A   1      45.220  24.910  30.455  1.00  0.00     0.031 C 
ATOM     38  C   UNL A   1      45.260  26.584  32.287  1.00  0.00     0.034 A 
BRANCH  25  39
ATOM     39  C   UNL A   1      42.145  31.390  34.686  1.00  0.00     0.023 A 
ATOM     40  C   UNL A   1      41.164  31.415  35.692  1.00  0.00     0.031 A 
ATOM     41  C   UNL A   1      43.090  32.434  34.667  1.00  0.00     0.131 A 
ATOM     42  C   UNL A   1      41.108  32.492  36.592  1.00  0.00     0.055 A 
ATOM     43  C   UNL A   1      43.078  33.459  35.614  1.00  0.00     0.041 A 
ATOM     44  F   UNL A   1      44.039  32.479  33.718  1.00  0.00    -0.206 F 
ATOM     45  C   UNL A   1      42.074  33.500  36.577  1.00  0.00     0.022 A 
BRANCH  42  46
ATOM     46  S   UNL A   1      39.671  32.629  37.691  1.00  0.00     0.124 S 
ATOM     47  O   UNL A   1      39.193  33.976  37.387  1.00  0.00    -0.237 OA
ATOM     48  O   UNL A   1      38.821  31.534  37.239  1.00  0.00    -0.237 OA
ATOM     49  O   UNL A   1      40.243  32.466  39.026  1.00  0.00    -0.744 OA
ENDBRANCH  42  46
ENDBRANCH  25  39
BRANCH  26  50
ATOM     50  C   UNL A   1      42.334  24.500  27.396  1.00  0.00     0.023 A 
ATOM     51  C   UNL A   1      41.567  23.326  27.428  1.00  0.00     0.031 A 
ATOM     52  C   UNL A   1      43.179  24.705  26.288  1.00  0.00     0.131 A 
ATOM     53  C   UNL A   1      41.690  22.382  26.396  1.00  0.00     0.055 A 
ATOM     54  C   UNL A   1      43.252  23.794  25.235  1.00  0.00     0.041 A 
ATOM     55  F   UNL A   1      43.933  25.812  26.206  1.00  0.00    -0.206 F 
ATOM     56  C   UNL A   1      42.515  22.617  25.292  1.00  0.00     0.022 A 
BRANCH  53  57
ATOM     57  S   UNL A   1      40.826  20.798  26.562  1.00  0.00     0.124 S 
ATOM     58  O   UNL A   1      40.860  20.591  28.005  1.00  0.00    -0.237 OA
ATOM     59  O   UNL A   1      39.520  21.105  25.989  1.00  0.00    -0.237 OA
ATOM     60  O   UNL A   1      41.647  19.878  25.779  1.00  0.00    -0.744 OA
ENDBRANCH  53  57
ENDBRANCH  26  50
BRANCH  38  61
ATOM     61  C   UNL A   1      46.531  25.936  32.781  1.00  0.00     0.023 A 
ATOM     62  C   UNL A   1      46.514  24.876  33.705  1.00  0.00     0.031 A 
ATOM     63  C   UNL A   1      47.781  26.404  32.336  1.00  0.00     0.131 A 
ATOM     64  C   UNL A   1      47.722  24.362  34.200  1.00  0.00     0.055 A 
ATOM     65  C   UNL A   1      48.977  25.841  32.780  1.00  0.00     0.041 A 
ATOM     66  F   UNL A   1      47.859  27.418  31.460  1.00  0.00    -0.206 F 
ATOM     67  C   UNL A   1      48.953  24.823  33.729  1.00  0.00     0.022 A 
BRANCH  64  68
ATOM     68  S   UNL A   1      47.664  23.152  35.552  1.00  0.00     0.124 S 
ATOM     69  O   UNL A   1      48.513  22.083  35.037  1.00  0.00    -0.237 OA
ATOM     70  O   UNL A   1      48.205  23.911  36.674  1.00  0.00    -0.237 OA
ATOM     71  O   UNL A   1      46.244  22.821  35.655  1.00  0.00    -0.744 OA
ENDBRANCH  64  68
ENDBRANCH  38  61
ENDBRANCH  12  13
ENDBRANCH   5   7
ENDBRANCH   2   3
ENDBRANCH   1   2
BRANCH   1  72
ATOM     72  C   UNL A   1      31.569  29.579  25.205  1.00  0.00     0.002 C 
BRANCH  72  73
ATOM     73  C   UNL A   1      30.626  29.214  24.054  1.00  0.00     0.002 C 
BRANCH  73  74
ATOM     74  C   UNL A   1      30.367  27.715  23.869  1.00  0.00     0.021 C 
BRANCH  74  75
ATOM     75  C   UNL A   1      30.725  27.167  22.489  1.00  0.00     0.116 C 
BRANCH  75  76
ATOM     76  N   UNL A   1      31.977  27.726  21.996  1.00  0.00    -0.352 N 
ATOM     77  C   UNL A   1      33.243  27.214  22.086  1.00  0.00     0.254 C 
ATOM     78  H   UNL A   1      31.901  28.593  21.534  1.00  0.00     0.163 HD
ATOM     79  O   UNL A   1      34.224  27.901  21.811  1.00  0.00    -0.269 OA
BRANCH  77  80
ATOM     80  C   UNL A   1      33.435  25.836  22.528  1.00  0.00     0.076 A 
ATOM     81  C   UNL A   1      33.362  24.763  21.671  1.00  0.00     0.129 A 
ATOM     82  C   UNL A   1      33.720  25.544  23.840  1.00  0.00     0.129 A 
ATOM     83  N   UNL A   1      33.472  23.483  22.080  1.00  0.00    -0.236 NA
ATOM     84  N   UNL A   1      33.839  24.280  24.304  1.00  0.00    -0.236 NA
ATOM     85  C   UNL A   1      33.664  23.292  23.403  1.00  0.00     0.160 A 
BRANCH  85  86
ATOM     86  C   UNL A   1      33.708  21.907  23.870  1.00  0.00     0.038 A 
ATOM     87  C   UNL A   1      32.562  21.096  23.730  1.00  0.00     0.013 A 
ATOM     88  C   UNL A   1      34.836  21.339  24.491  1.00  0.00     0.052 A 
ATOM     89  C   UNL A   1      32.545  19.769  24.168  1.00  0.00     0.001 A 
ATOM     90  C   UNL A   1      34.816  20.008  24.932  1.00  0.00     0.021 A 
ATOM     91  Cl  UNL A   1      36.279  22.241  24.815  1.00  0.00    -0.084 Cl
ATOM     92  C   UNL A   1      33.675  19.224  24.766  1.00  0.00     0.002 A 
ENDBRANCH  85  86
ENDBRANCH  77  80
ENDBRANCH  75  76
ENDBRANCH  74  75
ENDBRANCH  73  74
ENDBRANCH  72  73
ENDBRANCH   1  72
TORSDOF 17
ENDMDL
MODEL 3
REMARK VINA RESULT:     -11.3      2.012      2.417
REMARK SMILES O=C(NCCCCCCNC(=O)c1cnc(-c2ccccc2Cl)nc1)c1ccc(-c2c3nc(c(-c4cc(S(=O)(=O)[O-])ccc4F)c4ccc([nH]4)c(-c4cc(S(=O)(=O)[O-])ccc4F)c4nc(c(-c5cc(S(=O)(=O)[O-])ccc5F)c5ccc2[nH]5)C=C4)C=C3)cc1
REMARK SMILES IDX 5 1 4 2 3 3 1 4 2 5 26 7 27 8 88 9 28 10 87 11 29 12 30 13
REMARK SMILES IDX 31 14 81 15 32 16 86 17 80 18 82 19 33 20 85 21 79 22 78 23
REMARK SMILES IDX 34 25 66 26 46 27 65 28 47 29 50 30 64 31 83 32 48 33 49 34
REMARK SMILES IDX 63 36 84 37 51 38 35 39 36 40 44 41 37 42 43 43 45 44 42 45
REMARK SMILES IDX 38 46 39 47 40 48 41 49 67 50 68 51 76 52 69 53 75 54 77 55
REMARK SMILES IDX 74 56 70 57 71 58 72 59 73 60 52 61 53 62 61 63 54 64 60 65
REMARK SMILES IDX 62 66 59 67 55 68 56 69 57 70 58 71 6 72 7 73 8 74 9 75
REMARK SMILES IDX 10 76 11 77 12 79 13 80 14 81 25 82 15 83 24 84 16 85 17 86
REMARK SMILES IDX 18 87 22 88 19 89 21 90 23 91 20 92
REMARK H PARENT 3 6 82 24 50 35 10 78
REMARK Flexibility Score: inf
ROOT
ATOM      1  C   UNL A   1      31.466  31.767  26.797  1.00  0.00     0.021 C 
ENDROOT
BRANCH   1   2
ATOM      2  C   UNL A   1      32.738  32.603  26.831  1.00  0.00     0.116 C 
BRANCH   2   3
ATOM      3  N   UNL A   1      32.527  33.910  27.434  1.00  0.00    -0.352 N 
ATOM      4  O   UNL A   1      32.741  35.517  29.004  1.00  0.00    -0.269 OA
ATOM      5  C   UNL A   1      33.160  34.471  28.518  1.00  0.00     0.251 C 
ATOM      6  H   UNL A   1      31.838  34.468  27.008  1.00  0.00     0.163 HD
BRANCH   5   7
ATOM      7  C   UNL A   1      34.337  33.794  29.103  1.00  0.00     0.039 A 
ATOM      8  C   UNL A   1      34.169  32.690  29.942  1.00  0.00     0.014 A 
ATOM      9  C   UNL A   1      35.619  34.272  28.818  1.00  0.00     0.014 A 
ATOM     10  C   UNL A   1      35.265  32.156  30.608  1.00  0.00     0.010 A 
ATOM     11  C   UNL A   1      36.731  33.668  29.414  1.00  0.00     0.010 A 
ATOM     12  C   UNL A   1      36.561  32.619  30.333  1.00  0.00    -0.014 A 
BRANCH  12  13
ATOM     13  C   UNL A   1      37.722  31.937  30.960  1.00  0.00     0.031 A 
ATOM     14  C   UNL A   1      38.534  30.921  30.207  1.00  0.00     0.074 A 
ATOM     15  C   UNL A   1      38.052  32.268  32.225  1.00  0.00     0.049 A 
ATOM     16  N   UNL A   1      39.572  30.234  30.611  1.00  0.00    -0.248 NA
ATOM     17  C   UNL A   1      38.124  30.632  28.826  1.00  0.00     0.031 C 
ATOM     18  C   UNL A   1      37.331  33.242  33.051  1.00  0.00     0.029 A 
ATOM     19  N   UNL A   1      39.074  31.844  33.033  1.00  0.00    -0.354 N 
ATOM     20  C   UNL A   1      39.933  29.418  29.543  1.00  0.00     0.074 A 
ATOM     21  C   UNL A   1      38.977  29.675  28.485  1.00  0.00     0.031 C 
ATOM     22  C   UNL A   1      37.959  33.374  34.227  1.00  0.00     0.029 A 
ATOM     23  C   UNL A   1      39.074  32.437  34.275  1.00  0.00     0.049 A 
ATOM     24  H   UNL A   1      39.743  31.180  32.752  1.00  0.00     0.167 HD
ATOM     25  C   UNL A   1      40.968  28.544  29.458  1.00  0.00     0.034 A 
ATOM     26  C   UNL A   1      39.861  32.229  35.347  1.00  0.00     0.034 A 
ATOM     27  C   UNL A   1      41.906  28.303  30.531  1.00  0.00     0.049 A 
ATOM     28  C   UNL A   1      40.964  31.212  35.244  1.00  0.00     0.074 A 
ATOM     29  C   UNL A   1      43.009  27.465  30.539  1.00  0.00     0.029 A 
ATOM     30  N   UNL A   1      41.846  28.884  31.793  1.00  0.00    -0.354 N 
ATOM     31  N   UNL A   1      41.305  30.465  34.219  1.00  0.00    -0.248 NA
ATOM     32  C   UNL A   1      41.792  31.013  36.439  1.00  0.00     0.031 C 
ATOM     33  C   UNL A   1      43.562  27.477  31.824  1.00  0.00     0.029 A 
ATOM     34  C   UNL A   1      42.866  28.392  32.596  1.00  0.00     0.049 A 
ATOM     35  H   UNL A   1      41.176  29.548  32.076  1.00  0.00     0.167 HD
ATOM     36  C   UNL A   1      42.403  29.723  34.642  1.00  0.00     0.074 A 
ATOM     37  C   UNL A   1      42.678  30.131  36.005  1.00  0.00     0.031 C 
ATOM     38  C   UNL A   1      43.120  28.792  33.962  1.00  0.00     0.034 A 
BRANCH  25  39
ATOM     39  C   UNL A   1      41.111  27.749  28.180  1.00  0.00     0.023 A 
ATOM     40  C   UNL A   1      40.752  26.392  28.102  1.00  0.00     0.031 A 
ATOM     41  C   UNL A   1      41.623  28.359  27.020  1.00  0.00     0.131 A 
ATOM     42  C   UNL A   1      40.972  25.676  26.914  1.00  0.00     0.055 A 
ATOM     43  C   UNL A   1      41.763  27.662  25.818  1.00  0.00     0.041 A 
ATOM     44  F   UNL A   1      42.004  29.646  27.036  1.00  0.00    -0.206 F 
ATOM     45  C   UNL A   1      41.449  26.308  25.764  1.00  0.00     0.022 A 
BRANCH  42  46
ATOM     46  S   UNL A   1      40.758  23.874  26.936  1.00  0.00     0.124 S 
ATOM     47  O   UNL A   1      41.716  23.449  25.918  1.00  0.00    -0.237 OA
ATOM     48  O   UNL A   1      41.097  23.532  28.313  1.00  0.00    -0.237 OA
ATOM     49  O   UNL A   1      39.354  23.691  26.574  1.00  0.00    -0.744 OA
ENDBRANCH  42  46
ENDBRANCH  25  39
BRANCH  26  50
ATOM     50  C   UNL A   1      39.604  32.965  36.618  1.00  0.00     0.023 A 
ATOM     51  C   UNL A   1      38.735  32.452  37.592  1.00  0.00     0.031 A 
ATOM     52  C   UNL A   1      40.210  34.211  36.865  1.00  0.00     0.131 A 
ATOM     53  C   UNL A   1      38.462  33.200  38.748  1.00  0.00     0.055 A 
ATOM     54  C   UNL A   1      39.985  34.922  38.043  1.00  0.00     0.041 A 
ATOM     55  F   UNL A   1      41.052  34.747  35.967  1.00  0.00    -0.206 F 
ATOM     56  C   UNL A   1      39.094  34.423  38.987  1.00  0.00     0.022 A 
BRANCH  53  57
ATOM     57  S   UNL A   1      37.195  32.594  39.894  1.00  0.00     0.124 S 
ATOM     58  O   UNL A   1      37.188  33.641  40.909  1.00  0.00    -0.237 OA
ATOM     59  O   UNL A   1      36.018  32.526  39.035  1.00  0.00    -0.237 OA
ATOM     60  O   UNL A   1      37.721  31.303  40.331  1.00  0.00    -0.744 OA
ENDBRANCH  53  57
ENDBRANCH  26  50
BRANCH  38  61
ATOM     61  C   UNL A   1      44.302  28.184  34.680  1.00  0.00     0.023 A 
ATOM     62  C   UNL A   1      44.220  26.934  35.317  1.00  0.00     0.031 A 
ATOM     63  C   UNL A   1      45.522  28.881  34.746  1.00  0.00     0.131 A 
ATOM     64  C   UNL A   1      45.318  26.448  36.045  1.00  0.00     0.055 A 
ATOM     65  C   UNL A   1      46.631  28.360  35.412  1.00  0.00     0.041 A 
ATOM     66  F   UNL A   1      45.656  30.083  34.162  1.00  0.00    -0.206 F 
ATOM     67  C   UNL A   1      46.528  27.143  36.079  1.00  0.00     0.022 A 
BRANCH  64  68
ATOM     68  S   UNL A   1      45.108  24.943  37.036  1.00  0.00     0.124 S 
ATOM     69  O   UNL A   1      46.440  24.352  36.975  1.00  0.00    -0.237 OA
ATOM     70  O   UNL A   1      44.706  25.478  38.333  1.00  0.00    -0.237 OA
ATOM     71  O   UNL A   1      44.069  24.204  36.322  1.00  0.00    -0.744 OA
ENDBRANCH  64  68
ENDBRANCH  38  61
ENDBRANCH  12  13
ENDBRANCH   5   7
ENDBRANCH   2   3
ENDBRANCH   1   2
BRANCH   1  72
ATOM     72  C   UNL A   1      31.691  30.258  26.872  1.00  0.00     0.002 C 
BRANCH  72  73
ATOM     73  C   UNL A   1      31.809  29.548  25.519  1.00  0.00     0.002 C 
BRANCH  73  74
ATOM     74  C   UNL A   1      33.237  29.218  25.073  1.00  0.00     0.021 C 
BRANCH  74  75
ATOM     75  C   UNL A   1      33.412  29.024  23.569  1.00  0.00     0.116 C 
BRANCH  75  76
ATOM     76  N   UNL A   1      32.149  28.707  22.916  1.00  0.00    -0.352 N 
ATOM     77  C   UNL A   1      31.662  27.487  22.530  1.00  0.00     0.254 C 
ATOM     78  H   UNL A   1      31.565  29.477  22.726  1.00  0.00     0.163 HD
ATOM     79  O   UNL A   1      30.677  27.401  21.800  1.00  0.00    -0.269 OA
BRANCH  77  80
ATOM     80  C   UNL A   1      32.327  26.268  22.980  1.00  0.00     0.076 A 
ATOM     81  C   UNL A   1      33.271  25.613  22.224  1.00  0.00     0.129 A 
ATOM     82  C   UNL A   1      32.049  25.719  24.209  1.00  0.00     0.129 A 
ATOM     83  N   UNL A   1      33.843  24.452  22.601  1.00  0.00    -0.236 NA
ATOM     84  N   UNL A   1      32.592  24.558  24.636  1.00  0.00    -0.236 NA
ATOM     85  C   UNL A   1      33.441  23.944  23.786  1.00  0.00     0.160 A 
BRANCH  85  86
ATOM     86  C   UNL A   1      33.996  22.647  24.171  1.00  0.00     0.038 A 
ATOM     87  C   UNL A   1      33.175  21.502  24.109  1.00  0.00     0.013 A 
ATOM     88  C   UNL A   1      35.313  22.481  24.637  1.00  0.00     0.052 A 
ATOM     89  C   UNL A   1      33.651  20.239  24.475  1.00  0.00     0.001 A 
ATOM     90  C   UNL A   1      35.788  21.214  25.006  1.00  0.00     0.021 A 
ATOM     91  Cl  UNL A   1      36.403  23.810  24.855  1.00  0.00    -0.084 Cl
ATOM     92  C   UNL A   1      34.959  20.096  24.920  1.00  0.00     0.002 A 
ENDBRANCH  85  86
ENDBRANCH  77  80
ENDBRANCH  75  76
ENDBRANCH  74  75
ENDBRANCH  73  74
ENDBRANCH  72  73
ENDBRANCH   1  72
TORSDOF 17
ENDMDL
