MODEL 1
REMARK VINA RESULT:     -10.6      0.000      0.000
REMARK SMILES CC(C)CN(C)S(=O)(=O)c1ccc(C(=O)NCCCCCCNC(=O)c2ccc(-c3c4nc(c(-c5cc(S(=O)(=O)[O-])ccc5F)c5ccc([nH]5)c(-c5cc(S(=O)(=O)[O-])ccc5F)c5nc(c(-c6cc(S(=O)(=O)[O-])ccc6F)c6ccc3[nH]6)C=C5)C=C4)cc2)cc1
REMARK SMILES IDX 19 1 18 2 17 3 16 4 14 5 15 6 13 8 10 9 11 10 90 11 12 12
REMARK SMILES IDX 89 13 7 14 8 15 9 16 5 17 6 18 4 19 2 20 1 21 3 22 20 23
REMARK SMILES IDX 21 24 22 25 23 26 24 27 25 29 26 30 27 31 88 32 28 33 87 34
REMARK SMILES IDX 29 35 30 36 31 37 81 38 32 39 86 40 80 41 82 42 33 43 85 44
REMARK SMILES IDX 79 45 78 46 34 48 66 49 46 50 65 51 47 52 50 53 64 54 83 55
REMARK SMILES IDX 48 56 49 57 63 59 84 60 51 61 35 62 36 63 44 64 37 65 43 66
REMARK SMILES IDX 45 67 42 68 38 69 39 70 40 71 41 72 67 73 68 74 76 75 69 76
REMARK SMILES IDX 75 77 77 78 74 79 70 80 71 81 72 82 73 83 52 84 53 85 61 86
REMARK SMILES IDX 54 87 60 88 62 89 59 90 55 91 56 92 57 93 58 94
REMARK H PARENT 16 7 23 28 82 47 50 58
REMARK Flexibility Score: inf
ROOT
ATOM      1  C   UNL A   1      34.029  26.182  25.538  1.00  0.00     0.002 C 
ENDROOT
BRANCH   1   2
ATOM      2  C   UNL A   1      34.054  24.669  25.303  1.00  0.00     0.021 C 
BRANCH   2   3
ATOM      3  C   UNL A   1      32.866  23.941  25.935  1.00  0.00     0.116 C 
BRANCH   3   4
ATOM      4  N   UNL A   1      32.162  23.171  24.927  1.00  0.00    -0.352 N 
ATOM      5  C   UNL A   1      31.344  23.566  23.901  1.00  0.00     0.251 C 
ATOM      6  O   UNL A   1      30.876  22.706  23.156  1.00  0.00    -0.269 OA
ATOM      7  H   UNL A   1      32.296  22.198  24.990  1.00  0.00     0.163 HD
BRANCH   5   8
ATOM      8  C   UNL A   1      31.057  24.999  23.630  1.00  0.00     0.039 A 
ATOM      9  C   UNL A   1      30.410  27.690  23.223  1.00  0.00     0.082 A 
ATOM     10  C   UNL A   1      29.835  26.998  24.291  1.00  0.00     0.022 A 
ATOM     11  C   UNL A   1      31.336  27.064  22.387  1.00  0.00     0.022 A 
ATOM     12  C   UNL A   1      30.157  25.650  24.488  1.00  0.00     0.015 A 
ATOM     13  C   UNL A   1      31.674  25.729  22.608  1.00  0.00     0.015 A 
BRANCH   9  14
ATOM     14  S   UNL A   1      30.137  29.438  23.042  1.00  0.00     0.242 S 
ATOM     15  O   UNL A   1      30.378  29.776  21.652  1.00  0.00    -0.207 OA
ATOM     16  O   UNL A   1      30.896  30.078  24.090  1.00  0.00    -0.207 OA
BRANCH  14  17
ATOM     17  N   UNL A   1      28.443  29.662  23.336  1.00  0.00    -0.201 NA
ATOM     18  C   UNL A   1      27.589  29.057  22.264  1.00  0.00     0.124 C 
BRANCH  17  19
ATOM     19  C   UNL A   1      28.078  31.120  23.497  1.00  0.00     0.105 C 
BRANCH  19  20
ATOM     20  C   UNL A   1      28.743  32.054  22.470  1.00  0.00    -0.002 C 
ATOM     21  C   UNL A   1      27.892  32.308  21.227  1.00  0.00     0.009 C 
ATOM     22  C   UNL A   1      29.024  33.404  23.145  1.00  0.00     0.009 C 
ENDBRANCH  19  20
ENDBRANCH  17  19
ENDBRANCH  14  17
ENDBRANCH   9  14
ENDBRANCH   5   8
ENDBRANCH   3   4
ENDBRANCH   2   3
ENDBRANCH   1   2
BRANCH   1  23
ATOM     23  C   UNL A   1      32.938  26.655  26.504  1.00  0.00     0.002 C 
BRANCH  23  24
ATOM     24  C   UNL A   1      32.712  28.169  26.519  1.00  0.00     0.021 C 
BRANCH  24  25
ATOM     25  C   UNL A   1      33.959  28.984  26.187  1.00  0.00     0.116 C 
BRANCH  25  26
ATOM     26  N   UNL A   1      33.781  30.385  26.534  1.00  0.00    -0.352 N 
ATOM     27  C   UNL A   1      34.411  31.120  27.506  1.00  0.00     0.251 C 
ATOM     28  H   UNL A   1      33.114  30.873  25.999  1.00  0.00     0.163 HD
ATOM     29  O   UNL A   1      33.942  32.197  27.859  1.00  0.00    -0.269 OA
BRANCH  27  30
ATOM     30  C   UNL A   1      35.648  30.598  28.124  1.00  0.00     0.039 A 
ATOM     31  C   UNL A   1      35.552  29.702  29.189  1.00  0.00     0.014 A 
ATOM     32  C   UNL A   1      36.901  31.004  27.653  1.00  0.00     0.014 A 
ATOM     33  C   UNL A   1      36.715  29.172  29.751  1.00  0.00     0.010 A 
ATOM     34  C   UNL A   1      38.055  30.417  28.163  1.00  0.00     0.010 A 
ATOM     35  C   UNL A   1      37.973  29.502  29.223  1.00  0.00    -0.014 A 
BRANCH  35  36
ATOM     36  C   UNL A   1      39.218  28.910  29.775  1.00  0.00     0.031 A 
ATOM     37  C   UNL A   1      39.866  29.514  30.991  1.00  0.00     0.074 A 
ATOM     38  C   UNL A   1      39.792  27.864  29.148  1.00  0.00     0.049 A 
ATOM     39  N   UNL A   1      40.985  29.184  31.584  1.00  0.00    -0.248 NA
ATOM     40  C   UNL A   1      39.179  30.662  31.600  1.00  0.00     0.031 C 
ATOM     41  C   UNL A   1      39.274  27.218  27.939  1.00  0.00     0.029 A 
ATOM     42  N   UNL A   1      40.937  27.163  29.433  1.00  0.00    -0.354 N 
ATOM     43  C   UNL A   1      41.140  30.089  32.629  1.00  0.00     0.074 A 
ATOM     44  C   UNL A   1      40.038  31.022  32.542  1.00  0.00     0.031 C 
ATOM     45  C   UNL A   1      40.081  26.198  27.607  1.00  0.00     0.029 A 
ATOM     46  C   UNL A   1      41.198  26.148  28.544  1.00  0.00     0.049 A 
ATOM     47  H   UNL A   1      41.515  27.367  30.203  1.00  0.00     0.167 HD
ATOM     48  C   UNL A   1      42.101  30.121  33.588  1.00  0.00     0.034 A 
ATOM     49  C   UNL A   1      42.229  25.281  28.482  1.00  0.00     0.034 A 
ATOM     50  C   UNL A   1      43.190  29.177  33.659  1.00  0.00     0.049 A 
ATOM     51  C   UNL A   1      43.306  25.359  29.535  1.00  0.00     0.074 A 
ATOM     52  C   UNL A   1      44.187  29.082  34.614  1.00  0.00     0.029 A 
ATOM     53  N   UNL A   1      43.432  28.169  32.733  1.00  0.00    -0.354 N 
ATOM     54  N   UNL A   1      43.412  26.188  30.548  1.00  0.00    -0.248 NA
ATOM     55  C   UNL A   1      44.395  24.380  29.441  1.00  0.00     0.031 C 
ATOM     56  C   UNL A   1      45.074  28.072  34.223  1.00  0.00     0.029 A 
ATOM     57  C   UNL A   1      44.583  27.475  33.072  1.00  0.00     0.049 A 
ATOM     58  H   UNL A   1      42.867  27.976  31.949  1.00  0.00     0.167 HD
ATOM     59  C   UNL A   1      44.565  25.808  31.230  1.00  0.00     0.074 A 
ATOM     60  C   UNL A   1      45.107  24.667  30.520  1.00  0.00     0.031 C 
ATOM     61  C   UNL A   1      45.124  26.349  32.344  1.00  0.00     0.034 A 
BRANCH  48  62
ATOM     62  C   UNL A   1      42.022  31.231  34.610  1.00  0.00     0.023 A 
ATOM     63  C   UNL A   1      40.982  31.295  35.555  1.00  0.00     0.031 A 
ATOM     64  C   UNL A   1      42.977  32.263  34.619  1.00  0.00     0.131 A 
ATOM     65  C   UNL A   1      40.871  32.407  36.403  1.00  0.00     0.055 A 
ATOM     66  C   UNL A   1      42.913  33.321  35.530  1.00  0.00     0.041 A 
ATOM     67  F   UNL A   1      43.983  32.273  33.729  1.00  0.00    -0.206 F 
ATOM     68  C   UNL A   1      41.844  33.408  36.416  1.00  0.00     0.022 A 
BRANCH  65  69
ATOM     69  S   UNL A   1      39.348  32.608  37.369  1.00  0.00     0.124 S 
ATOM     70  O   UNL A   1      38.778  33.814  36.771  1.00  0.00    -0.237 OA
ATOM     71  O   UNL A   1      38.636  31.364  37.100  1.00  0.00    -0.237 OA
ATOM     72  O   UNL A   1      39.830  32.769  38.739  1.00  0.00    -0.744 OA
ENDBRANCH  65  69
ENDBRANCH  48  62
BRANCH  49  73
ATOM     73  C   UNL A   1      42.302  24.272  27.388  1.00  0.00     0.023 A 
ATOM     74  C   UNL A   1      41.692  23.015  27.521  1.00  0.00     0.031 A 
ATOM     75  C   UNL A   1      43.009  24.538  26.202  1.00  0.00     0.131 A 
ATOM     76  C   UNL A   1      41.838  22.055  26.508  1.00  0.00     0.055 A 
ATOM     77  C   UNL A   1      43.105  23.600  25.173  1.00  0.00     0.041 A 
ATOM     78  F   UNL A   1      43.607  25.727  26.019  1.00  0.00    -0.206 F 
ATOM     79  C   UNL A   1      42.527  22.343  25.329  1.00  0.00     0.022 A 
BRANCH  76  80
ATOM     80  S   UNL A   1      41.180  20.388  26.789  1.00  0.00     0.124 S 
ATOM     81  O   UNL A   1      40.042  20.362  25.878  1.00  0.00    -0.237 OA
ATOM     82  O   UNL A   1      42.316  19.549  26.423  1.00  0.00    -0.237 OA
ATOM     83  O   UNL A   1      40.843  20.392  28.211  1.00  0.00    -0.744 OA
ENDBRANCH  76  80
ENDBRANCH  49  73
BRANCH  61  84
ATOM     84  C   UNL A   1      46.366  25.681  32.882  1.00  0.00     0.023 A 
ATOM     85  C   UNL A   1      47.646  25.994  32.395  1.00  0.00     0.031 A 
ATOM     86  C   UNL A   1      46.264  24.705  33.892  1.00  0.00     0.131 A 
ATOM     87  C   UNL A   1      48.767  25.298  32.874  1.00  0.00     0.055 A 
ATOM     88  C   UNL A   1      47.389  24.065  34.411  1.00  0.00     0.041 A 
ATOM     89  F   UNL A   1      45.067  24.362  34.392  1.00  0.00    -0.206 F 
ATOM     90  C   UNL A   1      48.648  24.349  33.893  1.00  0.00     0.022 A 
BRANCH  87  91
ATOM     91  S   UNL A   1      50.371  25.575  32.074  1.00  0.00     0.124 S 
ATOM     92  O   UNL A   1      50.575  24.320  31.360  1.00  0.00    -0.237 OA
ATOM     93  O   UNL A   1      50.107  26.746  31.243  1.00  0.00    -0.237 OA
ATOM     94  O   UNL A   1      51.279  25.805  33.197  1.00  0.00    -0.744 OA
ENDBRANCH  87  91
ENDBRANCH  61  84
ENDBRANCH  35  36
ENDBRANCH  27  30
ENDBRANCH  25  26
ENDBRANCH  24  25
ENDBRANCH  23  24
ENDBRANCH   1  23
TORSDOF 20
ENDMDL
MODEL 2
REMARK VINA RESULT:     -10.6      2.155      7.754
REMARK SMILES CC(C)CN(C)S(=O)(=O)c1ccc(C(=O)NCCCCCCNC(=O)c2ccc(-c3c4nc(c(-c5cc(S(=O)(=O)[O-])ccc5F)c5ccc([nH]5)c(-c5cc(S(=O)(=O)[O-])ccc5F)c5nc(c(-c6cc(S(=O)(=O)[O-])ccc6F)c6ccc3[nH]6)C=C5)C=C4)cc2)cc1
REMARK SMILES IDX 19 1 18 2 17 3 16 4 14 5 15 6 13 8 10 9 11 10 90 11 12 12
REMARK SMILES IDX 89 13 7 14 8 15 9 16 5 17 6 18 4 19 2 20 1 21 3 22 20 23
REMARK SMILES IDX 21 24 22 25 23 26 24 27 25 29 26 30 27 31 88 32 28 33 87 34
REMARK SMILES IDX 29 35 30 36 31 37 81 38 32 39 86 40 80 41 82 42 33 43 85 44
REMARK SMILES IDX 79 45 78 46 34 48 66 49 46 50 65 51 47 52 50 53 64 54 83 55
REMARK SMILES IDX 48 56 49 57 63 59 84 60 51 61 35 62 36 63 44 64 37 65 43 66
REMARK SMILES IDX 45 67 42 68 38 69 39 70 40 71 41 72 67 73 68 74 76 75 69 76
REMARK SMILES IDX 75 77 77 78 74 79 70 80 71 81 72 82 73 83 52 84 53 85 61 86
REMARK SMILES IDX 54 87 60 88 62 89 59 90 55 91 56 92 57 93 58 94
REMARK H PARENT 16 7 23 28 82 47 50 58
REMARK Flexibility Score: inf
ROOT
ATOM      1  C   UNL A   1      33.671  26.381  25.977  1.00  0.00     0.002 C 
ENDROOT
BRANCH   1   2
ATOM      2  C   UNL A   1      33.554  24.861  26.131  1.00  0.00     0.021 C 
BRANCH   2   3
ATOM      3  C   UNL A   1      32.113  24.384  26.325  1.00  0.00     0.116 C 
BRANCH   3   4
ATOM      4  N   UNL A   1      31.708  23.560  25.202  1.00  0.00    -0.352 N 
ATOM      5  C   UNL A   1      31.120  23.890  24.008  1.00  0.00     0.251 C 
ATOM      6  O   UNL A   1      30.889  22.996  23.197  1.00  0.00    -0.269 OA
ATOM      7  H   UNL A   1      31.885  22.599  25.316  1.00  0.00     0.163 HD
BRANCH   5   8
ATOM      8  C   UNL A   1      30.811  25.299  23.646  1.00  0.00     0.039 A 
ATOM      9  C   UNL A   1      30.111  27.942  23.054  1.00  0.00     0.082 A 
ATOM     10  C   UNL A   1      29.429  27.259  24.064  1.00  0.00     0.022 A 
ATOM     11  C   UNL A   1      31.166  27.333  22.372  1.00  0.00     0.022 A 
ATOM     12  C   UNL A   1      29.779  25.935  24.353  1.00  0.00     0.015 A 
ATOM     13  C   UNL A   1      31.528  26.023  22.687  1.00  0.00     0.015 A 
BRANCH   9  14
ATOM     14  S   UNL A   1      29.791  29.669  22.771  1.00  0.00     0.242 S 
ATOM     15  O   UNL A   1      29.912  29.907  21.345  1.00  0.00    -0.207 OA
ATOM     16  O   UNL A   1      30.621  30.393  23.704  1.00  0.00    -0.207 OA
BRANCH  14  17
ATOM     17  N   UNL A   1      28.122  29.891  23.187  1.00  0.00    -0.201 NA
ATOM     18  C   UNL A   1      27.197  29.189  22.243  1.00  0.00     0.124 C 
BRANCH  17  19
ATOM     19  C   UNL A   1      27.741  31.351  23.262  1.00  0.00     0.105 C 
BRANCH  19  20
ATOM     20  C   UNL A   1      28.552  32.264  22.324  1.00  0.00    -0.002 C 
ATOM     21  C   UNL A   1      27.800  32.665  21.056  1.00  0.00     0.009 C 
ATOM     22  C   UNL A   1      28.925  33.543  23.086  1.00  0.00     0.009 C 
ENDBRANCH  19  20
ENDBRANCH  17  19
ENDBRANCH  14  17
ENDBRANCH   9  14
ENDBRANCH   5   8
ENDBRANCH   3   4
ENDBRANCH   2   3
ENDBRANCH   1   2
BRANCH   1  23
ATOM     23  C   UNL A   1      32.649  27.180  26.793  1.00  0.00     0.002 C 
BRANCH  23  24
ATOM     24  C   UNL A   1      32.093  28.416  26.081  1.00  0.00     0.021 C 
BRANCH  24  25
ATOM     25  C   UNL A   1      33.158  29.440  25.696  1.00  0.00     0.116 C 
BRANCH  25  26
ATOM     26  N   UNL A   1      32.760  30.784  26.081  1.00  0.00    -0.352 N 
ATOM     27  C   UNL A   1      33.251  31.574  27.090  1.00  0.00     0.251 C 
ATOM     28  H   UNL A   1      32.037  31.183  25.545  1.00  0.00     0.163 HD
ATOM     29  O   UNL A   1      32.614  32.554  27.464  1.00  0.00    -0.269 OA
BRANCH  27  30
ATOM     30  C   UNL A   1      34.540  31.226  27.722  1.00  0.00     0.039 A 
ATOM     31  C   UNL A   1      35.552  32.186  27.779  1.00  0.00     0.014 A 
ATOM     32  C   UNL A   1      34.749  29.948  28.251  1.00  0.00     0.014 A 
ATOM     33  C   UNL A   1      36.757  31.879  28.411  1.00  0.00     0.010 A 
ATOM     34  C   UNL A   1      35.920  29.670  28.947  1.00  0.00     0.010 A 
ATOM     35  C   UNL A   1      36.940  30.630  29.026  1.00  0.00    -0.014 A 
BRANCH  35  36
ATOM     36  C   UNL A   1      38.197  30.305  29.748  1.00  0.00     0.031 A 
ATOM     37  C   UNL A   1      39.203  29.375  29.126  1.00  0.00     0.074 A 
ATOM     38  C   UNL A   1      38.403  30.803  30.983  1.00  0.00     0.049 A 
ATOM     39  N   UNL A   1      40.325  28.918  29.621  1.00  0.00    -0.248 NA
ATOM     40  C   UNL A   1      38.887  28.867  27.783  1.00  0.00     0.031 C 
ATOM     41  C   UNL A   1      37.480  31.685  31.701  1.00  0.00     0.029 A 
ATOM     42  N   UNL A   1      39.449  30.636  31.856  1.00  0.00    -0.354 N 
ATOM     43  C   UNL A   1      40.844  28.063  28.655  1.00  0.00     0.074 A 
ATOM     44  C   UNL A   1      39.878  28.012  27.579  1.00  0.00     0.031 C 
ATOM     45  C   UNL A   1      38.016  32.006  32.890  1.00  0.00     0.029 A 
ATOM     46  C   UNL A   1      39.292  31.315  33.041  1.00  0.00     0.049 A 
ATOM     47  H   UNL A   1      40.238  30.084  31.651  1.00  0.00     0.167 HD
ATOM     48  C   UNL A   1      42.030  27.402  28.655  1.00  0.00     0.034 A 
ATOM     49  C   UNL A   1      40.081  31.364  34.133  1.00  0.00     0.034 A 
ATOM     50  C   UNL A   1      42.982  27.472  29.737  1.00  0.00     0.049 A 
ATOM     51  C   UNL A   1      41.376  30.591  34.128  1.00  0.00     0.074 A 
ATOM     52  C   UNL A   1      44.234  26.888  29.822  1.00  0.00     0.029 A 
ATOM     53  N   UNL A   1      42.784  28.157  30.930  1.00  0.00    -0.354 N 
ATOM     54  N   UNL A   1      41.878  29.828  33.185  1.00  0.00    -0.248 NA
ATOM     55  C   UNL A   1      42.212  30.696  35.329  1.00  0.00     0.031 C 
ATOM     56  C   UNL A   1      44.757  27.155  31.093  1.00  0.00     0.029 A 
ATOM     57  C   UNL A   1      43.872  27.979  31.771  1.00  0.00     0.049 A 
ATOM     58  H   UNL A   1      41.986  28.693  31.146  1.00  0.00     0.167 HD
ATOM     59  C   UNL A   1      43.106  29.386  33.670  1.00  0.00     0.074 A 
ATOM     60  C   UNL A   1      43.272  29.982  34.980  1.00  0.00     0.031 C 
ATOM     61  C   UNL A   1      44.017  28.566  33.084  1.00  0.00     0.034 A 
BRANCH  48  62
ATOM     62  C   UNL A   1      42.338  26.530  27.460  1.00  0.00     0.023 A 
ATOM     63  C   UNL A   1      41.917  25.190  27.395  1.00  0.00     0.031 A 
ATOM     64  C   UNL A   1      43.096  27.031  26.386  1.00  0.00     0.131 A 
ATOM     65  C   UNL A   1      42.330  24.375  26.330  1.00  0.00     0.055 A 
ATOM     66  C   UNL A   1      43.425  26.239  25.283  1.00  0.00     0.041 A 
ATOM     67  F   UNL A   1      43.547  28.295  26.398  1.00  0.00    -0.206 F 
ATOM     68  C   UNL A   1      43.059  24.897  25.259  1.00  0.00     0.022 A 
BRANCH  65  69
ATOM     69  S   UNL A   1      42.044  22.587  26.448  1.00  0.00     0.124 S 
ATOM     70  O   UNL A   1      40.584  22.524  26.471  1.00  0.00    -0.237 OA
ATOM     71  O   UNL A   1      42.687  22.084  25.240  1.00  0.00    -0.237 OA
ATOM     72  O   UNL A   1      42.696  22.219  27.704  1.00  0.00    -0.744 OA
ENDBRANCH  65  69
ENDBRANCH  48  62
BRANCH  49  73
ATOM     73  C   UNL A   1      39.672  32.163  35.323  1.00  0.00     0.023 A 
ATOM     74  C   UNL A   1      38.882  31.599  36.337  1.00  0.00     0.031 A 
ATOM     75  C   UNL A   1      40.039  33.515  35.449  1.00  0.00     0.131 A 
ATOM     76  C   UNL A   1      38.447  32.393  37.409  1.00  0.00     0.055 A 
ATOM     77  C   UNL A   1      39.650  34.287  36.546  1.00  0.00     0.041 A 
ATOM     78  F   UNL A   1      40.798  34.104  34.511  1.00  0.00    -0.206 F 
ATOM     79  C   UNL A   1      38.838  33.729  37.529  1.00  0.00     0.022 A 
BRANCH  76  80
ATOM     80  S   UNL A   1      37.291  31.676  38.610  1.00  0.00     0.124 S 
ATOM     81  O   UNL A   1      38.059  31.761  39.846  1.00  0.00    -0.237 OA
ATOM     82  O   UNL A   1      36.147  32.574  38.500  1.00  0.00    -0.237 OA
ATOM     83  O   UNL A   1      37.072  30.324  38.102  1.00  0.00    -0.744 OA
ENDBRANCH  76  80
ENDBRANCH  49  73
BRANCH  61  84
ATOM     84  C   UNL A   1      45.293  28.301  33.847  1.00  0.00     0.023 A 
ATOM     85  C   UNL A   1      45.421  27.208  34.721  1.00  0.00     0.031 A 
ATOM     86  C   UNL A   1      46.394  29.166  33.706  1.00  0.00     0.131 A 
ATOM     87  C   UNL A   1      46.601  27.040  35.463  1.00  0.00     0.055 A 
ATOM     88  C   UNL A   1      47.587  28.956  34.396  1.00  0.00     0.041 A 
ATOM     89  F   UNL A   1      46.327  30.230  32.889  1.00  0.00    -0.206 F 
ATOM     90  C   UNL A   1      47.691  27.896  35.291  1.00  0.00     0.022 A 
BRANCH  87  91
ATOM     91  S   UNL A   1      46.652  25.747  36.733  1.00  0.00     0.124 S 
ATOM     92  O   UNL A   1      45.242  25.601  37.076  1.00  0.00    -0.237 OA
ATOM     93  O   UNL A   1      47.252  24.627  36.014  1.00  0.00    -0.237 OA
ATOM     94  O   UNL A   1      47.489  26.328  37.782  1.00  0.00    -0.744 OA
ENDBRANCH  87  91
ENDBRANCH  61  84
ENDBRANCH  35  36
ENDBRANCH  27  30
ENDBRANCH  25  26
ENDBRANCH  24  25
ENDBRANCH  23  24
ENDBRANCH   1  23
TORSDOF 20
ENDMDL
MODEL 3
REMARK VINA RESULT:     -10.5      1.808      2.137
REMARK SMILES CC(C)CN(C)S(=O)(=O)c1ccc(C(=O)NCCCCCCNC(=O)c2ccc(-c3c4nc(c(-c5cc(S(=O)(=O)[O-])ccc5F)c5ccc([nH]5)c(-c5cc(S(=O)(=O)[O-])ccc5F)c5nc(c(-c6cc(S(=O)(=O)[O-])ccc6F)c6ccc3[nH]6)C=C5)C=C4)cc2)cc1
REMARK SMILES IDX 19 1 18 2 17 3 16 4 14 5 15 6 13 8 10 9 11 10 90 11 12 12
REMARK SMILES IDX 89 13 7 14 8 15 9 16 5 17 6 18 4 19 2 20 1 21 3 22 20 23
REMARK SMILES IDX 21 24 22 25 23 26 24 27 25 29 26 30 27 31 88 32 28 33 87 34
REMARK SMILES IDX 29 35 30 36 31 37 81 38 32 39 86 40 80 41 82 42 33 43 85 44
REMARK SMILES IDX 79 45 78 46 34 48 66 49 46 50 65 51 47 52 50 53 64 54 83 55
REMARK SMILES IDX 48 56 49 57 63 59 84 60 51 61 35 62 36 63 44 64 37 65 43 66
REMARK SMILES IDX 45 67 42 68 38 69 39 70 40 71 41 72 67 73 68 74 76 75 69 76
REMARK SMILES IDX 75 77 77 78 74 79 70 80 71 81 72 82 73 83 52 84 53 85 61 86
REMARK SMILES IDX 54 87 60 88 62 89 59 90 55 91 56 92 57 93 58 94
REMARK H PARENT 16 7 23 28 82 47 50 58
REMARK Flexibility Score: inf
ROOT
ATOM      1  C   UNL A   1      33.702  26.415  25.985  1.00  0.00     0.002 C 
ENDROOT
BRANCH   1   2
ATOM      2  C   UNL A   1      33.712  24.900  25.758  1.00  0.00     0.021 C 
BRANCH   2   3
ATOM      3  C   UNL A   1      32.431  24.211  26.231  1.00  0.00     0.116 C 
BRANCH   3   4
ATOM      4  N   UNL A   1      31.859  23.429  25.151  1.00  0.00    -0.352 N 
ATOM      5  C   UNL A   1      31.157  23.810  24.037  1.00  0.00     0.251 C 
ATOM      6  O   UNL A   1      30.791  22.943  23.246  1.00  0.00    -0.269 OA
ATOM      7  H   UNL A   1      32.000  22.458  25.232  1.00  0.00     0.163 HD
BRANCH   5   8
ATOM      8  C   UNL A   1      30.881  25.239  23.732  1.00  0.00     0.039 A 
ATOM      9  C   UNL A   1      30.235  27.915  23.236  1.00  0.00     0.082 A 
ATOM     10  C   UNL A   1      29.484  27.185  24.161  1.00  0.00     0.022 A 
ATOM     11  C   UNL A   1      31.329  27.334  22.594  1.00  0.00     0.022 A 
ATOM     12  C   UNL A   1      29.807  25.845  24.402  1.00  0.00     0.015 A 
ATOM     13  C   UNL A   1      31.663  26.006  22.862  1.00  0.00     0.015 A 
BRANCH   9  14
ATOM     14  S   UNL A   1      29.943  29.657  23.026  1.00  0.00     0.242 S 
ATOM     15  O   UNL A   1      30.199  29.977  21.634  1.00  0.00    -0.207 OA
ATOM     16  O   UNL A   1      30.682  30.321  24.074  1.00  0.00    -0.207 OA
BRANCH  14  17
ATOM     17  N   UNL A   1      28.243  29.864  23.295  1.00  0.00    -0.201 NA
ATOM     18  C   UNL A   1      27.410  29.178  22.258  1.00  0.00     0.124 C 
BRANCH  17  19
ATOM     19  C   UNL A   1      27.848  31.322  23.364  1.00  0.00     0.105 C 
BRANCH  19  20
ATOM     20  C   UNL A   1      28.631  32.233  22.402  1.00  0.00    -0.002 C 
ATOM     21  C   UNL A   1      27.830  32.665  21.175  1.00  0.00     0.009 C 
ATOM     22  C   UNL A   1      29.062  33.495  23.164  1.00  0.00     0.009 C 
ENDBRANCH  19  20
ENDBRANCH  17  19
ENDBRANCH  14  17
ENDBRANCH   9  14
ENDBRANCH   5   8
ENDBRANCH   3   4
ENDBRANCH   2   3
ENDBRANCH   1   2
BRANCH   1  23
ATOM     23  C   UNL A   1      32.445  26.942  26.685  1.00  0.00     0.002 C 
BRANCH  23  24
ATOM     24  C   UNL A   1      32.152  28.424  26.437  1.00  0.00     0.021 C 
BRANCH  24  25
ATOM     25  C   UNL A   1      33.381  29.242  26.049  1.00  0.00     0.116 C 
BRANCH  25  26
ATOM     26  N   UNL A   1      33.149  30.664  26.243  1.00  0.00    -0.352 N 
ATOM     27  C   UNL A   1      33.708  31.512  27.165  1.00  0.00     0.251 C 
ATOM     28  H   UNL A   1      32.500  31.075  25.628  1.00  0.00     0.163 HD
ATOM     29  O   UNL A   1      33.194  32.605  27.382  1.00  0.00    -0.269 OA
BRANCH  27  30
ATOM     30  C   UNL A   1      34.923  31.093  27.894  1.00  0.00     0.039 A 
ATOM     31  C   UNL A   1      34.994  29.799  28.413  1.00  0.00     0.014 A 
ATOM     32  C   UNL A   1      35.987  31.984  28.071  1.00  0.00     0.014 A 
ATOM     33  C   UNL A   1      36.155  29.382  29.066  1.00  0.00     0.010 A 
ATOM     34  C   UNL A   1      37.169  31.543  28.654  1.00  0.00     0.010 A 
ATOM     35  C   UNL A   1      37.262  30.240  29.166  1.00  0.00    -0.014 A 
BRANCH  35  36
ATOM     36  C   UNL A   1      38.523  29.796  29.813  1.00  0.00     0.031 A 
ATOM     37  C   UNL A   1      38.921  30.356  31.151  1.00  0.00     0.074 A 
ATOM     38  C   UNL A   1      39.334  28.934  29.169  1.00  0.00     0.049 A 
ATOM     39  N   UNL A   1      40.009  30.145  31.848  1.00  0.00    -0.248 NA
ATOM     40  C   UNL A   1      37.984  31.303  31.773  1.00  0.00     0.031 C 
ATOM     41  C   UNL A   1      39.069  28.353  27.850  1.00  0.00     0.029 A 
ATOM     42  N   UNL A   1      40.544  28.398  29.530  1.00  0.00    -0.354 N 
ATOM     43  C   UNL A   1      39.891  30.940  32.983  1.00  0.00     0.074 A 
ATOM     44  C   UNL A   1      38.660  31.688  32.844  1.00  0.00     0.031 C 
ATOM     45  C   UNL A   1      40.072  27.519  27.529  1.00  0.00     0.029 A 
ATOM     46  C   UNL A   1      41.072  27.544  28.591  1.00  0.00     0.049 A 
ATOM     47  H   UNL A   1      40.991  28.604  30.382  1.00  0.00     0.167 HD
ATOM     48  C   UNL A   1      40.721  31.018  34.054  1.00  0.00     0.034 A 
ATOM     49  C   UNL A   1      42.238  26.866  28.580  1.00  0.00     0.034 A 
ATOM     50  C   UNL A   1      41.942  30.258  34.174  1.00  0.00     0.049 A 
ATOM     51  C   UNL A   1      43.164  26.997  29.763  1.00  0.00     0.074 A 
ATOM     52  C   UNL A   1      42.832  30.218  35.234  1.00  0.00     0.029 A 
ATOM     53  N   UNL A   1      42.455  29.413  33.197  1.00  0.00    -0.354 N 
ATOM     54  N   UNL A   1      43.015  27.713  30.853  1.00  0.00    -0.248 NA
ATOM     55  C   UNL A   1      44.409  26.222  29.716  1.00  0.00     0.031 C 
ATOM     56  C   UNL A   1      43.916  29.413  34.866  1.00  0.00     0.029 A 
ATOM     57  C   UNL A   1      43.664  28.879  33.613  1.00  0.00     0.049 A 
ATOM     58  H   UNL A   1      42.020  29.222  32.334  1.00  0.00     0.167 HD
ATOM     59  C   UNL A   1      44.135  27.448  31.637  1.00  0.00     0.074 A 
ATOM     60  C   UNL A   1      44.939  26.496  30.899  1.00  0.00     0.031 C 
ATOM     61  C   UNL A   1      44.467  27.943  32.857  1.00  0.00     0.034 A 
BRANCH  48  62
ATOM     62  C   UNL A   1      40.342  31.979  35.157  1.00  0.00     0.023 A 
ATOM     63  C   UNL A   1      39.395  31.641  36.140  1.00  0.00     0.031 A 
ATOM     64  C   UNL A   1      40.904  33.267  35.206  1.00  0.00     0.131 A 
ATOM     65  C   UNL A   1      38.974  32.602  37.071  1.00  0.00     0.055 A 
ATOM     66  C   UNL A   1      40.549  34.190  36.194  1.00  0.00     0.041 A 
ATOM     67  F   UNL A   1      41.797  33.660  34.285  1.00  0.00    -0.206 F 
ATOM     68  C   UNL A   1      39.564  33.867  37.122  1.00  0.00     0.022 A 
BRANCH  65  69
ATOM     69  S   UNL A   1      37.528  32.232  38.102  1.00  0.00     0.124 S 
ATOM     70  O   UNL A   1      36.500  33.060  37.476  1.00  0.00    -0.237 OA
ATOM     71  O   UNL A   1      37.379  30.791  37.932  1.00  0.00    -0.237 OA
ATOM     72  O   UNL A   1      37.939  32.664  39.437  1.00  0.00    -0.744 OA
ENDBRANCH  65  69
ENDBRANCH  48  62
BRANCH  49  73
ATOM     73  C   UNL A   1      42.601  26.011  27.414  1.00  0.00     0.023 A 
ATOM     74  C   UNL A   1      42.166  24.680  27.330  1.00  0.00     0.031 A 
ATOM     75  C   UNL A   1      43.418  26.504  26.380  1.00  0.00     0.131 A 
ATOM     76  C   UNL A   1      42.584  23.873  26.261  1.00  0.00     0.055 A 
ATOM     77  C   UNL A   1      43.786  25.714  25.290  1.00  0.00     0.041 A 
ATOM     78  F   UNL A   1      43.858  27.772  26.408  1.00  0.00    -0.206 F 
ATOM     79  C   UNL A   1      43.378  24.384  25.232  1.00  0.00     0.022 A 
BRANCH  76  80
ATOM     80  S   UNL A   1      42.140  22.113  26.274  1.00  0.00     0.124 S 
ATOM     81  O   UNL A   1      42.864  21.617  25.110  1.00  0.00    -0.237 OA
ATOM     82  O   UNL A   1      42.642  21.685  27.574  1.00  0.00    -0.237 OA
ATOM     83  O   UNL A   1      40.685  22.130  26.144  1.00  0.00    -0.744 OA
ENDBRANCH  76  80
ENDBRANCH  49  73
BRANCH  61  84
ATOM     84  C   UNL A   1      45.740  27.426  33.484  1.00  0.00     0.023 A 
ATOM     85  C   UNL A   1      45.751  26.288  34.308  1.00  0.00     0.031 A 
ATOM     86  C   UNL A   1      46.958  28.095  33.264  1.00  0.00     0.131 A 
ATOM     87  C   UNL A   1      46.944  25.884  34.927  1.00  0.00     0.055 A 
ATOM     88  C   UNL A   1      48.153  27.649  33.829  1.00  0.00     0.041 A 
ATOM     89  F   UNL A   1      47.007  29.191  32.491  1.00  0.00    -0.206 F 
ATOM     90  C   UNL A   1      48.149  26.547  34.678  1.00  0.00     0.022 A 
BRANCH  87  91
ATOM     91  S   UNL A   1      46.881  24.543  36.146  1.00  0.00     0.124 S 
ATOM     92  O   UNL A   1      45.445  24.327  36.286  1.00  0.00    -0.237 OA
ATOM     93  O   UNL A   1      47.624  23.478  35.478  1.00  0.00    -0.237 OA
ATOM     94  O   UNL A   1      47.540  25.114  37.320  1.00  0.00    -0.744 OA
ENDBRANCH  87  91
ENDBRANCH  61  84
ENDBRANCH  35  36
ENDBRANCH  27  30
ENDBRANCH  25  26
ENDBRANCH  24  25
ENDBRANCH  23  24
ENDBRANCH   1  23
TORSDOF 20
ENDMDL
