MODEL 1
REMARK VINA RESULT:     -12.6      0.000      0.000
REMARK SMILES CN1C(=O)/C(=C\c2ccc(-c3ccccc3C(=O)NCCCCCCNC(=O)c3ccc(-c4c5nc(c(-c6cc(S(=O)(=O)[O-])ccc6F)c6ccc([nH]6)c(-c6cc(S(=O)(=O)[O-])ccc6F)c6nc(c(-c7cc(S(=O)(=O)[O-])ccc7F)c7ccc4[nH]7)C=C6)C=C5)cc3)o2)C(=O)[NH+]=C1S
REMARK SMILES IDX 22 1 21 2 20 3 19 4 17 5 18 6 16 8 11 9 12 10 13 11 15 12
REMARK SMILES IDX 14 13 10 14 7 15 8 16 92 17 9 18 6 19 1 20 2 21 3 22 96 23
REMARK SMILES IDX 4 24 5 25 95 26 93 27 94 29 97 30 23 32 24 33 25 34 26 35
REMARK SMILES IDX 27 36 28 38 29 39 30 40 91 41 31 42 90 43 32 44 33 45 34 46
REMARK SMILES IDX 84 47 35 48 89 49 83 50 85 51 36 52 88 53 82 54 81 55 37 57
REMARK SMILES IDX 69 58 49 59 68 60 50 61 53 62 67 63 86 64 51 65 52 66 66 68
REMARK SMILES IDX 87 69 54 70 38 71 39 72 47 73 40 74 46 75 48 76 45 77 41 78
REMARK SMILES IDX 42 79 43 80 44 81 70 82 71 83 79 84 72 85 78 86 80 87 77 88
REMARK SMILES IDX 73 89 74 90 75 91 76 92 55 93 56 94 64 95 57 96 63 97 65 98
REMARK SMILES IDX 62 99 58 100 59 101 60 102 61 103
REMARK H PARENT 19 7 95 28 97 31 26 37 85 56 53 67
REMARK Flexibility Score: inf
ROOT
ATOM      1  C   UNL A   1      31.959  29.371  26.452  1.00  0.00     0.002 C 
ENDROOT
BRANCH   1   2
ATOM      2  C   UNL A   1      33.369  28.901  26.078  1.00  0.00     0.021 C 
BRANCH   2   3
ATOM      3  C   UNL A   1      33.665  27.404  26.082  1.00  0.00     0.116 C 
BRANCH   3   4
ATOM      4  N   UNL A   1      33.928  26.744  24.829  1.00  0.00    -0.352 N 
ATOM      5  C   UNL A   1      33.192  26.709  23.658  1.00  0.00     0.252 C 
ATOM      6  O   UNL A   1      33.755  26.173  22.696  1.00  0.00    -0.269 OA
ATOM      7  H   UNL A   1      34.770  26.234  24.800  1.00  0.00     0.163 HD
BRANCH   5   8
ATOM      8  C   UNL A   1      31.765  27.172  23.454  1.00  0.00     0.050 A 
ATOM      9  C   UNL A   1      30.566  26.683  24.008  1.00  0.00     0.030 A 
ATOM     10  C   UNL A   1      29.327  27.280  23.665  1.00  0.00     0.013 A 
ATOM     11  C   UNL A   1      29.255  28.392  22.835  1.00  0.00     0.001 A 
ATOM     12  C   UNL A   1      31.656  28.318  22.624  1.00  0.00     0.014 A 
ATOM     13  C   UNL A   1      30.428  28.924  22.327  1.00  0.00     0.001 A 
BRANCH   9  14
ATOM     14  C   UNL A   1      30.463  25.635  24.992  1.00  0.00     0.135 A 
ATOM     15  C   UNL A   1      30.804  23.540  25.623  1.00  0.00     0.128 A 
ATOM     16  C   UNL A   1      30.232  24.233  26.690  1.00  0.00     0.051 A 
ATOM     17  O   UNL A   1      30.913  24.420  24.579  1.00  0.00    -0.457 OA
ATOM     18  C   UNL A   1      29.985  25.561  26.277  1.00  0.00     0.051 A 
BRANCH  15  19
ATOM     19  C   UNL A   1      31.304  22.212  25.555  1.00  0.00     0.071 C 
ATOM     20  C   UNL A   1      35.830  23.641  24.921  1.00  0.00     0.301 C 
ATOM     21  N   UNL A   1      34.884  22.554  25.149  1.00  0.00    -0.189 N 
ATOM     22  C   UNL A   1      33.677  22.914  25.684  1.00  0.00     0.349 C 
ATOM     23  C   UNL A   1      35.192  21.221  25.101  1.00  0.00     0.318 C 
ATOM     24  O   UNL A   1      33.511  23.962  26.299  1.00  0.00    -0.240 OA
ATOM     25  C   UNL A   1      32.613  21.911  25.505  1.00  0.00     0.157 C 
ATOM     26  N   UNL A   1      34.336  20.262  25.146  1.00  0.00    -0.200 N 
ATOM     27  C   UNL A   1      32.999  20.522  25.176  1.00  0.00     0.347 C 
ATOM     28  H   UNL A   1      34.652  19.328  25.161  1.00  0.00     0.316 HD
ATOM     29  O   UNL A   1      32.150  19.676  24.910  1.00  0.00    -0.241 OA
BRANCH  23  30
ATOM     30  S   UNL A   1      36.875  20.794  25.062  1.00  0.00    -0.055 SA
ATOM     31  H   UNL A   1      37.337  20.662  26.333  1.00  0.00     0.116 HD
ENDBRANCH  23  30
ENDBRANCH  15  19
ENDBRANCH   9  14
ENDBRANCH   5   8
ENDBRANCH   3   4
ENDBRANCH   2   3
ENDBRANCH   1   2
BRANCH   1  32
ATOM     32  C   UNL A   1      31.355  30.574  25.714  1.00  0.00     0.002 C 
BRANCH  32  33
ATOM     33  C   UNL A   1      31.334  31.929  26.426  1.00  0.00     0.021 C 
BRANCH  33  34
ATOM     34  C   UNL A   1      32.622  32.411  27.088  1.00  0.00     0.116 C 
BRANCH  34  35
ATOM     35  N   UNL A   1      32.535  33.778  27.562  1.00  0.00    -0.352 N 
ATOM     36  C   UNL A   1      33.242  34.449  28.531  1.00  0.00     0.251 C 
ATOM     37  H   UNL A   1      31.850  34.321  27.109  1.00  0.00     0.163 HD
ATOM     38  O   UNL A   1      32.854  35.571  28.857  1.00  0.00    -0.269 OA
BRANCH  36  39
ATOM     39  C   UNL A   1      34.427  33.860  29.209  1.00  0.00     0.039 A 
ATOM     40  C   UNL A   1      34.209  32.889  30.196  1.00  0.00     0.014 A 
ATOM     41  C   UNL A   1      35.733  34.285  28.960  1.00  0.00     0.014 A 
ATOM     42  C   UNL A   1      35.286  32.331  30.896  1.00  0.00     0.010 A 
ATOM     43  C   UNL A   1      36.814  33.666  29.599  1.00  0.00     0.010 A 
ATOM     44  C   UNL A   1      36.607  32.693  30.589  1.00  0.00    -0.014 A 
BRANCH  44  45
ATOM     45  C   UNL A   1      37.760  32.078  31.313  1.00  0.00     0.031 A 
ATOM     46  C   UNL A   1      38.544  30.947  30.692  1.00  0.00     0.074 A 
ATOM     47  C   UNL A   1      38.087  32.510  32.549  1.00  0.00     0.049 A 
ATOM     48  N   UNL A   1      39.561  30.277  31.176  1.00  0.00    -0.248 NA
ATOM     49  C   UNL A   1      38.117  30.499  29.358  1.00  0.00     0.031 C 
ATOM     50  C   UNL A   1      37.394  33.572  33.285  1.00  0.00     0.029 A 
ATOM     51  N   UNL A   1      39.068  32.096  33.419  1.00  0.00    -0.354 N 
ATOM     52  C   UNL A   1      39.896  29.335  30.208  1.00  0.00     0.074 A 
ATOM     53  C   UNL A   1      38.918  29.466  29.148  1.00  0.00     0.031 C 
ATOM     54  C   UNL A   1      37.966  33.720  34.491  1.00  0.00     0.029 A 
ATOM     55  C   UNL A   1      39.045  32.748  34.631  1.00  0.00     0.049 A 
ATOM     56  H   UNL A   1      39.725  31.399  33.196  1.00  0.00     0.167 HD
ATOM     57  C   UNL A   1      40.939  28.465  30.183  1.00  0.00     0.034 A 
ATOM     58  C   UNL A   1      39.792  32.577  35.741  1.00  0.00     0.034 A 
ATOM     59  C   UNL A   1      41.908  28.343  31.249  1.00  0.00     0.049 A 
ATOM     60  C   UNL A   1      40.916  31.574  35.718  1.00  0.00     0.074 A 
ATOM     61  C   UNL A   1      43.040  27.548  31.298  1.00  0.00     0.029 A 
ATOM     62  N   UNL A   1      41.849  29.020  32.460  1.00  0.00    -0.354 N 
ATOM     63  N   UNL A   1      41.268  30.750  34.759  1.00  0.00    -0.248 NA
ATOM     64  C   UNL A   1      41.765  31.504  36.914  1.00  0.00     0.031 C 
ATOM     65  C   UNL A   1      43.617  27.681  32.566  1.00  0.00     0.029 A 
ATOM     66  C   UNL A   1      42.900  28.630  33.279  1.00  0.00     0.049 A 
ATOM     67  H   UNL A   1      41.161  29.681  32.704  1.00  0.00     0.167 HD
ATOM     68  C   UNL A   1      42.407  30.094  35.220  1.00  0.00     0.074 A 
ATOM     69  C   UNL A   1      42.683  30.625  36.540  1.00  0.00     0.031 C 
ATOM     70  C   UNL A   1      43.164  29.151  34.602  1.00  0.00     0.034 A 
BRANCH  57  71
ATOM     71  C   UNL A   1      41.070  27.564  28.973  1.00  0.00     0.023 A 
ATOM     72  C   UNL A   1      42.069  27.767  28.003  1.00  0.00     0.031 A 
ATOM     73  C   UNL A   1      40.167  26.506  28.765  1.00  0.00     0.131 A 
ATOM     74  C   UNL A   1      42.085  26.991  26.834  1.00  0.00     0.055 A 
ATOM     75  C   UNL A   1      40.246  25.676  27.644  1.00  0.00     0.041 A 
ATOM     76  F   UNL A   1      39.180  26.266  29.643  1.00  0.00    -0.206 F 
ATOM     77  C   UNL A   1      41.197  25.929  26.660  1.00  0.00     0.022 A 
BRANCH  74  78
ATOM     78  S   UNL A   1      43.173  27.498  25.473  1.00  0.00     0.124 S 
ATOM     79  O   UNL A   1      43.688  26.212  25.010  1.00  0.00    -0.237 OA
ATOM     80  O   UNL A   1      42.252  28.180  24.571  1.00  0.00    -0.237 OA
ATOM     81  O   UNL A   1      44.160  28.357  26.125  1.00  0.00    -0.744 OA
ENDBRANCH  74  78
ENDBRANCH  57  71
BRANCH  58  82
ATOM     82  C   UNL A   1      39.501  33.370  36.971  1.00  0.00     0.023 A 
ATOM     83  C   UNL A   1      38.816  32.810  38.060  1.00  0.00     0.031 A 
ATOM     84  C   UNL A   1      39.884  34.720  37.061  1.00  0.00     0.131 A 
ATOM     85  C   UNL A   1      38.502  33.608  39.173  1.00  0.00     0.055 A 
ATOM     86  C   UNL A   1      39.618  35.494  38.191  1.00  0.00     0.041 A 
ATOM     87  F   UNL A   1      40.534  35.310  36.046  1.00  0.00    -0.206 F 
ATOM     88  C   UNL A   1      38.913  34.940  39.253  1.00  0.00     0.022 A 
BRANCH  85  89
ATOM     89  S   UNL A   1      37.477  32.899  40.491  1.00  0.00     0.124 S 
ATOM     90  O   UNL A   1      37.664  33.867  41.565  1.00  0.00    -0.237 OA
ATOM     91  O   UNL A   1      36.158  32.875  39.867  1.00  0.00    -0.237 OA
ATOM     92  O   UNL A   1      38.078  31.586  40.720  1.00  0.00    -0.744 OA
ENDBRANCH  85  89
ENDBRANCH  58  82
BRANCH  70  93
ATOM     93  C   UNL A   1      44.398  28.670  35.330  1.00  0.00     0.023 A 
ATOM     94  C   UNL A   1      44.349  27.631  36.275  1.00  0.00     0.031 A 
ATOM     95  C   UNL A   1      45.642  29.282  35.086  1.00  0.00     0.131 A 
ATOM     96  C   UNL A   1      45.506  27.279  36.988  1.00  0.00     0.055 A 
ATOM     97  C   UNL A   1      46.803  28.878  35.746  1.00  0.00     0.041 A 
ATOM     98  F   UNL A   1      45.750  30.284  34.198  1.00  0.00    -0.206 F 
ATOM     99  C   UNL A   1      46.736  27.883  36.716  1.00  0.00     0.022 A 
BRANCH  96 100
ATOM    100  S   UNL A   1      45.359  26.103  38.361  1.00  0.00     0.124 S 
ATOM    101  O   UNL A   1      45.093  24.852  37.660  1.00  0.00    -0.237 OA
ATOM    102  O   UNL A   1      46.665  26.209  39.005  1.00  0.00    -0.237 OA
ATOM    103  O   UNL A   1      44.239  26.626  39.143  1.00  0.00    -0.744 OA
ENDBRANCH  96 100
ENDBRANCH  70  93
ENDBRANCH  44  45
ENDBRANCH  36  39
ENDBRANCH  34  35
ENDBRANCH  33  34
ENDBRANCH  32  33
ENDBRANCH   1  32
TORSDOF 19
ENDMDL
MODEL 2
REMARK VINA RESULT:     -12.2      1.654      7.396
REMARK SMILES CN1C(=O)/C(=C\c2ccc(-c3ccccc3C(=O)NCCCCCCNC(=O)c3ccc(-c4c5nc(c(-c6cc(S(=O)(=O)[O-])ccc6F)c6ccc([nH]6)c(-c6cc(S(=O)(=O)[O-])ccc6F)c6nc(c(-c7cc(S(=O)(=O)[O-])ccc7F)c7ccc4[nH]7)C=C6)C=C5)cc3)o2)C(=O)[NH+]=C1S
REMARK SMILES IDX 22 1 21 2 20 3 19 4 17 5 18 6 16 8 11 9 12 10 13 11 15 12
REMARK SMILES IDX 14 13 10 14 7 15 8 16 92 17 9 18 6 19 1 20 2 21 3 22 96 23
REMARK SMILES IDX 4 24 5 25 95 26 93 27 94 29 97 30 23 32 24 33 25 34 26 35
REMARK SMILES IDX 27 36 28 38 29 39 30 40 91 41 31 42 90 43 32 44 33 45 34 46
REMARK SMILES IDX 84 47 35 48 89 49 83 50 85 51 36 52 88 53 82 54 81 55 37 57
REMARK SMILES IDX 69 58 49 59 68 60 50 61 53 62 67 63 86 64 51 65 52 66 66 68
REMARK SMILES IDX 87 69 54 70 38 71 39 72 47 73 40 74 46 75 48 76 45 77 41 78
REMARK SMILES IDX 42 79 43 80 44 81 70 82 71 83 79 84 72 85 78 86 80 87 77 88
REMARK SMILES IDX 73 89 74 90 75 91 76 92 55 93 56 94 64 95 57 96 63 97 65 98
REMARK SMILES IDX 62 99 58 100 59 101 60 102 61 103
REMARK H PARENT 19 7 95 28 97 31 26 37 85 56 53 67
REMARK Flexibility Score: inf
ROOT
ATOM      1  C   UNL A   1      31.817  29.158  26.248  1.00  0.00     0.002 C 
ENDROOT
BRANCH   1   2
ATOM      2  C   UNL A   1      33.282  28.727  26.113  1.00  0.00     0.021 C 
BRANCH   2   3
ATOM      3  C   UNL A   1      33.609  27.237  26.123  1.00  0.00     0.116 C 
BRANCH   3   4
ATOM      4  N   UNL A   1      33.896  26.580  24.872  1.00  0.00    -0.352 N 
ATOM      5  C   UNL A   1      33.170  26.527  23.696  1.00  0.00     0.252 C 
ATOM      6  O   UNL A   1      33.751  26.001  22.739  1.00  0.00    -0.269 OA
ATOM      7  H   UNL A   1      34.748  26.088  24.852  1.00  0.00     0.163 HD
BRANCH   5   8
ATOM      8  C   UNL A   1      31.735  26.959  23.480  1.00  0.00     0.050 A 
ATOM      9  C   UNL A   1      30.541  26.442  24.021  1.00  0.00     0.030 A 
ATOM     10  C   UNL A   1      29.294  27.012  23.668  1.00  0.00     0.013 A 
ATOM     11  C   UNL A   1      29.204  28.126  22.842  1.00  0.00     0.001 A 
ATOM     12  C   UNL A   1      31.608  28.106  22.654  1.00  0.00     0.014 A 
ATOM     13  C   UNL A   1      30.370  28.686  22.348  1.00  0.00     0.001 A 
BRANCH   9  14
ATOM     14  C   UNL A   1      30.452  25.388  25.000  1.00  0.00     0.135 A 
ATOM     15  C   UNL A   1      30.827  23.296  25.623  1.00  0.00     0.128 A 
ATOM     16  C   UNL A   1      30.238  23.974  26.690  1.00  0.00     0.051 A 
ATOM     17  O   UNL A   1      30.926  24.182  24.583  1.00  0.00    -0.457 OA
ATOM     18  C   UNL A   1      29.970  25.299  26.282  1.00  0.00     0.051 A 
BRANCH  15  19
ATOM     19  C   UNL A   1      31.351  21.977  25.551  1.00  0.00     0.071 C 
ATOM     20  C   UNL A   1      35.842  23.488  24.867  1.00  0.00     0.301 C 
ATOM     21  N   UNL A   1      34.920  22.384  25.107  1.00  0.00    -0.189 N 
ATOM     22  C   UNL A   1      33.712  22.722  25.654  1.00  0.00     0.349 C 
ATOM     23  C   UNL A   1      35.251  21.057  25.057  1.00  0.00     0.318 C 
ATOM     24  O   UNL A   1      33.533  23.769  26.270  1.00  0.00    -0.240 OA
ATOM     25  C   UNL A   1      32.665  21.700  25.487  1.00  0.00     0.157 C 
ATOM     26  N   UNL A   1      34.413  20.082  25.112  1.00  0.00    -0.200 N 
ATOM     27  C   UNL A   1      33.073  20.318  25.156  1.00  0.00     0.347 C 
ATOM     28  H   UNL A   1      34.746  19.154  25.125  1.00  0.00     0.316 HD
ATOM     29  O   UNL A   1      32.236  19.456  24.900  1.00  0.00    -0.241 OA
BRANCH  23  30
ATOM     30  S   UNL A   1      36.941  20.661  25.000  1.00  0.00    -0.055 SA
ATOM     31  H   UNL A   1      37.584  21.276  26.027  1.00  0.00     0.116 HD
ENDBRANCH  23  30
ENDBRANCH  15  19
ENDBRANCH   9  14
ENDBRANCH   5   8
ENDBRANCH   3   4
ENDBRANCH   2   3
ENDBRANCH   1   2
BRANCH   1  32
ATOM     32  C   UNL A   1      31.397  30.541  25.733  1.00  0.00     0.002 C 
BRANCH  32  33
ATOM     33  C   UNL A   1      31.506  31.737  26.684  1.00  0.00     0.021 C 
BRANCH  33  34
ATOM     34  C   UNL A   1      32.900  32.257  27.023  1.00  0.00     0.116 C 
BRANCH  34  35
ATOM     35  N   UNL A   1      32.875  33.553  27.671  1.00  0.00    -0.352 N 
ATOM     36  C   UNL A   1      33.663  34.086  28.663  1.00  0.00     0.251 C 
ATOM     37  H   UNL A   1      32.171  34.158  27.343  1.00  0.00     0.163 HD
ATOM     38  O   UNL A   1      33.322  35.161  29.157  1.00  0.00    -0.269 OA
BRANCH  36  39
ATOM     39  C   UNL A   1      34.880  33.402  29.173  1.00  0.00     0.039 A 
ATOM     40  C   UNL A   1      34.718  32.375  30.112  1.00  0.00     0.014 A 
ATOM     41  C   UNL A   1      36.173  33.787  28.815  1.00  0.00     0.014 A 
ATOM     42  C   UNL A   1      35.831  31.725  30.657  1.00  0.00     0.010 A 
ATOM     43  C   UNL A   1      37.282  33.080  29.295  1.00  0.00     0.010 A 
ATOM     44  C   UNL A   1      37.130  32.050  30.237  1.00  0.00    -0.014 A 
BRANCH  44  45
ATOM     45  C   UNL A   1      38.320  31.339  30.793  1.00  0.00     0.031 A 
ATOM     46  C   UNL A   1      38.926  31.764  32.108  1.00  0.00     0.074 A 
ATOM     47  C   UNL A   1      38.884  30.327  30.100  1.00  0.00     0.049 A 
ATOM     48  N   UNL A   1      39.969  31.280  32.738  1.00  0.00    -0.248 NA
ATOM     49  C   UNL A   1      38.287  32.893  32.799  1.00  0.00     0.031 C 
ATOM     50  C   UNL A   1      38.424  29.834  28.798  1.00  0.00     0.029 A 
ATOM     51  N   UNL A   1      39.982  29.547  30.375  1.00  0.00    -0.354 N 
ATOM     52  C   UNL A   1      40.107  32.041  33.895  1.00  0.00     0.074 A 
ATOM     53  C   UNL A   1      39.092  33.072  33.835  1.00  0.00     0.031 C 
ATOM     54  C   UNL A   1      39.234  28.843  28.389  1.00  0.00     0.029 A 
ATOM     55  C   UNL A   1      40.288  28.648  29.379  1.00  0.00     0.049 A 
ATOM     56  H   UNL A   1      40.501  29.624  31.208  1.00  0.00     0.167 HD
ATOM     57  C   UNL A   1      40.971  31.878  34.930  1.00  0.00     0.034 A 
ATOM     58  C   UNL A   1      41.309  27.774  29.259  1.00  0.00     0.034 A 
ATOM     59  C   UNL A   1      41.981  30.845  34.978  1.00  0.00     0.049 A 
ATOM     60  C   UNL A   1      42.290  27.638  30.394  1.00  0.00     0.074 A 
ATOM     61  C   UNL A   1      42.861  30.545  36.004  1.00  0.00     0.029 A 
ATOM     62  N   UNL A   1      42.259  29.955  33.948  1.00  0.00    -0.354 N 
ATOM     63  N   UNL A   1      42.352  28.312  31.519  1.00  0.00    -0.248 NA
ATOM     64  C   UNL A   1      43.317  26.598  30.258  1.00  0.00     0.031 C 
ATOM     65  C   UNL A   1      43.722  29.534  35.564  1.00  0.00     0.029 A 
ATOM     66  C   UNL A   1      43.323  29.135  34.298  1.00  0.00     0.049 A 
ATOM     67  H   UNL A   1      41.773  29.912  33.093  1.00  0.00     0.167 HD
ATOM     68  C   UNL A   1      43.399  27.747  32.243  1.00  0.00     0.074 A 
ATOM     69  C   UNL A   1      43.933  26.674  31.429  1.00  0.00     0.031 C 
ATOM     70  C   UNL A   1      43.864  28.076  33.476  1.00  0.00     0.034 A 
BRANCH  57  71
ATOM     71  C   UNL A   1      40.873  32.855  36.083  1.00  0.00     0.023 A 
ATOM     72  C   UNL A   1      40.076  32.590  37.212  1.00  0.00     0.031 A 
ATOM     73  C   UNL A   1      41.559  34.082  36.044  1.00  0.00     0.131 A 
ATOM     74  C   UNL A   1      39.912  33.569  38.204  1.00  0.00     0.055 A 
ATOM     75  C   UNL A   1      41.465  35.015  37.080  1.00  0.00     0.041 A 
ATOM     76  F   UNL A   1      42.324  34.406  34.989  1.00  0.00    -0.206 F 
ATOM     77  C   UNL A   1      40.622  34.769  38.160  1.00  0.00     0.022 A 
BRANCH  74  78
ATOM     78  S   UNL A   1      38.628  33.318  39.463  1.00  0.00     0.124 S 
ATOM     79  O   UNL A   1      39.225  32.272  40.290  1.00  0.00    -0.237 OA
ATOM     80  O   UNL A   1      38.527  34.638  40.075  1.00  0.00    -0.237 OA
ATOM     81  O   UNL A   1      37.464  32.899  38.686  1.00  0.00    -0.744 OA
ENDBRANCH  74  78
ENDBRANCH  57  71
BRANCH  58  82
ATOM     82  C   UNL A   1      41.459  26.961  28.017  1.00  0.00     0.023 A 
ATOM     83  C   UNL A   1      41.056  25.618  27.965  1.00  0.00     0.031 A 
ATOM     84  C   UNL A   1      42.041  27.517  26.864  1.00  0.00     0.131 A 
ATOM     85  C   UNL A   1      41.275  24.868  26.798  1.00  0.00     0.055 A 
ATOM     86  C   UNL A   1      42.207  26.783  25.688  1.00  0.00     0.041 A 
ATOM     87  F   UNL A   1      42.453  28.793  26.859  1.00  0.00    -0.206 F 
ATOM     88  C   UNL A   1      41.832  25.445  25.655  1.00  0.00     0.022 A 
BRANCH  85  89
ATOM     89  S   UNL A   1      40.891  23.095  26.818  1.00  0.00     0.124 S 
ATOM     90  O   UNL A   1      41.721  22.599  25.728  1.00  0.00    -0.237 OA
ATOM     91  O   UNL A   1      41.301  22.713  28.166  1.00  0.00    -0.237 OA
ATOM     92  O   UNL A   1      39.450  23.057  26.574  1.00  0.00    -0.744 OA
ENDBRANCH  85  89
ENDBRANCH  58  82
BRANCH  70  93
ATOM     93  C   UNL A   1      44.979  27.226  34.041  1.00  0.00     0.023 A 
ATOM     94  C   UNL A   1      44.726  26.081  34.816  1.00  0.00     0.031 A 
ATOM     95  C   UNL A   1      46.322  27.585  33.816  1.00  0.00     0.131 A 
ATOM     96  C   UNL A   1      45.794  25.375  35.391  1.00  0.00     0.055 A 
ATOM     97  C   UNL A   1      47.381  26.837  34.330  1.00  0.00     0.041 A 
ATOM     98  F   UNL A   1      46.626  28.673  33.088  1.00  0.00    -0.206 F 
ATOM     99  C   UNL A   1      47.120  25.734  35.137  1.00  0.00     0.022 A 
BRANCH  96 100
ATOM    100  S   UNL A   1      45.425  24.049  36.572  1.00  0.00     0.124 S 
ATOM    101  O   UNL A   1      46.756  23.690  37.049  1.00  0.00    -0.237 OA
ATOM    102  O   UNL A   1      44.561  24.722  37.537  1.00  0.00    -0.237 OA
ATOM    103  O   UNL A   1      44.765  23.033  35.753  1.00  0.00    -0.744 OA
ENDBRANCH  96 100
ENDBRANCH  70  93
ENDBRANCH  44  45
ENDBRANCH  36  39
ENDBRANCH  34  35
ENDBRANCH  33  34
ENDBRANCH  32  33
ENDBRANCH   1  32
TORSDOF 19
ENDMDL
MODEL 3
REMARK VINA RESULT:     -11.8      1.369      1.660
REMARK SMILES CN1C(=O)/C(=C\c2ccc(-c3ccccc3C(=O)NCCCCCCNC(=O)c3ccc(-c4c5nc(c(-c6cc(S(=O)(=O)[O-])ccc6F)c6ccc([nH]6)c(-c6cc(S(=O)(=O)[O-])ccc6F)c6nc(c(-c7cc(S(=O)(=O)[O-])ccc7F)c7ccc4[nH]7)C=C6)C=C5)cc3)o2)C(=O)[NH+]=C1S
REMARK SMILES IDX 22 1 21 2 20 3 19 4 17 5 18 6 16 8 11 9 12 10 13 11 15 12
REMARK SMILES IDX 14 13 10 14 7 15 8 16 92 17 9 18 6 19 1 20 2 21 3 22 96 23
REMARK SMILES IDX 4 24 5 25 95 26 93 27 94 29 97 30 23 32 24 33 25 34 26 35
REMARK SMILES IDX 27 36 28 38 29 39 30 40 91 41 31 42 90 43 32 44 33 45 34 46
REMARK SMILES IDX 84 47 35 48 89 49 83 50 85 51 36 52 88 53 82 54 81 55 37 57
REMARK SMILES IDX 69 58 49 59 68 60 50 61 53 62 67 63 86 64 51 65 52 66 66 68
REMARK SMILES IDX 87 69 54 70 38 71 39 72 47 73 40 74 46 75 48 76 45 77 41 78
REMARK SMILES IDX 42 79 43 80 44 81 70 82 71 83 79 84 72 85 78 86 80 87 77 88
REMARK SMILES IDX 73 89 74 90 75 91 76 92 55 93 56 94 64 95 57 96 63 97 65 98
REMARK SMILES IDX 62 99 58 100 59 101 60 102 61 103
REMARK H PARENT 19 7 95 28 97 31 26 37 85 56 53 67
REMARK Flexibility Score: inf
ROOT
ATOM      1  C   UNL A   1      32.097  28.914  27.214  1.00  0.00     0.002 C 
ENDROOT
BRANCH   1   2
ATOM      2  C   UNL A   1      32.773  27.623  26.740  1.00  0.00     0.021 C 
BRANCH   2   3
ATOM      3  C   UNL A   1      33.932  27.725  25.753  1.00  0.00     0.116 C 
BRANCH   3   4
ATOM      4  N   UNL A   1      34.015  26.769  24.677  1.00  0.00    -0.352 N 
ATOM      5  C   UNL A   1      33.160  26.531  23.616  1.00  0.00     0.252 C 
ATOM      6  O   UNL A   1      33.580  25.736  22.767  1.00  0.00    -0.269 OA
ATOM      7  H   UNL A   1      34.812  26.191  24.701  1.00  0.00     0.163 HD
BRANCH   5   8
ATOM      8  C   UNL A   1      31.755  27.064  23.430  1.00  0.00     0.050 A 
ATOM      9  C   UNL A   1      30.538  26.625  23.987  1.00  0.00     0.030 A 
ATOM     10  C   UNL A   1      29.327  27.285  23.661  1.00  0.00     0.013 A 
ATOM     11  C   UNL A   1      29.301  28.410  22.847  1.00  0.00     0.001 A 
ATOM     12  C   UNL A   1      31.694  28.225  22.616  1.00  0.00     0.014 A 
ATOM     13  C   UNL A   1      30.494  28.893  22.337  1.00  0.00     0.001 A 
BRANCH   9  14
ATOM     14  C   UNL A   1      30.392  25.570  24.958  1.00  0.00     0.135 A 
ATOM     15  C   UNL A   1      30.735  23.479  25.601  1.00  0.00     0.128 A 
ATOM     16  C   UNL A   1      30.079  24.154  26.630  1.00  0.00     0.051 A 
ATOM     17  O   UNL A   1      30.895  24.366  24.570  1.00  0.00    -0.457 OA
ATOM     18  C   UNL A   1      29.832  25.478  26.207  1.00  0.00     0.051 A 
BRANCH  15  19
ATOM     19  C   UNL A   1      31.267  22.162  25.561  1.00  0.00     0.071 C 
ATOM     20  C   UNL A   1      35.749  23.684  24.839  1.00  0.00     0.301 C 
ATOM     21  N   UNL A   1      34.833  22.581  25.106  1.00  0.00    -0.189 N 
ATOM     22  C   UNL A   1      33.623  22.924  25.645  1.00  0.00     0.349 C 
ATOM     23  C   UNL A   1      35.173  21.255  25.088  1.00  0.00     0.318 C 
ATOM     24  O   UNL A   1      33.438  23.984  26.235  1.00  0.00    -0.240 OA
ATOM     25  C   UNL A   1      32.583  21.891  25.503  1.00  0.00     0.157 C 
ATOM     26  N   UNL A   1      34.341  20.276  25.167  1.00  0.00    -0.200 N 
ATOM     27  C   UNL A   1      32.999  20.504  25.205  1.00  0.00     0.347 C 
ATOM     28  H   UNL A   1      34.680  19.351  25.202  1.00  0.00     0.316 HD
ATOM     29  O   UNL A   1      32.168  19.631  24.971  1.00  0.00    -0.241 OA
BRANCH  23  30
ATOM     30  S   UNL A   1      36.865  20.868  25.040  1.00  0.00    -0.055 SA
ATOM     31  H   UNL A   1      37.145  20.204  23.888  1.00  0.00     0.116 HD
ENDBRANCH  23  30
ENDBRANCH  15  19
ENDBRANCH   9  14
ENDBRANCH   5   8
ENDBRANCH   3   4
ENDBRANCH   2   3
ENDBRANCH   1   2
BRANCH   1  32
ATOM     32  C   UNL A   1      31.421  29.824  26.180  1.00  0.00     0.002 C 
BRANCH  32  33
ATOM     33  C   UNL A   1      31.541  31.341  26.354  1.00  0.00     0.021 C 
BRANCH  33  34
ATOM     34  C   UNL A   1      32.845  31.895  26.920  1.00  0.00     0.116 C 
BRANCH  34  35
ATOM     35  N   UNL A   1      32.726  33.268  27.370  1.00  0.00    -0.352 N 
ATOM     36  C   UNL A   1      33.368  33.954  28.372  1.00  0.00     0.251 C 
ATOM     37  H   UNL A   1      32.069  33.804  26.867  1.00  0.00     0.163 HD
ATOM     38  O   UNL A   1      32.958  35.079  28.659  1.00  0.00    -0.269 OA
BRANCH  36  39
ATOM     39  C   UNL A   1      34.509  33.377  29.132  1.00  0.00     0.039 A 
ATOM     40  C   UNL A   1      35.799  33.844  28.844  1.00  0.00     0.014 A 
ATOM     41  C   UNL A   1      34.359  32.344  30.058  1.00  0.00     0.014 A 
ATOM     42  C   UNL A   1      36.913  33.306  29.498  1.00  0.00     0.010 A 
ATOM     43  C   UNL A   1      35.464  31.867  30.773  1.00  0.00     0.010 A 
ATOM     44  C   UNL A   1      36.760  32.327  30.492  1.00  0.00    -0.014 A 
BRANCH  44  45
ATOM     45  C   UNL A   1      37.944  31.772  31.215  1.00  0.00     0.031 A 
ATOM     46  C   UNL A   1      38.786  30.685  30.592  1.00  0.00     0.074 A 
ATOM     47  C   UNL A   1      38.248  32.218  32.452  1.00  0.00     0.049 A 
ATOM     48  N   UNL A   1      39.837  30.068  31.076  1.00  0.00    -0.248 NA
ATOM     49  C   UNL A   1      38.384  30.218  29.258  1.00  0.00     0.031 C 
ATOM     50  C   UNL A   1      37.500  33.241  33.189  1.00  0.00     0.029 A 
ATOM     51  N   UNL A   1      39.248  31.854  33.322  1.00  0.00    -0.354 N 
ATOM     52  C   UNL A   1      40.221  29.147  30.106  1.00  0.00     0.074 A 
ATOM     53  C   UNL A   1      39.238  29.228  29.045  1.00  0.00     0.031 C 
ATOM     54  C   UNL A   1      38.062  33.417  34.396  1.00  0.00     0.029 A 
ATOM     55  C   UNL A   1      39.191  32.502  34.535  1.00  0.00     0.049 A 
ATOM     56  H   UNL A   1      39.941  31.193  33.097  1.00  0.00     0.167 HD
ATOM     57  C   UNL A   1      41.308  28.333  30.080  1.00  0.00     0.034 A 
ATOM     58  C   UNL A   1      39.946  32.368  35.645  1.00  0.00     0.034 A 
ATOM     59  C   UNL A   1      42.281  28.260  31.145  1.00  0.00     0.049 A 
ATOM     60  C   UNL A   1      41.120  31.425  35.620  1.00  0.00     0.074 A 
ATOM     61  C   UNL A   1      43.454  27.525  31.194  1.00  0.00     0.029 A 
ATOM     62  N   UNL A   1      42.187  28.931  32.358  1.00  0.00    -0.354 N 
ATOM     63  N   UNL A   1      41.515  30.622  34.659  1.00  0.00    -0.248 NA
ATOM     64  C   UNL A   1      41.971  31.398  36.816  1.00  0.00     0.031 C 
ATOM     65  C   UNL A   1      44.023  27.686  32.462  1.00  0.00     0.029 A 
ATOM     66  C   UNL A   1      43.257  28.594  33.176  1.00  0.00     0.049 A 
ATOM     67  H   UNL A   1      41.465  29.553  32.603  1.00  0.00     0.167 HD
ATOM     68  C   UNL A   1      42.687  30.026  35.120  1.00  0.00     0.074 A 
ATOM     69  C   UNL A   1      42.934  30.568  36.441  1.00  0.00     0.031 C 
ATOM     70  C   UNL A   1      43.492  29.125  34.500  1.00  0.00     0.034 A 
BRANCH  57  71
ATOM     71  C   UNL A   1      41.486  27.442  28.867  1.00  0.00     0.023 A 
ATOM     72  C   UNL A   1      42.491  27.684  27.913  1.00  0.00     0.031 A 
ATOM     73  C   UNL A   1      40.623  26.355  28.643  1.00  0.00     0.131 A 
ATOM     74  C   UNL A   1      42.550  26.914  26.741  1.00  0.00     0.055 A 
ATOM     75  C   UNL A   1      40.746  25.533  27.520  1.00  0.00     0.041 A 
ATOM     76  F   UNL A   1      39.633  26.077  29.506  1.00  0.00    -0.206 F 
ATOM     77  C   UNL A   1      41.701  25.823  26.550  1.00  0.00     0.022 A 
BRANCH  74  78
ATOM     78  S   UNL A   1      43.638  27.464  25.397  1.00  0.00     0.124 S 
ATOM     79  O   UNL A   1      44.381  26.242  25.098  1.00  0.00    -0.237 OA
ATOM     80  O   UNL A   1      42.687  27.899  24.380  1.00  0.00    -0.237 OA
ATOM     81  O   UNL A   1      44.429  28.530  26.011  1.00  0.00    -0.744 OA
ENDBRANCH  74  78
ENDBRANCH  57  71
BRANCH  58  82
ATOM     82  C   UNL A   1      39.613  33.142  36.877  1.00  0.00     0.023 A 
ATOM     83  C   UNL A   1      38.775  32.615  37.871  1.00  0.00     0.031 A 
ATOM     84  C   UNL A   1      40.112  34.444  37.061  1.00  0.00     0.131 A 
ATOM     85  C   UNL A   1      38.432  33.400  38.984  1.00  0.00     0.055 A 
ATOM     86  C   UNL A   1      39.812  35.201  38.195  1.00  0.00     0.041 A 
ATOM     87  F   UNL A   1      40.910  35.002  36.139  1.00  0.00    -0.206 F 
ATOM     88  C   UNL A   1      38.958  34.682  39.161  1.00  0.00     0.022 A 
BRANCH  85  89
ATOM     89  S   UNL A   1      37.220  32.750  40.168  1.00  0.00     0.124 S 
ATOM     90  O   UNL A   1      36.067  32.509  39.309  1.00  0.00    -0.237 OA
ATOM     91  O   UNL A   1      37.903  31.566  40.678  1.00  0.00    -0.237 OA
ATOM     92  O   UNL A   1      37.067  33.841  41.129  1.00  0.00    -0.744 OA
ENDBRANCH  85  89
ENDBRANCH  58  82
BRANCH  70  93
ATOM     93  C   UNL A   1      44.750  28.709  35.228  1.00  0.00     0.023 A 
ATOM     94  C   UNL A   1      45.962  29.404  35.081  1.00  0.00     0.031 A 
ATOM     95  C   UNL A   1      44.736  27.580  36.069  1.00  0.00     0.131 A 
ATOM     96  C   UNL A   1      47.123  28.928  35.710  1.00  0.00     0.055 A 
ATOM     97  C   UNL A   1      45.877  27.153  36.748  1.00  0.00     0.041 A 
ATOM     98  F   UNL A   1      43.608  26.871  36.244  1.00  0.00    -0.206 F 
ATOM     99  C   UNL A   1      47.084  27.818  36.558  1.00  0.00     0.022 A 
BRANCH  96 100
ATOM    100  S   UNL A   1      48.711  29.708  35.312  1.00  0.00     0.124 S 
ATOM    101  O   UNL A   1      49.652  28.621  35.559  1.00  0.00    -0.237 OA
ATOM    102  O   UNL A   1      48.530  30.090  33.915  1.00  0.00    -0.237 OA
ATOM    103  O   UNL A   1      48.792  30.823  36.253  1.00  0.00    -0.744 OA
ENDBRANCH  96 100
ENDBRANCH  70  93
ENDBRANCH  44  45
ENDBRANCH  36  39
ENDBRANCH  34  35
ENDBRANCH  33  34
ENDBRANCH  32  33
ENDBRANCH   1  32
TORSDOF 19
ENDMDL
