MODEL 1
REMARK VINA RESULT:     -12.3      0.000      0.000
REMARK SMILES Cc1ccc(C)c(S(=O)(=O)N[C@H](CC2=c3ccccc3=NC2)C(=O)NCCCCCCNC(=O)c2ccc(-c3c4nc(c(-c5cc(S(=O)(=O)[O-])ccc5F)c5ccc([nH]5)c(-c5cc(S(=O)(=O)[O-])ccc5F)c5nc(c(-c6cc(S(=O)(=O)[O-])ccc6F)c6ccc3[nH]6)C=C5)C=C4)cc2)c1
REMARK SMILES IDX 28 1 27 2 26 3 25 4 23 5 24 6 12 8 11 9 8 11 9 12 10 13 7 14
REMARK SMILES IDX 1 15 2 16 3 17 98 18 4 19 5 20 6 21 13 22 14 23 15 24 22 25
REMARK SMILES IDX 16 26 20 27 21 28 17 29 19 30 18 31 29 32 30 33 31 34 32 35
REMARK SMILES IDX 33 36 34 38 35 39 36 40 97 41 37 42 96 43 38 44 39 45 40 46
REMARK SMILES IDX 90 47 41 48 95 49 89 50 91 51 42 52 94 53 88 54 87 55 43 57
REMARK SMILES IDX 75 58 55 59 74 60 56 61 59 62 73 63 92 64 57 65 58 66 72 68
REMARK SMILES IDX 93 69 60 70 44 71 45 72 53 73 46 74 52 75 54 76 51 77 47 78
REMARK SMILES IDX 48 79 49 80 50 81 76 82 77 83 85 84 78 85 84 86 86 87 83 88
REMARK SMILES IDX 79 89 80 90 81 91 82 92 61 93 62 94 70 95 63 96 69 97 71 98
REMARK SMILES IDX 68 99 64 100 65 101 66 102 67 103
REMARK H PARENT 25 7 11 10 32 37 91 56 59 67
REMARK Flexibility Score: inf
ROOT
ATOM      1  C   UNL A   1      37.548  23.282  24.969  1.00  0.00     0.002 C 
ENDROOT
BRANCH   1   2
ATOM      2  C   UNL A   1      36.440  23.264  23.910  1.00  0.00     0.021 C 
BRANCH   2   3
ATOM      3  C   UNL A   1      35.253  24.228  24.090  1.00  0.00     0.116 C 
BRANCH   3   4
ATOM      4  N   UNL A   1      34.061  23.925  23.310  1.00  0.00    -0.355 N 
ATOM      5  C   UNL A   1      32.720  24.105  23.509  1.00  0.00     0.238 C 
ATOM      6  O   UNL A   1      31.980  23.659  22.621  1.00  0.00    -0.273 OA
ATOM      7  H   UNL A   1      34.266  23.494  22.448  1.00  0.00     0.163 HD
BRANCH   5   8
ATOM      8  C   UNL A   1      32.116  24.808  24.737  1.00  0.00     0.163 C 
BRANCH   8   9
ATOM      9  N   UNL A   1      30.933  24.040  25.206  1.00  0.00    -0.198 NA
ATOM     10  H   UNL A   1      30.269  24.727  25.562  1.00  0.00     0.142 HD
BRANCH   9  11
ATOM     11  S   UNL A   1      31.055  22.862  26.374  1.00  0.00     0.241 S 
ATOM     12  O   UNL A   1      29.809  22.148  26.447  1.00  0.00    -0.207 OA
ATOM     13  O   UNL A   1      31.618  23.532  27.538  1.00  0.00    -0.207 OA
BRANCH  11  14
ATOM     14  C   UNL A   1      32.312  21.748  25.780  1.00  0.00     0.085 A 
ATOM     15  C   UNL A   1      32.518  18.834  23.334  1.00  0.00     0.044 C 
ATOM     16  C   UNL A   1      32.910  19.867  24.351  1.00  0.00    -0.050 A 
ATOM     17  C   UNL A   1      34.194  19.880  24.895  1.00  0.00     0.004 A 
ATOM     18  C   UNL A   1      31.973  20.800  24.802  1.00  0.00     0.025 A 
ATOM     19  C   UNL A   1      34.551  20.846  25.838  1.00  0.00     0.005 A 
ATOM     20  C   UNL A   1      33.625  21.807  26.284  1.00  0.00    -0.031 A 
ATOM     21  C   UNL A   1      34.120  22.838  27.258  1.00  0.00     0.046 C 
ENDBRANCH  11  14
ENDBRANCH   9  11
ENDBRANCH   8   9
BRANCH   8  22
ATOM     22  C   UNL A   1      31.771  26.316  24.607  1.00  0.00     0.063 C 
BRANCH  22  23
ATOM     23  C   UNL A   1      32.477  27.334  25.466  1.00  0.00    -0.037 C 
ATOM     24  C   UNL A   1      32.222  28.619  25.722  1.00  0.00     0.001 A 
ATOM     25  C   UNL A   1      33.838  27.012  25.988  1.00  0.00     0.174 C 
ATOM     26  C   UNL A   1      31.274  29.601  25.304  1.00  0.00     0.010 A 
ATOM     27  C   UNL A   1      33.331  28.995  26.619  1.00  0.00     0.065 A 
ATOM     28  N   UNL A   1      34.275  28.134  26.834  1.00  0.00    -0.280 NA
ATOM     29  C   UNL A   1      31.382  30.854  25.786  1.00  0.00     0.001 A 
ATOM     30  C   UNL A   1      33.288  30.335  27.229  1.00  0.00     0.028 A 
ATOM     31  C   UNL A   1      32.372  31.207  26.790  1.00  0.00     0.002 A 
ENDBRANCH  22  23
ENDBRANCH   8  22
ENDBRANCH   5   8
ENDBRANCH   3   4
ENDBRANCH   2   3
ENDBRANCH   1   2
BRANCH   1  32
ATOM     32  C   UNL A   1      37.788  21.974  25.718  1.00  0.00     0.002 C 
BRANCH  32  33
ATOM     33  C   UNL A   1      38.625  20.893  25.017  1.00  0.00     0.021 C 
BRANCH  33  34
ATOM     34  C   UNL A   1      38.484  19.455  25.523  1.00  0.00     0.116 C 
BRANCH  34  35
ATOM     35  N   UNL A   1      39.776  18.808  25.766  1.00  0.00    -0.352 N 
ATOM     36  C   UNL A   1      41.055  19.300  25.943  1.00  0.00     0.251 C 
ATOM     37  H   UNL A   1      39.722  17.826  25.813  1.00  0.00     0.163 HD
ATOM     38  O   UNL A   1      42.004  18.547  25.720  1.00  0.00    -0.269 OA
BRANCH  36  39
ATOM     39  C   UNL A   1      41.318  20.678  26.419  1.00  0.00     0.039 A 
ATOM     40  C   UNL A   1      42.114  21.572  25.685  1.00  0.00     0.014 A 
ATOM     41  C   UNL A   1      40.861  21.066  27.668  1.00  0.00     0.014 A 
ATOM     42  C   UNL A   1      42.441  22.820  26.231  1.00  0.00     0.010 A 
ATOM     43  C   UNL A   1      41.016  22.343  28.127  1.00  0.00     0.010 A 
ATOM     44  C   UNL A   1      41.898  23.179  27.467  1.00  0.00    -0.014 A 
BRANCH  44  45
ATOM     45  C   UNL A   1      42.196  24.421  28.160  1.00  0.00     0.031 A 
ATOM     46  C   UNL A   1      41.139  25.445  28.107  1.00  0.00     0.074 A 
ATOM     47  C   UNL A   1      43.149  24.480  29.114  1.00  0.00     0.049 A 
ATOM     48  N   UNL A   1      41.200  26.596  27.529  1.00  0.00    -0.248 NA
ATOM     49  C   UNL A   1      39.815  25.099  28.642  1.00  0.00     0.031 C 
ATOM     50  C   UNL A   1      44.014  23.387  29.564  1.00  0.00     0.029 A 
ATOM     51  N   UNL A   1      43.422  25.477  30.002  1.00  0.00    -0.354 N 
ATOM     52  C   UNL A   1      39.991  27.211  27.823  1.00  0.00     0.074 A 
ATOM     53  C   UNL A   1      39.105  26.155  28.246  1.00  0.00     0.031 C 
ATOM     54  C   UNL A   1      44.533  23.709  30.766  1.00  0.00     0.029 A 
ATOM     55  C   UNL A   1      44.157  25.063  31.105  1.00  0.00     0.049 A 
ATOM     56  H   UNL A   1      43.126  26.407  29.873  1.00  0.00     0.167 HD
ATOM     57  C   UNL A   1      39.896  28.562  27.984  1.00  0.00     0.034 A 
ATOM     58  C   UNL A   1      44.401  25.750  32.245  1.00  0.00     0.034 A 
ATOM     59  C   UNL A   1      41.110  29.224  27.566  1.00  0.00     0.049 A 
ATOM     60  C   UNL A   1      44.171  27.186  31.972  1.00  0.00     0.074 A 
ATOM     61  C   UNL A   1      41.852  29.243  26.400  1.00  0.00     0.029 A 
ATOM     62  N   UNL A   1      41.949  29.696  28.548  1.00  0.00    -0.354 N 
ATOM     63  N   UNL A   1      44.925  27.912  31.198  1.00  0.00    -0.248 NA
ATOM     64  C   UNL A   1      42.836  27.710  32.217  1.00  0.00     0.031 C 
ATOM     65  C   UNL A   1      43.212  29.275  26.822  1.00  0.00     0.029 A 
ATOM     66  C   UNL A   1      43.233  29.341  28.217  1.00  0.00     0.049 A 
ATOM     67  H   UNL A   1      41.677  30.200  29.349  1.00  0.00     0.167 HD
ATOM     68  C   UNL A   1      44.024  28.675  30.474  1.00  0.00     0.074 A 
ATOM     69  C   UNL A   1      42.777  28.613  31.237  1.00  0.00     0.031 C 
ATOM     70  C   UNL A   1      44.273  29.025  29.178  1.00  0.00     0.034 A 
BRANCH  57  71
ATOM     71  C   UNL A   1      38.844  29.238  28.833  1.00  0.00     0.023 A 
ATOM     72  C   UNL A   1      38.878  29.258  30.240  1.00  0.00     0.031 A 
ATOM     73  C   UNL A   1      37.849  30.038  28.241  1.00  0.00     0.131 A 
ATOM     74  C   UNL A   1      37.942  29.969  30.999  1.00  0.00     0.055 A 
ATOM     75  C   UNL A   1      36.965  30.822  28.995  1.00  0.00     0.041 A 
ATOM     76  F   UNL A   1      37.736  30.123  26.906  1.00  0.00    -0.206 F 
ATOM     77  C   UNL A   1      36.999  30.782  30.384  1.00  0.00     0.022 A 
BRANCH  74  78
ATOM     78  S   UNL A   1      37.936  29.817  32.807  1.00  0.00     0.124 S 
ATOM     79  O   UNL A   1      37.322  28.507  32.994  1.00  0.00    -0.237 OA
ATOM     80  O   UNL A   1      39.361  29.900  33.117  1.00  0.00    -0.237 OA
ATOM     81  O   UNL A   1      37.144  30.963  33.245  1.00  0.00    -0.744 OA
ENDBRANCH  74  78
ENDBRANCH  57  71
BRANCH  58  82
ATOM     82  C   UNL A   1      44.298  25.214  33.624  1.00  0.00     0.023 A 
ATOM     83  C   UNL A   1      43.199  25.581  34.425  1.00  0.00     0.031 A 
ATOM     84  C   UNL A   1      45.413  24.649  34.263  1.00  0.00     0.131 A 
ATOM     85  C   UNL A   1      43.267  25.444  35.817  1.00  0.00     0.055 A 
ATOM     86  C   UNL A   1      45.466  24.488  35.652  1.00  0.00     0.041 A 
ATOM     87  F   UNL A   1      46.502  24.308  33.556  1.00  0.00    -0.206 F 
ATOM     88  C   UNL A   1      44.396  24.904  36.437  1.00  0.00     0.022 A 
BRANCH  85  89
ATOM     89  S   UNL A   1      41.928  26.032  36.883  1.00  0.00     0.124 S 
ATOM     90  O   UNL A   1      41.074  24.849  36.966  1.00  0.00    -0.237 OA
ATOM     91  O   UNL A   1      42.635  26.367  38.114  1.00  0.00    -0.237 OA
ATOM     92  O   UNL A   1      41.352  27.157  36.154  1.00  0.00    -0.744 OA
ENDBRANCH  85  89
ENDBRANCH  58  82
BRANCH  70  93
ATOM     93  C   UNL A   1      45.667  28.827  28.613  1.00  0.00     0.023 A 
ATOM     94  C   UNL A   1      45.983  27.544  28.132  1.00  0.00     0.031 A 
ATOM     95  C   UNL A   1      46.726  29.748  28.732  1.00  0.00     0.131 A 
ATOM     96  C   UNL A   1      47.308  27.201  27.838  1.00  0.00     0.055 A 
ATOM     97  C   UNL A   1      48.039  29.422  28.376  1.00  0.00     0.041 A 
ATOM     98  F   UNL A   1      46.551  30.960  29.271  1.00  0.00    -0.206 F 
ATOM     99  C   UNL A   1      48.340  28.136  27.943  1.00  0.00     0.022 A 
BRANCH  96 100
ATOM    100  S   UNL A   1      47.745  25.483  27.466  1.00  0.00     0.124 S 
ATOM    101  O   UNL A   1      48.943  25.287  28.278  1.00  0.00    -0.237 OA
ATOM    102  O   UNL A   1      46.559  24.755  27.914  1.00  0.00    -0.237 OA
ATOM    103  O   UNL A   1      47.962  25.479  26.023  1.00  0.00    -0.744 OA
ENDBRANCH  96 100
ENDBRANCH  70  93
ENDBRANCH  44  45
ENDBRANCH  36  39
ENDBRANCH  34  35
ENDBRANCH  33  34
ENDBRANCH  32  33
ENDBRANCH   1  32
TORSDOF 21
ENDMDL
MODEL 2
REMARK VINA RESULT:     -12.1      4.037      8.856
REMARK SMILES Cc1ccc(C)c(S(=O)(=O)N[C@H](CC2=c3ccccc3=NC2)C(=O)NCCCCCCNC(=O)c2ccc(-c3c4nc(c(-c5cc(S(=O)(=O)[O-])ccc5F)c5ccc([nH]5)c(-c5cc(S(=O)(=O)[O-])ccc5F)c5nc(c(-c6cc(S(=O)(=O)[O-])ccc6F)c6ccc3[nH]6)C=C5)C=C4)cc2)c1
REMARK SMILES IDX 28 1 27 2 26 3 25 4 23 5 24 6 12 8 11 9 8 11 9 12 10 13 7 14
REMARK SMILES IDX 1 15 2 16 3 17 98 18 4 19 5 20 6 21 13 22 14 23 15 24 22 25
REMARK SMILES IDX 16 26 20 27 21 28 17 29 19 30 18 31 29 32 30 33 31 34 32 35
REMARK SMILES IDX 33 36 34 38 35 39 36 40 97 41 37 42 96 43 38 44 39 45 40 46
REMARK SMILES IDX 90 47 41 48 95 49 89 50 91 51 42 52 94 53 88 54 87 55 43 57
REMARK SMILES IDX 75 58 55 59 74 60 56 61 59 62 73 63 92 64 57 65 58 66 72 68
REMARK SMILES IDX 93 69 60 70 44 71 45 72 53 73 46 74 52 75 54 76 51 77 47 78
REMARK SMILES IDX 48 79 49 80 50 81 76 82 77 83 85 84 78 85 84 86 86 87 83 88
REMARK SMILES IDX 79 89 80 90 81 91 82 92 61 93 62 94 70 95 63 96 69 97 71 98
REMARK SMILES IDX 68 99 64 100 65 101 66 102 67 103
REMARK H PARENT 25 7 11 10 32 37 91 56 59 67
REMARK Flexibility Score: inf
ROOT
ATOM      1  C   UNL A   1      34.648  28.786  26.556  1.00  0.00     0.002 C 
ENDROOT
BRANCH   1   2
ATOM      2  C   UNL A   1      33.670  27.996  25.681  1.00  0.00     0.021 C 
BRANCH   2   3
ATOM      3  C   UNL A   1      33.312  26.562  26.111  1.00  0.00     0.116 C 
BRANCH   3   4
ATOM      4  N   UNL A   1      34.382  25.579  26.009  1.00  0.00    -0.355 N 
ATOM      5  C   UNL A   1      34.504  24.364  25.394  1.00  0.00     0.238 C 
ATOM      6  O   UNL A   1      35.578  23.775  25.577  1.00  0.00    -0.273 OA
ATOM      7  H   UNL A   1      35.198  25.849  26.490  1.00  0.00     0.163 HD
BRANCH   5   8
ATOM      8  C   UNL A   1      33.411  23.724  24.521  1.00  0.00     0.163 C 
BRANCH   8   9
ATOM      9  N   UNL A   1      33.614  22.252  24.486  1.00  0.00    -0.198 NA
ATOM     10  H   UNL A   1      33.446  21.963  23.522  1.00  0.00     0.142 HD
BRANCH   9  11
ATOM     11  S   UNL A   1      32.729  21.218  25.442  1.00  0.00     0.241 S 
ATOM     12  O   UNL A   1      31.377  21.703  25.526  1.00  0.00    -0.207 OA
ATOM     13  O   UNL A   1      33.538  21.012  26.635  1.00  0.00    -0.207 OA
BRANCH  11  14
ATOM     14  C   UNL A   1      32.721  19.666  24.567  1.00  0.00     0.085 A 
ATOM     15  C   UNL A   1      33.522  16.025  25.352  1.00  0.00     0.044 C 
ATOM     16  C   UNL A   1      33.123  17.263  24.602  1.00  0.00    -0.050 A 
ATOM     17  C   UNL A   1      32.862  17.214  23.233  1.00  0.00     0.004 A 
ATOM     18  C   UNL A   1      33.056  18.494  25.261  1.00  0.00     0.025 A 
ATOM     19  C   UNL A   1      32.488  18.369  22.544  1.00  0.00     0.005 A 
ATOM     20  C   UNL A   1      32.393  19.611  23.200  1.00  0.00    -0.031 A 
ATOM     21  C   UNL A   1      31.930  20.785  22.385  1.00  0.00     0.046 C 
ENDBRANCH  11  14
ENDBRANCH   9  11
ENDBRANCH   8   9
BRANCH   8  22
ATOM     22  C   UNL A   1      33.216  24.282  23.085  1.00  0.00     0.063 C 
BRANCH  22  23
ATOM     23  C   UNL A   1      32.543  25.614  22.873  1.00  0.00    -0.037 C 
ATOM     24  C   UNL A   1      31.315  26.051  23.157  1.00  0.00     0.001 A 
ATOM     25  C   UNL A   1      33.208  26.621  21.994  1.00  0.00     0.174 C 
ATOM     26  C   UNL A   1      30.112  25.509  23.704  1.00  0.00     0.010 A 
ATOM     27  C   UNL A   1      31.340  27.437  22.652  1.00  0.00     0.065 A 
ATOM     28  N   UNL A   1      32.383  27.840  21.999  1.00  0.00    -0.280 NA
ATOM     29  C   UNL A   1      29.027  26.301  23.796  1.00  0.00     0.001 A 
ATOM     30  C   UNL A   1      30.171  28.285  22.935  1.00  0.00     0.028 A 
ATOM     31  C   UNL A   1      29.075  27.713  23.449  1.00  0.00     0.002 A 
ENDBRANCH  22  23
ENDBRANCH   8  22
ENDBRANCH   5   8
ENDBRANCH   3   4
ENDBRANCH   2   3
ENDBRANCH   1   2
BRANCH   1  32
ATOM     32  C   UNL A   1      34.067  29.981  27.309  1.00  0.00     0.002 C 
BRANCH  32  33
ATOM     33  C   UNL A   1      33.225  30.987  26.510  1.00  0.00     0.021 C 
BRANCH  33  34
ATOM     34  C   UNL A   1      31.960  31.533  27.179  1.00  0.00     0.116 C 
BRANCH  34  35
ATOM     35  N   UNL A   1      32.002  32.985  27.374  1.00  0.00    -0.352 N 
ATOM     36  C   UNL A   1      32.832  33.813  28.104  1.00  0.00     0.251 C 
ATOM     37  H   UNL A   1      31.296  33.468  26.885  1.00  0.00     0.163 HD
ATOM     38  O   UNL A   1      32.410  34.924  28.425  1.00  0.00    -0.269 OA
BRANCH  36  39
ATOM     39  C   UNL A   1      34.211  33.423  28.482  1.00  0.00     0.039 A 
ATOM     40  C   UNL A   1      35.313  33.725  27.665  1.00  0.00     0.014 A 
ATOM     41  C   UNL A   1      34.413  32.650  29.613  1.00  0.00     0.014 A 
ATOM     42  C   UNL A   1      36.579  33.229  27.997  1.00  0.00     0.010 A 
ATOM     43  C   UNL A   1      35.666  32.321  30.045  1.00  0.00     0.010 A 
ATOM     44  C   UNL A   1      36.732  32.508  29.184  1.00  0.00    -0.014 A 
BRANCH  44  45
ATOM     45  C   UNL A   1      37.980  31.902  29.616  1.00  0.00     0.031 A 
ATOM     46  C   UNL A   1      38.198  30.514  29.171  1.00  0.00     0.074 A 
ATOM     47  C   UNL A   1      39.026  32.657  30.013  1.00  0.00     0.049 A 
ATOM     48  N   UNL A   1      38.269  29.462  29.914  1.00  0.00    -0.248 NA
ATOM     49  C   UNL A   1      38.203  30.245  27.727  1.00  0.00     0.031 C 
ATOM     50  C   UNL A   1      39.072  34.119  30.105  1.00  0.00     0.029 A 
ATOM     51  N   UNL A   1      40.318  32.291  30.246  1.00  0.00    -0.354 N 
ATOM     52  C   UNL A   1      38.553  28.423  29.038  1.00  0.00     0.074 A 
ATOM     53  C   UNL A   1      38.217  28.913  27.725  1.00  0.00     0.031 C 
ATOM     54  C   UNL A   1      40.362  34.512  30.143  1.00  0.00     0.029 A 
ATOM     55  C   UNL A   1      41.216  33.349  30.218  1.00  0.00     0.049 A 
ATOM     56  H   UNL A   1      40.589  31.360  30.419  1.00  0.00     0.167 HD
ATOM     57  C   UNL A   1      39.316  27.358  29.417  1.00  0.00     0.034 A 
ATOM     58  C   UNL A   1      42.569  33.288  30.200  1.00  0.00     0.034 A 
ATOM     59  C   UNL A   1      39.538  27.356  30.844  1.00  0.00     0.049 A 
ATOM     60  C   UNL A   1      42.973  31.950  30.684  1.00  0.00     0.074 A 
ATOM     61  C   UNL A   1      38.714  27.378  31.954  1.00  0.00     0.029 A 
ATOM     62  N   UNL A   1      40.781  27.734  31.297  1.00  0.00    -0.354 N 
ATOM     63  N   UNL A   1      42.824  31.543  31.913  1.00  0.00    -0.248 NA
ATOM     64  C   UNL A   1      43.146  30.900  29.692  1.00  0.00     0.031 C 
ATOM     65  C   UNL A   1      39.382  28.209  32.899  1.00  0.00     0.029 A 
ATOM     66  C   UNL A   1      40.605  28.597  32.350  1.00  0.00     0.049 A 
ATOM     67  H   UNL A   1      41.645  27.439  30.930  1.00  0.00     0.167 HD
ATOM     68  C   UNL A   1      42.378  30.238  31.779  1.00  0.00     0.074 A 
ATOM     69  C   UNL A   1      42.730  29.856  30.412  1.00  0.00     0.031 C 
ATOM     70  C   UNL A   1      41.496  29.697  32.670  1.00  0.00     0.034 A 
BRANCH  57  71
ATOM     71  C   UNL A   1      40.136  26.525  28.458  1.00  0.00     0.023 A 
ATOM     72  C   UNL A   1      39.825  25.195  28.123  1.00  0.00     0.031 A 
ATOM     73  C   UNL A   1      41.179  27.108  27.714  1.00  0.00     0.131 A 
ATOM     74  C   UNL A   1      40.548  24.478  27.163  1.00  0.00     0.055 A 
ATOM     75  C   UNL A   1      41.848  26.422  26.690  1.00  0.00     0.041 A 
ATOM     76  F   UNL A   1      41.548  28.381  27.923  1.00  0.00    -0.206 F 
ATOM     77  C   UNL A   1      41.542  25.095  26.417  1.00  0.00     0.022 A 
BRANCH  74  78
ATOM     78  S   UNL A   1      40.206  22.715  26.899  1.00  0.00     0.124 S 
ATOM     79  O   UNL A   1      41.212  22.362  25.904  1.00  0.00    -0.237 OA
ATOM     80  O   UNL A   1      40.416  22.168  28.237  1.00  0.00    -0.237 OA
ATOM     81  O   UNL A   1      38.820  22.700  26.441  1.00  0.00    -0.744 OA
ENDBRANCH  74  78
ENDBRANCH  57  71
BRANCH  58  82
ATOM     82  C   UNL A   1      43.464  34.079  29.322  1.00  0.00     0.023 A 
ATOM     83  C   UNL A   1      43.435  33.859  27.930  1.00  0.00     0.031 A 
ATOM     84  C   UNL A   1      44.565  34.773  29.851  1.00  0.00     0.131 A 
ATOM     85  C   UNL A   1      44.512  34.264  27.132  1.00  0.00     0.055 A 
ATOM     86  C   UNL A   1      45.626  35.200  29.045  1.00  0.00     0.041 A 
ATOM     87  F   UNL A   1      44.664  34.985  31.173  1.00  0.00    -0.206 F 
ATOM     88  C   UNL A   1      45.610  34.929  27.681  1.00  0.00     0.022 A 
BRANCH  85  89
ATOM     89  S   UNL A   1      44.566  33.876  25.366  1.00  0.00     0.124 S 
ATOM     90  O   UNL A   1      45.747  34.621  24.934  1.00  0.00    -0.237 OA
ATOM     91  O   UNL A   1      44.724  32.427  25.371  1.00  0.00    -0.237 OA
ATOM     92  O   UNL A   1      43.298  34.376  24.845  1.00  0.00    -0.744 OA
ENDBRANCH  85  89
ENDBRANCH  58  82
BRANCH  70  93
ATOM     93  C   UNL A   1      41.220  30.422  33.972  1.00  0.00     0.023 A 
ATOM     94  C   UNL A   1      40.206  31.396  33.956  1.00  0.00     0.031 A 
ATOM     95  C   UNL A   1      42.034  30.360  35.121  1.00  0.00     0.131 A 
ATOM     96  C   UNL A   1      40.059  32.288  35.025  1.00  0.00     0.055 A 
ATOM     97  C   UNL A   1      41.843  31.211  36.215  1.00  0.00     0.041 A 
ATOM     98  F   UNL A   1      43.087  29.539  35.196  1.00  0.00    -0.206 F 
ATOM     99  C   UNL A   1      40.863  32.195  36.164  1.00  0.00     0.022 A 
BRANCH  96 100
ATOM    100  S   UNL A   1      38.925  33.694  34.892  1.00  0.00     0.124 S 
ATOM    101  O   UNL A   1      39.357  34.322  33.646  1.00  0.00    -0.237 OA
ATOM    102  O   UNL A   1      37.619  33.038  34.842  1.00  0.00    -0.237 OA
ATOM    103  O   UNL A   1      39.179  34.469  36.102  1.00  0.00    -0.744 OA
ENDBRANCH  96 100
ENDBRANCH  70  93
ENDBRANCH  44  45
ENDBRANCH  36  39
ENDBRANCH  34  35
ENDBRANCH  33  34
ENDBRANCH  32  33
ENDBRANCH   1  32
TORSDOF 21
ENDMDL
MODEL 3
REMARK VINA RESULT:     -12.0      3.545      7.866
REMARK SMILES Cc1ccc(C)c(S(=O)(=O)N[C@H](CC2=c3ccccc3=NC2)C(=O)NCCCCCCNC(=O)c2ccc(-c3c4nc(c(-c5cc(S(=O)(=O)[O-])ccc5F)c5ccc([nH]5)c(-c5cc(S(=O)(=O)[O-])ccc5F)c5nc(c(-c6cc(S(=O)(=O)[O-])ccc6F)c6ccc3[nH]6)C=C5)C=C4)cc2)c1
REMARK SMILES IDX 28 1 27 2 26 3 25 4 23 5 24 6 12 8 11 9 8 11 9 12 10 13 7 14
REMARK SMILES IDX 1 15 2 16 3 17 98 18 4 19 5 20 6 21 13 22 14 23 15 24 22 25
REMARK SMILES IDX 16 26 20 27 21 28 17 29 19 30 18 31 29 32 30 33 31 34 32 35
REMARK SMILES IDX 33 36 34 38 35 39 36 40 97 41 37 42 96 43 38 44 39 45 40 46
REMARK SMILES IDX 90 47 41 48 95 49 89 50 91 51 42 52 94 53 88 54 87 55 43 57
REMARK SMILES IDX 75 58 55 59 74 60 56 61 59 62 73 63 92 64 57 65 58 66 72 68
REMARK SMILES IDX 93 69 60 70 44 71 45 72 53 73 46 74 52 75 54 76 51 77 47 78
REMARK SMILES IDX 48 79 49 80 50 81 76 82 77 83 85 84 78 85 84 86 86 87 83 88
REMARK SMILES IDX 79 89 80 90 81 91 82 92 61 93 62 94 70 95 63 96 69 97 71 98
REMARK SMILES IDX 68 99 64 100 65 101 66 102 67 103
REMARK H PARENT 25 7 11 10 32 37 91 56 59 67
REMARK Flexibility Score: inf
ROOT
ATOM      1  C   UNL A   1      35.904  23.653  23.999  1.00  0.00     0.002 C 
ENDROOT
BRANCH   1   2
ATOM      2  C   UNL A   1      34.556  23.926  23.323  1.00  0.00     0.021 C 
BRANCH   2   3
ATOM      3  C   UNL A   1      34.112  25.391  23.161  1.00  0.00     0.116 C 
BRANCH   3   4
ATOM      4  N   UNL A   1      33.786  26.099  24.392  1.00  0.00    -0.355 N 
ATOM      5  C   UNL A   1      32.631  26.307  25.095  1.00  0.00     0.238 C 
ATOM      6  O   UNL A   1      32.735  27.026  26.098  1.00  0.00    -0.273 OA
ATOM      7  H   UNL A   1      34.571  26.521  24.811  1.00  0.00     0.163 HD
BRANCH   5   8
ATOM      8  C   UNL A   1      31.266  25.712  24.708  1.00  0.00     0.163 C 
BRANCH   8   9
ATOM      9  N   UNL A   1      30.230  26.774  24.787  1.00  0.00    -0.198 NA
ATOM     10  H   UNL A   1      29.426  26.356  25.254  1.00  0.00     0.142 HD
BRANCH   9  11
ATOM     11  S   UNL A   1      29.639  27.529  23.427  1.00  0.00     0.241 S 
ATOM     12  O   UNL A   1      28.255  27.174  23.262  1.00  0.00    -0.207 OA
ATOM     13  O   UNL A   1      30.621  27.267  22.385  1.00  0.00    -0.207 OA
BRANCH  11  14
ATOM     14  C   UNL A   1      29.738  29.272  23.783  1.00  0.00     0.085 A 
ATOM     15  C   UNL A   1      31.551  31.502  26.284  1.00  0.00     0.044 C 
ATOM     16  C   UNL A   1      30.659  31.059  25.160  1.00  0.00    -0.050 A 
ATOM     17  C   UNL A   1      29.849  31.974  24.489  1.00  0.00     0.004 A 
ATOM     18  C   UNL A   1      30.594  29.708  24.805  1.00  0.00     0.025 A 
ATOM     19  C   UNL A   1      29.026  31.554  23.443  1.00  0.00     0.005 A 
ATOM     20  C   UNL A   1      28.967  30.201  23.059  1.00  0.00    -0.031 A 
ATOM     21  C   UNL A   1      28.093  29.856  21.887  1.00  0.00     0.046 C 
ENDBRANCH  11  14
ENDBRANCH   9  11
ENDBRANCH   8   9
BRANCH   8  22
ATOM     22  C   UNL A   1      30.797  24.436  25.460  1.00  0.00     0.063 C 
BRANCH  22  23
ATOM     23  C   UNL A   1      31.792  23.370  25.841  1.00  0.00    -0.037 C 
ATOM     24  C   UNL A   1      32.217  22.276  25.205  1.00  0.00     0.001 A 
ATOM     25  C   UNL A   1      32.277  23.312  27.252  1.00  0.00     0.174 C 
ATOM     26  C   UNL A   1      31.929  21.598  23.982  1.00  0.00     0.010 A 
ATOM     27  C   UNL A   1      33.166  21.690  26.171  1.00  0.00     0.065 A 
ATOM     28  N   UNL A   1      33.270  22.230  27.344  1.00  0.00    -0.280 NA
ATOM     29  C   UNL A   1      32.577  20.449  23.709  1.00  0.00     0.001 A 
ATOM     30  C   UNL A   1      33.952  20.525  25.732  1.00  0.00     0.028 A 
ATOM     31  C   UNL A   1      33.628  19.937  24.573  1.00  0.00     0.002 A 
ENDBRANCH  22  23
ENDBRANCH   8  22
ENDBRANCH   5   8
ENDBRANCH   3   4
ENDBRANCH   2   3
ENDBRANCH   1   2
BRANCH   1  32
ATOM     32  C   UNL A   1      36.660  22.415  23.523  1.00  0.00     0.002 C 
BRANCH  32  33
ATOM     33  C   UNL A   1      37.364  21.557  24.585  1.00  0.00     0.021 C 
BRANCH  33  34
ATOM     34  C   UNL A   1      38.069  22.292  25.729  1.00  0.00     0.116 C 
BRANCH  34  35
ATOM     35  N   UNL A   1      39.469  21.889  25.887  1.00  0.00    -0.352 N 
ATOM     36  C   UNL A   1      40.612  22.580  26.238  1.00  0.00     0.251 C 
ATOM     37  H   UNL A   1      39.627  20.933  25.707  1.00  0.00     0.163 HD
ATOM     38  O   UNL A   1      41.701  22.115  25.901  1.00  0.00    -0.269 OA
BRANCH  36  39
ATOM     39  C   UNL A   1      40.572  23.834  27.028  1.00  0.00     0.039 A 
ATOM     40  C   UNL A   1      39.528  24.762  26.886  1.00  0.00     0.014 A 
ATOM     41  C   UNL A   1      41.641  24.155  27.848  1.00  0.00     0.014 A 
ATOM     42  C   UNL A   1      39.594  25.989  27.557  1.00  0.00     0.010 A 
ATOM     43  C   UNL A   1      41.626  25.262  28.649  1.00  0.00     0.010 A 
ATOM     44  C   UNL A   1      40.666  26.230  28.419  1.00  0.00    -0.014 A 
BRANCH  44  45
ATOM     45  C   UNL A   1      40.874  27.478  29.135  1.00  0.00     0.031 A 
ATOM     46  C   UNL A   1      41.792  28.432  28.490  1.00  0.00     0.074 A 
ATOM     47  C   UNL A   1      39.995  27.908  30.065  1.00  0.00     0.049 A 
ATOM     48  N   UNL A   1      42.938  28.827  28.932  1.00  0.00    -0.248 NA
ATOM     49  C   UNL A   1      41.465  28.898  27.136  1.00  0.00     0.031 C 
ATOM     50  C   UNL A   1      38.780  27.222  30.512  1.00  0.00     0.029 A 
ATOM     51  N   UNL A   1      39.908  29.122  30.676  1.00  0.00    -0.354 N 
ATOM     52  C   UNL A   1      43.372  29.770  28.009  1.00  0.00     0.074 A 
ATOM     53  C   UNL A   1      42.582  29.553  26.823  1.00  0.00     0.031 C 
ATOM     54  C   UNL A   1      37.978  28.114  31.128  1.00  0.00     0.029 A 
ATOM     55  C   UNL A   1      38.667  29.380  31.242  1.00  0.00     0.049 A 
ATOM     56  H   UNL A   1      40.658  29.759  30.713  1.00  0.00     0.167 HD
ATOM     57  C   UNL A   1      44.130  30.840  28.384  1.00  0.00     0.034 A 
ATOM     58  C   UNL A   1      38.203  30.557  31.724  1.00  0.00     0.034 A 
ATOM     59  C   UNL A   1      44.595  30.700  29.745  1.00  0.00     0.049 A 
ATOM     60  C   UNL A   1      39.366  31.431  31.993  1.00  0.00     0.074 A 
ATOM     61  C   UNL A   1      45.311  29.737  30.430  1.00  0.00     0.029 A 
ATOM     62  N   UNL A   1      43.982  31.465  30.710  1.00  0.00    -0.354 N 
ATOM     63  N   UNL A   1      40.236  31.218  32.939  1.00  0.00    -0.248 NA
ATOM     64  C   UNL A   1      39.807  32.311  30.922  1.00  0.00     0.031 C 
ATOM     65  C   UNL A   1      44.721  29.684  31.726  1.00  0.00     0.029 A 
ATOM     66  C   UNL A   1      43.723  30.658  31.790  1.00  0.00     0.049 A 
ATOM     67  H   UNL A   1      43.766  32.423  30.639  1.00  0.00     0.167 HD
ATOM     68  C   UNL A   1      41.453  31.500  32.340  1.00  0.00     0.074 A 
ATOM     69  C   UNL A   1      41.120  32.296  31.160  1.00  0.00     0.031 C 
ATOM     70  C   UNL A   1      42.583  30.809  32.675  1.00  0.00     0.034 A 
BRANCH  57  71
ATOM     71  C   UNL A   1      44.157  32.156  27.640  1.00  0.00     0.023 A 
ATOM     72  C   UNL A   1      43.512  33.320  28.098  1.00  0.00     0.031 A 
ATOM     73  C   UNL A   1      44.983  32.325  26.513  1.00  0.00     0.131 A 
ATOM     74  C   UNL A   1      43.630  34.547  27.436  1.00  0.00     0.055 A 
ATOM     75  C   UNL A   1      45.174  33.572  25.900  1.00  0.00     0.041 A 
ATOM     76  F   UNL A   1      45.673  31.294  26.002  1.00  0.00    -0.206 F 
ATOM     77  C   UNL A   1      44.486  34.690  26.353  1.00  0.00     0.022 A 
BRANCH  74  78
ATOM     78  S   UNL A   1      42.640  35.969  27.978  1.00  0.00     0.124 S 
ATOM     79  O   UNL A   1      41.518  35.315  28.642  1.00  0.00    -0.237 OA
ATOM     80  O   UNL A   1      43.577  36.667  28.854  1.00  0.00    -0.237 OA
ATOM     81  O   UNL A   1      42.330  36.664  26.732  1.00  0.00    -0.744 OA
ENDBRANCH  74  78
ENDBRANCH  57  71
BRANCH  58  82
ATOM     82  C   UNL A   1      36.863  31.136  31.465  1.00  0.00     0.023 A 
ATOM     83  C   UNL A   1      36.432  31.309  30.135  1.00  0.00     0.031 A 
ATOM     84  C   UNL A   1      36.169  31.827  32.473  1.00  0.00     0.131 A 
ATOM     85  C   UNL A   1      35.391  32.200  29.844  1.00  0.00     0.055 A 
ATOM     86  C   UNL A   1      35.111  32.695  32.179  1.00  0.00     0.041 A 
ATOM     87  F   UNL A   1      36.553  31.726  33.755  1.00  0.00    -0.206 F 
ATOM     88  C   UNL A   1      34.731  32.898  30.857  1.00  0.00     0.022 A 
BRANCH  85  89
ATOM     89  S   UNL A   1      34.907  32.546  28.136  1.00  0.00     0.124 S 
ATOM     90  O   UNL A   1      34.715  31.200  27.602  1.00  0.00    -0.237 OA
ATOM     91  O   UNL A   1      33.681  33.317  28.310  1.00  0.00    -0.237 OA
ATOM     92  O   UNL A   1      36.041  33.274  27.577  1.00  0.00    -0.744 OA
ENDBRANCH  85  89
ENDBRANCH  58  82
BRANCH  70  93
ATOM     93  C   UNL A   1      42.573  29.926  33.908  1.00  0.00     0.023 A 
ATOM     94  C   UNL A   1      43.104  30.475  35.088  1.00  0.00     0.031 A 
ATOM     95  C   UNL A   1      42.286  28.546  33.912  1.00  0.00     0.131 A 
ATOM     96  C   UNL A   1      43.375  29.659  36.193  1.00  0.00     0.055 A 
ATOM     97  C   UNL A   1      42.498  27.747  35.040  1.00  0.00     0.041 A 
ATOM     98  F   UNL A   1      41.873  27.908  32.811  1.00  0.00    -0.206 F 
ATOM     99  C   UNL A   1      43.062  28.298  36.184  1.00  0.00     0.022 A 
BRANCH  96 100
ATOM    100  S   UNL A   1      44.288  30.317  37.612  1.00  0.00     0.124 S 
ATOM    101  O   UNL A   1      45.353  31.081  36.966  1.00  0.00    -0.237 OA
ATOM    102  O   UNL A   1      43.271  31.115  38.295  1.00  0.00    -0.237 OA
ATOM    103  O   UNL A   1      44.724  29.127  38.335  1.00  0.00    -0.744 OA
ENDBRANCH  96 100
ENDBRANCH  70  93
ENDBRANCH  44  45
ENDBRANCH  36  39
ENDBRANCH  34  35
ENDBRANCH  33  34
ENDBRANCH  32  33
ENDBRANCH   1  32
TORSDOF 21
ENDMDL
