MODEL 1
REMARK VINA RESULT:     -12.6      0.000      0.000
REMARK SMILES COc1ccc(-c2ncn(CC(=O)NCCCCCCNC(=O)c3ccc(-c4c5nc(c(-c6cc(S(=O)(=O)[O-])ccc6F)c6ccc([nH]6)c(-c6cc(S(=O)(=O)[O-])ccc6F)c6nc(c(-c7cc(S(=O)(=O)[O-])ccc7F)c7ccc4[nH]7)C=C6)C=C5)cc3)c2-c2ccc(OC)cc2)cc1
REMARK SMILES IDX 17 1 16 2 15 3 14 4 12 5 13 6 11 8 10 9 7 10 8 11 87 12 9 13
REMARK SMILES IDX 6 14 3 15 4 16 97 17 5 18 96 19 2 20 1 21 88 22 89 23 95 24
REMARK SMILES IDX 90 25 94 26 91 27 92 28 93 29 18 30 19 31 20 32 21 33 22 34
REMARK SMILES IDX 23 36 24 37 25 38 86 39 26 40 85 41 27 42 28 43 29 44 79 45
REMARK SMILES IDX 30 46 84 47 78 48 80 49 31 50 83 51 77 52 76 53 32 55 64 56
REMARK SMILES IDX 44 57 63 58 45 59 48 60 62 61 81 62 46 63 47 64 61 66 82 67
REMARK SMILES IDX 49 68 33 69 34 70 42 71 35 72 41 73 43 74 40 75 36 76 37 77
REMARK SMILES IDX 38 78 39 79 65 80 66 81 74 82 67 83 73 84 75 85 72 86 68 87
REMARK SMILES IDX 69 88 70 89 71 90 50 91 51 92 59 93 52 94 58 95 60 96 57 97
REMARK SMILES IDX 53 98 54 99 55 100 56 101
REMARK H PARENT 14 7 21 35 80 54 48 65
REMARK Flexibility Score: inf
ROOT
ATOM      1  C   UNL A   1      34.694  20.903  24.639  1.00  0.00     0.002 C 
ENDROOT
BRANCH   1   2
ATOM      2  C   UNL A   1      33.578  20.238  25.453  1.00  0.00     0.021 C 
BRANCH   2   3
ATOM      3  C   UNL A   1      32.218  20.894  25.233  1.00  0.00     0.116 C 
BRANCH   3   4
ATOM      4  N   UNL A   1      31.824  21.705  26.365  1.00  0.00    -0.355 N 
ATOM      5  C   UNL A   1      31.971  23.046  26.550  1.00  0.00     0.239 C 
ATOM      6  O   UNL A   1      31.443  23.549  27.546  1.00  0.00    -0.273 OA
ATOM      7  H   UNL A   1      31.390  21.220  27.103  1.00  0.00     0.163 HD
BRANCH   5   8
ATOM      8  C   UNL A   1      32.676  23.898  25.519  1.00  0.00     0.223 C 
BRANCH   8   9
ATOM      9  N   UNL A   1      31.800  24.627  24.614  1.00  0.00    -0.321 N 
ATOM     10  C   UNL A   1      30.599  26.115  23.574  1.00  0.00     0.096 A 
ATOM     11  N   UNL A   1      30.190  24.892  23.107  1.00  0.00    -0.236 NA
ATOM     12  C   UNL A   1      31.597  25.989  24.534  1.00  0.00     0.076 A 
ATOM     13  C   UNL A   1      30.912  24.020  23.763  1.00  0.00     0.201 A 
BRANCH  10  14
ATOM     14  C   UNL A   1      29.926  27.351  23.242  1.00  0.00     0.003 A 
ATOM     15  C   UNL A   1      28.616  29.617  22.261  1.00  0.00     0.118 A 
ATOM     16  C   UNL A   1      27.914  28.667  23.006  1.00  0.00     0.047 A 
ATOM     17  C   UNL A   1      29.989  29.475  22.074  1.00  0.00     0.047 A 
ATOM     18  C   UNL A   1      28.562  27.531  23.491  1.00  0.00     0.014 A 
ATOM     19  C   UNL A   1      30.644  28.345  22.567  1.00  0.00     0.014 A 
BRANCH  15  20
ATOM     20  O   UNL A   1      27.883  30.684  21.824  1.00  0.00    -0.497 OA
ATOM     21  C   UNL A   1      28.529  31.948  21.913  1.00  0.00     0.278 C 
ENDBRANCH  15  20
ENDBRANCH  10  14
BRANCH  12  22
ATOM     22  C   UNL A   1      32.187  26.980  25.429  1.00  0.00     0.001 A 
ATOM     23  C   UNL A   1      31.520  27.431  26.568  1.00  0.00     0.014 A 
ATOM     24  C   UNL A   1      33.452  27.502  25.137  1.00  0.00     0.014 A 
ATOM     25  C   UNL A   1      32.061  28.460  27.340  1.00  0.00     0.047 A 
ATOM     26  C   UNL A   1      34.015  28.500  25.935  1.00  0.00     0.047 A 
ATOM     27  C   UNL A   1      33.310  28.999  27.030  1.00  0.00     0.118 A 
BRANCH  27  28
ATOM     28  O   UNL A   1      33.727  30.004  27.857  1.00  0.00    -0.497 OA
ATOM     29  C   UNL A   1      33.422  31.327  27.433  1.00  0.00     0.278 C 
ENDBRANCH  27  28
ENDBRANCH  12  22
ENDBRANCH   8   9
ENDBRANCH   5   8
ENDBRANCH   3   4
ENDBRANCH   2   3
ENDBRANCH   1   2
BRANCH   1  30
ATOM     30  C   UNL A   1      36.017  21.073  25.401  1.00  0.00     0.002 C 
BRANCH  30  31
ATOM     31  C   UNL A   1      37.125  20.086  25.005  1.00  0.00     0.021 C 
BRANCH  31  32
ATOM     32  C   UNL A   1      38.511  20.639  25.279  1.00  0.00     0.116 C 
BRANCH  32  33
ATOM     33  N   UNL A   1      39.448  19.577  25.650  1.00  0.00    -0.352 N 
ATOM     34  C   UNL A   1      40.817  19.680  25.882  1.00  0.00     0.251 C 
ATOM     35  H   UNL A   1      39.062  18.677  25.746  1.00  0.00     0.163 HD
ATOM     36  O   UNL A   1      41.546  18.726  25.788  1.00  0.00    -0.269 OA
BRANCH  34  37
ATOM     37  C   UNL A   1      41.308  20.990  26.365  1.00  0.00     0.039 A 
ATOM     38  C   UNL A   1      42.033  21.922  25.618  1.00  0.00     0.014 A 
ATOM     39  C   UNL A   1      41.111  21.234  27.708  1.00  0.00     0.014 A 
ATOM     40  C   UNL A   1      42.558  23.041  26.302  1.00  0.00     0.010 A 
ATOM     41  C   UNL A   1      41.125  22.525  28.105  1.00  0.00     0.010 A 
ATOM     42  C   UNL A   1      42.204  23.243  27.650  1.00  0.00    -0.014 A 
BRANCH  42  43
ATOM     43  C   UNL A   1      42.410  24.442  28.476  1.00  0.00     0.031 A 
ATOM     44  C   UNL A   1      41.290  25.409  28.164  1.00  0.00     0.074 A 
ATOM     45  C   UNL A   1      43.309  24.482  29.516  1.00  0.00     0.049 A 
ATOM     46  N   UNL A   1      41.332  26.331  27.252  1.00  0.00    -0.248 NA
ATOM     47  C   UNL A   1      39.881  25.111  28.554  1.00  0.00     0.031 C 
ATOM     48  C   UNL A   1      44.303  23.486  29.968  1.00  0.00     0.029 A 
ATOM     49  N   UNL A   1      43.541  25.486  30.440  1.00  0.00    -0.354 N 
ATOM     50  C   UNL A   1      40.100  26.974  27.334  1.00  0.00     0.074 A 
ATOM     51  C   UNL A   1      39.193  25.982  27.808  1.00  0.00     0.031 C 
ATOM     52  C   UNL A   1      44.828  23.827  31.184  1.00  0.00     0.029 A 
ATOM     53  C   UNL A   1      44.333  25.135  31.581  1.00  0.00     0.049 A 
ATOM     54  H   UNL A   1      43.178  26.393  30.319  1.00  0.00     0.167 HD
ATOM     55  C   UNL A   1      40.057  28.330  27.480  1.00  0.00     0.034 A 
ATOM     56  C   UNL A   1      44.639  25.934  32.679  1.00  0.00     0.034 A 
ATOM     57  C   UNL A   1      41.365  28.872  27.172  1.00  0.00     0.049 A 
ATOM     58  C   UNL A   1      44.384  27.328  32.209  1.00  0.00     0.074 A 
ATOM     59  C   UNL A   1      42.189  28.866  26.066  1.00  0.00     0.029 A 
ATOM     60  N   UNL A   1      42.175  29.078  28.263  1.00  0.00    -0.354 N 
ATOM     61  N   UNL A   1      45.101  27.871  31.258  1.00  0.00    -0.248 NA
ATOM     62  C   UNL A   1      43.000  27.784  32.305  1.00  0.00     0.031 C 
ATOM     63  C   UNL A   1      43.495  28.615  26.586  1.00  0.00     0.029 A 
ATOM     64  C   UNL A   1      43.451  28.670  27.981  1.00  0.00     0.049 A 
ATOM     65  H   UNL A   1      41.881  29.464  29.121  1.00  0.00     0.167 HD
ATOM     66  C   UNL A   1      44.167  28.356  30.353  1.00  0.00     0.074 A 
ATOM     67  C   UNL A   1      42.878  28.269  31.062  1.00  0.00     0.031 C 
ATOM     68  C   UNL A   1      44.443  28.417  29.012  1.00  0.00     0.034 A 
BRANCH  55  69
ATOM     69  C   UNL A   1      39.095  29.097  28.380  1.00  0.00     0.023 A 
ATOM     70  C   UNL A   1      39.235  28.874  29.765  1.00  0.00     0.031 A 
ATOM     71  C   UNL A   1      37.905  29.758  27.992  1.00  0.00     0.131 A 
ATOM     72  C   UNL A   1      38.200  29.183  30.665  1.00  0.00     0.055 A 
ATOM     73  C   UNL A   1      36.902  30.119  28.901  1.00  0.00     0.041 A 
ATOM     74  F   UNL A   1      37.595  30.022  26.720  1.00  0.00    -0.206 F 
ATOM     75  C   UNL A   1      37.033  29.807  30.243  1.00  0.00     0.022 A 
BRANCH  72  76
ATOM     76  S   UNL A   1      38.345  28.587  32.368  1.00  0.00     0.124 S 
ATOM     77  O   UNL A   1      38.660  27.178  32.157  1.00  0.00    -0.237 OA
ATOM     78  O   UNL A   1      39.426  29.419  32.886  1.00  0.00    -0.237 OA
ATOM     79  O   UNL A   1      37.025  28.856  32.934  1.00  0.00    -0.744 OA
ENDBRANCH  72  76
ENDBRANCH  55  69
BRANCH  56  80
ATOM     80  C   UNL A   1      44.638  25.608  34.181  1.00  0.00     0.023 A 
ATOM     81  C   UNL A   1      45.239  26.358  35.260  1.00  0.00     0.031 A 
ATOM     82  C   UNL A   1      43.731  24.611  34.587  1.00  0.00     0.131 A 
ATOM     83  C   UNL A   1      44.924  26.063  36.635  1.00  0.00     0.055 A 
ATOM     84  C   UNL A   1      43.403  24.362  35.924  1.00  0.00     0.041 A 
ATOM     85  F   UNL A   1      43.058  23.889  33.680  1.00  0.00    -0.206 F 
ATOM     86  C   UNL A   1      43.989  25.080  36.950  1.00  0.00     0.022 A 
BRANCH  83  87
ATOM     87  S   UNL A   1      45.686  26.922  38.094  1.00  0.00     0.124 S 
ATOM     88  O   UNL A   1      46.546  27.919  37.468  1.00  0.00    -0.237 OA
ATOM     89  O   UNL A   1      44.530  27.426  38.823  1.00  0.00    -0.237 OA
ATOM     90  O   UNL A   1      46.415  25.855  38.789  1.00  0.00    -0.744 OA
ENDBRANCH  83  87
ENDBRANCH  56  80
BRANCH  68  91
ATOM     91  C   UNL A   1      45.869  28.177  28.544  1.00  0.00     0.023 A 
ATOM     92  C   UNL A   1      46.447  26.952  28.114  1.00  0.00     0.031 A 
ATOM     93  C   UNL A   1      46.654  29.336  28.434  1.00  0.00     0.131 A 
ATOM     94  C   UNL A   1      47.778  26.938  27.627  1.00  0.00     0.055 A 
ATOM     95  C   UNL A   1      47.942  29.321  27.912  1.00  0.00     0.041 A 
ATOM     96  F   UNL A   1      46.154  30.527  28.802  1.00  0.00    -0.206 F 
ATOM     97  C   UNL A   1      48.515  28.121  27.518  1.00  0.00     0.022 A 
BRANCH  94  98
ATOM     98  S   UNL A   1      48.625  25.373  27.197  1.00  0.00     0.124 S 
ATOM     99  O   UNL A   1      49.756  25.342  28.116  1.00  0.00    -0.237 OA
ATOM    100  O   UNL A   1      47.588  24.370  27.427  1.00  0.00    -0.237 OA
ATOM    101  O   UNL A   1      48.989  25.556  25.790  1.00  0.00    -0.744 OA
ENDBRANCH  94  98
ENDBRANCH  68  91
ENDBRANCH  42  43
ENDBRANCH  34  37
ENDBRANCH  32  33
ENDBRANCH  31  32
ENDBRANCH  30  31
ENDBRANCH   1  30
TORSDOF 21
ENDMDL
MODEL 2
REMARK VINA RESULT:     -11.9      3.505      7.232
REMARK SMILES COc1ccc(-c2ncn(CC(=O)NCCCCCCNC(=O)c3ccc(-c4c5nc(c(-c6cc(S(=O)(=O)[O-])ccc6F)c6ccc([nH]6)c(-c6cc(S(=O)(=O)[O-])ccc6F)c6nc(c(-c7cc(S(=O)(=O)[O-])ccc7F)c7ccc4[nH]7)C=C6)C=C5)cc3)c2-c2ccc(OC)cc2)cc1
REMARK SMILES IDX 17 1 16 2 15 3 14 4 12 5 13 6 11 8 10 9 7 10 8 11 87 12 9 13
REMARK SMILES IDX 6 14 3 15 4 16 97 17 5 18 96 19 2 20 1 21 88 22 89 23 95 24
REMARK SMILES IDX 90 25 94 26 91 27 92 28 93 29 18 30 19 31 20 32 21 33 22 34
REMARK SMILES IDX 23 36 24 37 25 38 86 39 26 40 85 41 27 42 28 43 29 44 79 45
REMARK SMILES IDX 30 46 84 47 78 48 80 49 31 50 83 51 77 52 76 53 32 55 64 56
REMARK SMILES IDX 44 57 63 58 45 59 48 60 62 61 81 62 46 63 47 64 61 66 82 67
REMARK SMILES IDX 49 68 33 69 34 70 42 71 35 72 41 73 43 74 40 75 36 76 37 77
REMARK SMILES IDX 38 78 39 79 65 80 66 81 74 82 67 83 73 84 75 85 72 86 68 87
REMARK SMILES IDX 69 88 70 89 71 90 50 91 51 92 59 93 52 94 58 95 60 96 57 97
REMARK SMILES IDX 53 98 54 99 55 100 56 101
REMARK H PARENT 14 7 21 35 80 54 48 65
REMARK Flexibility Score: inf
ROOT
ATOM      1  C   UNL A   1      35.646  21.531  24.713  1.00  0.00     0.002 C 
ENDROOT
BRANCH   1   2
ATOM      2  C   UNL A   1      34.620  20.565  25.314  1.00  0.00     0.021 C 
BRANCH   2   3
ATOM      3  C   UNL A   1      33.180  20.982  25.027  1.00  0.00     0.116 C 
BRANCH   3   4
ATOM      4  N   UNL A   1      32.543  21.549  26.196  1.00  0.00    -0.355 N 
ATOM      5  C   UNL A   1      32.380  22.859  26.531  1.00  0.00     0.239 C 
ATOM      6  O   UNL A   1      31.689  23.116  27.522  1.00  0.00    -0.273 OA
ATOM      7  H   UNL A   1      32.178  20.898  26.837  1.00  0.00     0.163 HD
BRANCH   5   8
ATOM      8  C   UNL A   1      32.949  23.959  25.663  1.00  0.00     0.223 C 
BRANCH   8   9
ATOM      9  N   UNL A   1      31.990  24.610  24.783  1.00  0.00    -0.321 N 
ATOM     10  C   UNL A   1      30.665  25.999  23.756  1.00  0.00     0.096 A 
ATOM     11  N   UNL A   1      30.286  24.740  23.363  1.00  0.00    -0.236 NA
ATOM     12  C   UNL A   1      31.721  25.957  24.659  1.00  0.00     0.076 A 
ATOM     13  C   UNL A   1      31.084  23.929  24.010  1.00  0.00     0.201 A 
BRANCH  10  14
ATOM     14  C   UNL A   1      29.919  27.190  23.414  1.00  0.00     0.003 A 
ATOM     15  C   UNL A   1      28.484  29.369  22.415  1.00  0.00     0.118 A 
ATOM     16  C   UNL A   1      27.829  28.369  23.137  1.00  0.00     0.047 A 
ATOM     17  C   UNL A   1      29.867  29.321  22.260  1.00  0.00     0.047 A 
ATOM     18  C   UNL A   1      28.541  27.276  23.632  1.00  0.00     0.014 A 
ATOM     19  C   UNL A   1      30.584  28.235  22.763  1.00  0.00     0.014 A 
BRANCH  15  20
ATOM     20  O   UNL A   1      27.691  30.388  21.966  1.00  0.00    -0.497 OA
ATOM     21  C   UNL A   1      27.769  31.598  22.711  1.00  0.00     0.278 C 
ENDBRANCH  15  20
ENDBRANCH  10  14
BRANCH  12  22
ATOM     22  C   UNL A   1      32.315  27.009  25.478  1.00  0.00     0.001 A 
ATOM     23  C   UNL A   1      31.720  27.444  26.663  1.00  0.00     0.014 A 
ATOM     24  C   UNL A   1      33.509  27.610  25.063  1.00  0.00     0.014 A 
ATOM     25  C   UNL A   1      32.253  28.528  27.362  1.00  0.00     0.047 A 
ATOM     26  C   UNL A   1      34.068  28.665  25.788  1.00  0.00     0.047 A 
ATOM     27  C   UNL A   1      33.428  29.143  26.931  1.00  0.00     0.118 A 
BRANCH  27  28
ATOM     28  O   UNL A   1      33.844  30.197  27.696  1.00  0.00    -0.497 OA
ATOM     29  C   UNL A   1      35.229  30.227  28.018  1.00  0.00     0.278 C 
ENDBRANCH  27  28
ENDBRANCH  12  22
ENDBRANCH   8   9
ENDBRANCH   5   8
ENDBRANCH   3   4
ENDBRANCH   2   3
ENDBRANCH   1   2
BRANCH   1  30
ATOM     30  C   UNL A   1      36.527  22.243  25.752  1.00  0.00     0.002 C 
BRANCH  30  31
ATOM     31  C   UNL A   1      36.851  23.710  25.432  1.00  0.00     0.021 C 
BRANCH  31  32
ATOM     32  C   UNL A   1      38.124  24.178  26.110  1.00  0.00     0.116 C 
BRANCH  32  33
ATOM     33  N   UNL A   1      38.777  23.087  26.836  1.00  0.00    -0.352 N 
ATOM     34  C   UNL A   1      40.026  23.089  27.451  1.00  0.00     0.251 C 
ATOM     35  H   UNL A   1      38.269  22.247  26.897  1.00  0.00     0.163 HD
ATOM     36  O   UNL A   1      40.626  22.066  27.664  1.00  0.00    -0.269 OA
BRANCH  34  37
ATOM     37  C   UNL A   1      40.522  24.396  27.934  1.00  0.00     0.039 A 
ATOM     38  C   UNL A   1      41.861  24.784  28.030  1.00  0.00     0.014 A 
ATOM     39  C   UNL A   1      39.555  25.246  28.431  1.00  0.00     0.014 A 
ATOM     40  C   UNL A   1      42.142  26.010  28.673  1.00  0.00     0.010 A 
ATOM     41  C   UNL A   1      39.857  26.562  28.470  1.00  0.00     0.010 A 
ATOM     42  C   UNL A   1      41.072  26.845  29.045  1.00  0.00    -0.014 A 
BRANCH  42  43
ATOM     43  C   UNL A   1      41.120  28.249  29.481  1.00  0.00     0.031 A 
ATOM     44  C   UNL A   1      42.212  28.935  28.692  1.00  0.00     0.074 A 
ATOM     45  C   UNL A   1      40.138  28.820  30.256  1.00  0.00     0.049 A 
ATOM     46  N   UNL A   1      43.452  29.034  29.061  1.00  0.00    -0.248 NA
ATOM     47  C   UNL A   1      42.076  29.164  27.223  1.00  0.00     0.031 C 
ATOM     48  C   UNL A   1      38.953  28.220  30.905  1.00  0.00     0.029 A 
ATOM     49  N   UNL A   1      39.988  30.136  30.657  1.00  0.00    -0.354 N 
ATOM     50  C   UNL A   1      44.076  29.747  28.041  1.00  0.00     0.074 A 
ATOM     51  C   UNL A   1      43.334  29.437  26.863  1.00  0.00     0.031 C 
ATOM     52  C   UNL A   1      38.110  29.184  31.384  1.00  0.00     0.029 A 
ATOM     53  C   UNL A   1      38.719  30.494  31.217  1.00  0.00     0.049 A 
ATOM     54  H   UNL A   1      40.716  30.792  30.560  1.00  0.00     0.167 HD
ATOM     55  C   UNL A   1      44.795  30.865  28.344  1.00  0.00     0.034 A 
ATOM     56  C   UNL A   1      38.295  31.758  31.618  1.00  0.00     0.034 A 
ATOM     57  C   UNL A   1      45.042  30.887  29.772  1.00  0.00     0.049 A 
ATOM     58  C   UNL A   1      39.556  32.539  31.785  1.00  0.00     0.074 A 
ATOM     59  C   UNL A   1      45.678  30.051  30.666  1.00  0.00     0.029 A 
ATOM     60  N   UNL A   1      44.142  31.629  30.501  1.00  0.00    -0.354 N 
ATOM     61  N   UNL A   1      40.434  32.232  32.707  1.00  0.00    -0.248 NA
ATOM     62  C   UNL A   1      40.093  33.141  30.569  1.00  0.00     0.031 C 
ATOM     63  C   UNL A   1      44.817  30.011  31.804  1.00  0.00     0.029 A 
ATOM     64  C   UNL A   1      43.802  30.957  31.644  1.00  0.00     0.049 A 
ATOM     65  H   UNL A   1      43.795  32.513  30.239  1.00  0.00     0.167 HD
ATOM     66  C   UNL A   1      41.639  32.147  32.024  1.00  0.00     0.074 A 
ATOM     67  C   UNL A   1      41.359  32.722  30.697  1.00  0.00     0.031 C 
ATOM     68  C   UNL A   1      42.627  31.289  32.432  1.00  0.00     0.034 A 
BRANCH  55  69
ATOM     69  C   UNL A   1      44.808  32.159  27.538  1.00  0.00     0.023 A 
ATOM     70  C   UNL A   1      44.273  33.293  28.183  1.00  0.00     0.031 A 
ATOM     71  C   UNL A   1      45.007  32.296  26.144  1.00  0.00     0.131 A 
ATOM     72  C   UNL A   1      43.859  34.422  27.455  1.00  0.00     0.055 A 
ATOM     73  C   UNL A   1      44.649  33.447  25.431  1.00  0.00     0.041 A 
ATOM     74  F   UNL A   1      45.477  31.312  25.371  1.00  0.00    -0.206 F 
ATOM     75  C   UNL A   1      44.045  34.509  26.081  1.00  0.00     0.022 A 
BRANCH  72  76
ATOM     76  S   UNL A   1      42.910  35.696  28.324  1.00  0.00     0.124 S 
ATOM     77  O   UNL A   1      43.714  36.884  28.066  1.00  0.00    -0.237 OA
ATOM     78  O   UNL A   1      41.622  35.628  27.642  1.00  0.00    -0.237 OA
ATOM     79  O   UNL A   1      42.908  35.229  29.709  1.00  0.00    -0.744 OA
ENDBRANCH  72  76
ENDBRANCH  55  69
BRANCH  56  80
ATOM     80  C   UNL A   1      36.959  32.480  31.389  1.00  0.00     0.023 A 
ATOM     81  C   UNL A   1      36.429  33.012  30.153  1.00  0.00     0.031 A 
ATOM     82  C   UNL A   1      36.026  32.387  32.438  1.00  0.00     0.131 A 
ATOM     83  C   UNL A   1      35.052  33.423  30.051  1.00  0.00     0.055 A 
ATOM     84  C   UNL A   1      34.682  32.751  32.314  1.00  0.00     0.041 A 
ATOM     85  F   UNL A   1      36.376  31.850  33.617  1.00  0.00    -0.206 F 
ATOM     86  C   UNL A   1      34.186  33.265  31.130  1.00  0.00     0.022 A 
BRANCH  83  87
ATOM     87  S   UNL A   1      34.290  34.175  28.534  1.00  0.00     0.124 S 
ATOM     88  O   UNL A   1      33.131  33.322  28.298  1.00  0.00    -0.237 OA
ATOM     89  O   UNL A   1      34.015  35.545  28.946  1.00  0.00    -0.237 OA
ATOM     90  O   UNL A   1      35.338  34.053  27.516  1.00  0.00    -0.744 OA
ENDBRANCH  83  87
ENDBRANCH  56  80
BRANCH  68  91
ATOM     91  C   UNL A   1      42.493  30.603  33.782  1.00  0.00     0.023 A 
ATOM     92  C   UNL A   1      42.179  29.241  34.035  1.00  0.00     0.031 A 
ATOM     93  C   UNL A   1      42.828  31.405  34.885  1.00  0.00     0.131 A 
ATOM     94  C   UNL A   1      42.183  28.757  35.367  1.00  0.00     0.055 A 
ATOM     95  C   UNL A   1      42.876  30.912  36.182  1.00  0.00     0.041 A 
ATOM     96  F   UNL A   1      43.158  32.695  34.704  1.00  0.00    -0.206 F 
ATOM     97  C   UNL A   1      42.542  29.589  36.433  1.00  0.00     0.022 A 
BRANCH  94  98
ATOM     98  S   UNL A   1      41.645  27.053  35.771  1.00  0.00     0.124 S 
ATOM     99  O   UNL A   1      42.901  26.320  35.863  1.00  0.00    -0.237 OA
ATOM    100  O   UNL A   1      40.918  27.234  37.024  1.00  0.00    -0.237 OA
ATOM    101  O   UNL A   1      40.804  26.680  34.631  1.00  0.00    -0.744 OA
ENDBRANCH  94  98
ENDBRANCH  68  91
ENDBRANCH  42  43
ENDBRANCH  34  37
ENDBRANCH  32  33
ENDBRANCH  31  32
ENDBRANCH  30  31
ENDBRANCH   1  30
TORSDOF 21
ENDMDL
MODEL 3
REMARK VINA RESULT:     -11.8      3.848      7.817
REMARK SMILES COc1ccc(-c2ncn(CC(=O)NCCCCCCNC(=O)c3ccc(-c4c5nc(c(-c6cc(S(=O)(=O)[O-])ccc6F)c6ccc([nH]6)c(-c6cc(S(=O)(=O)[O-])ccc6F)c6nc(c(-c7cc(S(=O)(=O)[O-])ccc7F)c7ccc4[nH]7)C=C6)C=C5)cc3)c2-c2ccc(OC)cc2)cc1
REMARK SMILES IDX 17 1 16 2 15 3 14 4 12 5 13 6 11 8 10 9 7 10 8 11 87 12 9 13
REMARK SMILES IDX 6 14 3 15 4 16 97 17 5 18 96 19 2 20 1 21 88 22 89 23 95 24
REMARK SMILES IDX 90 25 94 26 91 27 92 28 93 29 18 30 19 31 20 32 21 33 22 34
REMARK SMILES IDX 23 36 24 37 25 38 86 39 26 40 85 41 27 42 28 43 29 44 79 45
REMARK SMILES IDX 30 46 84 47 78 48 80 49 31 50 83 51 77 52 76 53 32 55 64 56
REMARK SMILES IDX 44 57 63 58 45 59 48 60 62 61 81 62 46 63 47 64 61 66 82 67
REMARK SMILES IDX 49 68 33 69 34 70 42 71 35 72 41 73 43 74 40 75 36 76 37 77
REMARK SMILES IDX 38 78 39 79 65 80 66 81 74 82 67 83 73 84 75 85 72 86 68 87
REMARK SMILES IDX 69 88 70 89 71 90 50 91 51 92 59 93 52 94 58 95 60 96 57 97
REMARK SMILES IDX 53 98 54 99 55 100 56 101
REMARK H PARENT 14 7 21 35 80 54 48 65
REMARK Flexibility Score: inf
ROOT
ATOM      1  C   UNL A   1      35.686  21.506  25.003  1.00  0.00     0.002 C 
ENDROOT
BRANCH   1   2
ATOM      2  C   UNL A   1      34.586  20.672  25.671  1.00  0.00     0.021 C 
BRANCH   2   3
ATOM      3  C   UNL A   1      33.185  21.091  25.236  1.00  0.00     0.116 C 
BRANCH   3   4
ATOM      4  N   UNL A   1      32.447  21.703  26.320  1.00  0.00    -0.355 N 
ATOM      5  C   UNL A   1      32.213  23.023  26.558  1.00  0.00     0.239 C 
ATOM      6  O   UNL A   1      31.446  23.312  27.482  1.00  0.00    -0.273 OA
ATOM      7  H   UNL A   1      32.063  21.078  26.976  1.00  0.00     0.163 HD
BRANCH   5   8
ATOM      8  C   UNL A   1      32.801  24.089  25.661  1.00  0.00     0.223 C 
BRANCH   8   9
ATOM      9  N   UNL A   1      31.851  24.741  24.772  1.00  0.00    -0.321 N 
ATOM     10  C   UNL A   1      30.549  26.135  23.723  1.00  0.00     0.096 A 
ATOM     11  N   UNL A   1      30.145  24.877  23.357  1.00  0.00    -0.236 NA
ATOM     12  C   UNL A   1      31.608  26.090  24.623  1.00  0.00     0.076 A 
ATOM     13  C   UNL A   1      30.929  24.063  24.017  1.00  0.00     0.201 A 
BRANCH  10  14
ATOM     14  C   UNL A   1      29.825  27.333  23.360  1.00  0.00     0.003 A 
ATOM     15  C   UNL A   1      28.432  29.522  22.323  1.00  0.00     0.118 A 
ATOM     16  C   UNL A   1      27.757  28.543  23.054  1.00  0.00     0.047 A 
ATOM     17  C   UNL A   1      29.816  29.450  22.178  1.00  0.00     0.047 A 
ATOM     18  C   UNL A   1      28.447  27.444  23.567  1.00  0.00     0.014 A 
ATOM     19  C   UNL A   1      30.512  28.358  22.700  1.00  0.00     0.014 A 
BRANCH  15  20
ATOM     20  O   UNL A   1      27.659  30.548  21.855  1.00  0.00    -0.497 OA
ATOM     21  C   UNL A   1      27.826  31.793  22.522  1.00  0.00     0.278 C 
ENDBRANCH  15  20
ENDBRANCH  10  14
BRANCH  12  22
ATOM     22  C   UNL A   1      32.226  27.147  25.418  1.00  0.00     0.001 A 
ATOM     23  C   UNL A   1      33.432  27.740  25.043  1.00  0.00     0.014 A 
ATOM     24  C   UNL A   1      31.601  27.576  26.594  1.00  0.00     0.014 A 
ATOM     25  C   UNL A   1      34.053  28.666  25.883  1.00  0.00     0.047 A 
ATOM     26  C   UNL A   1      32.199  28.537  27.412  1.00  0.00     0.047 A 
ATOM     27  C   UNL A   1      33.440  29.071  27.069  1.00  0.00     0.118 A 
BRANCH  27  28
ATOM     28  O   UNL A   1      34.151  29.977  27.806  1.00  0.00    -0.497 OA
ATOM     29  C   UNL A   1      35.522  29.668  28.022  1.00  0.00     0.278 C 
ENDBRANCH  27  28
ENDBRANCH  12  22
ENDBRANCH   8   9
ENDBRANCH   5   8
ENDBRANCH   3   4
ENDBRANCH   2   3
ENDBRANCH   1   2
BRANCH   1  30
ATOM     30  C   UNL A   1      36.533  22.335  25.981  1.00  0.00     0.002 C 
BRANCH  30  31
ATOM     31  C   UNL A   1      36.879  23.752  25.499  1.00  0.00     0.021 C 
BRANCH  31  32
ATOM     32  C   UNL A   1      38.211  24.233  26.041  1.00  0.00     0.116 C 
BRANCH  32  33
ATOM     33  N   UNL A   1      38.796  23.260  26.965  1.00  0.00    -0.352 N 
ATOM     34  C   UNL A   1      39.979  23.368  27.692  1.00  0.00     0.251 C 
ATOM     35  H   UNL A   1      38.290  22.426  27.089  1.00  0.00     0.163 HD
ATOM     36  O   UNL A   1      40.562  22.394  28.096  1.00  0.00    -0.269 OA
BRANCH  34  37
ATOM     37  C   UNL A   1      40.417  24.737  28.042  1.00  0.00     0.039 A 
ATOM     38  C   UNL A   1      41.727  25.220  27.992  1.00  0.00     0.014 A 
ATOM     39  C   UNL A   1      39.436  25.553  28.566  1.00  0.00     0.014 A 
ATOM     40  C   UNL A   1      41.971  26.505  28.526  1.00  0.00     0.010 A 
ATOM     41  C   UNL A   1      39.642  26.886  28.491  1.00  0.00     0.010 A 
ATOM     42  C   UNL A   1      40.878  27.291  28.936  1.00  0.00    -0.014 A 
BRANCH  42  43
ATOM     43  C   UNL A   1      40.860  28.722  29.273  1.00  0.00     0.031 A 
ATOM     44  C   UNL A   1      42.012  29.377  28.546  1.00  0.00     0.074 A 
ATOM     45  C   UNL A   1      39.797  29.322  29.906  1.00  0.00     0.049 A 
ATOM     46  N   UNL A   1      43.208  29.530  29.025  1.00  0.00    -0.248 NA
ATOM     47  C   UNL A   1      42.018  29.499  27.059  1.00  0.00     0.031 C 
ATOM     48  C   UNL A   1      38.564  28.742  30.479  1.00  0.00     0.029 A 
ATOM     49  N   UNL A   1      39.587  30.659  30.195  1.00  0.00    -0.354 N 
ATOM     50  C   UNL A   1      43.917  30.185  28.022  1.00  0.00     0.074 A 
ATOM     51  C   UNL A   1      43.301  29.776  26.804  1.00  0.00     0.031 C 
ATOM     52  C   UNL A   1      37.662  29.717  30.803  1.00  0.00     0.029 A 
ATOM     53  C   UNL A   1      38.262  31.026  30.602  1.00  0.00     0.049 A 
ATOM     54  H   UNL A   1      40.309  31.324  30.122  1.00  0.00     0.167 HD
ATOM     55  C   UNL A   1      44.585  31.338  28.313  1.00  0.00     0.034 A 
ATOM     56  C   UNL A   1      37.780  32.304  30.869  1.00  0.00     0.034 A 
ATOM     57  C   UNL A   1      44.689  31.465  29.752  1.00  0.00     0.049 A 
ATOM     58  C   UNL A   1      39.006  33.124  31.101  1.00  0.00     0.074 A 
ATOM     59  C   UNL A   1      45.248  30.709  30.762  1.00  0.00     0.029 A 
ATOM     60  N   UNL A   1      43.710  32.235  30.335  1.00  0.00    -0.354 N 
ATOM     61  N   UNL A   1      39.793  32.903  32.123  1.00  0.00    -0.248 NA
ATOM     62  C   UNL A   1      39.649  33.653  29.902  1.00  0.00     0.031 C 
ATOM     63  C   UNL A   1      44.280  30.728  31.810  1.00  0.00     0.029 A 
ATOM     64  C   UNL A   1      43.271  31.637  31.486  1.00  0.00     0.049 A 
ATOM     65  H   UNL A   1      43.376  33.090  29.979  1.00  0.00     0.167 HD
ATOM     66  C   UNL A   1      41.061  32.799  31.568  1.00  0.00     0.074 A 
ATOM     67  C   UNL A   1      40.903  33.274  30.182  1.00  0.00     0.031 C 
ATOM     68  C   UNL A   1      42.019  31.996  32.130  1.00  0.00     0.034 A 
BRANCH  55  69
ATOM     69  C   UNL A   1      44.656  32.573  27.421  1.00  0.00     0.023 A 
ATOM     70  C   UNL A   1      44.014  33.727  27.914  1.00  0.00     0.031 A 
ATOM     71  C   UNL A   1      45.016  32.620  26.054  1.00  0.00     0.131 A 
ATOM     72  C   UNL A   1      43.656  34.786  27.062  1.00  0.00     0.055 A 
ATOM     73  C   UNL A   1      44.711  33.704  25.221  1.00  0.00     0.041 A 
ATOM     74  F   UNL A   1      45.604  31.604  25.416  1.00  0.00    -0.206 F 
ATOM     75  C   UNL A   1      44.002  34.785  25.716  1.00  0.00     0.022 A 
BRANCH  72  76
ATOM     76  S   UNL A   1      42.573  36.080  27.718  1.00  0.00     0.124 S 
ATOM     77  O   UNL A   1      41.254  35.549  27.392  1.00  0.00    -0.237 OA
ATOM     78  O   UNL A   1      42.935  36.086  29.131  1.00  0.00    -0.237 OA
ATOM     79  O   UNL A   1      42.973  37.268  26.967  1.00  0.00    -0.744 OA
ENDBRANCH  72  76
ENDBRANCH  55  69
BRANCH  56  80
ATOM     80  C   UNL A   1      36.461  32.977  30.459  1.00  0.00     0.023 A 
ATOM     81  C   UNL A   1      35.541  33.722  31.288  1.00  0.00     0.031 A 
ATOM     82  C   UNL A   1      36.248  33.111  29.075  1.00  0.00     0.131 A 
ATOM     83  C   UNL A   1      34.488  34.514  30.705  1.00  0.00     0.055 A 
ATOM     84  C   UNL A   1      35.248  33.915  28.519  1.00  0.00     0.041 A 
ATOM     85  F   UNL A   1      37.073  32.521  28.197  1.00  0.00    -0.206 F 
ATOM     86  C   UNL A   1      34.368  34.619  29.321  1.00  0.00     0.022 A 
BRANCH  83  87
ATOM     87  S   UNL A   1      33.219  35.455  31.679  1.00  0.00     0.124 S 
ATOM     88  O   UNL A   1      31.988  35.195  30.941  1.00  0.00    -0.237 OA
ATOM     89  O   UNL A   1      33.317  34.866  33.008  1.00  0.00    -0.237 OA
ATOM     90  O   UNL A   1      33.677  36.846  31.604  1.00  0.00    -0.744 OA
ENDBRANCH  83  87
ENDBRANCH  56  80
BRANCH  68  91
ATOM     91  C   UNL A   1      41.764  31.402  33.507  1.00  0.00     0.023 A 
ATOM     92  C   UNL A   1      41.778  32.075  34.758  1.00  0.00     0.031 A 
ATOM     93  C   UNL A   1      41.369  30.055  33.501  1.00  0.00     0.131 A 
ATOM     94  C   UNL A   1      41.429  31.370  35.936  1.00  0.00     0.055 A 
ATOM     95  C   UNL A   1      40.983  29.383  34.654  1.00  0.00     0.041 A 
ATOM     96  F   UNL A   1      41.313  29.373  32.345  1.00  0.00    -0.206 F 
ATOM     97  C   UNL A   1      41.023  30.033  35.880  1.00  0.00     0.022 A 
BRANCH  94  98
ATOM     98  S   UNL A   1      41.568  32.140  37.592  1.00  0.00     0.124 S 
ATOM     99  O   UNL A   1      42.424  31.212  38.321  1.00  0.00    -0.237 OA
ATOM    100  O   UNL A   1      42.151  33.444  37.293  1.00  0.00    -0.237 OA
ATOM    101  O   UNL A   1      40.183  32.189  38.065  1.00  0.00    -0.744 OA
ENDBRANCH  94  98
ENDBRANCH  68  91
ENDBRANCH  42  43
ENDBRANCH  34  37
ENDBRANCH  32  33
ENDBRANCH  31  32
ENDBRANCH  30  31
ENDBRANCH   1  30
TORSDOF 21
ENDMDL
