MODEL 1
REMARK VINA RESULT:     -11.5      0.000      0.000
REMARK SMILES CCN1C(=O)[C@H](CC(=O)Nc2ccc(C(=O)NCCCCCCNC(=O)c3ccc(-c4c5nc(c(-c6cc(S(=O)(=O)[O-])ccc6F)c6ccc([nH]6)c(-c6cc(S(=O)(=O)[O-])ccc6F)c6nc(c(-c7cc(S(=O)(=O)[O-])ccc7F)c7ccc4[nH]7)C=C6)C=C5)cc3)cc2)S/C1=[NH+]\c1ccc(Cl)cc1
REMARK SMILES IDX 20 1 19 2 18 3 17 4 15 5 16 6 14 8 11 9 12 10 91 11 13 12
REMARK SMILES IDX 90 13 10 14 8 15 9 16 7 18 6 19 3 20 4 21 93 22 5 23 92 24
REMARK SMILES IDX 94 25 2 27 1 28 95 29 96 30 101 31 97 32 100 33 98 34 99 35
REMARK SMILES IDX 21 36 22 37 23 38 24 39 25 40 26 42 27 43 28 44 89 45 29 46
REMARK SMILES IDX 88 47 30 48 31 49 32 50 82 51 33 52 87 53 81 54 83 55 34 56
REMARK SMILES IDX 86 57 80 58 79 59 35 61 67 62 47 63 66 64 48 65 51 66 65 67
REMARK SMILES IDX 84 68 49 69 50 70 64 72 85 73 52 74 36 75 37 76 45 77 38 78
REMARK SMILES IDX 44 79 46 80 43 81 39 82 40 83 41 84 42 85 68 86 69 87 77 88
REMARK SMILES IDX 70 89 76 90 78 91 75 92 71 93 72 94 73 95 74 96 53 97 54 98
REMARK SMILES IDX 62 99 55 100 61 101 63 102 60 103 56 104 57 105 58 106
REMARK SMILES IDX 59 107
REMARK H PARENT 17 7 10 17 94 26 24 41 83 60 51 71
REMARK Flexibility Score: inf
ROOT
ATOM      1  C   UNL A   1      40.917  21.926  27.955  1.00  0.00     0.002 C 
ENDROOT
BRANCH   1   2
ATOM      2  C   UNL A   1      40.480  22.937  26.892  1.00  0.00     0.021 C 
BRANCH   2   3
ATOM      3  C   UNL A   1      39.076  22.726  26.324  1.00  0.00     0.116 C 
BRANCH   3   4
ATOM      4  N   UNL A   1      38.888  21.421  25.702  1.00  0.00    -0.352 N 
ATOM      5  C   UNL A   1      37.801  20.887  25.040  1.00  0.00     0.251 C 
ATOM      6  O   UNL A   1      37.842  19.713  24.675  1.00  0.00    -0.269 OA
ATOM      7  H   UNL A   1      39.666  20.820  25.765  1.00  0.00     0.163 HD
BRANCH   5   8
ATOM      8  C   UNL A   1      36.561  21.673  24.789  1.00  0.00     0.039 A 
ATOM      9  C   UNL A   1      34.190  23.212  24.552  1.00  0.00     0.041 A 
ATOM     10  C   UNL A   1      34.154  21.901  25.051  1.00  0.00     0.027 A 
ATOM     11  C   UNL A   1      35.404  23.679  24.061  1.00  0.00     0.027 A 
ATOM     12  C   UNL A   1      35.327  21.137  25.171  1.00  0.00     0.016 A 
ATOM     13  C   UNL A   1      36.573  22.913  24.159  1.00  0.00     0.016 A 
BRANCH   9  14
ATOM     14  N   UNL A   1      32.995  23.952  24.632  1.00  0.00    -0.326 N 
ATOM     15  C   UNL A   1      32.451  25.005  23.958  1.00  0.00     0.226 C 
ATOM     16  O   UNL A   1      31.378  25.452  24.378  1.00  0.00    -0.275 OA
ATOM     17  H   UNL A   1      32.407  23.629  25.352  1.00  0.00     0.169 HD
BRANCH  15  18
ATOM     18  C   UNL A   1      33.069  25.623  22.725  1.00  0.00     0.128 C 
BRANCH  18  19
ATOM     19  C   UNL A   1      32.904  27.140  22.613  1.00  0.00     0.183 C 
ATOM     20  N   UNL A   1      31.123  28.381  23.658  1.00  0.00    -0.190 N 
ATOM     21  C   UNL A   1      31.478  27.644  22.545  1.00  0.00     0.324 C 
ATOM     22  C   UNL A   1      32.100  28.618  24.591  1.00  0.00     0.319 C 
ATOM     23  O   UNL A   1      30.730  27.398  21.601  1.00  0.00    -0.245 OA
ATOM     24  S   UNL A   1      33.635  27.982  24.056  1.00  0.00    -0.022 SA
ATOM     25  N   UNL A   1      31.847  29.232  25.696  1.00  0.00    -0.235 N 
ATOM     26  H   UNL A   1      30.908  29.374  25.954  1.00  0.00     0.313 HD
BRANCH  20  27
ATOM     27  C   UNL A   1      29.742  28.839  23.805  1.00  0.00     0.243 C 
ATOM     28  C   UNL A   1      29.425  30.189  23.174  1.00  0.00     0.054 C 
ENDBRANCH  20  27
BRANCH  25  29
ATOM     29  C   UNL A   1      32.855  29.706  26.547  1.00  0.00     0.125 A 
ATOM     30  C   UNL A   1      32.814  31.015  27.034  1.00  0.00     0.053 A 
ATOM     31  C   UNL A   1      34.017  28.948  26.750  1.00  0.00     0.053 A 
ATOM     32  C   UNL A   1      33.909  31.552  27.721  1.00  0.00     0.025 A 
ATOM     33  C   UNL A   1      35.111  29.475  27.441  1.00  0.00     0.025 A 
ATOM     34  C   UNL A   1      35.054  30.780  27.919  1.00  0.00     0.041 A 
ATOM     35  Cl  UNL A   1      36.413  31.455  28.727  1.00  0.00    -0.084 Cl
ENDBRANCH  25  29
ENDBRANCH  18  19
ENDBRANCH  15  18
ENDBRANCH   9  14
ENDBRANCH   5   8
ENDBRANCH   3   4
ENDBRANCH   2   3
ENDBRANCH   1   2
BRANCH   1  36
ATOM     36  C   UNL A   1      42.270  21.238  27.715  1.00  0.00     0.002 C 
BRANCH  36  37
ATOM     37  C   UNL A   1      42.231  19.784  27.230  1.00  0.00     0.021 C 
BRANCH  37  38
ATOM     38  C   UNL A   1      42.020  19.572  25.731  1.00  0.00     0.116 C 
BRANCH  38  39
ATOM     39  N   UNL A   1      43.214  19.090  25.058  1.00  0.00    -0.352 N 
ATOM     40  C   UNL A   1      44.357  19.742  24.669  1.00  0.00     0.251 C 
ATOM     41  H   UNL A   1      43.202  18.128  24.845  1.00  0.00     0.163 HD
ATOM     42  O   UNL A   1      45.160  19.145  23.949  1.00  0.00    -0.269 OA
BRANCH  40  43
ATOM     43  C   UNL A   1      44.639  21.141  25.075  1.00  0.00     0.039 A 
ATOM     44  C   UNL A   1      44.100  22.180  24.306  1.00  0.00     0.014 A 
ATOM     45  C   UNL A   1      45.478  21.446  26.149  1.00  0.00     0.014 A 
ATOM     46  C   UNL A   1      44.350  23.513  24.647  1.00  0.00     0.010 A 
ATOM     47  C   UNL A   1      45.681  22.779  26.524  1.00  0.00     0.010 A 
ATOM     48  C   UNL A   1      45.118  23.827  25.780  1.00  0.00    -0.014 A 
BRANCH  48  49
ATOM     49  C   UNL A   1      45.334  25.241  26.196  1.00  0.00     0.031 A 
ATOM     50  C   UNL A   1      46.687  25.886  26.047  1.00  0.00     0.074 A 
ATOM     51  C   UNL A   1      44.320  25.932  26.758  1.00  0.00     0.049 A 
ATOM     52  N   UNL A   1      47.084  27.076  26.421  1.00  0.00    -0.248 NA
ATOM     53  C   UNL A   1      47.735  25.075  25.412  1.00  0.00     0.031 C 
ATOM     54  C   UNL A   1      42.968  25.415  26.981  1.00  0.00     0.029 A 
ATOM     55  N   UNL A   1      44.269  27.212  27.254  1.00  0.00    -0.354 N 
ATOM     56  C   UNL A   1      48.432  27.154  26.080  1.00  0.00     0.074 A 
ATOM     57  C   UNL A   1      48.792  25.869  25.515  1.00  0.00     0.031 C 
ATOM     58  C   UNL A   1      42.219  26.373  27.549  1.00  0.00     0.029 A 
ATOM     59  C   UNL A   1      43.043  27.556  27.776  1.00  0.00     0.049 A 
ATOM     60  H   UNL A   1      45.038  27.827  27.235  1.00  0.00     0.167 HD
ATOM     61  C   UNL A   1      49.283  28.203  26.208  1.00  0.00     0.034 A 
ATOM     62  C   UNL A   1      42.633  28.687  28.385  1.00  0.00     0.034 A 
ATOM     63  C   UNL A   1      48.909  29.484  26.762  1.00  0.00     0.049 A 
ATOM     64  C   UNL A   1      43.606  29.828  28.543  1.00  0.00     0.074 A 
ATOM     65  C   UNL A   1      49.681  30.625  26.894  1.00  0.00     0.029 A 
ATOM     66  N   UNL A   1      47.660  29.792  27.286  1.00  0.00    -0.354 N 
ATOM     67  N   UNL A   1      44.866  29.897  28.179  1.00  0.00    -0.248 NA
ATOM     68  C   UNL A   1      43.099  31.048  29.185  1.00  0.00     0.031 C 
ATOM     69  C   UNL A   1      48.923  31.598  27.555  1.00  0.00     0.029 A 
ATOM     70  C   UNL A   1      47.651  31.093  27.768  1.00  0.00     0.049 A 
ATOM     71  H   UNL A   1      46.891  29.177  27.311  1.00  0.00     0.167 HD
ATOM     72  C   UNL A   1      45.289  31.180  28.518  1.00  0.00     0.074 A 
ATOM     73  C   UNL A   1      44.147  31.853  29.102  1.00  0.00     0.031 C 
ATOM     74  C   UNL A   1      46.509  31.752  28.358  1.00  0.00     0.034 A 
BRANCH  61  75
ATOM     75  C   UNL A   1      50.714  27.998  25.764  1.00  0.00     0.023 A 
ATOM     76  C   UNL A   1      51.082  28.049  24.408  1.00  0.00     0.031 A 
ATOM     77  C   UNL A   1      51.722  27.735  26.708  1.00  0.00     0.131 A 
ATOM     78  C   UNL A   1      52.403  27.769  24.028  1.00  0.00     0.055 A 
ATOM     79  C   UNL A   1      53.052  27.536  26.330  1.00  0.00     0.041 A 
ATOM     80  F   UNL A   1      51.430  27.655  28.016  1.00  0.00    -0.206 F 
ATOM     81  C   UNL A   1      53.397  27.537  24.982  1.00  0.00     0.022 A 
BRANCH  78  82
ATOM     82  S   UNL A   1      52.777  27.572  22.265  1.00  0.00     0.124 S 
ATOM     83  O   UNL A   1      53.528  28.795  21.986  1.00  0.00    -0.237 OA
ATOM     84  O   UNL A   1      53.548  26.332  22.243  1.00  0.00    -0.237 OA
ATOM     85  O   UNL A   1      51.462  27.501  21.639  1.00  0.00    -0.744 OA
ENDBRANCH  78  82
ENDBRANCH  61  75
BRANCH  62  86
ATOM     86  C   UNL A   1      41.240  28.801  28.908  1.00  0.00     0.023 A 
ATOM     87  C   UNL A   1      40.981  28.753  30.287  1.00  0.00     0.031 A 
ATOM     88  C   UNL A   1      40.143  28.907  28.034  1.00  0.00     0.131 A 
ATOM     89  C   UNL A   1      39.655  28.759  30.750  1.00  0.00     0.055 A 
ATOM     90  C   UNL A   1      38.830  28.969  28.502  1.00  0.00     0.041 A 
ATOM     91  F   UNL A   1      40.336  28.962  26.707  1.00  0.00    -0.206 F 
ATOM     92  C   UNL A   1      38.579  28.879  29.868  1.00  0.00     0.022 A 
BRANCH  89  93
ATOM     93  S   UNL A   1      39.353  28.508  32.521  1.00  0.00     0.124 S 
ATOM     94  O   UNL A   1      38.439  27.372  32.508  1.00  0.00    -0.237 OA
ATOM     95  O   UNL A   1      40.698  28.244  33.022  1.00  0.00    -0.237 OA
ATOM     96  O   UNL A   1      38.768  29.777  32.949  1.00  0.00    -0.744 OA
ENDBRANCH  89  93
ENDBRANCH  62  86
BRANCH  74  97
ATOM     97  C   UNL A   1      46.653  33.194  28.780  1.00  0.00     0.023 A 
ATOM     98  C   UNL A   1      46.411  34.256  27.889  1.00  0.00     0.031 A 
ATOM     99  C   UNL A   1      47.054  33.510  30.090  1.00  0.00     0.131 A 
ATOM    100  C   UNL A   1      46.628  35.579  28.303  1.00  0.00     0.055 A 
ATOM    101  C   UNL A   1      47.210  34.831  30.514  1.00  0.00     0.041 A 
ATOM    102  F   UNL A   1      47.300  32.537  30.982  1.00  0.00    -0.206 F 
ATOM    103  C   UNL A   1      47.010  35.874  29.614  1.00  0.00     0.022 A 
BRANCH 100 104
ATOM    104  S   UNL A   1      46.491  36.909  27.077  1.00  0.00     0.124 S 
ATOM    105  O   UNL A   1      45.096  37.313  27.221  1.00  0.00    -0.237 OA
ATOM    106  O   UNL A   1      47.484  37.870  27.547  1.00  0.00    -0.237 OA
ATOM    107  O   UNL A   1      46.820  36.249  25.815  1.00  0.00    -0.744 OA
ENDBRANCH 100 104
ENDBRANCH  74  97
ENDBRANCH  48  49
ENDBRANCH  40  43
ENDBRANCH  38  39
ENDBRANCH  37  38
ENDBRANCH  36  37
ENDBRANCH   1  36
TORSDOF 21
ENDMDL
MODEL 2
REMARK VINA RESULT:     -11.4      2.982      4.127
REMARK SMILES CCN1C(=O)[C@H](CC(=O)Nc2ccc(C(=O)NCCCCCCNC(=O)c3ccc(-c4c5nc(c(-c6cc(S(=O)(=O)[O-])ccc6F)c6ccc([nH]6)c(-c6cc(S(=O)(=O)[O-])ccc6F)c6nc(c(-c7cc(S(=O)(=O)[O-])ccc7F)c7ccc4[nH]7)C=C6)C=C5)cc3)cc2)S/C1=[NH+]\c1ccc(Cl)cc1
REMARK SMILES IDX 20 1 19 2 18 3 17 4 15 5 16 6 14 8 11 9 12 10 91 11 13 12
REMARK SMILES IDX 90 13 10 14 8 15 9 16 7 18 6 19 3 20 4 21 93 22 5 23 92 24
REMARK SMILES IDX 94 25 2 27 1 28 95 29 96 30 101 31 97 32 100 33 98 34 99 35
REMARK SMILES IDX 21 36 22 37 23 38 24 39 25 40 26 42 27 43 28 44 89 45 29 46
REMARK SMILES IDX 88 47 30 48 31 49 32 50 82 51 33 52 87 53 81 54 83 55 34 56
REMARK SMILES IDX 86 57 80 58 79 59 35 61 67 62 47 63 66 64 48 65 51 66 65 67
REMARK SMILES IDX 84 68 49 69 50 70 64 72 85 73 52 74 36 75 37 76 45 77 38 78
REMARK SMILES IDX 44 79 46 80 43 81 39 82 40 83 41 84 42 85 68 86 69 87 77 88
REMARK SMILES IDX 70 89 76 90 78 91 75 92 71 93 72 94 73 95 74 96 53 97 54 98
REMARK SMILES IDX 62 99 55 100 61 101 63 102 60 103 56 104 57 105 58 106
REMARK SMILES IDX 59 107
REMARK H PARENT 17 7 10 17 94 26 24 41 83 60 51 71
REMARK Flexibility Score: inf
ROOT
ATOM      1  C   UNL A   1      40.009  23.402  27.630  1.00  0.00     0.002 C 
ENDROOT
BRANCH   1   2
ATOM      2  C   UNL A   1      39.116  24.332  26.804  1.00  0.00     0.021 C 
BRANCH   2   3
ATOM      3  C   UNL A   1      37.899  23.669  26.159  1.00  0.00     0.116 C 
BRANCH   3   4
ATOM      4  N   UNL A   1      38.109  22.268  25.816  1.00  0.00    -0.352 N 
ATOM      5  C   UNL A   1      37.334  21.394  25.082  1.00  0.00     0.251 C 
ATOM      6  O   UNL A   1      37.676  20.215  25.002  1.00  0.00    -0.269 OA
ATOM      7  H   UNL A   1      38.944  21.880  26.168  1.00  0.00     0.163 HD
BRANCH   5   8
ATOM      8  C   UNL A   1      36.072  21.822  24.416  1.00  0.00     0.039 A 
ATOM      9  C   UNL A   1      33.594  22.717  23.366  1.00  0.00     0.041 A 
ATOM     10  C   UNL A   1      33.673  21.544  24.132  1.00  0.00     0.027 A 
ATOM     11  C   UNL A   1      34.787  23.349  23.035  1.00  0.00     0.027 A 
ATOM     12  C   UNL A   1      34.899  21.099  24.654  1.00  0.00     0.016 A 
ATOM     13  C   UNL A   1      36.015  22.897  23.536  1.00  0.00     0.016 A 
BRANCH   9  14
ATOM     14  N   UNL A   1      32.303  23.170  23.034  1.00  0.00    -0.326 N 
ATOM     15  C   UNL A   1      31.130  23.352  23.704  1.00  0.00     0.226 C 
ATOM     16  O   UNL A   1      30.148  23.702  23.040  1.00  0.00    -0.275 OA
ATOM     17  H   UNL A   1      32.229  23.414  22.084  1.00  0.00     0.169 HD
BRANCH  15  18
ATOM     18  C   UNL A   1      30.979  23.180  25.198  1.00  0.00     0.128 C 
BRANCH  18  19
ATOM     19  C   UNL A   1      31.215  24.448  26.020  1.00  0.00     0.183 C 
ATOM     20  N   UNL A   1      32.870  26.114  25.479  1.00  0.00    -0.190 N 
ATOM     21  C   UNL A   1      32.654  24.909  26.121  1.00  0.00     0.324 C 
ATOM     22  C   UNL A   1      31.777  26.741  24.939  1.00  0.00     0.319 C 
ATOM     23  O   UNL A   1      33.521  24.259  26.700  1.00  0.00    -0.245 OA
ATOM     24  S   UNL A   1      30.314  25.864  25.306  1.00  0.00    -0.022 SA
ATOM     25  N   UNL A   1      31.890  27.831  24.259  1.00  0.00    -0.235 N 
ATOM     26  H   UNL A   1      32.786  28.120  23.972  1.00  0.00     0.313 HD
BRANCH  20  27
ATOM     27  C   UNL A   1      34.231  26.639  25.380  1.00  0.00     0.243 C 
ATOM     28  C   UNL A   1      34.451  28.019  25.987  1.00  0.00     0.054 C 
ENDBRANCH  20  27
BRANCH  25  29
ATOM     29  C   UNL A   1      30.787  28.623  23.910  1.00  0.00     0.125 A 
ATOM     30  C   UNL A   1      29.950  28.247  22.856  1.00  0.00     0.053 A 
ATOM     31  C   UNL A   1      30.633  29.899  24.471  1.00  0.00     0.053 A 
ATOM     32  C   UNL A   1      28.969  29.126  22.381  1.00  0.00     0.025 A 
ATOM     33  C   UNL A   1      29.651  30.778  24.007  1.00  0.00     0.025 A 
ATOM     34  C   UNL A   1      28.826  30.388  22.957  1.00  0.00     0.041 A 
ATOM     35  Cl  UNL A   1      27.648  31.480  22.343  1.00  0.00    -0.084 Cl
ENDBRANCH  25  29
ENDBRANCH  18  19
ENDBRANCH  15  18
ENDBRANCH   9  14
ENDBRANCH   5   8
ENDBRANCH   3   4
ENDBRANCH   2   3
ENDBRANCH   1   2
BRANCH   1  36
ATOM     36  C   UNL A   1      41.499  23.391  27.258  1.00  0.00     0.002 C 
BRANCH  36  37
ATOM     37  C   UNL A   1      42.173  22.019  27.141  1.00  0.00     0.021 C 
BRANCH  37  38
ATOM     38  C   UNL A   1      42.656  21.613  25.747  1.00  0.00     0.116 C 
BRANCH  38  39
ATOM     39  N   UNL A   1      44.088  21.370  25.698  1.00  0.00    -0.352 N 
ATOM     40  C   UNL A   1      45.154  22.222  25.842  1.00  0.00     0.251 C 
ATOM     41  H   UNL A   1      44.336  20.432  25.532  1.00  0.00     0.163 HD
ATOM     42  O   UNL A   1      46.282  21.803  25.578  1.00  0.00    -0.269 OA
BRANCH  40  43
ATOM     43  C   UNL A   1      44.981  23.626  26.287  1.00  0.00     0.039 A 
ATOM     44  C   UNL A   1      45.181  23.927  27.640  1.00  0.00     0.014 A 
ATOM     45  C   UNL A   1      44.557  24.634  25.417  1.00  0.00     0.014 A 
ATOM     46  C   UNL A   1      45.017  25.236  28.104  1.00  0.00     0.010 A 
ATOM     47  C   UNL A   1      44.449  25.953  25.869  1.00  0.00     0.010 A 
ATOM     48  C   UNL A   1      44.681  26.270  27.217  1.00  0.00    -0.014 A 
BRANCH  48  49
ATOM     49  C   UNL A   1      44.573  27.681  27.684  1.00  0.00     0.031 A 
ATOM     50  C   UNL A   1      45.785  28.575  27.707  1.00  0.00     0.074 A 
ATOM     51  C   UNL A   1      43.390  28.144  28.136  1.00  0.00     0.049 A 
ATOM     52  N   UNL A   1      45.903  29.801  28.150  1.00  0.00    -0.248 NA
ATOM     53  C   UNL A   1      47.034  28.003  27.183  1.00  0.00     0.031 C 
ATOM     54  C   UNL A   1      42.146  27.372  28.189  1.00  0.00     0.029 A 
ATOM     55  N   UNL A   1      43.039  29.370  28.649  1.00  0.00    -0.354 N 
ATOM     56  C   UNL A   1      47.239  30.146  27.970  1.00  0.00     0.074 A 
ATOM     57  C   UNL A   1      47.900  28.977  27.426  1.00  0.00     0.031 C 
ATOM     58  C   UNL A   1      41.168  28.147  28.684  1.00  0.00     0.029 A 
ATOM     59  C   UNL A   1      41.719  29.453  29.031  1.00  0.00     0.049 A 
ATOM     60  H   UNL A   1      43.672  30.118  28.733  1.00  0.00     0.167 HD
ATOM     61  C   UNL A   1      47.853  31.331  28.219  1.00  0.00     0.034 A 
ATOM     62  C   UNL A   1      41.034  30.460  29.610  1.00  0.00     0.034 A 
ATOM     63  C   UNL A   1      47.181  32.493  28.751  1.00  0.00     0.049 A 
ATOM     64  C   UNL A   1      41.746  31.757  29.904  1.00  0.00     0.074 A 
ATOM     65  C   UNL A   1      47.700  33.753  28.996  1.00  0.00     0.029 A 
ATOM     66  N   UNL A   1      45.846  32.538  29.131  1.00  0.00    -0.354 N 
ATOM     67  N   UNL A   1      43.002  32.077  29.692  1.00  0.00    -0.248 NA
ATOM     68  C   UNL A   1      40.945  32.831  30.506  1.00  0.00     0.031 C 
ATOM     69  C   UNL A   1      46.700  34.537  29.583  1.00  0.00     0.029 A 
ATOM     70  C   UNL A   1      45.534  33.793  29.635  1.00  0.00     0.049 A 
ATOM     71  H   UNL A   1      45.212  31.788  29.053  1.00  0.00     0.167 HD
ATOM     72  C   UNL A   1      43.130  33.402  30.104  1.00  0.00     0.074 A 
ATOM     73  C   UNL A   1      41.822  33.822  30.563  1.00  0.00     0.031 C 
ATOM     74  C   UNL A   1      44.228  34.199  30.100  1.00  0.00     0.034 A 
BRANCH  61  75
ATOM     75  C   UNL A   1      49.337  31.418  27.942  1.00  0.00     0.023 A 
ATOM     76  C   UNL A   1      49.839  32.066  26.799  1.00  0.00     0.031 A 
ATOM     77  C   UNL A   1      50.263  30.834  28.825  1.00  0.00     0.131 A 
ATOM     78  C   UNL A   1      51.217  32.051  26.533  1.00  0.00     0.055 A 
ATOM     79  C   UNL A   1      51.640  30.893  28.596  1.00  0.00     0.041 A 
ATOM     80  F   UNL A   1      49.844  30.186  29.923  1.00  0.00    -0.206 F 
ATOM     81  C   UNL A   1      52.123  31.491  27.436  1.00  0.00     0.022 A 
BRANCH  78  82
ATOM     82  S   UNL A   1      51.796  32.650  24.922  1.00  0.00     0.124 S 
ATOM     83  O   UNL A   1      53.166  33.052  25.234  1.00  0.00    -0.237 OA
ATOM     84  O   UNL A   1      51.656  31.467  24.078  1.00  0.00    -0.237 OA
ATOM     85  O   UNL A   1      50.887  33.748  24.615  1.00  0.00    -0.744 OA
ENDBRANCH  78  82
ENDBRANCH  61  75
BRANCH  62  86
ATOM     86  C   UNL A   1      39.596  30.287  29.968  1.00  0.00     0.023 A 
ATOM     87  C   UNL A   1      38.585  30.901  29.211  1.00  0.00     0.031 A 
ATOM     88  C   UNL A   1      39.214  29.548  31.102  1.00  0.00     0.131 A 
ATOM     89  C   UNL A   1      37.246  30.809  29.627  1.00  0.00     0.055 A 
ATOM     90  C   UNL A   1      37.877  29.413  31.478  1.00  0.00     0.041 A 
ATOM     91  F   UNL A   1      40.140  28.937  31.857  1.00  0.00    -0.206 F 
ATOM     92  C   UNL A   1      36.885  30.058  30.747  1.00  0.00     0.022 A 
BRANCH  89  93
ATOM     93  S   UNL A   1      35.993  31.766  28.732  1.00  0.00     0.124 S 
ATOM     94  O   UNL A   1      36.736  32.972  28.381  1.00  0.00    -0.237 OA
ATOM     95  O   UNL A   1      35.662  30.873  27.626  1.00  0.00    -0.237 OA
ATOM     96  O   UNL A   1      34.934  31.950  29.722  1.00  0.00    -0.744 OA
ENDBRANCH  89  93
ENDBRANCH  62  86
BRANCH  74  97
ATOM     97  C   UNL A   1      44.044  35.623  30.564  1.00  0.00     0.023 A 
ATOM     98  C   UNL A   1      43.714  36.659  29.672  1.00  0.00     0.031 A 
ATOM     99  C   UNL A   1      44.218  35.951  31.921  1.00  0.00     0.131 A 
ATOM    100  C   UNL A   1      43.625  37.980  30.135  1.00  0.00     0.055 A 
ATOM    101  C   UNL A   1      44.069  37.259  32.387  1.00  0.00     0.041 A 
ATOM    102  F   UNL A   1      44.535  35.004  32.818  1.00  0.00    -0.206 F 
ATOM    103  C   UNL A   1      43.784  38.285  31.490  1.00  0.00     0.022 A 
BRANCH 100 104
ATOM    104  S   UNL A   1      43.387  39.314  28.929  1.00  0.00     0.124 S 
ATOM    105  O   UNL A   1      43.054  40.445  29.788  1.00  0.00    -0.237 OA
ATOM    106  O   UNL A   1      44.688  39.375  28.270  1.00  0.00    -0.237 OA
ATOM    107  O   UNL A   1      42.292  38.828  28.090  1.00  0.00    -0.744 OA
ENDBRANCH 100 104
ENDBRANCH  74  97
ENDBRANCH  48  49
ENDBRANCH  40  43
ENDBRANCH  38  39
ENDBRANCH  37  38
ENDBRANCH  36  37
ENDBRANCH   1  36
TORSDOF 21
ENDMDL
MODEL 3
REMARK VINA RESULT:     -11.4      6.528     12.176
REMARK SMILES CCN1C(=O)[C@H](CC(=O)Nc2ccc(C(=O)NCCCCCCNC(=O)c3ccc(-c4c5nc(c(-c6cc(S(=O)(=O)[O-])ccc6F)c6ccc([nH]6)c(-c6cc(S(=O)(=O)[O-])ccc6F)c6nc(c(-c7cc(S(=O)(=O)[O-])ccc7F)c7ccc4[nH]7)C=C6)C=C5)cc3)cc2)S/C1=[NH+]\c1ccc(Cl)cc1
REMARK SMILES IDX 20 1 19 2 18 3 17 4 15 5 16 6 14 8 11 9 12 10 91 11 13 12
REMARK SMILES IDX 90 13 10 14 8 15 9 16 7 18 6 19 3 20 4 21 93 22 5 23 92 24
REMARK SMILES IDX 94 25 2 27 1 28 95 29 96 30 101 31 97 32 100 33 98 34 99 35
REMARK SMILES IDX 21 36 22 37 23 38 24 39 25 40 26 42 27 43 28 44 89 45 29 46
REMARK SMILES IDX 88 47 30 48 31 49 32 50 82 51 33 52 87 53 81 54 83 55 34 56
REMARK SMILES IDX 86 57 80 58 79 59 35 61 67 62 47 63 66 64 48 65 51 66 65 67
REMARK SMILES IDX 84 68 49 69 50 70 64 72 85 73 52 74 36 75 37 76 45 77 38 78
REMARK SMILES IDX 44 79 46 80 43 81 39 82 40 83 41 84 42 85 68 86 69 87 77 88
REMARK SMILES IDX 70 89 76 90 78 91 75 92 71 93 72 94 73 95 74 96 53 97 54 98
REMARK SMILES IDX 62 99 55 100 61 101 63 102 60 103 56 104 57 105 58 106
REMARK SMILES IDX 59 107
REMARK H PARENT 17 7 10 17 94 26 24 41 83 60 51 71
REMARK Flexibility Score: inf
ROOT
ATOM      1  C   UNL A   1      46.284  30.786  26.279  1.00  0.00     0.002 C 
ENDROOT
BRANCH   1   2
ATOM      2  C   UNL A   1      45.783  29.501  26.942  1.00  0.00     0.021 C 
BRANCH   2   3
ATOM      3  C   UNL A   1      44.264  29.354  27.022  1.00  0.00     0.116 C 
BRANCH   3   4
ATOM      4  N   UNL A   1      43.689  28.606  25.910  1.00  0.00    -0.352 N 
ATOM      5  C   UNL A   1      42.491  27.932  25.802  1.00  0.00     0.251 C 
ATOM      6  O   UNL A   1      42.258  27.288  24.780  1.00  0.00    -0.269 OA
ATOM      7  H   UNL A   1      44.250  28.578  25.101  1.00  0.00     0.163 HD
BRANCH   5   8
ATOM      8  C   UNL A   1      41.484  27.922  26.900  1.00  0.00     0.039 A 
ATOM      9  C   UNL A   1      39.754  27.932  29.147  1.00  0.00     0.041 A 
ATOM     10  C   UNL A   1      40.529  26.804  28.837  1.00  0.00     0.027 A 
ATOM     11  C   UNL A   1      39.767  28.989  28.245  1.00  0.00     0.027 A 
ATOM     12  C   UNL A   1      41.388  26.798  27.726  1.00  0.00     0.016 A 
ATOM     13  C   UNL A   1      40.607  28.978  27.123  1.00  0.00     0.016 A 
BRANCH   9  14
ATOM     14  N   UNL A   1      39.059  27.904  30.372  1.00  0.00    -0.326 N 
ATOM     15  C   UNL A   1      38.829  28.786  31.385  1.00  0.00     0.226 C 
ATOM     16  O   UNL A   1      38.219  28.365  32.374  1.00  0.00    -0.275 OA
ATOM     17  H   UNL A   1      38.634  27.031  30.536  1.00  0.00     0.169 HD
BRANCH  15  18
ATOM     18  C   UNL A   1      39.249  30.236  31.348  1.00  0.00     0.128 C 
BRANCH  18  19
ATOM     19  C   UNL A   1      40.546  30.552  32.096  1.00  0.00     0.183 C 
ATOM     20  N   UNL A   1      41.585  29.059  33.676  1.00  0.00    -0.190 N 
ATOM     21  C   UNL A   1      40.626  30.041  33.519  1.00  0.00     0.324 C 
ATOM     22  C   UNL A   1      42.360  28.759  32.585  1.00  0.00     0.319 C 
ATOM     23  O   UNL A   1      39.897  30.458  34.417  1.00  0.00    -0.245 OA
ATOM     24  S   UNL A   1      41.982  29.815  31.248  1.00  0.00    -0.022 SA
ATOM     25  N   UNL A   1      43.230  27.807  32.613  1.00  0.00    -0.235 N 
ATOM     26  H   UNL A   1      43.213  27.173  33.366  1.00  0.00     0.313 HD
BRANCH  20  27
ATOM     27  C   UNL A   1      41.708  28.376  34.963  1.00  0.00     0.243 C 
ATOM     28  C   UNL A   1      42.534  29.101  36.018  1.00  0.00     0.054 C 
ENDBRANCH  20  27
BRANCH  25  29
ATOM     29  C   UNL A   1      44.199  27.638  31.615  1.00  0.00     0.125 A 
ATOM     30  C   UNL A   1      43.885  26.967  30.429  1.00  0.00     0.053 A 
ATOM     31  C   UNL A   1      45.540  27.950  31.878  1.00  0.00     0.053 A 
ATOM     32  C   UNL A   1      44.892  26.627  29.518  1.00  0.00     0.025 A 
ATOM     33  C   UNL A   1      46.549  27.620  30.970  1.00  0.00     0.025 A 
ATOM     34  C   UNL A   1      46.220  26.953  29.794  1.00  0.00     0.041 A 
ATOM     35  Cl  UNL A   1      47.460  26.497  28.693  1.00  0.00    -0.084 Cl
ENDBRANCH  25  29
ENDBRANCH  18  19
ENDBRANCH  15  18
ENDBRANCH   9  14
ENDBRANCH   5   8
ENDBRANCH   3   4
ENDBRANCH   2   3
ENDBRANCH   1   2
BRANCH   1  36
ATOM     36  C   UNL A   1      47.058  31.756  27.185  1.00  0.00     0.002 C 
BRANCH  36  37
ATOM     37  C   UNL A   1      47.754  32.937  26.500  1.00  0.00     0.021 C 
BRANCH  37  38
ATOM     38  C   UNL A   1      47.057  34.294  26.605  1.00  0.00     0.116 C 
BRANCH  38  39
ATOM     39  N   UNL A   1      45.959  34.436  25.664  1.00  0.00    -0.352 N 
ATOM     40  C   UNL A   1      44.603  34.308  25.832  1.00  0.00     0.251 C 
ATOM     41  H   UNL A   1      46.236  34.663  24.747  1.00  0.00     0.163 HD
ATOM     42  O   UNL A   1      43.884  34.301  24.832  1.00  0.00    -0.269 OA
BRANCH  40  43
ATOM     43  C   UNL A   1      43.989  34.163  27.175  1.00  0.00     0.039 A 
ATOM     44  C   UNL A   1      43.676  35.322  27.894  1.00  0.00     0.014 A 
ATOM     45  C   UNL A   1      43.785  32.913  27.766  1.00  0.00     0.014 A 
ATOM     46  C   UNL A   1      43.107  35.231  29.169  1.00  0.00     0.010 A 
ATOM     47  C   UNL A   1      43.163  32.821  29.016  1.00  0.00     0.010 A 
ATOM     48  C   UNL A   1      42.815  33.978  29.730  1.00  0.00    -0.014 A 
BRANCH  48  49
ATOM     49  C   UNL A   1      42.143  33.865  31.056  1.00  0.00     0.031 A 
ATOM     50  C   UNL A   1      42.935  33.512  32.288  1.00  0.00     0.074 A 
ATOM     51  C   UNL A   1      40.808  34.032  31.142  1.00  0.00     0.049 A 
ATOM     52  N   UNL A   1      42.516  33.295  33.509  1.00  0.00    -0.248 NA
ATOM     53  C   UNL A   1      44.387  33.362  32.116  1.00  0.00     0.031 C 
ATOM     54  C   UNL A   1      39.923  34.353  30.019  1.00  0.00     0.029 A 
ATOM     55  N   UNL A   1      39.957  33.946  32.217  1.00  0.00    -0.354 N 
ATOM     56  C   UNL A   1      43.648  32.971  34.250  1.00  0.00     0.074 A 
ATOM     57  C   UNL A   1      44.763  32.970  33.325  1.00  0.00     0.031 C 
ATOM     58  C   UNL A   1      38.662  34.456  30.469  1.00  0.00     0.029 A 
ATOM     59  C   UNL A   1      38.636  34.161  31.898  1.00  0.00     0.049 A 
ATOM     60  H   UNL A   1      40.264  33.749  33.131  1.00  0.00     0.167 HD
ATOM     61  C   UNL A   1      43.751  32.716  35.579  1.00  0.00     0.034 A 
ATOM     62  C   UNL A   1      37.527  34.111  32.664  1.00  0.00     0.034 A 
ATOM     63  C   UNL A   1      42.634  32.731  36.494  1.00  0.00     0.049 A 
ATOM     64  C   UNL A   1      37.664  33.796  34.132  1.00  0.00     0.074 A 
ATOM     65  C   UNL A   1      42.638  32.533  37.864  1.00  0.00     0.029 A 
ATOM     66  N   UNL A   1      41.311  32.949  36.132  1.00  0.00    -0.354 N 
ATOM     67  N   UNL A   1      38.748  33.529  34.823  1.00  0.00    -0.248 NA
ATOM     68  C   UNL A   1      36.428  33.785  34.926  1.00  0.00     0.031 C 
ATOM     69  C   UNL A   1      41.314  32.564  38.319  1.00  0.00     0.029 A 
ATOM     70  C   UNL A   1      40.489  32.858  37.247  1.00  0.00     0.049 A 
ATOM     71  H   UNL A   1      41.000  33.140  35.217  1.00  0.00     0.167 HD
ATOM     72  C   UNL A   1      38.327  33.353  36.139  1.00  0.00     0.074 A 
ATOM     73  C   UNL A   1      36.892  33.557  36.145  1.00  0.00     0.031 C 
ATOM     74  C   UNL A   1      39.058  33.054  37.241  1.00  0.00     0.034 A 
BRANCH  61  75
ATOM     75  C   UNL A   1      45.121  32.370  36.118  1.00  0.00     0.023 A 
ATOM     76  C   UNL A   1      45.675  31.086  35.963  1.00  0.00     0.031 A 
ATOM     77  C   UNL A   1      45.879  33.332  36.810  1.00  0.00     0.131 A 
ATOM     78  C   UNL A   1      46.910  30.780  36.552  1.00  0.00     0.055 A 
ATOM     79  C   UNL A   1      47.145  33.043  37.324  1.00  0.00     0.041 A 
ATOM     80  F   UNL A   1      45.397  34.569  37.006  1.00  0.00    -0.206 F 
ATOM     81  C   UNL A   1      47.662  31.756  37.210  1.00  0.00     0.022 A 
BRANCH  78  82
ATOM     82  S   UNL A   1      47.460  29.051  36.568  1.00  0.00     0.124 S 
ATOM     83  O   UNL A   1      48.889  29.195  36.297  1.00  0.00    -0.237 OA
ATOM     84  O   UNL A   1      47.107  28.622  37.918  1.00  0.00    -0.237 OA
ATOM     85  O   UNL A   1      46.688  28.434  35.495  1.00  0.00    -0.744 OA
ENDBRANCH  78  82
ENDBRANCH  61  75
BRANCH  62  86
ATOM     86  C   UNL A   1      36.182  34.350  32.062  1.00  0.00     0.023 A 
ATOM     87  C   UNL A   1      35.491  35.550  32.292  1.00  0.00     0.031 A 
ATOM     88  C   UNL A   1      35.547  33.360  31.290  1.00  0.00     0.131 A 
ATOM     89  C   UNL A   1      34.185  35.710  31.801  1.00  0.00     0.055 A 
ATOM     90  C   UNL A   1      34.271  33.548  30.757  1.00  0.00     0.041 A 
ATOM     91  F   UNL A   1      36.165  32.197  31.035  1.00  0.00    -0.206 F 
ATOM     92  C   UNL A   1      33.576  34.723  31.025  1.00  0.00     0.022 A 
BRANCH  89  93
ATOM     93  S   UNL A   1      33.257  37.195  32.275  1.00  0.00     0.124 S 
ATOM     94  O   UNL A   1      34.164  37.818  33.233  1.00  0.00    -0.237 OA
ATOM     95  O   UNL A   1      33.107  37.879  30.995  1.00  0.00    -0.237 OA
ATOM     96  O   UNL A   1      32.022  36.657  32.842  1.00  0.00    -0.744 OA
ENDBRANCH  89  93
ENDBRANCH  62  86
BRANCH  74  97
ATOM     97  C   UNL A   1      38.319  32.978  38.556  1.00  0.00     0.023 A 
ATOM     98  C   UNL A   1      38.451  33.974  39.540  1.00  0.00     0.031 A 
ATOM     99  C   UNL A   1      37.483  31.882  38.833  1.00  0.00     0.131 A 
ATOM    100  C   UNL A   1      37.803  33.825  40.776  1.00  0.00     0.055 A 
ATOM    101  C   UNL A   1      36.793  31.769  40.041  1.00  0.00     0.041 A 
ATOM    102  F   UNL A   1      37.321  30.900  37.930  1.00  0.00    -0.206 F 
ATOM    103  C   UNL A   1      36.962  32.737  41.027  1.00  0.00     0.022 A 
BRANCH 100 104
ATOM    104  S   UNL A   1      38.144  35.029  42.090  1.00  0.00     0.124 S 
ATOM    105  O   UNL A   1      36.875  35.059  42.811  1.00  0.00    -0.237 OA
ATOM    106  O   UNL A   1      39.263  34.412  42.794  1.00  0.00    -0.237 OA
ATOM    107  O   UNL A   1      38.472  36.252  41.359  1.00  0.00    -0.744 OA
ENDBRANCH 100 104
ENDBRANCH  74  97
ENDBRANCH  48  49
ENDBRANCH  40  43
ENDBRANCH  38  39
ENDBRANCH  37  38
ENDBRANCH  36  37
ENDBRANCH   1  36
TORSDOF 21
ENDMDL
