MODEL 1
REMARK VINA RESULT:     -13.4      0.000      0.000
REMARK SMILES O=C(NCCCCCCNC(=O)c1ccc([C@@H]2CC(O)=Nc3c2ncn3-c2cccc(Cl)c2)cc1)c1ccc(-c2c3nc(c(-c4cc(S(=O)(=O)[O-])ccc4F)c4ccc([nH]4)c(-c4cc(S(=O)(=O)[O-])ccc4F)c4nc(c(-c5cc(S(=O)(=O)[O-])ccc5F)c5ccc2[nH]5)C=C4)C=C3)cc1
REMARK SMILES IDX 6 1 5 2 4 3 3 4 1 5 2 6 36 8 37 9 98 10 38 11 97 12 39 13
REMARK SMILES IDX 40 14 41 15 91 16 42 17 96 18 90 19 92 20 43 21 95 22 89 23
REMARK SMILES IDX 88 24 44 26 76 27 56 28 75 29 57 30 60 31 74 32 93 33 58 34
REMARK SMILES IDX 59 35 73 37 94 38 61 39 45 40 46 41 54 42 47 43 53 44 55 45
REMARK SMILES IDX 52 46 48 47 49 48 50 49 51 50 77 51 78 52 86 53 79 54 85 55
REMARK SMILES IDX 87 56 84 57 80 58 81 59 82 60 83 61 62 62 63 63 71 64 64 65
REMARK SMILES IDX 70 66 72 67 69 68 65 69 66 70 67 71 68 72 7 73 8 74 9 75
REMARK SMILES IDX 10 76 11 77 12 79 13 80 14 81 35 82 15 83 34 84 16 85 17 86
REMARK SMILES IDX 18 87 23 88 19 89 22 90 24 91 21 92 26 93 25 94 20 95 27 97
REMARK SMILES IDX 28 98 33 99 29 100 31 101 30 102 32 103
REMARK H PARENT 3 7 92 25 60 36 10 78 20 96
REMARK Flexibility Score: inf
ROOT
ATOM      1  C   UNL A   1      36.781  23.601  26.022  1.00  0.00     0.002 C 
ENDROOT
BRANCH   1   2
ATOM      2  C   UNL A   1      38.039  22.970  25.413  1.00  0.00     0.021 C 
BRANCH   2   3
ATOM      3  C   UNL A   1      38.907  22.177  26.388  1.00  0.00     0.116 C 
BRANCH   3   4
ATOM      4  N   UNL A   1      40.320  22.174  26.072  1.00  0.00    -0.352 N 
ATOM      5  O   UNL A   1      42.486  22.587  25.992  1.00  0.00    -0.269 OA
ATOM      6  C   UNL A   1      41.381  22.982  26.378  1.00  0.00     0.251 C 
ATOM      7  H   UNL A   1      40.578  21.412  25.503  1.00  0.00     0.163 HD
BRANCH   6   8
ATOM      8  C   UNL A   1      41.297  24.290  27.091  1.00  0.00     0.039 A 
ATOM      9  C   UNL A   1      42.100  24.690  28.157  1.00  0.00     0.014 A 
ATOM     10  C   UNL A   1      40.332  25.198  26.607  1.00  0.00     0.014 A 
ATOM     11  C   UNL A   1      41.923  25.945  28.746  1.00  0.00     0.010 A 
ATOM     12  C   UNL A   1      40.158  26.457  27.184  1.00  0.00     0.010 A 
ATOM     13  C   UNL A   1      40.952  26.832  28.263  1.00  0.00    -0.014 A 
BRANCH  13  14
ATOM     14  C   UNL A   1      40.948  28.198  28.792  1.00  0.00     0.031 A 
ATOM     15  C   UNL A   1      42.045  29.072  28.285  1.00  0.00     0.074 A 
ATOM     16  C   UNL A   1      39.992  28.754  29.563  1.00  0.00     0.049 A 
ATOM     17  N   UNL A   1      43.026  29.584  28.953  1.00  0.00    -0.248 NA
ATOM     18  C   UNL A   1      42.104  29.335  26.841  1.00  0.00     0.031 C 
ATOM     19  C   UNL A   1      38.691  28.197  29.923  1.00  0.00     0.029 A 
ATOM     20  N   UNL A   1      39.964  30.006  30.118  1.00  0.00    -0.354 N 
ATOM     21  C   UNL A   1      43.720  30.401  28.064  1.00  0.00     0.074 A 
ATOM     22  C   UNL A   1      43.198  30.096  26.757  1.00  0.00     0.031 C 
ATOM     23  C   UNL A   1      37.925  29.173  30.463  1.00  0.00     0.029 A 
ATOM     24  C   UNL A   1      38.718  30.387  30.602  1.00  0.00     0.049 A 
ATOM     25  H   UNL A   1      40.757  30.586  30.168  1.00  0.00     0.167 HD
ATOM     26  C   UNL A   1      44.547  31.395  28.497  1.00  0.00     0.034 A 
ATOM     27  C   UNL A   1      38.342  31.617  31.041  1.00  0.00     0.034 A 
ATOM     28  C   UNL A   1      44.886  31.228  29.891  1.00  0.00     0.049 A 
ATOM     29  C   UNL A   1      39.569  32.344  31.447  1.00  0.00     0.074 A 
ATOM     30  C   UNL A   1      45.476  30.224  30.634  1.00  0.00     0.029 A 
ATOM     31  N   UNL A   1      44.311  32.073  30.811  1.00  0.00    -0.354 N 
ATOM     32  N   UNL A   1      40.300  32.014  32.475  1.00  0.00    -0.248 NA
ATOM     33  C   UNL A   1      40.223  33.209  30.478  1.00  0.00     0.031 C 
ATOM     34  C   UNL A   1      44.792  30.242  31.885  1.00  0.00     0.029 A 
ATOM     35  C   UNL A   1      43.870  31.289  31.848  1.00  0.00     0.049 A 
ATOM     36  H   UNL A   1      44.232  33.053  30.741  1.00  0.00     0.167 HD
ATOM     37  C   UNL A   1      41.604  32.258  32.080  1.00  0.00     0.074 A 
ATOM     38  C   UNL A   1      41.487  33.099  30.894  1.00  0.00     0.031 C 
ATOM     39  C   UNL A   1      42.645  31.530  32.585  1.00  0.00     0.034 A 
BRANCH  26  40
ATOM     40  C   UNL A   1      44.816  32.696  27.771  1.00  0.00     0.023 A 
ATOM     41  C   UNL A   1      44.016  33.807  28.110  1.00  0.00     0.031 A 
ATOM     42  C   UNL A   1      45.583  32.833  26.593  1.00  0.00     0.131 A 
ATOM     43  C   UNL A   1      43.913  34.917  27.256  1.00  0.00     0.055 A 
ATOM     44  C   UNL A   1      45.538  33.975  25.786  1.00  0.00     0.041 A 
ATOM     45  F   UNL A   1      46.338  31.842  26.104  1.00  0.00    -0.206 F 
ATOM     46  C   UNL A   1      44.673  35.011  26.095  1.00  0.00     0.022 A 
BRANCH  43  47
ATOM     47  S   UNL A   1      42.616  36.139  27.588  1.00  0.00     0.124 S 
ATOM     48  O   UNL A   1      43.162  37.327  26.939  1.00  0.00    -0.237 OA
ATOM     49  O   UNL A   1      41.456  35.530  26.948  1.00  0.00    -0.237 OA
ATOM     50  O   UNL A   1      42.567  36.193  29.048  1.00  0.00    -0.744 OA
ENDBRANCH  43  47
ENDBRANCH  26  40
BRANCH  27  51
ATOM     51  C   UNL A   1      37.014  32.273  30.904  1.00  0.00     0.023 A 
ATOM     52  C   UNL A   1      36.247  32.685  32.015  1.00  0.00     0.031 A 
ATOM     53  C   UNL A   1      36.585  32.728  29.637  1.00  0.00     0.131 A 
ATOM     54  C   UNL A   1      35.111  33.509  31.833  1.00  0.00     0.055 A 
ATOM     55  C   UNL A   1      35.457  33.530  29.460  1.00  0.00     0.041 A 
ATOM     56  F   UNL A   1      37.303  32.481  28.530  1.00  0.00    -0.206 F 
ATOM     57  C   UNL A   1      34.718  33.933  30.561  1.00  0.00     0.022 A 
BRANCH  54  58
ATOM     58  S   UNL A   1      34.188  34.143  33.270  1.00  0.00     0.124 S 
ATOM     59  O   UNL A   1      32.978  33.329  33.246  1.00  0.00    -0.237 OA
ATOM     60  O   UNL A   1      35.113  33.902  34.371  1.00  0.00    -0.237 OA
ATOM     61  O   UNL A   1      33.983  35.556  32.945  1.00  0.00    -0.744 OA
ENDBRANCH  54  58
ENDBRANCH  27  51
BRANCH  39  62
ATOM     62  C   UNL A   1      42.433  30.722  33.846  1.00  0.00     0.023 A 
ATOM     63  C   UNL A   1      42.115  29.346  33.880  1.00  0.00     0.031 A 
ATOM     64  C   UNL A   1      42.681  31.364  35.074  1.00  0.00     0.131 A 
ATOM     65  C   UNL A   1      42.042  28.671  35.113  1.00  0.00     0.055 A 
ATOM     66  C   UNL A   1      42.628  30.687  36.292  1.00  0.00     0.041 A 
ATOM     67  F   UNL A   1      43.016  32.665  35.109  1.00  0.00    -0.206 F 
ATOM     68  C   UNL A   1      42.300  29.337  36.316  1.00  0.00     0.022 A 
BRANCH  65  69
ATOM     69  S   UNL A   1      41.595  26.907  35.177  1.00  0.00     0.124 S 
ATOM     70  O   UNL A   1      41.180  26.707  36.559  1.00  0.00    -0.237 OA
ATOM     71  O   UNL A   1      40.540  26.815  34.170  1.00  0.00    -0.237 OA
ATOM     72  O   UNL A   1      42.841  26.229  34.811  1.00  0.00    -0.744 OA
ENDBRANCH  65  69
ENDBRANCH  39  62
ENDBRANCH  13  14
ENDBRANCH   6   8
ENDBRANCH   3   4
ENDBRANCH   2   3
ENDBRANCH   1   2
BRANCH   1  73
ATOM     73  C   UNL A   1      35.448  22.935  25.665  1.00  0.00     0.002 C 
BRANCH  73  74
ATOM     74  C   UNL A   1      35.287  21.478  26.112  1.00  0.00     0.021 C 
BRANCH  74  75
ATOM     75  C   UNL A   1      35.411  20.438  25.002  1.00  0.00     0.116 C 
BRANCH  75  76
ATOM     76  N   UNL A   1      34.324  19.470  25.029  1.00  0.00    -0.352 N 
ATOM     77  C   UNL A   1      32.982  19.680  24.844  1.00  0.00     0.251 C 
ATOM     78  H   UNL A   1      34.589  18.538  25.202  1.00  0.00     0.163 HD
ATOM     79  O   UNL A   1      32.170  18.778  25.069  1.00  0.00    -0.269 OA
BRANCH  77  80
ATOM     80  C   UNL A   1      32.494  21.001  24.404  1.00  0.00     0.039 A 
ATOM     81  C   UNL A   1      31.754  21.772  25.301  1.00  0.00     0.014 A 
ATOM     82  C   UNL A   1      32.752  21.474  23.114  1.00  0.00     0.014 A 
ATOM     83  C   UNL A   1      31.331  23.048  24.928  1.00  0.00     0.005 A 
ATOM     84  C   UNL A   1      32.338  22.755  22.747  1.00  0.00     0.005 A 
ATOM     85  C   UNL A   1      31.631  23.564  23.654  1.00  0.00    -0.038 A 
BRANCH  85  86
ATOM     86  C   UNL A   1      31.148  24.957  23.288  1.00  0.00     0.081 C 
ATOM     87  C   UNL A   1      31.916  25.550  22.086  1.00  0.00     0.111 C 
ATOM     88  C   UNL A   1      31.292  25.802  24.501  1.00  0.00     0.093 A 
ATOM     89  C   UNL A   1      32.822  26.725  22.413  1.00  0.00     0.188 C 
ATOM     90  C   UNL A   1      32.056  26.946  24.489  1.00  0.00     0.164 A 
ATOM     91  N   UNL A   1      30.750  25.570  25.738  1.00  0.00    -0.238 NA
ATOM     92  N   UNL A   1      32.846  27.426  23.500  1.00  0.00    -0.198 NA
ATOM     93  N   UNL A   1      31.984  27.449  25.773  1.00  0.00    -0.283 N 
ATOM     94  C   UNL A   1      31.233  26.540  26.492  1.00  0.00     0.206 A 
BRANCH  89  95
ATOM     95  O   UNL A   1      33.643  27.084  21.408  1.00  0.00    -0.496 OA
ATOM     96  H   UNL A   1      33.309  27.158  20.534  1.00  0.00     0.294 HD
ENDBRANCH  89  95
BRANCH  93  97
ATOM     97  C   UNL A   1      32.560  28.648  26.251  1.00  0.00     0.050 A 
ATOM     98  C   UNL A   1      31.789  29.809  26.363  1.00  0.00     0.027 A 
ATOM     99  C   UNL A   1      33.908  28.652  26.635  1.00  0.00     0.047 A 
ATOM    100  C   UNL A   1      32.360  30.960  26.912  1.00  0.00     0.004 A 
ATOM    101  C   UNL A   1      34.478  29.820  27.131  1.00  0.00     0.043 A 
ATOM    102  C   UNL A   1      33.706  30.969  27.289  1.00  0.00     0.020 A 
ATOM    103  Cl  UNL A   1      36.151  29.847  27.536  1.00  0.00    -0.084 Cl
ENDBRANCH  93  97
ENDBRANCH  85  86
ENDBRANCH  77  80
ENDBRANCH  75  76
ENDBRANCH  74  75
ENDBRANCH  73  74
ENDBRANCH   1  73
TORSDOF 19
ENDMDL
MODEL 2
REMARK VINA RESULT:     -13.1      2.131      2.716
REMARK SMILES O=C(NCCCCCCNC(=O)c1ccc([C@@H]2CC(O)=Nc3c2ncn3-c2cccc(Cl)c2)cc1)c1ccc(-c2c3nc(c(-c4cc(S(=O)(=O)[O-])ccc4F)c4ccc([nH]4)c(-c4cc(S(=O)(=O)[O-])ccc4F)c4nc(c(-c5cc(S(=O)(=O)[O-])ccc5F)c5ccc2[nH]5)C=C4)C=C3)cc1
REMARK SMILES IDX 6 1 5 2 4 3 3 4 1 5 2 6 36 8 37 9 98 10 38 11 97 12 39 13
REMARK SMILES IDX 40 14 41 15 91 16 42 17 96 18 90 19 92 20 43 21 95 22 89 23
REMARK SMILES IDX 88 24 44 26 76 27 56 28 75 29 57 30 60 31 74 32 93 33 58 34
REMARK SMILES IDX 59 35 73 37 94 38 61 39 45 40 46 41 54 42 47 43 53 44 55 45
REMARK SMILES IDX 52 46 48 47 49 48 50 49 51 50 77 51 78 52 86 53 79 54 85 55
REMARK SMILES IDX 87 56 84 57 80 58 81 59 82 60 83 61 62 62 63 63 71 64 64 65
REMARK SMILES IDX 70 66 72 67 69 68 65 69 66 70 67 71 68 72 7 73 8 74 9 75
REMARK SMILES IDX 10 76 11 77 12 79 13 80 14 81 35 82 15 83 34 84 16 85 17 86
REMARK SMILES IDX 18 87 23 88 19 89 22 90 24 91 21 92 26 93 25 94 20 95 27 97
REMARK SMILES IDX 28 98 33 99 29 100 31 101 30 102 32 103
REMARK H PARENT 3 7 92 25 60 36 10 78 20 96
REMARK Flexibility Score: inf
ROOT
ATOM      1  C   UNL A   1      37.281  21.151  25.055  1.00  0.00     0.002 C 
ENDROOT
BRANCH   1   2
ATOM      2  C   UNL A   1      38.215  22.269  25.535  1.00  0.00     0.021 C 
BRANCH   2   3
ATOM      3  C   UNL A   1      39.267  21.845  26.557  1.00  0.00     0.116 C 
BRANCH   3   4
ATOM      4  N   UNL A   1      40.637  21.987  26.108  1.00  0.00    -0.352 N 
ATOM      5  O   UNL A   1      42.725  22.634  25.813  1.00  0.00    -0.269 OA
ATOM      6  C   UNL A   1      41.623  22.917  26.293  1.00  0.00     0.251 C 
ATOM      7  H   UNL A   1      40.925  21.240  25.535  1.00  0.00     0.163 HD
BRANCH   6   8
ATOM      8  C   UNL A   1      41.458  24.231  26.981  1.00  0.00     0.039 A 
ATOM      9  C   UNL A   1      42.197  24.676  28.076  1.00  0.00     0.014 A 
ATOM     10  C   UNL A   1      40.483  25.095  26.441  1.00  0.00     0.014 A 
ATOM     11  C   UNL A   1      41.946  25.930  28.637  1.00  0.00     0.010 A 
ATOM     12  C   UNL A   1      40.236  26.354  26.991  1.00  0.00     0.010 A 
ATOM     13  C   UNL A   1      40.966  26.773  28.098  1.00  0.00    -0.014 A 
BRANCH  13  14
ATOM     14  C   UNL A   1      40.888  28.146  28.605  1.00  0.00     0.031 A 
ATOM     15  C   UNL A   1      41.965  29.057  28.123  1.00  0.00     0.074 A 
ATOM     16  C   UNL A   1      39.883  28.672  29.334  1.00  0.00     0.049 A 
ATOM     17  N   UNL A   1      42.900  29.619  28.816  1.00  0.00    -0.248 NA
ATOM     18  C   UNL A   1      42.064  29.302  26.678  1.00  0.00     0.031 C 
ATOM     19  C   UNL A   1      38.594  28.066  29.658  1.00  0.00     0.029 A 
ATOM     20  N   UNL A   1      39.784  29.930  29.868  1.00  0.00    -0.354 N 
ATOM     21  C   UNL A   1      43.590  30.452  27.939  1.00  0.00     0.074 A 
ATOM     22  C   UNL A   1      43.127  30.107  26.620  1.00  0.00     0.031 C 
ATOM     23  C   UNL A   1      37.770  29.017  30.156  1.00  0.00     0.029 A 
ATOM     24  C   UNL A   1      38.507  30.265  30.303  1.00  0.00     0.049 A 
ATOM     25  H   UNL A   1      40.551  30.543  29.937  1.00  0.00     0.167 HD
ATOM     26  C   UNL A   1      44.361  31.485  28.384  1.00  0.00     0.034 A 
ATOM     27  C   UNL A   1      38.066  31.485  30.710  1.00  0.00     0.034 A 
ATOM     28  C   UNL A   1      44.657  31.352  29.792  1.00  0.00     0.049 A 
ATOM     29  C   UNL A   1      39.247  32.268  31.146  1.00  0.00     0.074 A 
ATOM     30  C   UNL A   1      45.261  30.384  30.571  1.00  0.00     0.029 A 
ATOM     31  N   UNL A   1      44.015  32.186  30.679  1.00  0.00    -0.354 N 
ATOM     32  N   UNL A   1      39.954  31.983  32.204  1.00  0.00    -0.248 NA
ATOM     33  C   UNL A   1      39.898  33.145  30.187  1.00  0.00     0.031 C 
ATOM     34  C   UNL A   1      44.533  30.391  31.797  1.00  0.00     0.029 A 
ATOM     35  C   UNL A   1      43.571  31.398  31.711  1.00  0.00     0.049 A 
ATOM     36  H   UNL A   1      43.898  33.160  30.591  1.00  0.00     0.167 HD
ATOM     37  C   UNL A   1      41.260  32.275  31.850  1.00  0.00     0.074 A 
ATOM     38  C   UNL A   1      41.150  33.094  30.648  1.00  0.00     0.031 C 
ATOM     39  C   UNL A   1      42.312  31.599  32.402  1.00  0.00     0.034 A 
BRANCH  26  40
ATOM     40  C   UNL A   1      44.601  32.786  27.649  1.00  0.00     0.023 A 
ATOM     41  C   UNL A   1      43.874  33.918  28.074  1.00  0.00     0.031 A 
ATOM     42  C   UNL A   1      45.254  32.913  26.402  1.00  0.00     0.131 A 
ATOM     43  C   UNL A   1      43.726  35.041  27.244  1.00  0.00     0.055 A 
ATOM     44  C   UNL A   1      45.169  34.066  25.615  1.00  0.00     0.041 A 
ATOM     45  F   UNL A   1      45.925  31.905  25.834  1.00  0.00    -0.206 F 
ATOM     46  C   UNL A   1      44.373  35.125  26.015  1.00  0.00     0.022 A 
BRANCH  43  47
ATOM     47  S   UNL A   1      42.509  36.300  27.713  1.00  0.00     0.124 S 
ATOM     48  O   UNL A   1      43.037  36.751  28.996  1.00  0.00    -0.237 OA
ATOM     49  O   UNL A   1      42.611  37.244  26.606  1.00  0.00    -0.237 OA
ATOM     50  O   UNL A   1      41.256  35.551  27.782  1.00  0.00    -0.744 OA
ENDBRANCH  43  47
ENDBRANCH  26  40
BRANCH  27  51
ATOM     51  C   UNL A   1      36.717  32.083  30.517  1.00  0.00     0.023 A 
ATOM     52  C   UNL A   1      36.011  32.726  31.556  1.00  0.00     0.031 A 
ATOM     53  C   UNL A   1      36.202  32.240  29.211  1.00  0.00     0.131 A 
ATOM     54  C   UNL A   1      34.849  33.479  31.269  1.00  0.00     0.055 A 
ATOM     55  C   UNL A   1      35.047  32.973  28.934  1.00  0.00     0.041 A 
ATOM     56  F   UNL A   1      36.856  31.758  28.142  1.00  0.00    -0.206 F 
ATOM     57  C   UNL A   1      34.369  33.605  29.963  1.00  0.00     0.022 A 
BRANCH  54  58
ATOM     58  S   UNL A   1      34.001  34.411  32.586  1.00  0.00     0.124 S 
ATOM     59  O   UNL A   1      33.009  35.174  31.837  1.00  0.00    -0.237 OA
ATOM     60  O   UNL A   1      33.492  33.350  33.446  1.00  0.00    -0.237 OA
ATOM     61  O   UNL A   1      35.073  35.214  33.178  1.00  0.00    -0.744 OA
ENDBRANCH  54  58
ENDBRANCH  27  51
BRANCH  39  62
ATOM     62  C   UNL A   1      42.089  30.800  33.668  1.00  0.00     0.023 A 
ATOM     63  C   UNL A   1      41.918  29.399  33.719  1.00  0.00     0.031 A 
ATOM     64  C   UNL A   1      42.171  31.492  34.891  1.00  0.00     0.131 A 
ATOM     65  C   UNL A   1      41.820  28.748  34.963  1.00  0.00     0.055 A 
ATOM     66  C   UNL A   1      42.096  30.841  36.121  1.00  0.00     0.041 A 
ATOM     67  F   UNL A   1      42.363  32.822  34.911  1.00  0.00    -0.206 F 
ATOM     68  C   UNL A   1      41.912  29.464  36.161  1.00  0.00     0.022 A 
BRANCH  65  69
ATOM     69  S   UNL A   1      41.560  26.947  35.046  1.00  0.00     0.124 S 
ATOM     70  O   UNL A   1      41.279  26.705  36.455  1.00  0.00    -0.237 OA
ATOM     71  O   UNL A   1      40.442  26.750  34.126  1.00  0.00    -0.237 OA
ATOM     72  O   UNL A   1      42.835  26.399  34.577  1.00  0.00    -0.744 OA
ENDBRANCH  65  69
ENDBRANCH  39  62
ENDBRANCH  13  14
ENDBRANCH   6   8
ENDBRANCH   3   4
ENDBRANCH   2   3
ENDBRANCH   1   2
BRANCH   1  73
ATOM     73  C   UNL A   1      35.871  21.580  24.636  1.00  0.00     0.002 C 
BRANCH  73  74
ATOM     74  C   UNL A   1      34.776  20.519  24.789  1.00  0.00     0.021 C 
BRANCH  74  75
ATOM     75  C   UNL A   1      33.370  21.063  25.027  1.00  0.00     0.116 C 
BRANCH  75  76
ATOM     76  N   UNL A   1      33.072  21.222  26.442  1.00  0.00    -0.352 N 
ATOM     77  C   UNL A   1      33.029  22.371  27.189  1.00  0.00     0.251 C 
ATOM     78  H   UNL A   1      32.873  20.391  26.931  1.00  0.00     0.163 HD
ATOM     79  O   UNL A   1      32.928  22.317  28.418  1.00  0.00    -0.269 OA
BRANCH  77  80
ATOM     80  C   UNL A   1      33.135  23.686  26.527  1.00  0.00     0.039 A 
ATOM     81  C   UNL A   1      34.391  24.121  26.103  1.00  0.00     0.014 A 
ATOM     82  C   UNL A   1      32.008  24.492  26.336  1.00  0.00     0.014 A 
ATOM     83  C   UNL A   1      34.508  25.333  25.424  1.00  0.00     0.005 A 
ATOM     84  C   UNL A   1      32.126  25.700  25.646  1.00  0.00     0.005 A 
ATOM     85  C   UNL A   1      33.377  26.131  25.171  1.00  0.00    -0.038 A 
BRANCH  85  86
ATOM     86  C   UNL A   1      33.550  27.446  24.432  1.00  0.00     0.081 C 
ATOM     87  C   UNL A   1      33.853  28.623  25.386  1.00  0.00     0.111 C 
ATOM     88  C   UNL A   1      32.306  27.678  23.654  1.00  0.00     0.093 A 
ATOM     89  C   UNL A   1      32.747  29.658  25.508  1.00  0.00     0.188 C 
ATOM     90  C   UNL A   1      31.551  28.813  23.835  1.00  0.00     0.164 A 
ATOM     91  N   UNL A   1      31.745  26.840  22.726  1.00  0.00    -0.238 NA
ATOM     92  N   UNL A   1      31.709  29.798  24.749  1.00  0.00    -0.198 NA
ATOM     93  N   UNL A   1      30.473  28.677  22.981  1.00  0.00    -0.283 N 
ATOM     94  C   UNL A   1      30.617  27.438  22.388  1.00  0.00     0.206 A 
BRANCH  89  95
ATOM     95  O   UNL A   1      32.933  30.549  26.500  1.00  0.00    -0.496 OA
ATOM     96  H   UNL A   1      32.415  30.496  27.280  1.00  0.00     0.294 HD
ENDBRANCH  89  95
BRANCH  93  97
ATOM     97  C   UNL A   1      29.439  29.614  22.760  1.00  0.00     0.050 A 
ATOM     98  C   UNL A   1      28.426  29.787  23.707  1.00  0.00     0.027 A 
ATOM     99  C   UNL A   1      29.455  30.384  21.589  1.00  0.00     0.047 A 
ATOM    100  C   UNL A   1      27.458  30.775  23.503  1.00  0.00     0.004 A 
ATOM    101  C   UNL A   1      28.455  31.327  21.373  1.00  0.00     0.043 A 
ATOM    102  C   UNL A   1      27.467  31.540  22.333  1.00  0.00     0.020 A 
ATOM    103  Cl  UNL A   1      28.432  32.225  19.904  1.00  0.00    -0.084 Cl
ENDBRANCH  93  97
ENDBRANCH  85  86
ENDBRANCH  77  80
ENDBRANCH  75  76
ENDBRANCH  74  75
ENDBRANCH  73  74
ENDBRANCH   1  73
TORSDOF 19
ENDMDL
MODEL 3
REMARK VINA RESULT:     -12.5      1.907      2.183
REMARK SMILES O=C(NCCCCCCNC(=O)c1ccc([C@@H]2CC(O)=Nc3c2ncn3-c2cccc(Cl)c2)cc1)c1ccc(-c2c3nc(c(-c4cc(S(=O)(=O)[O-])ccc4F)c4ccc([nH]4)c(-c4cc(S(=O)(=O)[O-])ccc4F)c4nc(c(-c5cc(S(=O)(=O)[O-])ccc5F)c5ccc2[nH]5)C=C4)C=C3)cc1
REMARK SMILES IDX 6 1 5 2 4 3 3 4 1 5 2 6 36 8 37 9 98 10 38 11 97 12 39 13
REMARK SMILES IDX 40 14 41 15 91 16 42 17 96 18 90 19 92 20 43 21 95 22 89 23
REMARK SMILES IDX 88 24 44 26 76 27 56 28 75 29 57 30 60 31 74 32 93 33 58 34
REMARK SMILES IDX 59 35 73 37 94 38 61 39 45 40 46 41 54 42 47 43 53 44 55 45
REMARK SMILES IDX 52 46 48 47 49 48 50 49 51 50 77 51 78 52 86 53 79 54 85 55
REMARK SMILES IDX 87 56 84 57 80 58 81 59 82 60 83 61 62 62 63 63 71 64 64 65
REMARK SMILES IDX 70 66 72 67 69 68 65 69 66 70 67 71 68 72 7 73 8 74 9 75
REMARK SMILES IDX 10 76 11 77 12 79 13 80 14 81 35 82 15 83 34 84 16 85 17 86
REMARK SMILES IDX 18 87 23 88 19 89 22 90 24 91 21 92 26 93 25 94 20 95 27 97
REMARK SMILES IDX 28 98 33 99 29 100 31 101 30 102 32 103
REMARK H PARENT 3 7 92 25 60 36 10 78 20 96
REMARK Flexibility Score: inf
ROOT
ATOM      1  C   UNL A   1      38.221  21.828  25.365  1.00  0.00     0.002 C 
ENDROOT
BRANCH   1   2
ATOM      2  C   UNL A   1      38.884  22.560  26.539  1.00  0.00     0.021 C 
BRANCH   2   3
ATOM      3  C   UNL A   1      40.157  21.910  27.076  1.00  0.00     0.116 C 
BRANCH   3   4
ATOM      4  N   UNL A   1      41.354  22.211  26.317  1.00  0.00    -0.352 N 
ATOM      5  O   UNL A   1      43.212  23.109  25.539  1.00  0.00    -0.269 OA
ATOM      6  C   UNL A   1      42.224  23.265  26.263  1.00  0.00     0.251 C 
ATOM      7  H   UNL A   1      41.598  21.488  25.695  1.00  0.00     0.163 HD
BRANCH   6   8
ATOM      8  C   UNL A   1      42.051  24.569  26.967  1.00  0.00     0.039 A 
ATOM      9  C   UNL A   1      42.737  24.976  28.110  1.00  0.00     0.014 A 
ATOM     10  C   UNL A   1      41.128  25.466  26.390  1.00  0.00     0.014 A 
ATOM     11  C   UNL A   1      42.484  26.226  28.681  1.00  0.00     0.010 A 
ATOM     12  C   UNL A   1      40.879  26.720  26.950  1.00  0.00     0.010 A 
ATOM     13  C   UNL A   1      41.555  27.102  28.104  1.00  0.00    -0.014 A 
BRANCH  13  14
ATOM     14  C   UNL A   1      41.480  28.466  28.633  1.00  0.00     0.031 A 
ATOM     15  C   UNL A   1      42.499  29.409  28.089  1.00  0.00     0.074 A 
ATOM     16  C   UNL A   1      40.517  28.960  29.437  1.00  0.00     0.049 A 
ATOM     17  N   UNL A   1      43.466  29.987  28.722  1.00  0.00    -0.248 NA
ATOM     18  C   UNL A   1      42.491  29.673  26.644  1.00  0.00     0.031 C 
ATOM     19  C   UNL A   1      39.269  28.319  29.842  1.00  0.00     0.029 A 
ATOM     20  N   UNL A   1      40.425  30.208  29.992  1.00  0.00    -0.354 N 
ATOM     21  C   UNL A   1      44.074  30.845  27.809  1.00  0.00     0.074 A 
ATOM     22  C   UNL A   1      43.528  30.504  26.521  1.00  0.00     0.031 C 
ATOM     23  C   UNL A   1      38.459  29.244  30.408  1.00  0.00     0.029 A 
ATOM     24  C   UNL A   1      39.175  30.507  30.520  1.00  0.00     0.049 A 
ATOM     25  H   UNL A   1      41.180  30.840  30.015  1.00  0.00     0.167 HD
ATOM     26  C   UNL A   1      44.849  31.892  28.213  1.00  0.00     0.034 A 
ATOM     27  C   UNL A   1      38.734  31.711  30.972  1.00  0.00     0.034 A 
ATOM     28  C   UNL A   1      45.246  31.751  29.595  1.00  0.00     0.049 A 
ATOM     29  C   UNL A   1      39.924  32.518  31.335  1.00  0.00     0.074 A 
ATOM     30  C   UNL A   1      45.926  30.789  30.317  1.00  0.00     0.029 A 
ATOM     31  N   UNL A   1      44.648  32.559  30.535  1.00  0.00    -0.354 N 
ATOM     32  N   UNL A   1      40.710  32.239  32.337  1.00  0.00    -0.248 NA
ATOM     33  C   UNL A   1      40.485  33.422  30.344  1.00  0.00     0.031 C 
ATOM     34  C   UNL A   1      45.286  30.765  31.591  1.00  0.00     0.029 A 
ATOM     35  C   UNL A   1      44.296  31.749  31.585  1.00  0.00     0.049 A 
ATOM     36  H   UNL A   1      44.502  33.531  30.467  1.00  0.00     0.167 HD
ATOM     37  C   UNL A   1      41.981  32.567  31.896  1.00  0.00     0.074 A 
ATOM     38  C   UNL A   1      41.767  33.397  30.715  1.00  0.00     0.031 C 
ATOM     39  C   UNL A   1      43.084  31.911  32.365  1.00  0.00     0.034 A 
BRANCH  26  40
ATOM     40  C   UNL A   1      45.005  33.207  27.479  1.00  0.00     0.023 A 
ATOM     41  C   UNL A   1      46.279  33.513  26.957  1.00  0.00     0.031 A 
ATOM     42  C   UNL A   1      44.088  34.281  27.518  1.00  0.00     0.131 A 
ATOM     43  C   UNL A   1      46.629  34.830  26.616  1.00  0.00     0.055 A 
ATOM     44  C   UNL A   1      44.416  35.575  27.102  1.00  0.00     0.041 A 
ATOM     45  F   UNL A   1      42.865  34.165  28.048  1.00  0.00    -0.206 F 
ATOM     46  C   UNL A   1      45.702  35.866  26.681  1.00  0.00     0.022 A 
BRANCH  43  47
ATOM     47  S   UNL A   1      48.372  35.196  26.281  1.00  0.00     0.124 S 
ATOM     48  O   UNL A   1      48.356  36.653  26.214  1.00  0.00    -0.237 OA
ATOM     49  O   UNL A   1      49.032  34.611  27.443  1.00  0.00    -0.237 OA
ATOM     50  O   UNL A   1      48.623  34.516  25.012  1.00  0.00    -0.744 OA
ENDBRANCH  43  47
ENDBRANCH  26  40
BRANCH  27  51
ATOM     51  C   UNL A   1      37.362  32.278  30.881  1.00  0.00     0.023 A 
ATOM     52  C   UNL A   1      36.576  32.562  32.019  1.00  0.00     0.031 A 
ATOM     53  C   UNL A   1      36.892  32.781  29.647  1.00  0.00     0.131 A 
ATOM     54  C   UNL A   1      35.383  33.312  31.893  1.00  0.00     0.055 A 
ATOM     55  C   UNL A   1      35.708  33.510  29.526  1.00  0.00     0.041 A 
ATOM     56  F   UNL A   1      37.618  32.658  28.524  1.00  0.00    -0.206 F 
ATOM     57  C   UNL A   1      34.951  33.788  30.652  1.00  0.00     0.022 A 
BRANCH  54  58
ATOM     58  S   UNL A   1      34.427  33.786  33.370  1.00  0.00     0.124 S 
ATOM     59  O   UNL A   1      35.258  33.276  34.455  1.00  0.00    -0.237 OA
ATOM     60  O   UNL A   1      34.344  35.236  33.241  1.00  0.00    -0.237 OA
ATOM     61  O   UNL A   1      33.154  33.085  33.191  1.00  0.00    -0.744 OA
ENDBRANCH  54  58
ENDBRANCH  27  51
BRANCH  39  62
ATOM     62  C   UNL A   1      42.969  31.093  33.633  1.00  0.00     0.023 A 
ATOM     63  C   UNL A   1      43.244  31.574  34.932  1.00  0.00     0.031 A 
ATOM     64  C   UNL A   1      42.441  29.793  33.517  1.00  0.00     0.131 A 
ATOM     65  C   UNL A   1      43.004  30.755  36.051  1.00  0.00     0.055 A 
ATOM     66  C   UNL A   1      42.185  28.993  34.629  1.00  0.00     0.041 A 
ATOM     67  F   UNL A   1      42.131  29.288  32.312  1.00  0.00    -0.206 F 
ATOM     68  C   UNL A   1      42.474  29.470  35.903  1.00  0.00     0.022 A 
BRANCH  65  69
ATOM     69  S   UNL A   1      43.390  31.346  37.730  1.00  0.00     0.124 S 
ATOM     70  O   UNL A   1      44.086  32.606  37.499  1.00  0.00    -0.237 OA
ATOM     71  O   UNL A   1      42.066  31.448  38.338  1.00  0.00    -0.237 OA
ATOM     72  O   UNL A   1      44.230  30.280  38.280  1.00  0.00    -0.744 OA
ENDBRANCH  65  69
ENDBRANCH  39  62
ENDBRANCH  13  14
ENDBRANCH   6   8
ENDBRANCH   3   4
ENDBRANCH   2   3
ENDBRANCH   1   2
BRANCH   1  73
ATOM     73  C   UNL A   1      36.857  22.363  24.917  1.00  0.00     0.002 C 
BRANCH  73  74
ATOM     74  C   UNL A   1      35.804  21.306  24.571  1.00  0.00     0.021 C 
BRANCH  74  75
ATOM     75  C   UNL A   1      35.040  20.731  25.761  1.00  0.00     0.116 C 
BRANCH  75  76
ATOM     76  N   UNL A   1      34.100  19.693  25.365  1.00  0.00    -0.352 N 
ATOM     77  C   UNL A   1      32.848  19.828  24.823  1.00  0.00     0.251 C 
ATOM     78  H   UNL A   1      34.406  18.768  25.503  1.00  0.00     0.163 HD
ATOM     79  O   UNL A   1      32.108  18.848  24.701  1.00  0.00    -0.269 OA
BRANCH  77  80
ATOM     80  C   UNL A   1      32.362  21.158  24.408  1.00  0.00     0.039 A 
ATOM     81  C   UNL A   1      31.702  21.951  25.348  1.00  0.00     0.014 A 
ATOM     82  C   UNL A   1      32.543  21.619  23.101  1.00  0.00     0.014 A 
ATOM     83  C   UNL A   1      31.284  23.234  24.997  1.00  0.00     0.005 A 
ATOM     84  C   UNL A   1      32.135  22.908  22.754  1.00  0.00     0.005 A 
ATOM     85  C   UNL A   1      31.509  23.738  23.702  1.00  0.00    -0.038 A 
BRANCH  85  86
ATOM     86  C   UNL A   1      31.034  25.139  23.361  1.00  0.00     0.081 C 
ATOM     87  C   UNL A   1      31.780  25.735  22.147  1.00  0.00     0.111 C 
ATOM     88  C   UNL A   1      31.217  25.971  24.578  1.00  0.00     0.093 A 
ATOM     89  C   UNL A   1      32.708  26.896  22.463  1.00  0.00     0.188 C 
ATOM     90  C   UNL A   1      31.995  27.105  24.559  1.00  0.00     0.164 A 
ATOM     91  N   UNL A   1      30.702  25.734  25.826  1.00  0.00    -0.238 NA
ATOM     92  N   UNL A   1      32.767  27.586  23.556  1.00  0.00    -0.198 NA
ATOM     93  N   UNL A   1      31.960  27.597  25.849  1.00  0.00    -0.283 N 
ATOM     94  C   UNL A   1      31.215  26.690  26.577  1.00  0.00     0.206 A 
BRANCH  89  95
ATOM     95  O   UNL A   1      33.509  27.255  21.442  1.00  0.00    -0.496 OA
ATOM     96  H   UNL A   1      34.430  27.084  21.488  1.00  0.00     0.294 HD
ENDBRANCH  89  95
BRANCH  93  97
ATOM     97  C   UNL A   1      32.561  28.784  26.325  1.00  0.00     0.050 A 
ATOM     98  C   UNL A   1      31.833  29.977  26.374  1.00  0.00     0.027 A 
ATOM     99  C   UNL A   1      33.890  28.745  26.770  1.00  0.00     0.047 A 
ATOM    100  C   UNL A   1      32.425  31.119  26.921  1.00  0.00     0.004 A 
ATOM    101  C   UNL A   1      34.484  29.902  27.264  1.00  0.00     0.043 A 
ATOM    102  C   UNL A   1      33.752  31.085  27.359  1.00  0.00     0.020 A 
ATOM    103  Cl  UNL A   1      36.136  29.874  27.745  1.00  0.00    -0.084 Cl
ENDBRANCH  93  97
ENDBRANCH  85  86
ENDBRANCH  77  80
ENDBRANCH  75  76
ENDBRANCH  74  75
ENDBRANCH  73  74
ENDBRANCH   1  73
TORSDOF 19
ENDMDL
