MODEL 1
REMARK VINA RESULT:      -7.7      0.000      0.000
REMARK SMILES CCOC(=O)c1ccc(NC(=O)[C@@H]2[C@H]3c4ccccc4[C@H](c4ccccc43)[C@@H]2C(=O)NCCCCCCNC(=O)c2ccc(-c3c4nc(c(-c5cc(S(=O)(=O)[O-])ccc5F)c5ccc([nH]5)c(-c5cc(S(=O)(=O)[O-])ccc5F)c5nc(c(-c6cc(S(=O)(=O)[O-])ccc6F)c6ccc3[nH]6)C=C5)C=C4)cc2)cc1
REMARK SMILES IDX 33 1 32 2 31 3 29 4 30 5 28 7 13 8 14 9 15 10 27 11 21 12
REMARK SMILES IDX 16 13 20 14 22 15 26 16 17 17 19 18 23 19 25 20 18 21 24 22
REMARK SMILES IDX 11 23 10 24 12 26 9 27 6 28 7 29 105 30 8 31 104 32 4 33
REMARK SMILES IDX 5 34 3 35 2 36 1 37 34 38 35 39 36 40 37 41 38 42 39 43
REMARK SMILES IDX 40 45 41 46 42 47 103 48 43 49 102 50 44 51 45 52 46 53
REMARK SMILES IDX 96 54 47 55 101 56 95 57 97 58 48 59 100 60 94 61 93 62
REMARK SMILES IDX 49 64 81 65 61 66 80 67 62 68 65 69 79 70 98 71 63 72 64 73
REMARK SMILES IDX 78 75 99 76 66 77 50 78 51 79 59 80 52 81 58 82 60 83 57 84
REMARK SMILES IDX 53 85 54 86 55 87 56 88 82 89 83 90 91 91 84 92 90 93 92 94
REMARK SMILES IDX 89 95 85 96 86 97 87 98 88 99 67 100 68 101 76 102 69 103
REMARK SMILES IDX 75 104 77 105 74 106 70 107 71 108 72 109 73 110
REMARK H PARENT 31 6 10 25 38 44 97 63 65 74
REMARK Flexibility Score: inf
ROOT
ATOM      1  C   UNL A   1      41.532  36.480  35.511  1.00  0.00     0.021 C 
ENDROOT
BRANCH   1   2
ATOM      2  C   UNL A   1      40.447  35.431  35.420  1.00  0.00     0.116 C 
BRANCH   2   3
ATOM      3  N   UNL A   1      40.930  34.090  35.190  1.00  0.00    -0.356 N 
ATOM      4  C   UNL A   1      40.274  33.074  34.570  1.00  0.00     0.224 C 
ATOM      5  O   UNL A   1      40.927  32.093  34.215  1.00  0.00    -0.275 OA
ATOM      6  H   UNL A   1      41.835  33.889  35.520  1.00  0.00     0.163 HD
BRANCH   4   7
ATOM      7  C   UNL A   1      38.763  33.187  34.388  1.00  0.00     0.104 C 
ATOM      8  C   UNL A   1      38.145  31.807  34.063  1.00  0.00     0.104 C 
ATOM      9  C   UNL A   1      38.005  31.705  32.467  1.00  0.00     0.063 C 
ATOM     10  C   UNL A   1      36.779  32.616  32.233  1.00  0.00    -0.036 A 
ATOM     11  C   UNL A   1      39.149  32.423  31.706  1.00  0.00    -0.036 A 
ATOM     12  C   UNL A   1      38.400  34.182  33.235  1.00  0.00     0.063 C 
ATOM     13  C   UNL A   1      35.598  32.280  31.596  1.00  0.00     0.004 A 
ATOM     14  C   UNL A   1      36.973  33.927  32.756  1.00  0.00    -0.036 A 
ATOM     15  C   UNL A   1      39.304  33.785  32.079  1.00  0.00    -0.036 A 
ATOM     16  C   UNL A   1      39.910  31.933  30.654  1.00  0.00     0.004 A 
ATOM     17  C   UNL A   1      34.588  33.244  31.529  1.00  0.00     0.000 A 
ATOM     18  C   UNL A   1      35.959  34.869  32.716  1.00  0.00     0.004 A 
ATOM     19  C   UNL A   1      40.195  34.640  31.440  1.00  0.00     0.004 A 
ATOM     20  C   UNL A   1      40.819  32.792  30.010  1.00  0.00     0.000 A 
ATOM     21  C   UNL A   1      34.758  34.515  32.105  1.00  0.00     0.000 A 
ATOM     22  C   UNL A   1      40.962  34.133  30.400  1.00  0.00     0.000 A 
BRANCH   8  23
ATOM     23  C   UNL A   1      38.551  30.508  34.775  1.00  0.00     0.229 C 
ATOM     24  N   UNL A   1      39.420  29.562  34.261  1.00  0.00    -0.326 N 
ATOM     25  H   UNL A   1      40.155  29.289  34.855  1.00  0.00     0.169 HD
ATOM     26  O   UNL A   1      38.321  30.391  35.989  1.00  0.00    -0.274 OA
BRANCH  24  27
ATOM     27  C   UNL A   1      39.387  28.935  32.996  1.00  0.00     0.041 A 
ATOM     28  C   UNL A   1      39.092  27.934  30.377  1.00  0.00     0.060 A 
ATOM     29  C   UNL A   1      40.365  28.227  30.890  1.00  0.00     0.018 A 
ATOM     30  C   UNL A   1      37.990  28.000  31.234  1.00  0.00     0.018 A 
ATOM     31  C   UNL A   1      40.513  28.722  32.202  1.00  0.00     0.027 A 
ATOM     32  C   UNL A   1      38.145  28.474  32.542  1.00  0.00     0.027 A 
BRANCH  28  33
ATOM     33  C   UNL A   1      38.925  27.579  28.936  1.00  0.00     0.338 C 
ATOM     34  O   UNL A   1      39.652  26.800  28.339  1.00  0.00    -0.246 OA
BRANCH  33  35
ATOM     35  O   UNL A   1      37.901  28.295  28.401  1.00  0.00    -0.462 OA
BRANCH  35  36
ATOM     36  C   UNL A   1      38.185  29.631  27.940  1.00  0.00     0.230 C 
ATOM     37  C   UNL A   1      37.190  30.664  28.438  1.00  0.00     0.049 C 
ENDBRANCH  35  36
ENDBRANCH  33  35
ENDBRANCH  28  33
ENDBRANCH  24  27
ENDBRANCH   8  23
ENDBRANCH   4   7
ENDBRANCH   2   3
ENDBRANCH   1   2
BRANCH   1  38
ATOM     38  C   UNL A   1      42.294  36.485  36.827  1.00  0.00     0.002 C 
BRANCH  38  39
ATOM     39  C   UNL A   1      41.491  36.786  38.093  1.00  0.00     0.002 C 
BRANCH  39  40
ATOM     40  C   UNL A   1      42.279  37.454  39.210  1.00  0.00     0.021 C 
BRANCH  40  41
ATOM     41  C   UNL A   1      43.754  37.079  39.258  1.00  0.00     0.116 C 
BRANCH  41  42
ATOM     42  N   UNL A   1      44.125  36.387  40.486  1.00  0.00    -0.352 N 
ATOM     43  C   UNL A   1      44.396  35.055  40.679  1.00  0.00     0.251 C 
ATOM     44  H   UNL A   1      44.190  36.954  41.288  1.00  0.00     0.163 HD
ATOM     45  O   UNL A   1      44.571  34.617  41.811  1.00  0.00    -0.269 OA
BRANCH  43  46
ATOM     46  C   UNL A   1      44.424  34.157  39.507  1.00  0.00     0.039 A 
ATOM     47  C   UNL A   1      43.215  33.709  38.975  1.00  0.00     0.014 A 
ATOM     48  C   UNL A   1      45.636  33.831  38.892  1.00  0.00     0.014 A 
ATOM     49  C   UNL A   1      43.216  33.008  37.768  1.00  0.00     0.010 A 
ATOM     50  C   UNL A   1      45.628  33.210  37.648  1.00  0.00     0.010 A 
ATOM     51  C   UNL A   1      44.417  32.804  37.068  1.00  0.00    -0.014 A 
BRANCH  51  52
ATOM     52  C   UNL A   1      44.421  32.201  35.709  1.00  0.00     0.031 A 
ATOM     53  C   UNL A   1      44.504  33.080  34.494  1.00  0.00     0.074 A 
ATOM     54  C   UNL A   1      44.279  30.866  35.577  1.00  0.00     0.049 A 
ATOM     55  N   UNL A   1      44.441  32.749  33.230  1.00  0.00    -0.248 NA
ATOM     56  C   UNL A   1      44.649  34.524  34.732  1.00  0.00     0.031 C 
ATOM     57  C   UNL A   1      44.151  29.916  36.686  1.00  0.00     0.029 A 
ATOM     58  N   UNL A   1      44.212  30.075  34.457  1.00  0.00    -0.354 N 
ATOM     59  C   UNL A   1      44.534  33.942  32.521  1.00  0.00     0.074 A 
ATOM     60  C   UNL A   1      44.591  35.007  33.500  1.00  0.00     0.031 C 
ATOM     61  C   UNL A   1      44.049  28.673  36.191  1.00  0.00     0.029 A 
ATOM     62  C   UNL A   1      44.045  28.737  34.733  1.00  0.00     0.049 A 
ATOM     63  H   UNL A   1      44.276  30.431  33.542  1.00  0.00     0.167 HD
ATOM     64  C   UNL A   1      44.587  34.126  31.179  1.00  0.00     0.034 A 
ATOM     65  C   UNL A   1      43.885  27.683  33.908  1.00  0.00     0.034 A 
ATOM     66  C   UNL A   1      44.529  33.051  30.220  1.00  0.00     0.049 A 
ATOM     67  C   UNL A   1      43.894  27.923  32.419  1.00  0.00     0.074 A 
ATOM     68  C   UNL A   1      44.630  33.120  28.842  1.00  0.00     0.029 A 
ATOM     69  N   UNL A   1      44.338  31.711  30.534  1.00  0.00    -0.354 N 
ATOM     70  N   UNL A   1      44.041  29.052  31.764  1.00  0.00    -0.248 NA
ATOM     71  C   UNL A   1      43.721  26.746  31.557  1.00  0.00     0.031 C 
ATOM     72  C   UNL A   1      44.418  31.841  28.320  1.00  0.00     0.029 A 
ATOM     73  C   UNL A   1      44.273  30.953  29.374  1.00  0.00     0.049 A 
ATOM     74  H   UNL A   1      44.261  31.350  31.447  1.00  0.00     0.167 HD
ATOM     75  C   UNL A   1      44.005  28.715  30.413  1.00  0.00     0.074 A 
ATOM     76  C   UNL A   1      43.845  27.276  30.350  1.00  0.00     0.031 C 
ATOM     77  C   UNL A   1      44.093  29.520  29.325  1.00  0.00     0.034 A 
BRANCH  64  78
ATOM     78  C   UNL A   1      44.683  35.546  30.673  1.00  0.00     0.023 A 
ATOM     79  C   UNL A   1      43.655  36.135  29.917  1.00  0.00     0.031 A 
ATOM     80  C   UNL A   1      45.826  36.321  30.941  1.00  0.00     0.131 A 
ATOM     81  C   UNL A   1      43.818  37.428  29.398  1.00  0.00     0.055 A 
ATOM     82  C   UNL A   1      45.947  37.637  30.492  1.00  0.00     0.041 A 
ATOM     83  F   UNL A   1      46.853  35.807  31.637  1.00  0.00    -0.206 F 
ATOM     84  C   UNL A   1      44.944  38.194  29.704  1.00  0.00     0.022 A 
BRANCH  81  85
ATOM     85  S   UNL A   1      42.602  38.039  28.198  1.00  0.00     0.124 S 
ATOM     86  O   UNL A   1      43.293  37.801  26.932  1.00  0.00    -0.237 OA
ATOM     87  O   UNL A   1      41.445  37.193  28.463  1.00  0.00    -0.237 OA
ATOM     88  O   UNL A   1      42.444  39.446  28.557  1.00  0.00    -0.744 OA
ENDBRANCH  81  85
ENDBRANCH  64  78
BRANCH  65  89
ATOM     89  C   UNL A   1      43.673  26.312  34.458  1.00  0.00     0.023 A 
ATOM     90  C   UNL A   1      44.745  25.417  34.606  1.00  0.00     0.031 A 
ATOM     91  C   UNL A   1      42.386  25.856  34.794  1.00  0.00     0.131 A 
ATOM     92  C   UNL A   1      44.504  24.099  35.025  1.00  0.00     0.055 A 
ATOM     93  C   UNL A   1      42.160  24.563  35.272  1.00  0.00     0.041 A 
ATOM     94  F   UNL A   1      41.323  26.668  34.672  1.00  0.00    -0.206 F 
ATOM     95  C   UNL A   1      43.223  23.672  35.375  1.00  0.00     0.022 A 
BRANCH  92  96
ATOM     96  S   UNL A   1      45.881  22.919  35.008  1.00  0.00     0.124 S 
ATOM     97  O   UNL A   1      47.017  23.793  34.738  1.00  0.00    -0.237 OA
ATOM     98  O   UNL A   1      45.812  22.352  36.350  1.00  0.00    -0.237 OA
ATOM     99  O   UNL A   1      45.528  22.001  33.926  1.00  0.00    -0.744 OA
ENDBRANCH  92  96
ENDBRANCH  65  89
BRANCH  77 100
ATOM    100  C   UNL A   1      44.052  28.850  27.971  1.00  0.00     0.023 A 
ATOM    101  C   UNL A   1      45.224  28.424  27.322  1.00  0.00     0.031 A 
ATOM    102  C   UNL A   1      42.823  28.645  27.318  1.00  0.00     0.131 A 
ATOM    103  C   UNL A   1      45.149  27.871  26.035  1.00  0.00     0.055 A 
ATOM    104  C   UNL A   1      42.749  28.031  26.067  1.00  0.00     0.041 A 
ATOM    105  F   UNL A   1      41.671  29.037  27.887  1.00  0.00    -0.206 F 
ATOM    106  C   UNL A   1      43.917  27.652  25.412  1.00  0.00     0.022 A 
BRANCH 103 107
ATOM    107  S   UNL A   1      46.691  27.535  25.142  1.00  0.00     0.124 S 
ATOM    108  O   UNL A   1      47.675  27.556  26.219  1.00  0.00    -0.237 OA
ATOM    109  O   UNL A   1      46.428  26.229  24.545  1.00  0.00    -0.237 OA
ATOM    110  O   UNL A   1      46.785  28.642  24.192  1.00  0.00    -0.744 OA
ENDBRANCH 103 107
ENDBRANCH  77 100
ENDBRANCH  51  52
ENDBRANCH  43  46
ENDBRANCH  41  42
ENDBRANCH  40  41
ENDBRANCH  39  40
ENDBRANCH  38  39
ENDBRANCH   1  38
TORSDOF 21
ENDMDL
MODEL 2
REMARK VINA RESULT:      -7.5      3.504      7.546
REMARK SMILES CCOC(=O)c1ccc(NC(=O)[C@@H]2[C@H]3c4ccccc4[C@H](c4ccccc43)[C@@H]2C(=O)NCCCCCCNC(=O)c2ccc(-c3c4nc(c(-c5cc(S(=O)(=O)[O-])ccc5F)c5ccc([nH]5)c(-c5cc(S(=O)(=O)[O-])ccc5F)c5nc(c(-c6cc(S(=O)(=O)[O-])ccc6F)c6ccc3[nH]6)C=C5)C=C4)cc2)cc1
REMARK SMILES IDX 33 1 32 2 31 3 29 4 30 5 28 7 13 8 14 9 15 10 27 11 21 12
REMARK SMILES IDX 16 13 20 14 22 15 26 16 17 17 19 18 23 19 25 20 18 21 24 22
REMARK SMILES IDX 11 23 10 24 12 26 9 27 6 28 7 29 105 30 8 31 104 32 4 33
REMARK SMILES IDX 5 34 3 35 2 36 1 37 34 38 35 39 36 40 37 41 38 42 39 43
REMARK SMILES IDX 40 45 41 46 42 47 103 48 43 49 102 50 44 51 45 52 46 53
REMARK SMILES IDX 96 54 47 55 101 56 95 57 97 58 48 59 100 60 94 61 93 62
REMARK SMILES IDX 49 64 81 65 61 66 80 67 62 68 65 69 79 70 98 71 63 72 64 73
REMARK SMILES IDX 78 75 99 76 66 77 50 78 51 79 59 80 52 81 58 82 60 83 57 84
REMARK SMILES IDX 53 85 54 86 55 87 56 88 82 89 83 90 91 91 84 92 90 93 92 94
REMARK SMILES IDX 89 95 85 96 86 97 87 98 88 99 67 100 68 101 76 102 69 103
REMARK SMILES IDX 75 104 77 105 74 106 70 107 71 108 72 109 73 110
REMARK H PARENT 31 6 10 25 38 44 97 63 65 74
REMARK Flexibility Score: inf
ROOT
ATOM      1  C   UNL A   1      37.586  32.381  35.570  1.00  0.00     0.021 C 
ENDROOT
BRANCH   1   2
ATOM      2  C   UNL A   1      36.946  32.647  34.226  1.00  0.00     0.116 C 
BRANCH   2   3
ATOM      3  N   UNL A   1      36.587  31.458  33.490  1.00  0.00    -0.356 N 
ATOM      4  C   UNL A   1      37.192  30.966  32.376  1.00  0.00     0.224 C 
ATOM      5  O   UNL A   1      36.940  29.808  32.043  1.00  0.00    -0.275 OA
ATOM      6  H   UNL A   1      35.820  30.946  33.833  1.00  0.00     0.163 HD
BRANCH   4   7
ATOM      7  C   UNL A   1      38.112  31.887  31.581  1.00  0.00     0.104 C 
ATOM      8  C   UNL A   1      38.403  31.296  30.181  1.00  0.00     0.104 C 
ATOM      9  C   UNL A   1      39.801  30.510  30.271  1.00  0.00     0.063 C 
ATOM     10  C   UNL A   1      40.791  31.697  30.279  1.00  0.00    -0.036 A 
ATOM     11  C   UNL A   1      40.031  29.828  31.643  1.00  0.00    -0.036 A 
ATOM     12  C   UNL A   1      39.473  32.112  32.322  1.00  0.00     0.063 C 
ATOM     13  C   UNL A   1      41.840  31.915  29.404  1.00  0.00     0.004 A 
ATOM     14  C   UNL A   1      40.526  32.614  31.336  1.00  0.00    -0.036 A 
ATOM     15  C   UNL A   1      39.923  30.723  32.741  1.00  0.00    -0.036 A 
ATOM     16  C   UNL A   1      40.443  28.525  31.888  1.00  0.00     0.004 A 
ATOM     17  C   UNL A   1      42.594  33.082  29.557  1.00  0.00     0.000 A 
ATOM     18  C   UNL A   1      41.255  33.784  31.465  1.00  0.00     0.004 A 
ATOM     19  C   UNL A   1      40.203  30.342  34.049  1.00  0.00     0.004 A 
ATOM     20  C   UNL A   1      40.721  28.133  33.210  1.00  0.00     0.000 A 
ATOM     21  C   UNL A   1      42.289  34.017  30.561  1.00  0.00     0.000 A 
ATOM     22  C   UNL A   1      40.600  29.032  34.281  1.00  0.00     0.000 A 
BRANCH   8  23
ATOM     23  C   UNL A   1      37.331  30.640  29.300  1.00  0.00     0.229 C 
ATOM     24  N   UNL A   1      36.441  31.327  28.493  1.00  0.00    -0.326 N 
ATOM     25  H   UNL A   1      36.391  31.024  27.558  1.00  0.00     0.169 HD
ATOM     26  O   UNL A   1      37.407  29.424  29.065  1.00  0.00    -0.274 OA
BRANCH  24  27
ATOM     27  C   UNL A   1      35.593  32.403  28.837  1.00  0.00     0.041 A 
ATOM     28  C   UNL A   1      34.111  34.597  29.803  1.00  0.00     0.060 A 
ATOM     29  C   UNL A   1      34.600  34.590  28.488  1.00  0.00     0.018 A 
ATOM     30  C   UNL A   1      34.238  33.439  30.575  1.00  0.00     0.018 A 
ATOM     31  C   UNL A   1      35.337  33.490  28.002  1.00  0.00     0.027 A 
ATOM     32  C   UNL A   1      34.954  32.341  30.081  1.00  0.00     0.027 A 
BRANCH  28  33
ATOM     33  C   UNL A   1      33.487  35.831  30.368  1.00  0.00     0.338 C 
ATOM     34  O   UNL A   1      33.010  36.725  29.685  1.00  0.00    -0.246 OA
BRANCH  33  35
ATOM     35  O   UNL A   1      33.593  35.823  31.723  1.00  0.00    -0.462 OA
BRANCH  35  36
ATOM     36  C   UNL A   1      32.640  36.600  32.476  1.00  0.00     0.230 C 
ATOM     37  C   UNL A   1      31.340  35.864  32.742  1.00  0.00     0.049 C 
ENDBRANCH  35  36
ENDBRANCH  33  35
ENDBRANCH  28  33
ENDBRANCH  24  27
ENDBRANCH   8  23
ENDBRANCH   4   7
ENDBRANCH   2   3
ENDBRANCH   1   2
BRANCH   1  38
ATOM     38  C   UNL A   1      37.734  33.612  36.451  1.00  0.00     0.002 C 
BRANCH  38  39
ATOM     39  C   UNL A   1      38.955  34.499  36.206  1.00  0.00     0.002 C 
BRANCH  39  40
ATOM     40  C   UNL A   1      39.390  35.337  37.400  1.00  0.00     0.021 C 
BRANCH  40  41
ATOM     41  C   UNL A   1      40.894  35.545  37.514  1.00  0.00     0.116 C 
BRANCH  41  42
ATOM     42  N   UNL A   1      41.396  36.570  36.608  1.00  0.00    -0.352 N 
ATOM     43  C   UNL A   1      42.297  36.447  35.579  1.00  0.00     0.251 C 
ATOM     44  H   UNL A   1      41.039  37.475  36.753  1.00  0.00     0.163 HD
ATOM     45  O   UNL A   1      42.707  37.443  34.993  1.00  0.00    -0.269 OA
BRANCH  43  46
ATOM     46  C   UNL A   1      42.798  35.102  35.228  1.00  0.00     0.039 A 
ATOM     47  C   UNL A   1      44.162  34.840  35.352  1.00  0.00     0.014 A 
ATOM     48  C   UNL A   1      41.908  34.088  34.861  1.00  0.00     0.014 A 
ATOM     49  C   UNL A   1      44.623  33.532  35.196  1.00  0.00     0.010 A 
ATOM     50  C   UNL A   1      42.358  32.774  34.792  1.00  0.00     0.010 A 
ATOM     51  C   UNL A   1      43.718  32.481  34.972  1.00  0.00    -0.014 A 
BRANCH  51  52
ATOM     52  C   UNL A   1      44.171  31.066  34.960  1.00  0.00     0.031 A 
ATOM     53  C   UNL A   1      44.115  30.266  33.690  1.00  0.00     0.074 A 
ATOM     54  C   UNL A   1      44.566  30.488  36.113  1.00  0.00     0.049 A 
ATOM     55  N   UNL A   1      44.389  29.002  33.497  1.00  0.00    -0.248 NA
ATOM     56  C   UNL A   1      43.665  30.975  32.482  1.00  0.00     0.031 C 
ATOM     57  C   UNL A   1      44.625  31.156  37.416  1.00  0.00     0.029 A 
ATOM     58  N   UNL A   1      44.986  29.209  36.380  1.00  0.00    -0.354 N 
ATOM     59  C   UNL A   1      44.141  28.761  32.150  1.00  0.00     0.074 A 
ATOM     60  C   UNL A   1      43.632  29.995  31.591  1.00  0.00     0.031 C 
ATOM     61  C   UNL A   1      45.081  30.290  38.335  1.00  0.00     0.029 A 
ATOM     62  C   UNL A   1      45.292  28.991  37.705  1.00  0.00     0.049 A 
ATOM     63  H   UNL A   1      45.060  28.511  35.690  1.00  0.00     0.167 HD
ATOM     64  C   UNL A   1      44.340  27.621  31.445  1.00  0.00     0.034 A 
ATOM     65  C   UNL A   1      45.678  27.869  38.344  1.00  0.00     0.034 A 
ATOM     66  C   UNL A   1      44.849  26.401  32.021  1.00  0.00     0.049 A 
ATOM     67  C   UNL A   1      45.840  26.600  37.544  1.00  0.00     0.074 A 
ATOM     68  C   UNL A   1      45.141  25.206  31.387  1.00  0.00     0.029 A 
ATOM     69  N   UNL A   1      45.128  26.210  33.369  1.00  0.00    -0.354 N 
ATOM     70  N   UNL A   1      45.657  26.404  36.259  1.00  0.00    -0.248 NA
ATOM     71  C   UNL A   1      46.267  25.404  38.280  1.00  0.00     0.031 C 
ATOM     72  C   UNL A   1      45.515  24.272  32.358  1.00  0.00     0.029 A 
ATOM     73  C   UNL A   1      45.544  24.906  33.590  1.00  0.00     0.049 A 
ATOM     74  H   UNL A   1      45.044  26.900  34.066  1.00  0.00     0.167 HD
ATOM     75  C   UNL A   1      45.972  25.067  36.030  1.00  0.00     0.074 A 
ATOM     76  C   UNL A   1      46.378  24.514  37.306  1.00  0.00     0.031 C 
ATOM     77  C   UNL A   1      45.928  24.361  34.872  1.00  0.00     0.034 A 
BRANCH  64  78
ATOM     78  C   UNL A   1      43.976  27.635  29.979  1.00  0.00     0.023 A 
ATOM     79  C   UNL A   1      42.677  27.334  29.534  1.00  0.00     0.031 A 
ATOM     80  C   UNL A   1      44.946  27.944  29.008  1.00  0.00     0.131 A 
ATOM     81  C   UNL A   1      42.400  27.279  28.161  1.00  0.00     0.055 A 
ATOM     82  C   UNL A   1      44.643  27.971  27.646  1.00  0.00     0.041 A 
ATOM     83  F   UNL A   1      46.210  28.217  29.367  1.00  0.00    -0.206 F 
ATOM     84  C   UNL A   1      43.367  27.623  27.213  1.00  0.00     0.022 A 
BRANCH  81  85
ATOM     85  S   UNL A   1      40.801  26.611  27.625  1.00  0.00     0.124 S 
ATOM     86  O   UNL A   1      39.944  27.791  27.715  1.00  0.00    -0.237 OA
ATOM     87  O   UNL A   1      41.093  26.135  26.279  1.00  0.00    -0.237 OA
ATOM     88  O   UNL A   1      40.517  25.569  28.609  1.00  0.00    -0.744 OA
ENDBRANCH  81  85
ENDBRANCH  64  78
BRANCH  65  89
ATOM     89  C   UNL A   1      45.911  27.876  39.818  1.00  0.00     0.023 A 
ATOM     90  C   UNL A   1      47.077  28.436  40.365  1.00  0.00     0.031 A 
ATOM     91  C   UNL A   1      44.995  27.274  40.700  1.00  0.00     0.131 A 
ATOM     92  C   UNL A   1      47.322  28.335  41.744  1.00  0.00     0.055 A 
ATOM     93  C   UNL A   1      45.213  27.234  42.079  1.00  0.00     0.041 A 
ATOM     94  F   UNL A   1      43.864  26.722  40.233  1.00  0.00    -0.206 F 
ATOM     95  C   UNL A   1      46.391  27.754  42.606  1.00  0.00     0.022 A 
BRANCH  92  96
ATOM     96  S   UNL A   1      48.928  28.886  42.381  1.00  0.00     0.124 S 
ATOM     97  O   UNL A   1      49.740  28.895  41.170  1.00  0.00    -0.237 OA
ATOM     98  O   UNL A   1      48.600  30.192  42.944  1.00  0.00    -0.237 OA
ATOM     99  O   UNL A   1      49.276  27.857  43.359  1.00  0.00    -0.744 OA
ENDBRANCH  92  96
ENDBRANCH  65  89
BRANCH  77 100
ATOM    100  C   UNL A   1      46.364  22.916  34.934  1.00  0.00     0.023 A 
ATOM    101  C   UNL A   1      47.711  22.544  34.783  1.00  0.00     0.031 A 
ATOM    102  C   UNL A   1      45.417  21.896  35.137  1.00  0.00     0.131 A 
ATOM    103  C   UNL A   1      48.066  21.187  34.776  1.00  0.00     0.055 A 
ATOM    104  C   UNL A   1      45.785  20.551  35.198  1.00  0.00     0.041 A 
ATOM    105  F   UNL A   1      44.114  22.190  35.282  1.00  0.00    -0.206 F 
ATOM    106  C   UNL A   1      47.114  20.188  35.004  1.00  0.00     0.022 A 
BRANCH 103 107
ATOM    107  S   UNL A   1      49.773  20.736  34.362  1.00  0.00     0.124 S 
ATOM    108  O   UNL A   1      49.613  20.117  33.051  1.00  0.00    -0.237 OA
ATOM    109  O   UNL A   1      50.450  22.029  34.377  1.00  0.00    -0.237 OA
ATOM    110  O   UNL A   1      50.158  19.824  35.438  1.00  0.00    -0.744 OA
ENDBRANCH 103 107
ENDBRANCH  77 100
ENDBRANCH  51  52
ENDBRANCH  43  46
ENDBRANCH  41  42
ENDBRANCH  40  41
ENDBRANCH  39  40
ENDBRANCH  38  39
ENDBRANCH   1  38
TORSDOF 21
ENDMDL
MODEL 3
REMARK VINA RESULT:      -7.4      3.733      9.170
REMARK SMILES CCOC(=O)c1ccc(NC(=O)[C@@H]2[C@H]3c4ccccc4[C@H](c4ccccc43)[C@@H]2C(=O)NCCCCCCNC(=O)c2ccc(-c3c4nc(c(-c5cc(S(=O)(=O)[O-])ccc5F)c5ccc([nH]5)c(-c5cc(S(=O)(=O)[O-])ccc5F)c5nc(c(-c6cc(S(=O)(=O)[O-])ccc6F)c6ccc3[nH]6)C=C5)C=C4)cc2)cc1
REMARK SMILES IDX 33 1 32 2 31 3 29 4 30 5 28 7 13 8 14 9 15 10 27 11 21 12
REMARK SMILES IDX 16 13 20 14 22 15 26 16 17 17 19 18 23 19 25 20 18 21 24 22
REMARK SMILES IDX 11 23 10 24 12 26 9 27 6 28 7 29 105 30 8 31 104 32 4 33
REMARK SMILES IDX 5 34 3 35 2 36 1 37 34 38 35 39 36 40 37 41 38 42 39 43
REMARK SMILES IDX 40 45 41 46 42 47 103 48 43 49 102 50 44 51 45 52 46 53
REMARK SMILES IDX 96 54 47 55 101 56 95 57 97 58 48 59 100 60 94 61 93 62
REMARK SMILES IDX 49 64 81 65 61 66 80 67 62 68 65 69 79 70 98 71 63 72 64 73
REMARK SMILES IDX 78 75 99 76 66 77 50 78 51 79 59 80 52 81 58 82 60 83 57 84
REMARK SMILES IDX 53 85 54 86 55 87 56 88 82 89 83 90 91 91 84 92 90 93 92 94
REMARK SMILES IDX 89 95 85 96 86 97 87 98 88 99 67 100 68 101 76 102 69 103
REMARK SMILES IDX 75 104 77 105 74 106 70 107 71 108 72 109 73 110
REMARK H PARENT 31 6 10 25 38 44 97 63 65 74
REMARK Flexibility Score: inf
ROOT
ATOM      1  C   UNL A   1      42.271  27.974  33.282  1.00  0.00     0.021 C 
ENDROOT
BRANCH   1   2
ATOM      2  C   UNL A   1      40.900  28.501  33.642  1.00  0.00     0.116 C 
BRANCH   2   3
ATOM      3  N   UNL A   1      39.844  28.075  32.754  1.00  0.00    -0.356 N 
ATOM      4  C   UNL A   1      39.242  28.807  31.780  1.00  0.00     0.224 C 
ATOM      5  O   UNL A   1      38.565  28.212  30.942  1.00  0.00    -0.275 OA
ATOM      6  H   UNL A   1      39.524  27.151  32.867  1.00  0.00     0.163 HD
BRANCH   4   7
ATOM      7  C   UNL A   1      39.404  30.324  31.805  1.00  0.00     0.104 C 
ATOM      8  C   UNL A   1      38.097  31.023  31.362  1.00  0.00     0.104 C 
ATOM      9  C   UNL A   1      38.236  31.357  29.798  1.00  0.00     0.063 C 
ATOM     10  C   UNL A   1      39.190  32.572  29.853  1.00  0.00    -0.036 A 
ATOM     11  C   UNL A   1      39.041  30.290  29.014  1.00  0.00    -0.036 A 
ATOM     12  C   UNL A   1      40.564  30.790  30.863  1.00  0.00     0.063 C 
ATOM     13  C   UNL A   1      38.970  33.831  29.325  1.00  0.00     0.004 A 
ATOM     14  C   UNL A   1      40.405  32.272  30.533  1.00  0.00    -0.036 A 
ATOM     15  C   UNL A   1      40.330  30.046  29.559  1.00  0.00    -0.036 A 
ATOM     16  C   UNL A   1      38.701  29.677  27.816  1.00  0.00     0.004 A 
ATOM     17  C   UNL A   1      39.949  34.809  29.525  1.00  0.00     0.000 A 
ATOM     18  C   UNL A   1      41.358  33.252  30.757  1.00  0.00     0.004 A 
ATOM     19  C   UNL A   1      41.257  29.210  28.945  1.00  0.00     0.004 A 
ATOM     20  C   UNL A   1      39.632  28.825  27.195  1.00  0.00     0.000 A 
ATOM     21  C   UNL A   1      41.118  34.529  30.254  1.00  0.00     0.000 A 
ATOM     22  C   UNL A   1      40.898  28.591  27.756  1.00  0.00     0.000 A 
BRANCH   8  23
ATOM     23  C   UNL A   1      36.701  30.577  31.822  1.00  0.00     0.229 C 
ATOM     24  N   UNL A   1      35.513  30.942  31.213  1.00  0.00    -0.326 N 
ATOM     25  H   UNL A   1      34.904  30.203  30.988  1.00  0.00     0.169 HD
ATOM     26  O   UNL A   1      36.605  29.627  32.614  1.00  0.00    -0.274 OA
BRANCH  24  27
ATOM     27  C   UNL A   1      35.061  32.236  30.875  1.00  0.00     0.041 A 
ATOM     28  C   UNL A   1      33.872  34.661  30.065  1.00  0.00     0.060 A 
ATOM     29  C   UNL A   1      34.291  34.480  31.392  1.00  0.00     0.018 A 
ATOM     30  C   UNL A   1      34.191  33.683  29.119  1.00  0.00     0.018 A 
ATOM     31  C   UNL A   1      34.892  33.269  31.796  1.00  0.00     0.027 A 
ATOM     32  C   UNL A   1      34.804  32.490  29.521  1.00  0.00     0.027 A 
BRANCH  28  33
ATOM     33  C   UNL A   1      33.082  35.869  29.684  1.00  0.00     0.338 C 
ATOM     34  O   UNL A   1      32.239  35.880  28.799  1.00  0.00    -0.246 OA
BRANCH  33  35
ATOM     35  O   UNL A   1      33.491  36.938  30.419  1.00  0.00    -0.462 OA
BRANCH  35  36
ATOM     36  C   UNL A   1      32.952  37.084  31.748  1.00  0.00     0.230 C 
ATOM     37  C   UNL A   1      33.873  37.837  32.690  1.00  0.00     0.049 C 
ENDBRANCH  35  36
ENDBRANCH  33  35
ENDBRANCH  28  33
ENDBRANCH  24  27
ENDBRANCH   8  23
ENDBRANCH   4   7
ENDBRANCH   2   3
ENDBRANCH   1   2
BRANCH   1  38
ATOM     38  C   UNL A   1      42.702  26.749  34.074  1.00  0.00     0.002 C 
BRANCH  38  39
ATOM     39  C   UNL A   1      44.197  26.431  34.100  1.00  0.00     0.002 C 
BRANCH  39  40
ATOM     40  C   UNL A   1      44.596  25.158  33.367  1.00  0.00     0.021 C 
BRANCH  40  41
ATOM     41  C   UNL A   1      44.186  25.115  31.901  1.00  0.00     0.116 C 
BRANCH  41  42
ATOM     42  N   UNL A   1      45.325  25.116  30.992  1.00  0.00    -0.352 N 
ATOM     43  C   UNL A   1      46.001  26.184  30.455  1.00  0.00     0.251 C 
ATOM     44  H   UNL A   1      45.655  24.228  30.726  1.00  0.00     0.163 HD
ATOM     45  O   UNL A   1      46.864  26.004  29.602  1.00  0.00    -0.269 OA
BRANCH  43  46
ATOM     46  C   UNL A   1      45.635  27.548  30.887  1.00  0.00     0.039 A 
ATOM     47  C   UNL A   1      46.321  28.120  31.958  1.00  0.00     0.014 A 
ATOM     48  C   UNL A   1      44.678  28.282  30.181  1.00  0.00     0.014 A 
ATOM     49  C   UNL A   1      46.112  29.466  32.264  1.00  0.00     0.010 A 
ATOM     50  C   UNL A   1      44.536  29.643  30.432  1.00  0.00     0.010 A 
ATOM     51  C   UNL A   1      45.261  30.251  31.467  1.00  0.00    -0.014 A 
BRANCH  51  52
ATOM     52  C   UNL A   1      45.147  31.717  31.679  1.00  0.00     0.031 A 
ATOM     53  C   UNL A   1      46.083  32.657  30.973  1.00  0.00     0.074 A 
ATOM     54  C   UNL A   1      44.244  32.191  32.562  1.00  0.00     0.049 A 
ATOM     55  N   UNL A   1      46.193  33.955  31.089  1.00  0.00    -0.248 NA
ATOM     56  C   UNL A   1      47.041  32.053  30.035  1.00  0.00     0.031 C 
ATOM     57  C   UNL A   1      43.307  31.369  33.335  1.00  0.00     0.029 A 
ATOM     58  N   UNL A   1      43.967  33.473  32.965  1.00  0.00    -0.354 N 
ATOM     59  C   UNL A   1      47.233  34.325  30.243  1.00  0.00     0.074 A 
ATOM     60  C   UNL A   1      47.762  33.104  29.672  1.00  0.00     0.031 C 
ATOM     61  C   UNL A   1      42.543  32.169  34.095  1.00  0.00     0.029 A 
ATOM     62  C   UNL A   1      42.970  33.552  33.913  1.00  0.00     0.049 A 
ATOM     63  H   UNL A   1      44.436  34.262  32.612  1.00  0.00     0.167 HD
ATOM     64  C   UNL A   1      47.687  35.569  29.956  1.00  0.00     0.034 A 
ATOM     65  C   UNL A   1      42.471  34.615  34.574  1.00  0.00     0.034 A 
ATOM     66  C   UNL A   1      47.146  36.773  30.535  1.00  0.00     0.049 A 
ATOM     67  C   UNL A   1      43.032  35.983  34.275  1.00  0.00     0.074 A 
ATOM     68  C   UNL A   1      47.494  38.087  30.272  1.00  0.00     0.029 A 
ATOM     69  N   UNL A   1      46.152  36.815  31.506  1.00  0.00    -0.354 N 
ATOM     70  N   UNL A   1      43.977  36.321  33.428  1.00  0.00    -0.248 NA
ATOM     71  C   UNL A   1      42.456  37.112  35.016  1.00  0.00     0.031 C 
ATOM     72  C   UNL A   1      46.775  38.914  31.140  1.00  0.00     0.029 A 
ATOM     73  C   UNL A   1      45.910  38.127  31.884  1.00  0.00     0.049 A 
ATOM     74  H   UNL A   1      45.687  36.029  31.872  1.00  0.00     0.167 HD
ATOM     75  C   UNL A   1      44.089  37.707  33.517  1.00  0.00     0.074 A 
ATOM     76  C   UNL A   1      43.098  38.140  34.482  1.00  0.00     0.031 C 
ATOM     77  C   UNL A   1      44.932  38.544  32.863  1.00  0.00     0.034 A 
BRANCH  64  78
ATOM     78  C   UNL A   1      48.847  35.683  28.995  1.00  0.00     0.023 A 
ATOM     79  C   UNL A   1      48.658  35.681  27.602  1.00  0.00     0.031 A 
ATOM     80  C   UNL A   1      50.165  35.782  29.478  1.00  0.00     0.131 A 
ATOM     81  C   UNL A   1      49.767  35.706  26.744  1.00  0.00     0.055 A 
ATOM     82  C   UNL A   1      51.259  35.892  28.618  1.00  0.00     0.041 A 
ATOM     83  F   UNL A   1      50.412  35.764  30.797  1.00  0.00    -0.206 F 
ATOM     84  C   UNL A   1      51.065  35.840  27.241  1.00  0.00     0.022 A 
BRANCH  81  85
ATOM     85  S   UNL A   1      49.499  35.415  24.973  1.00  0.00     0.124 S 
ATOM     86  O   UNL A   1      48.215  34.718  24.981  1.00  0.00    -0.237 OA
ATOM     87  O   UNL A   1      49.489  36.767  24.429  1.00  0.00    -0.237 OA
ATOM     88  O   UNL A   1      50.643  34.592  24.584  1.00  0.00    -0.744 OA
ENDBRANCH  81  85
ENDBRANCH  64  78
BRANCH  65  89
ATOM     89  C   UNL A   1      41.406  34.438  35.604  1.00  0.00     0.023 A 
ATOM     90  C   UNL A   1      41.715  33.981  36.896  1.00  0.00     0.031 A 
ATOM     91  C   UNL A   1      40.053  34.673  35.298  1.00  0.00     0.131 A 
ATOM     92  C   UNL A   1      40.684  33.722  37.813  1.00  0.00     0.055 A 
ATOM     93  C   UNL A   1      39.037  34.475  36.234  1.00  0.00     0.041 A 
ATOM     94  F   UNL A   1      39.699  35.110  34.079  1.00  0.00    -0.206 F 
ATOM     95  C   UNL A   1      39.350  33.982  37.497  1.00  0.00     0.022 A 
BRANCH  92  96
ATOM     96  S   UNL A   1      41.107  32.940  39.394  1.00  0.00     0.124 S 
ATOM     97  O   UNL A   1      39.799  32.508  39.870  1.00  0.00    -0.237 OA
ATOM     98  O   UNL A   1      42.020  31.882  38.975  1.00  0.00    -0.237 OA
ATOM     99  O   UNL A   1      41.722  34.026  40.156  1.00  0.00    -0.744 OA
ENDBRANCH  92  96
ENDBRANCH  65  89
BRANCH  77 100
ATOM    100  C   UNL A   1      44.793  40.021  33.151  1.00  0.00     0.023 A 
ATOM    101  C   UNL A   1      43.921  40.838  32.411  1.00  0.00     0.031 A 
ATOM    102  C   UNL A   1      45.550  40.619  34.174  1.00  0.00     0.131 A 
ATOM    103  C   UNL A   1      43.873  42.218  32.662  1.00  0.00     0.055 A 
ATOM    104  C   UNL A   1      45.446  41.980  34.467  1.00  0.00     0.041 A 
ATOM    105  F   UNL A   1      46.403  39.890  34.912  1.00  0.00    -0.206 F 
ATOM    106  C   UNL A   1      44.614  42.791  33.700  1.00  0.00     0.022 A 
BRANCH 103 107
ATOM    107  S   UNL A   1      42.906  43.271  31.548  1.00  0.00     0.124 S 
ATOM    108  O   UNL A   1      43.949  43.904  30.748  1.00  0.00    -0.237 OA
ATOM    109  O   UNL A   1      42.068  42.302  30.850  1.00  0.00    -0.237 OA
ATOM    110  O   UNL A   1      42.190  44.166  32.457  1.00  0.00    -0.744 OA
ENDBRANCH 103 107
ENDBRANCH  77 100
ENDBRANCH  51  52
ENDBRANCH  43  46
ENDBRANCH  41  42
ENDBRANCH  40  41
ENDBRANCH  39  40
ENDBRANCH  38  39
ENDBRANCH   1  38
TORSDOF 21
ENDMDL
