MODEL 1
REMARK VINA RESULT:     -12.2      0.000      0.000
REMARK SMILES CCc1cc(N2CCC[C@H](C(=O)NCCCCCCNC(=O)c3ccc(-c4c5nc(c(-c6cc(S(=O)(=O)[O-])ccc6F)c6ccc([nH]6)c(-c6cc(S(=O)(=O)[O-])ccc6F)c6nc(c(-c7cc(S(=O)(=O)[O-])ccc7F)c7ccc4[nH]7)C=C6)C=C5)cc3)C2)nc(-c2ccc(Cl)cc2)n1
REMARK SMILES IDX 17 1 16 2 15 3 14 4 13 5 11 6 12 7 10 9 6 10 7 11 86 12 8 13
REMARK SMILES IDX 9 14 5 15 3 16 4 17 96 18 88 19 87 20 2 21 1 22 89 23 90 24
REMARK SMILES IDX 95 25 91 26 94 27 92 28 93 29 18 30 19 31 20 32 21 33 22 35
REMARK SMILES IDX 23 36 24 37 85 38 25 39 84 40 26 41 27 42 28 43 78 44 29 45
REMARK SMILES IDX 83 46 77 47 79 48 30 49 82 50 76 51 75 52 31 54 63 55 43 56
REMARK SMILES IDX 62 57 44 58 47 59 61 60 80 61 45 62 46 63 60 65 81 66 48 67
REMARK SMILES IDX 32 68 33 69 41 70 34 71 40 72 42 73 39 74 35 75 36 76 37 77
REMARK SMILES IDX 38 78 64 79 65 80 73 81 66 82 72 83 74 84 71 85 67 86 68 87
REMARK SMILES IDX 69 88 70 89 49 90 50 91 58 92 51 93 57 94 59 95 56 96 52 97
REMARK SMILES IDX 53 98 54 99 55 100
REMARK H PARENT 13 8 20 34 79 53 47 64
REMARK Flexibility Score: inf
ROOT
ATOM      1  C   UNL A   1      37.449  21.137  24.721  1.00  0.00     0.002 C 
ENDROOT
BRANCH   1   2
ATOM      2  C   UNL A   1      36.109  21.115  25.455  1.00  0.00     0.002 C 
BRANCH   2   3
ATOM      3  C   UNL A   1      35.149  22.240  25.064  1.00  0.00     0.021 C 
BRANCH   3   4
ATOM      4  C   UNL A   1      34.121  21.833  24.013  1.00  0.00     0.116 C 
BRANCH   4   5
ATOM      5  N   UNL A   1      33.868  22.822  22.994  1.00  0.00    -0.356 N 
ATOM      6  C   UNL A   1      32.822  23.687  22.918  1.00  0.00     0.224 C 
ATOM      7  O   UNL A   1      33.021  24.750  22.316  1.00  0.00    -0.275 OA
ATOM      8  H   UNL A   1      34.531  22.877  22.269  1.00  0.00     0.163 HD
BRANCH   6   9
ATOM      9  C   UNL A   1      31.436  23.403  23.507  1.00  0.00     0.098 C 
ATOM     10  N   UNL A   1      30.614  25.362  24.725  1.00  0.00    -0.356 N 
ATOM     11  C   UNL A   1      30.340  24.685  25.985  1.00  0.00     0.118 C 
ATOM     12  C   UNL A   1      30.499  24.603  23.494  1.00  0.00     0.131 C 
ATOM     13  C   UNL A   1      31.148  23.380  26.106  1.00  0.00     0.022 C 
ATOM     14  C   UNL A   1      31.402  22.599  24.810  1.00  0.00     0.017 C 
BRANCH  10  15
ATOM     15  C   UNL A   1      30.548  26.740  24.632  1.00  0.00     0.132 A 
ATOM     16  C   UNL A   1      29.988  28.724  23.467  1.00  0.00     0.046 A 
ATOM     17  C   UNL A   1      29.847  27.354  23.612  1.00  0.00     0.070 A 
ATOM     18  N   UNL A   1      30.741  29.454  24.311  1.00  0.00    -0.233 NA
ATOM     19  C   UNL A   1      31.374  28.786  25.283  1.00  0.00     0.161 A 
ATOM     20  N   UNL A   1      31.312  27.455  25.477  1.00  0.00    -0.211 NA
BRANCH  16  21
ATOM     21  C   UNL A   1      29.331  29.508  22.363  1.00  0.00     0.053 C 
ATOM     22  C   UNL A   1      27.905  29.957  22.646  1.00  0.00     0.011 C 
ENDBRANCH  16  21
BRANCH  19  23
ATOM     23  C   UNL A   1      32.272  29.567  26.137  1.00  0.00     0.019 A 
ATOM     24  C   UNL A   1      33.495  29.035  26.582  1.00  0.00     0.013 A 
ATOM     25  C   UNL A   1      31.948  30.885  26.508  1.00  0.00     0.013 A 
ATOM     26  C   UNL A   1      34.400  29.821  27.306  1.00  0.00     0.021 A 
ATOM     27  C   UNL A   1      32.848  31.671  27.237  1.00  0.00     0.021 A 
ATOM     28  C   UNL A   1      34.079  31.140  27.617  1.00  0.00     0.041 A 
ATOM     29  Cl  UNL A   1      35.214  32.132  28.444  1.00  0.00    -0.084 Cl
ENDBRANCH  19  23
ENDBRANCH  10  15
ENDBRANCH   6   9
ENDBRANCH   4   5
ENDBRANCH   3   4
ENDBRANCH   2   3
ENDBRANCH   1   2
BRANCH   1  30
ATOM     30  C   UNL A   1      38.382  19.958  24.978  1.00  0.00     0.021 C 
BRANCH  30  31
ATOM     31  C   UNL A   1      39.288  20.146  26.182  1.00  0.00     0.116 C 
BRANCH  31  32
ATOM     32  N   UNL A   1      40.471  19.298  26.105  1.00  0.00    -0.352 N 
ATOM     33  C   UNL A   1      41.799  19.635  26.055  1.00  0.00     0.251 C 
ATOM     34  H   UNL A   1      40.287  18.331  26.086  1.00  0.00     0.163 HD
ATOM     35  O   UNL A   1      42.631  18.794  25.736  1.00  0.00    -0.269 OA
BRANCH  33  36
ATOM     36  C   UNL A   1      42.212  21.014  26.381  1.00  0.00     0.039 A 
ATOM     37  C   UNL A   1      42.539  21.336  27.699  1.00  0.00     0.014 A 
ATOM     38  C   UNL A   1      42.268  21.988  25.382  1.00  0.00     0.014 A 
ATOM     39  C   UNL A   1      42.980  22.624  28.001  1.00  0.00     0.010 A 
ATOM     40  C   UNL A   1      42.809  23.233  25.662  1.00  0.00     0.010 A 
ATOM     41  C   UNL A   1      43.154  23.570  26.978  1.00  0.00    -0.014 A 
BRANCH  41  42
ATOM     42  C   UNL A   1      43.666  24.933  27.255  1.00  0.00     0.031 A 
ATOM     43  C   UNL A   1      42.740  25.969  27.829  1.00  0.00     0.074 A 
ATOM     44  C   UNL A   1      44.930  25.249  26.915  1.00  0.00     0.049 A 
ATOM     45  N   UNL A   1      42.950  27.243  28.037  1.00  0.00    -0.248 NA
ATOM     46  C   UNL A   1      41.382  25.521  28.178  1.00  0.00     0.031 C 
ATOM     47  C   UNL A   1      45.900  24.331  26.313  1.00  0.00     0.029 A 
ATOM     48  N   UNL A   1      45.616  26.433  27.017  1.00  0.00    -0.354 N 
ATOM     49  C   UNL A   1      41.748  27.749  28.521  1.00  0.00     0.074 A 
ATOM     50  C   UNL A   1      40.796  26.661  28.507  1.00  0.00     0.031 C 
ATOM     51  C   UNL A   1      47.061  24.977  26.127  1.00  0.00     0.029 A 
ATOM     52  C   UNL A   1      46.904  26.367  26.540  1.00  0.00     0.049 A 
ATOM     53  H   UNL A   1      45.223  27.252  27.395  1.00  0.00     0.167 HD
ATOM     54  C   UNL A   1      41.475  29.001  28.962  1.00  0.00     0.034 A 
ATOM     55  C   UNL A   1      47.845  27.326  26.432  1.00  0.00     0.034 A 
ATOM     56  C   UNL A   1      42.450  30.064  28.982  1.00  0.00     0.049 A 
ATOM     57  C   UNL A   1      47.511  28.719  26.904  1.00  0.00     0.074 A 
ATOM     58  C   UNL A   1      42.307  31.353  29.459  1.00  0.00     0.029 A 
ATOM     59  N   UNL A   1      43.748  29.960  28.496  1.00  0.00    -0.354 N 
ATOM     60  N   UNL A   1      46.384  29.173  27.407  1.00  0.00    -0.248 NA
ATOM     61  C   UNL A   1      48.573  29.726  26.803  1.00  0.00     0.031 C 
ATOM     62  C   UNL A   1      43.488  32.052  29.188  1.00  0.00     0.029 A 
ATOM     63  C   UNL A   1      44.403  31.175  28.628  1.00  0.00     0.049 A 
ATOM     64  H   UNL A   1      44.144  29.144  28.113  1.00  0.00     0.167 HD
ATOM     65  C   UNL A   1      46.618  30.510  27.715  1.00  0.00     0.074 A 
ATOM     66  C   UNL A   1      47.994  30.783  27.352  1.00  0.00     0.031 C 
ATOM     67  C   UNL A   1      45.775  31.428  28.253  1.00  0.00     0.034 A 
BRANCH  54  68
ATOM     68  C   UNL A   1      40.067  29.287  29.428  1.00  0.00     0.023 A 
ATOM     69  C   UNL A   1      39.751  29.424  30.791  1.00  0.00     0.031 A 
ATOM     70  C   UNL A   1      39.020  29.401  28.498  1.00  0.00     0.131 A 
ATOM     71  C   UNL A   1      38.415  29.586  31.189  1.00  0.00     0.055 A 
ATOM     72  C   UNL A   1      37.705  29.652  28.894  1.00  0.00     0.041 A 
ATOM     73  F   UNL A   1      39.253  29.255  27.184  1.00  0.00    -0.206 F 
ATOM     74  C   UNL A   1      37.393  29.731  30.249  1.00  0.00     0.022 A 
BRANCH  71  75
ATOM     75  S   UNL A   1      38.015  29.453  32.953  1.00  0.00     0.124 S 
ATOM     76  O   UNL A   1      37.403  28.128  33.016  1.00  0.00    -0.237 OA
ATOM     77  O   UNL A   1      39.321  29.585  33.584  1.00  0.00    -0.237 OA
ATOM     78  O   UNL A   1      37.095  30.566  33.180  1.00  0.00    -0.744 OA
ENDBRANCH  71  75
ENDBRANCH  54  68
BRANCH  55  79
ATOM     79  C   UNL A   1      49.181  27.013  25.847  1.00  0.00     0.023 A 
ATOM     80  C   UNL A   1      49.530  27.459  24.562  1.00  0.00     0.031 A 
ATOM     81  C   UNL A   1      50.114  26.228  26.547  1.00  0.00     0.131 A 
ATOM     82  C   UNL A   1      50.757  27.075  23.997  1.00  0.00     0.055 A 
ATOM     83  C   UNL A   1      51.359  25.900  26.005  1.00  0.00     0.041 A 
ATOM     84  F   UNL A   1      49.834  25.777  27.780  1.00  0.00    -0.206 F 
ATOM     85  C   UNL A   1      51.680  26.312  24.717  1.00  0.00     0.022 A 
BRANCH  82  86
ATOM     86  S   UNL A   1      51.086  27.504  22.266  1.00  0.00     0.124 S 
ATOM     87  O   UNL A   1      50.075  26.718  21.569  1.00  0.00    -0.237 OA
ATOM     88  O   UNL A   1      50.889  28.949  22.270  1.00  0.00    -0.237 OA
ATOM     89  O   UNL A   1      52.466  27.065  22.065  1.00  0.00    -0.744 OA
ENDBRANCH  82  86
ENDBRANCH  55  79
BRANCH  67  90
ATOM     90  C   UNL A   1      46.338  32.801  28.531  1.00  0.00     0.023 A 
ATOM     91  C   UNL A   1      46.266  33.838  27.585  1.00  0.00     0.031 A 
ATOM     92  C   UNL A   1      46.953  33.072  29.766  1.00  0.00     0.131 A 
ATOM     93  C   UNL A   1      46.846  35.084  27.870  1.00  0.00     0.055 A 
ATOM     94  C   UNL A   1      47.468  34.332  30.070  1.00  0.00     0.041 A 
ATOM     95  F   UNL A   1      47.054  32.116  30.704  1.00  0.00    -0.206 F 
ATOM     96  C   UNL A   1      47.428  35.343  29.115  1.00  0.00     0.022 A 
BRANCH  93  97
ATOM     97  S   UNL A   1      46.915  36.333  26.558  1.00  0.00     0.124 S 
ATOM     98  O   UNL A   1      48.278  36.838  26.693  1.00  0.00    -0.237 OA
ATOM     99  O   UNL A   1      46.644  35.544  25.361  1.00  0.00    -0.237 OA
ATOM    100  O   UNL A   1      45.864  37.277  26.929  1.00  0.00    -0.744 OA
ENDBRANCH  93  97
ENDBRANCH  67  90
ENDBRANCH  41  42
ENDBRANCH  33  36
ENDBRANCH  31  32
ENDBRANCH  30  31
ENDBRANCH   1  30
TORSDOF 19
ENDMDL
MODEL 2
REMARK VINA RESULT:     -11.9      6.275     12.374
REMARK SMILES CCc1cc(N2CCC[C@H](C(=O)NCCCCCCNC(=O)c3ccc(-c4c5nc(c(-c6cc(S(=O)(=O)[O-])ccc6F)c6ccc([nH]6)c(-c6cc(S(=O)(=O)[O-])ccc6F)c6nc(c(-c7cc(S(=O)(=O)[O-])ccc7F)c7ccc4[nH]7)C=C6)C=C5)cc3)C2)nc(-c2ccc(Cl)cc2)n1
REMARK SMILES IDX 17 1 16 2 15 3 14 4 13 5 11 6 12 7 10 9 6 10 7 11 86 12 8 13
REMARK SMILES IDX 9 14 5 15 3 16 4 17 96 18 88 19 87 20 2 21 1 22 89 23 90 24
REMARK SMILES IDX 95 25 91 26 94 27 92 28 93 29 18 30 19 31 20 32 21 33 22 35
REMARK SMILES IDX 23 36 24 37 85 38 25 39 84 40 26 41 27 42 28 43 78 44 29 45
REMARK SMILES IDX 83 46 77 47 79 48 30 49 82 50 76 51 75 52 31 54 63 55 43 56
REMARK SMILES IDX 62 57 44 58 47 59 61 60 80 61 45 62 46 63 60 65 81 66 48 67
REMARK SMILES IDX 32 68 33 69 41 70 34 71 40 72 42 73 39 74 35 75 36 76 37 77
REMARK SMILES IDX 38 78 64 79 65 80 73 81 66 82 72 83 74 84 71 85 67 86 68 87
REMARK SMILES IDX 69 88 70 89 49 90 50 91 58 92 51 93 57 94 59 95 56 96 52 97
REMARK SMILES IDX 53 98 54 99 55 100
REMARK H PARENT 13 8 20 34 79 53 47 64
REMARK Flexibility Score: inf
ROOT
ATOM      1  C   UNL A   1      35.165  34.794  28.484  1.00  0.00     0.002 C 
ENDROOT
BRANCH   1   2
ATOM      2  C   UNL A   1      35.259  33.368  29.026  1.00  0.00     0.002 C 
BRANCH   2   3
ATOM      3  C   UNL A   1      35.344  32.283  27.951  1.00  0.00     0.021 C 
BRANCH   3   4
ATOM      4  C   UNL A   1      34.151  31.331  27.945  1.00  0.00     0.116 C 
BRANCH   4   5
ATOM      5  N   UNL A   1      34.487  29.935  27.811  1.00  0.00    -0.356 N 
ATOM      6  C   UNL A   1      33.807  28.978  27.128  1.00  0.00     0.224 C 
ATOM      7  O   UNL A   1      34.467  28.021  26.702  1.00  0.00    -0.275 OA
ATOM      8  H   UNL A   1      35.307  29.641  28.270  1.00  0.00     0.163 HD
BRANCH   6   9
ATOM      9  C   UNL A   1      32.293  29.016  26.886  1.00  0.00     0.098 C 
ATOM     10  N   UNL A   1      31.566  26.982  25.733  1.00  0.00    -0.356 N 
ATOM     11  C   UNL A   1      30.891  27.639  24.623  1.00  0.00     0.118 C 
ATOM     12  C   UNL A   1      31.611  27.661  27.015  1.00  0.00     0.131 C 
ATOM     13  C   UNL A   1      31.407  29.076  24.426  1.00  0.00     0.022 C 
ATOM     14  C   UNL A   1      31.816  29.845  25.690  1.00  0.00     0.017 C 
BRANCH  10  15
ATOM     15  C   UNL A   1      31.767  25.613  25.730  1.00  0.00     0.132 A 
ATOM     16  C   UNL A   1      31.060  23.405  26.211  1.00  0.00     0.046 A 
ATOM     17  C   UNL A   1      30.740  24.741  26.040  1.00  0.00     0.070 A 
ATOM     18  N   UNL A   1      32.314  22.947  26.039  1.00  0.00    -0.233 NA
ATOM     19  C   UNL A   1      33.247  23.854  25.724  1.00  0.00     0.161 A 
ATOM     20  N   UNL A   1      33.026  25.172  25.565  1.00  0.00    -0.211 NA
BRANCH  16  21
ATOM     21  C   UNL A   1      30.053  22.361  26.610  1.00  0.00     0.053 C 
ATOM     22  C   UNL A   1      28.927  22.854  27.508  1.00  0.00     0.011 C 
ENDBRANCH  16  21
BRANCH  19  23
ATOM     23  C   UNL A   1      34.628  23.370  25.636  1.00  0.00     0.019 A 
ATOM     24  C   UNL A   1      35.706  24.267  25.536  1.00  0.00     0.013 A 
ATOM     25  C   UNL A   1      34.913  21.993  25.684  1.00  0.00     0.013 A 
ATOM     26  C   UNL A   1      37.029  23.808  25.564  1.00  0.00     0.021 A 
ATOM     27  C   UNL A   1      36.234  21.530  25.705  1.00  0.00     0.021 A 
ATOM     28  C   UNL A   1      37.286  22.443  25.663  1.00  0.00     0.041 A 
ATOM     29  Cl  UNL A   1      38.907  21.877  25.769  1.00  0.00    -0.084 Cl
ENDBRANCH  19  23
ENDBRANCH  10  15
ENDBRANCH   6   9
ENDBRANCH   4   5
ENDBRANCH   3   4
ENDBRANCH   2   3
ENDBRANCH   1   2
BRANCH   1  30
ATOM     30  C   UNL A   1      33.832  35.509  28.689  1.00  0.00     0.021 C 
BRANCH  30  31
ATOM     31  C   UNL A   1      32.884  34.781  29.625  1.00  0.00     0.116 C 
BRANCH  31  32
ATOM     32  N   UNL A   1      32.478  35.623  30.743  1.00  0.00    -0.352 N 
ATOM     33  C   UNL A   1      32.919  35.644  32.041  1.00  0.00     0.251 C 
ATOM     34  H   UNL A   1      31.775  36.281  30.534  1.00  0.00     0.163 HD
ATOM     35  O   UNL A   1      32.280  36.247  32.895  1.00  0.00    -0.269 OA
BRANCH  33  36
ATOM     36  C   UNL A   1      34.162  34.932  32.398  1.00  0.00     0.039 A 
ATOM     37  C   UNL A   1      35.394  35.523  32.112  1.00  0.00     0.014 A 
ATOM     38  C   UNL A   1      34.105  33.677  33.008  1.00  0.00     0.014 A 
ATOM     39  C   UNL A   1      36.570  34.876  32.495  1.00  0.00     0.010 A 
ATOM     40  C   UNL A   1      35.266  33.089  33.485  1.00  0.00     0.010 A 
ATOM     41  C   UNL A   1      36.511  33.674  33.218  1.00  0.00    -0.014 A 
BRANCH  41  42
ATOM     42  C   UNL A   1      37.738  32.984  33.684  1.00  0.00     0.031 A 
ATOM     43  C   UNL A   1      38.285  31.829  32.890  1.00  0.00     0.074 A 
ATOM     44  C   UNL A   1      38.303  33.347  34.851  1.00  0.00     0.049 A 
ATOM     45  N   UNL A   1      39.270  31.020  33.178  1.00  0.00    -0.248 NA
ATOM     46  C   UNL A   1      37.605  31.519  31.621  1.00  0.00     0.031 C 
ATOM     47  C   UNL A   1      37.828  34.427  35.721  1.00  0.00     0.029 A 
ATOM     48  N   UNL A   1      39.391  32.842  35.516  1.00  0.00    -0.354 N 
ATOM     49  C   UNL A   1      39.314  30.096  32.139  1.00  0.00     0.074 A 
ATOM     50  C   UNL A   1      38.213  30.402  31.254  1.00  0.00     0.031 C 
ATOM     51  C   UNL A   1      38.638  34.522  36.786  1.00  0.00     0.029 A 
ATOM     52  C   UNL A   1      39.652  33.476  36.708  1.00  0.00     0.049 A 
ATOM     53  H   UNL A   1      39.934  32.097  35.171  1.00  0.00     0.167 HD
ATOM     54  C   UNL A   1      40.211  29.100  31.931  1.00  0.00     0.034 A 
ATOM     55  C   UNL A   1      40.592  33.227  37.641  1.00  0.00     0.034 A 
ATOM     56  C   UNL A   1      41.311  28.828  32.821  1.00  0.00     0.049 A 
ATOM     57  C   UNL A   1      41.562  32.097  37.402  1.00  0.00     0.074 A 
ATOM     58  C   UNL A   1      42.315  27.887  32.685  1.00  0.00     0.029 A 
ATOM     59  N   UNL A   1      41.549  29.493  34.019  1.00  0.00    -0.354 N 
ATOM     60  N   UNL A   1      41.624  31.262  36.389  1.00  0.00    -0.248 NA
ATOM     61  C   UNL A   1      42.593  31.881  38.424  1.00  0.00     0.031 C 
ATOM     62  C   UNL A   1      43.110  27.927  33.836  1.00  0.00     0.029 A 
ATOM     63  C   UNL A   1      42.661  28.956  34.648  1.00  0.00     0.049 A 
ATOM     64  H   UNL A   1      41.006  30.236  34.369  1.00  0.00     0.167 HD
ATOM     65  C   UNL A   1      42.723  30.445  36.638  1.00  0.00     0.074 A 
ATOM     66  C   UNL A   1      43.300  30.897  37.888  1.00  0.00     0.031 C 
ATOM     67  C   UNL A   1      43.216  29.418  35.899  1.00  0.00     0.034 A 
BRANCH  54  68
ATOM     68  C   UNL A   1      40.015  28.226  30.715  1.00  0.00     0.023 A 
ATOM     69  C   UNL A   1      40.715  28.456  29.516  1.00  0.00     0.031 A 
ATOM     70  C   UNL A   1      39.099  27.161  30.744  1.00  0.00     0.131 A 
ATOM     71  C   UNL A   1      40.429  27.687  28.378  1.00  0.00     0.055 A 
ATOM     72  C   UNL A   1      38.885  26.342  29.635  1.00  0.00     0.041 A 
ATOM     73  F   UNL A   1      38.382  26.906  31.850  1.00  0.00    -0.206 F 
ATOM     74  C   UNL A   1      39.540  26.612  28.437  1.00  0.00     0.022 A 
BRANCH  71  75
ATOM     75  S   UNL A   1      41.122  28.208  26.785  1.00  0.00     0.124 S 
ATOM     76  O   UNL A   1      40.129  29.180  26.337  1.00  0.00    -0.237 OA
ATOM     77  O   UNL A   1      42.420  28.749  27.167  1.00  0.00    -0.237 OA
ATOM     78  O   UNL A   1      41.164  26.970  26.009  1.00  0.00    -0.744 OA
ENDBRANCH  71  75
ENDBRANCH  54  68
BRANCH  55  79
ATOM     79  C   UNL A   1      40.659  34.047  38.886  1.00  0.00     0.023 A 
ATOM     80  C   UNL A   1      39.857  33.742  39.997  1.00  0.00     0.031 A 
ATOM     81  C   UNL A   1      41.496  35.174  38.969  1.00  0.00     0.131 A 
ATOM     82  C   UNL A   1      39.871  34.581  41.123  1.00  0.00     0.055 A 
ATOM     83  C   UNL A   1      41.552  35.970  40.114  1.00  0.00     0.041 A 
ATOM     84  F   UNL A   1      42.287  35.511  37.937  1.00  0.00    -0.206 F 
ATOM     85  C   UNL A   1      40.725  35.684  41.194  1.00  0.00     0.022 A 
BRANCH  82  86
ATOM     86  S   UNL A   1      38.680  34.267  42.453  1.00  0.00     0.124 S 
ATOM     87  O   UNL A   1      38.053  33.030  42.003  1.00  0.00    -0.237 OA
ATOM     88  O   UNL A   1      39.550  34.160  43.619  1.00  0.00    -0.237 OA
ATOM     89  O   UNL A   1      37.820  35.449  42.425  1.00  0.00    -0.744 OA
ENDBRANCH  82  86
ENDBRANCH  55  79
BRANCH  67  90
ATOM     90  C   UNL A   1      44.473  28.750  36.401  1.00  0.00     0.023 A 
ATOM     91  C   UNL A   1      44.434  27.707  37.342  1.00  0.00     0.031 A 
ATOM     92  C   UNL A   1      45.729  29.163  35.922  1.00  0.00     0.131 A 
ATOM     93  C   UNL A   1      45.632  27.149  37.815  1.00  0.00     0.055 A 
ATOM     94  C   UNL A   1      46.913  28.559  36.345  1.00  0.00     0.041 A 
ATOM     95  F   UNL A   1      45.825  30.159  35.025  1.00  0.00    -0.206 F 
ATOM     96  C   UNL A   1      46.870  27.554  37.306  1.00  0.00     0.022 A 
BRANCH  93  97
ATOM     97  S   UNL A   1      45.558  25.950  39.173  1.00  0.00     0.124 S 
ATOM     98  O   UNL A   1      44.540  26.537  40.038  1.00  0.00    -0.237 OA
ATOM     99  O   UNL A   1      45.178  24.721  38.485  1.00  0.00    -0.237 OA
ATOM    100  O   UNL A   1      46.915  25.962  39.715  1.00  0.00    -0.744 OA
ENDBRANCH  93  97
ENDBRANCH  67  90
ENDBRANCH  41  42
ENDBRANCH  33  36
ENDBRANCH  31  32
ENDBRANCH  30  31
ENDBRANCH   1  30
TORSDOF 19
ENDMDL
MODEL 3
REMARK VINA RESULT:     -11.9      5.610     10.234
REMARK SMILES CCc1cc(N2CCC[C@H](C(=O)NCCCCCCNC(=O)c3ccc(-c4c5nc(c(-c6cc(S(=O)(=O)[O-])ccc6F)c6ccc([nH]6)c(-c6cc(S(=O)(=O)[O-])ccc6F)c6nc(c(-c7cc(S(=O)(=O)[O-])ccc7F)c7ccc4[nH]7)C=C6)C=C5)cc3)C2)nc(-c2ccc(Cl)cc2)n1
REMARK SMILES IDX 17 1 16 2 15 3 14 4 13 5 11 6 12 7 10 9 6 10 7 11 86 12 8 13
REMARK SMILES IDX 9 14 5 15 3 16 4 17 96 18 88 19 87 20 2 21 1 22 89 23 90 24
REMARK SMILES IDX 95 25 91 26 94 27 92 28 93 29 18 30 19 31 20 32 21 33 22 35
REMARK SMILES IDX 23 36 24 37 85 38 25 39 84 40 26 41 27 42 28 43 78 44 29 45
REMARK SMILES IDX 83 46 77 47 79 48 30 49 82 50 76 51 75 52 31 54 63 55 43 56
REMARK SMILES IDX 62 57 44 58 47 59 61 60 80 61 45 62 46 63 60 65 81 66 48 67
REMARK SMILES IDX 32 68 33 69 41 70 34 71 40 72 42 73 39 74 35 75 36 76 37 77
REMARK SMILES IDX 38 78 64 79 65 80 73 81 66 82 72 83 74 84 71 85 67 86 68 87
REMARK SMILES IDX 69 88 70 89 49 90 50 91 58 92 51 93 57 94 59 95 56 96 52 97
REMARK SMILES IDX 53 98 54 99 55 100
REMARK H PARENT 13 8 20 34 79 53 47 64
REMARK Flexibility Score: inf
ROOT
ATOM      1  C   UNL A   1      35.385  33.040  27.879  1.00  0.00     0.002 C 
ENDROOT
BRANCH   1   2
ATOM      2  C   UNL A   1      34.785  31.760  28.462  1.00  0.00     0.002 C 
BRANCH   2   3
ATOM      3  C   UNL A   1      35.042  30.501  27.633  1.00  0.00     0.021 C 
BRANCH   3   4
ATOM      4  C   UNL A   1      33.834  30.046  26.818  1.00  0.00     0.116 C 
BRANCH   4   5
ATOM      5  N   UNL A   1      33.247  28.800  27.245  1.00  0.00    -0.356 N 
ATOM      6  C   UNL A   1      32.754  27.803  26.465  1.00  0.00     0.224 C 
ATOM      7  O   UNL A   1      32.776  26.660  26.941  1.00  0.00    -0.275 OA
ATOM      8  H   UNL A   1      33.199  28.654  28.218  1.00  0.00     0.163 HD
BRANCH   6   9
ATOM      9  C   UNL A   1      32.165  28.026  25.067  1.00  0.00     0.098 C 
ATOM     10  N   UNL A   1      33.108  26.415  23.482  1.00  0.00    -0.356 N 
ATOM     11  C   UNL A   1      33.573  27.385  22.500  1.00  0.00     0.118 C 
ATOM     12  C   UNL A   1      31.940  26.743  24.277  1.00  0.00     0.131 C 
ATOM     13  C   UNL A   1      33.754  28.777  23.131  1.00  0.00     0.022 C 
ATOM     14  C   UNL A   1      32.775  29.166  24.246  1.00  0.00     0.017 C 
BRANCH  10  15
ATOM     15  C   UNL A   1      33.452  25.080  23.377  1.00  0.00     0.132 A 
ATOM     16  C   UNL A   1      32.890  22.805  23.034  1.00  0.00     0.046 A 
ATOM     17  C   UNL A   1      32.544  24.142  22.924  1.00  0.00     0.070 A 
ATOM     18  N   UNL A   1      34.085  22.418  23.517  1.00  0.00    -0.233 NA
ATOM     19  C   UNL A   1      34.915  23.389  23.919  1.00  0.00     0.161 A 
ATOM     20  N   UNL A   1      34.646  24.708  23.872  1.00  0.00    -0.211 NA
BRANCH  16  21
ATOM     21  C   UNL A   1      31.971  21.681  22.637  1.00  0.00     0.053 C 
ATOM     22  C   UNL A   1      32.302  20.327  23.247  1.00  0.00     0.011 C 
ENDBRANCH  16  21
BRANCH  19  23
ATOM     23  C   UNL A   1      36.172  22.962  24.538  1.00  0.00     0.019 A 
ATOM     24  C   UNL A   1      36.912  23.836  25.354  1.00  0.00     0.013 A 
ATOM     25  C   UNL A   1      36.656  21.653  24.358  1.00  0.00     0.013 A 
ATOM     26  C   UNL A   1      38.055  23.392  26.032  1.00  0.00     0.021 A 
ATOM     27  C   UNL A   1      37.800  21.208  25.029  1.00  0.00     0.021 A 
ATOM     28  C   UNL A   1      38.484  22.077  25.878  1.00  0.00     0.041 A 
ATOM     29  Cl  UNL A   1      39.844  21.505  26.762  1.00  0.00    -0.084 Cl
ENDBRANCH  19  23
ENDBRANCH  10  15
ENDBRANCH   6   9
ENDBRANCH   4   5
ENDBRANCH   3   4
ENDBRANCH   2   3
ENDBRANCH   1   2
BRANCH   1  30
ATOM     30  C   UNL A   1      34.570  34.316  28.065  1.00  0.00     0.021 C 
BRANCH  30  31
ATOM     31  C   UNL A   1      33.224  34.091  28.730  1.00  0.00     0.116 C 
BRANCH  31  32
ATOM     32  N   UNL A   1      33.005  35.020  29.832  1.00  0.00    -0.352 N 
ATOM     33  C   UNL A   1      33.559  35.051  31.086  1.00  0.00     0.251 C 
ATOM     34  H   UNL A   1      32.358  35.738  29.647  1.00  0.00     0.163 HD
ATOM     35  O   UNL A   1      33.061  35.754  31.957  1.00  0.00    -0.269 OA
BRANCH  33  36
ATOM     36  C   UNL A   1      34.749  34.227  31.376  1.00  0.00     0.039 A 
ATOM     37  C   UNL A   1      36.016  34.724  31.067  1.00  0.00     0.014 A 
ATOM     38  C   UNL A   1      34.608  32.960  31.946  1.00  0.00     0.014 A 
ATOM     39  C   UNL A   1      37.145  33.971  31.388  1.00  0.00     0.010 A 
ATOM     40  C   UNL A   1      35.730  32.262  32.363  1.00  0.00     0.010 A 
ATOM     41  C   UNL A   1      37.010  32.752  32.072  1.00  0.00    -0.014 A 
BRANCH  41  42
ATOM     42  C   UNL A   1      38.190  31.947  32.472  1.00  0.00     0.031 A 
ATOM     43  C   UNL A   1      38.915  32.280  33.747  1.00  0.00     0.074 A 
ATOM     44  C   UNL A   1      38.646  30.983  31.650  1.00  0.00     0.049 A 
ATOM     45  N   UNL A   1      40.028  31.783  34.220  1.00  0.00    -0.248 NA
ATOM     46  C   UNL A   1      38.330  33.342  34.582  1.00  0.00     0.031 C 
ATOM     47  C   UNL A   1      38.042  30.607  30.369  1.00  0.00     0.029 A 
ATOM     48  N   UNL A   1      39.729  30.148  31.762  1.00  0.00    -0.354 N 
ATOM     49  C   UNL A   1      40.285  32.485  35.393  1.00  0.00     0.074 A 
ATOM     50  C   UNL A   1      39.251  33.488  35.520  1.00  0.00     0.031 C 
ATOM     51  C   UNL A   1      38.745  29.598  29.831  1.00  0.00     0.029 A 
ATOM     52  C   UNL A   1      39.880  29.294  30.694  1.00  0.00     0.049 A 
ATOM     53  H   UNL A   1      40.339  30.159  32.534  1.00  0.00     0.167 HD
ATOM     54  C   UNL A   1      41.278  32.288  36.294  1.00  0.00     0.034 A 
ATOM     55  C   UNL A   1      40.839  28.383  30.435  1.00  0.00     0.034 A 
ATOM     56  C   UNL A   1      42.286  31.268  36.152  1.00  0.00     0.049 A 
ATOM     57  C   UNL A   1      41.949  28.201  31.438  1.00  0.00     0.074 A 
ATOM     58  C   UNL A   1      43.305  30.937  37.026  1.00  0.00     0.029 A 
ATOM     59  N   UNL A   1      42.407  30.417  35.059  1.00  0.00    -0.354 N 
ATOM     60  N   UNL A   1      42.153  28.837  32.570  1.00  0.00    -0.248 NA
ATOM     61  C   UNL A   1      42.953  27.174  31.137  1.00  0.00     0.031 C 
ATOM     62  C   UNL A   1      44.088  29.945  36.427  1.00  0.00     0.029 A 
ATOM     63  C   UNL A   1      43.506  29.588  35.222  1.00  0.00     0.049 A 
ATOM     64  H   UNL A   1      41.801  30.406  34.283  1.00  0.00     0.167 HD
ATOM     65  C   UNL A   1      43.289  28.261  33.131  1.00  0.00     0.074 A 
ATOM     66  C   UNL A   1      43.716  27.219  32.218  1.00  0.00     0.031 C 
ATOM     67  C   UNL A   1      43.919  28.560  34.295  1.00  0.00     0.034 A 
BRANCH  54  68
ATOM     68  C   UNL A   1      41.331  33.212  37.488  1.00  0.00     0.023 A 
ATOM     69  C   UNL A   1      40.717  32.882  38.710  1.00  0.00     0.031 A 
ATOM     70  C   UNL A   1      41.985  34.453  37.399  1.00  0.00     0.131 A 
ATOM     71  C   UNL A   1      40.700  33.811  39.761  1.00  0.00     0.055 A 
ATOM     72  C   UNL A   1      42.043  35.336  38.478  1.00  0.00     0.041 A 
ATOM     73  F   UNL A   1      42.569  34.837  36.253  1.00  0.00    -0.206 F 
ATOM     74  C   UNL A   1      41.384  35.024  39.664  1.00  0.00     0.022 A 
BRANCH  71  75
ATOM     75  S   UNL A   1      39.645  33.474  41.197  1.00  0.00     0.124 S 
ATOM     76  O   UNL A   1      38.497  34.335  40.927  1.00  0.00    -0.237 OA
ATOM     77  O   UNL A   1      39.409  32.040  41.086  1.00  0.00    -0.237 OA
ATOM     78  O   UNL A   1      40.469  33.886  42.332  1.00  0.00    -0.744 OA
ENDBRANCH  71  75
ENDBRANCH  54  68
BRANCH  55  79
ATOM     79  C   UNL A   1      40.802  27.584  29.175  1.00  0.00     0.023 A 
ATOM     80  C   UNL A   1      41.684  27.860  28.118  1.00  0.00     0.031 A 
ATOM     81  C   UNL A   1      39.856  26.560  28.992  1.00  0.00     0.131 A 
ATOM     82  C   UNL A   1      41.570  27.155  26.909  1.00  0.00     0.055 A 
ATOM     83  C   UNL A   1      39.787  25.820  27.811  1.00  0.00     0.041 A 
ATOM     84  F   UNL A   1      38.990  26.252  29.971  1.00  0.00    -0.206 F 
ATOM     85  C   UNL A   1      40.638  26.126  26.755  1.00  0.00     0.022 A 
BRANCH  82  86
ATOM     86  S   UNL A   1      42.592  27.673  25.504  1.00  0.00     0.124 S 
ATOM     87  O   UNL A   1      43.891  27.868  26.139  1.00  0.00    -0.237 OA
ATOM     88  O   UNL A   1      42.479  26.526  24.610  1.00  0.00    -0.237 OA
ATOM     89  O   UNL A   1      41.935  28.893  25.038  1.00  0.00    -0.744 OA
ENDBRANCH  82  86
ENDBRANCH  55  79
BRANCH  67  90
ATOM     90  C   UNL A   1      45.109  27.710  34.672  1.00  0.00     0.023 A 
ATOM     91  C   UNL A   1      44.964  26.496  35.365  1.00  0.00     0.031 A 
ATOM     92  C   UNL A   1      46.407  28.124  34.324  1.00  0.00     0.131 A 
ATOM     93  C   UNL A   1      46.103  25.764  35.735  1.00  0.00     0.055 A 
ATOM     94  C   UNL A   1      47.531  27.359  34.635  1.00  0.00     0.041 A 
ATOM     95  F   UNL A   1      46.604  29.278  33.666  1.00  0.00    -0.206 F 
ATOM     96  C   UNL A   1      47.384  26.177  35.356  1.00  0.00     0.022 A 
BRANCH  93  97
ATOM     97  S   UNL A   1      45.897  24.312  36.801  1.00  0.00     0.124 S 
ATOM     98  O   UNL A   1      46.694  24.678  37.968  1.00  0.00    -0.237 OA
ATOM     99  O   UNL A   1      44.452  24.276  37.003  1.00  0.00    -0.237 OA
ATOM    100  O   UNL A   1      46.438  23.218  35.999  1.00  0.00    -0.744 OA
ENDBRANCH  93  97
ENDBRANCH  67  90
ENDBRANCH  41  42
ENDBRANCH  33  36
ENDBRANCH  31  32
ENDBRANCH  30  31
ENDBRANCH   1  30
TORSDOF 19
ENDMDL
