MODEL 1
REMARK VINA RESULT:     -11.7      0.000      0.000
REMARK SMILES COc1ncccc1Cn1ccc(C(=O)NCCCCCCNC(=O)c2ccc(-c3c4nc(c(-c5cc(S(=O)(=O)[O-])ccc5F)c5ccc([nH]5)c(-c5cc(S(=O)(=O)[O-])ccc5F)c5nc(c(-c6cc(S(=O)(=O)[O-])ccc6F)c6ccc3[nH]6)C=C5)C=C4)cc2)n1
REMARK SMILES IDX 19 1 18 2 17 3 16 4 14 5 15 6 13 8 10 9 11 10 89 11 12 12
REMARK SMILES IDX 9 13 8 14 3 15 4 16 5 17 7 18 6 19 2 20 1 21 20 22 21 23
REMARK SMILES IDX 22 24 23 25 24 26 25 28 26 29 27 30 88 31 28 32 87 33 29 34
REMARK SMILES IDX 30 35 31 36 81 37 32 38 86 39 80 40 82 41 33 42 85 43 79 44
REMARK SMILES IDX 78 45 34 47 66 48 46 49 65 50 47 51 50 52 64 53 83 54 48 55
REMARK SMILES IDX 49 56 63 58 84 59 51 60 35 61 36 62 44 63 37 64 43 65 45 66
REMARK SMILES IDX 42 67 38 68 39 69 40 70 41 71 67 72 68 73 76 74 69 75 75 76
REMARK SMILES IDX 77 77 74 78 70 79 71 80 72 81 73 82 52 83 53 84 61 85 54 86
REMARK SMILES IDX 60 87 62 88 59 89 55 90 56 91 57 92 58 93
REMARK H PARENT 16 7 23 27 82 46 50 57
REMARK Flexibility Score: inf
ROOT
ATOM      1  C   UNL A   1      32.854  29.504  24.830  1.00  0.00     0.002 C 
ENDROOT
BRANCH   1   2
ATOM      2  C   UNL A   1      32.859  29.166  23.339  1.00  0.00     0.021 C 
BRANCH   2   3
ATOM      3  C   UNL A   1      31.880  28.073  22.918  1.00  0.00     0.116 C 
BRANCH   3   4
ATOM      4  N   UNL A   1      32.382  27.255  21.827  1.00  0.00    -0.351 N 
ATOM      5  C   UNL A   1      32.529  25.886  21.768  1.00  0.00     0.271 C 
ATOM      6  O   UNL A   1      33.066  25.387  20.779  1.00  0.00    -0.267 OA
ATOM      7  H   UNL A   1      32.654  27.747  21.019  1.00  0.00     0.163 HD
BRANCH   5   8
ATOM      8  C   UNL A   1      32.120  25.082  22.924  1.00  0.00     0.150 A 
ATOM      9  N   UNL A   1      32.271  23.834  24.645  1.00  0.00    -0.267 N 
ATOM     10  C   UNL A   1      30.994  23.661  24.188  1.00  0.00     0.110 A 
ATOM     11  N   UNL A   1      32.946  24.760  23.938  1.00  0.00    -0.167 NA
ATOM     12  C   UNL A   1      30.838  24.523  23.131  1.00  0.00     0.056 A 
BRANCH   9  13
ATOM     13  C   UNL A   1      32.970  23.191  25.762  1.00  0.00     0.185 C 
BRANCH  13  14
ATOM     14  C   UNL A   1      34.426  22.958  25.508  1.00  0.00     0.036 A 
ATOM     15  C   UNL A   1      34.878  21.962  24.644  1.00  0.00     0.218 A 
ATOM     16  N   UNL A   1      36.176  21.786  24.320  1.00  0.00    -0.222 NA
ATOM     17  C   UNL A   1      37.072  22.616  24.905  1.00  0.00     0.115 A 
ATOM     18  C   UNL A   1      35.389  23.777  26.117  1.00  0.00     0.013 A 
ATOM     19  C   UNL A   1      36.735  23.595  25.822  1.00  0.00     0.021 A 
BRANCH  15  20
ATOM     20  O   UNL A   1      34.043  20.941  24.264  1.00  0.00    -0.481 OA
ATOM     21  C   UNL A   1      34.437  19.674  24.773  1.00  0.00     0.280 C 
ENDBRANCH  15  20
ENDBRANCH  13  14
ENDBRANCH   9  13
ENDBRANCH   5   8
ENDBRANCH   3   4
ENDBRANCH   2   3
ENDBRANCH   1   2
BRANCH   1  22
ATOM     22  C   UNL A   1      33.536  28.484  25.750  1.00  0.00     0.002 C 
BRANCH  22  23
ATOM     23  C   UNL A   1      33.792  28.928  27.197  1.00  0.00     0.021 C 
BRANCH  23  24
ATOM     24  C   UNL A   1      35.263  29.044  27.566  1.00  0.00     0.116 C 
BRANCH  24  25
ATOM     25  N   UNL A   1      35.465  29.831  28.775  1.00  0.00    -0.352 N 
ATOM     26  C   UNL A   1      36.501  29.737  29.683  1.00  0.00     0.251 C 
ATOM     27  H   UNL A   1      34.781  30.512  28.967  1.00  0.00     0.163 HD
ATOM     28  O   UNL A   1      36.356  30.140  30.825  1.00  0.00    -0.269 OA
BRANCH  26  29
ATOM     29  C   UNL A   1      37.778  29.135  29.246  1.00  0.00     0.039 A 
ATOM     30  C   UNL A   1      38.415  29.592  28.090  1.00  0.00     0.014 A 
ATOM     31  C   UNL A   1      38.339  28.110  30.010  1.00  0.00     0.014 A 
ATOM     32  C   UNL A   1      39.664  29.069  27.761  1.00  0.00     0.010 A 
ATOM     33  C   UNL A   1      39.616  27.666  29.740  1.00  0.00     0.010 A 
ATOM     34  C   UNL A   1      40.277  28.124  28.606  1.00  0.00    -0.014 A 
BRANCH  34  35
ATOM     35  C   UNL A   1      41.677  27.757  28.396  1.00  0.00     0.031 A 
ATOM     36  C   UNL A   1      41.856  26.481  27.653  1.00  0.00     0.074 A 
ATOM     37  C   UNL A   1      42.738  28.554  28.650  1.00  0.00     0.049 A 
ATOM     38  N   UNL A   1      42.237  25.346  28.135  1.00  0.00    -0.248 NA
ATOM     39  C   UNL A   1      41.393  26.403  26.259  1.00  0.00     0.031 C 
ATOM     40  C   UNL A   1      42.732  29.946  29.104  1.00  0.00     0.029 A 
ATOM     41  N   UNL A   1      44.067  28.308  28.457  1.00  0.00    -0.354 N 
ATOM     42  C   UNL A   1      42.328  24.480  27.051  1.00  0.00     0.074 A 
ATOM     43  C   UNL A   1      41.586  25.109  25.992  1.00  0.00     0.031 C 
ATOM     44  C   UNL A   1      43.962  30.482  28.941  1.00  0.00     0.029 A 
ATOM     45  C   UNL A   1      44.882  29.438  28.521  1.00  0.00     0.049 A 
ATOM     46  H   UNL A   1      44.421  27.405  28.288  1.00  0.00     0.167 HD
ATOM     47  C   UNL A   1      43.232  23.460  27.051  1.00  0.00     0.034 A 
ATOM     48  C   UNL A   1      46.211  29.521  28.235  1.00  0.00     0.034 A 
ATOM     49  C   UNL A   1      43.741  23.228  28.390  1.00  0.00     0.049 A 
ATOM     50  C   UNL A   1      46.771  28.156  28.388  1.00  0.00     0.074 A 
ATOM     51  C   UNL A   1      43.157  22.960  29.615  1.00  0.00     0.029 A 
ATOM     52  N   UNL A   1      45.016  23.663  28.684  1.00  0.00    -0.354 N 
ATOM     53  N   UNL A   1      46.837  27.539  29.535  1.00  0.00    -0.248 NA
ATOM     54  C   UNL A   1      46.805  27.291  27.220  1.00  0.00     0.031 C 
ATOM     55  C   UNL A   1      43.899  23.741  30.552  1.00  0.00     0.029 A 
ATOM     56  C   UNL A   1      44.954  24.351  29.871  1.00  0.00     0.049 A 
ATOM     57  H   UNL A   1      45.823  23.508  28.143  1.00  0.00     0.167 HD
ATOM     58  C   UNL A   1      46.448  26.238  29.261  1.00  0.00     0.074 A 
ATOM     59  C   UNL A   1      46.549  26.117  27.807  1.00  0.00     0.031 C 
ATOM     60  C   UNL A   1      45.811  25.477  30.200  1.00  0.00     0.034 A 
BRANCH  47  61
ATOM     61  C   UNL A   1      43.958  22.940  25.825  1.00  0.00     0.023 A 
ATOM     62  C   UNL A   1      43.990  21.542  25.654  1.00  0.00     0.031 A 
ATOM     63  C   UNL A   1      44.851  23.672  25.011  1.00  0.00     0.131 A 
ATOM     64  C   UNL A   1      44.959  20.933  24.839  1.00  0.00     0.055 A 
ATOM     65  C   UNL A   1      45.765  23.064  24.144  1.00  0.00     0.041 A 
ATOM     66  F   UNL A   1      44.961  25.004  25.063  1.00  0.00    -0.206 F 
ATOM     67  C   UNL A   1      45.852  21.686  24.084  1.00  0.00     0.022 A 
BRANCH  64  68
ATOM     68  S   UNL A   1      45.158  19.137  24.952  1.00  0.00     0.124 S 
ATOM     69  O   UNL A   1      45.189  18.765  23.541  1.00  0.00    -0.237 OA
ATOM     70  O   UNL A   1      46.416  19.021  25.680  1.00  0.00    -0.237 OA
ATOM     71  O   UNL A   1      43.969  18.712  25.687  1.00  0.00    -0.744 OA
ENDBRANCH  64  68
ENDBRANCH  47  61
BRANCH  48  72
ATOM     72  C   UNL A   1      46.948  30.638  27.575  1.00  0.00     0.023 A 
ATOM     73  C   UNL A   1      46.298  31.713  26.926  1.00  0.00     0.031 A 
ATOM     74  C   UNL A   1      48.332  30.790  27.814  1.00  0.00     0.131 A 
ATOM     75  C   UNL A   1      47.025  32.872  26.558  1.00  0.00     0.055 A 
ATOM     76  C   UNL A   1      49.045  31.935  27.447  1.00  0.00     0.041 A 
ATOM     77  F   UNL A   1      49.025  29.867  28.498  1.00  0.00    -0.206 F 
ATOM     78  C   UNL A   1      48.391  32.988  26.828  1.00  0.00     0.022 A 
BRANCH  75  79
ATOM     79  S   UNL A   1      46.184  34.310  25.810  1.00  0.00     0.124 S 
ATOM     80  O   UNL A   1      45.737  35.053  26.981  1.00  0.00    -0.237 OA
ATOM     81  O   UNL A   1      47.245  34.920  25.017  1.00  0.00    -0.237 OA
ATOM     82  O   UNL A   1      45.109  33.703  25.022  1.00  0.00    -0.744 OA
ENDBRANCH  75  79
ENDBRANCH  48  72
BRANCH  60  83
ATOM     83  C   UNL A   1      45.832  25.939  31.647  1.00  0.00     0.023 A 
ATOM     84  C   UNL A   1      44.738  26.501  32.346  1.00  0.00     0.031 A 
ATOM     85  C   UNL A   1      47.018  25.723  32.373  1.00  0.00     0.131 A 
ATOM     86  C   UNL A   1      44.868  26.846  33.707  1.00  0.00     0.055 A 
ATOM     87  C   UNL A   1      47.134  26.039  33.725  1.00  0.00     0.041 A 
ATOM     88  F   UNL A   1      48.091  25.173  31.780  1.00  0.00    -0.206 F 
ATOM     89  C   UNL A   1      46.062  26.613  34.395  1.00  0.00     0.022 A 
BRANCH  86  90
ATOM     90  S   UNL A   1      43.502  27.653  34.603  1.00  0.00     0.124 S 
ATOM     91  O   UNL A   1      43.472  29.001  34.050  1.00  0.00    -0.237 OA
ATOM     92  O   UNL A   1      42.362  26.803  34.269  1.00  0.00    -0.237 OA
ATOM     93  O   UNL A   1      43.926  27.578  36.003  1.00  0.00    -0.744 OA
ENDBRANCH  86  90
ENDBRANCH  60  83
ENDBRANCH  34  35
ENDBRANCH  26  29
ENDBRANCH  24  25
ENDBRANCH  23  24
ENDBRANCH  22  23
ENDBRANCH   1  22
TORSDOF 19
ENDMDL
MODEL 2
REMARK VINA RESULT:     -11.5      1.610      2.045
REMARK SMILES COc1ncccc1Cn1ccc(C(=O)NCCCCCCNC(=O)c2ccc(-c3c4nc(c(-c5cc(S(=O)(=O)[O-])ccc5F)c5ccc([nH]5)c(-c5cc(S(=O)(=O)[O-])ccc5F)c5nc(c(-c6cc(S(=O)(=O)[O-])ccc6F)c6ccc3[nH]6)C=C5)C=C4)cc2)n1
REMARK SMILES IDX 19 1 18 2 17 3 16 4 14 5 15 6 13 8 10 9 11 10 89 11 12 12
REMARK SMILES IDX 9 13 8 14 3 15 4 16 5 17 7 18 6 19 2 20 1 21 20 22 21 23
REMARK SMILES IDX 22 24 23 25 24 26 25 28 26 29 27 30 88 31 28 32 87 33 29 34
REMARK SMILES IDX 30 35 31 36 81 37 32 38 86 39 80 40 82 41 33 42 85 43 79 44
REMARK SMILES IDX 78 45 34 47 66 48 46 49 65 50 47 51 50 52 64 53 83 54 48 55
REMARK SMILES IDX 49 56 63 58 84 59 51 60 35 61 36 62 44 63 37 64 43 65 45 66
REMARK SMILES IDX 42 67 38 68 39 69 40 70 41 71 67 72 68 73 76 74 69 75 75 76
REMARK SMILES IDX 77 77 74 78 70 79 71 80 72 81 73 82 52 83 53 84 61 85 54 86
REMARK SMILES IDX 60 87 62 88 59 89 55 90 56 91 57 92 58 93
REMARK H PARENT 16 7 23 27 82 46 50 57
REMARK Flexibility Score: inf
ROOT
ATOM      1  C   UNL A   1      32.719  30.422  26.807  1.00  0.00     0.002 C 
ENDROOT
BRANCH   1   2
ATOM      2  C   UNL A   1      31.615  30.431  25.749  1.00  0.00     0.021 C 
BRANCH   2   3
ATOM      3  C   UNL A   1      31.685  29.299  24.728  1.00  0.00     0.116 C 
BRANCH   3   4
ATOM      4  N   UNL A   1      32.819  29.421  23.827  1.00  0.00    -0.351 N 
ATOM      5  C   UNL A   1      33.388  28.462  23.017  1.00  0.00     0.271 C 
ATOM      6  O   UNL A   1      34.410  28.742  22.392  1.00  0.00    -0.267 OA
ATOM      7  H   UNL A   1      33.236  30.311  23.789  1.00  0.00     0.163 HD
BRANCH   5   8
ATOM      8  C   UNL A   1      32.803  27.117  22.998  1.00  0.00     0.150 A 
ATOM      9  N   UNL A   1      32.682  24.990  23.041  1.00  0.00    -0.267 N 
ATOM     10  C   UNL A   1      31.521  25.403  22.447  1.00  0.00     0.110 A 
ATOM     11  N   UNL A   1      33.438  26.022  23.459  1.00  0.00    -0.167 NA
ATOM     12  C   UNL A   1      31.530  26.776  22.488  1.00  0.00     0.056 A 
BRANCH   9  13
ATOM     13  C   UNL A   1      33.186  23.635  23.287  1.00  0.00     0.185 C 
BRANCH  13  14
ATOM     14  C   UNL A   1      33.572  23.386  24.712  1.00  0.00     0.036 A 
ATOM     15  C   UNL A   1      32.624  23.139  25.704  1.00  0.00     0.218 A 
ATOM     16  N   UNL A   1      32.941  22.819  26.976  1.00  0.00    -0.222 NA
ATOM     17  C   UNL A   1      34.257  22.773  27.288  1.00  0.00     0.115 A 
ATOM     18  C   UNL A   1      34.924  23.360  25.084  1.00  0.00     0.013 A 
ATOM     19  C   UNL A   1      35.274  23.062  26.395  1.00  0.00     0.021 A 
BRANCH  15  20
ATOM     20  O   UNL A   1      31.304  23.450  25.496  1.00  0.00    -0.481 OA
ATOM     21  C   UNL A   1      30.430  22.849  26.443  1.00  0.00     0.280 C 
ENDBRANCH  15  20
ENDBRANCH  13  14
ENDBRANCH   9  13
ENDBRANCH   5   8
ENDBRANCH   3   4
ENDBRANCH   2   3
ENDBRANCH   1   2
BRANCH   1  22
ATOM     22  C   UNL A   1      33.194  29.038  27.267  1.00  0.00     0.002 C 
BRANCH  22  23
ATOM     23  C   UNL A   1      34.710  28.792  27.249  1.00  0.00     0.021 C 
BRANCH  23  24
ATOM     24  C   UNL A   1      35.548  30.021  27.571  1.00  0.00     0.116 C 
BRANCH  24  25
ATOM     25  N   UNL A   1      35.629  30.269  29.004  1.00  0.00    -0.352 N 
ATOM     26  C   UNL A   1      36.488  29.689  29.916  1.00  0.00     0.251 C 
ATOM     27  H   UNL A   1      34.996  30.930  29.365  1.00  0.00     0.163 HD
ATOM     28  O   UNL A   1      36.201  29.664  31.102  1.00  0.00    -0.269 OA
BRANCH  26  29
ATOM     29  C   UNL A   1      37.751  29.097  29.427  1.00  0.00     0.039 A 
ATOM     30  C   UNL A   1      38.415  29.655  28.333  1.00  0.00     0.014 A 
ATOM     31  C   UNL A   1      38.273  27.980  30.082  1.00  0.00     0.014 A 
ATOM     32  C   UNL A   1      39.651  29.132  27.960  1.00  0.00     0.010 A 
ATOM     33  C   UNL A   1      39.538  27.527  29.776  1.00  0.00     0.010 A 
ATOM     34  C   UNL A   1      40.225  28.083  28.702  1.00  0.00    -0.014 A 
BRANCH  34  35
ATOM     35  C   UNL A   1      41.616  27.696  28.466  1.00  0.00     0.031 A 
ATOM     36  C   UNL A   1      41.763  26.434  27.693  1.00  0.00     0.074 A 
ATOM     37  C   UNL A   1      42.694  28.469  28.722  1.00  0.00     0.049 A 
ATOM     38  N   UNL A   1      42.130  25.282  28.145  1.00  0.00    -0.248 NA
ATOM     39  C   UNL A   1      41.281  26.395  26.304  1.00  0.00     0.031 C 
ATOM     40  C   UNL A   1      42.719  29.851  29.207  1.00  0.00     0.029 A 
ATOM     41  N   UNL A   1      44.016  28.205  28.506  1.00  0.00    -0.354 N 
ATOM     42  C   UNL A   1      42.192  24.439  27.041  1.00  0.00     0.074 A 
ATOM     43  C   UNL A   1      41.447  25.104  26.007  1.00  0.00     0.031 C 
ATOM     44  C   UNL A   1      43.956  30.369  29.038  1.00  0.00     0.029 A 
ATOM     45  C   UNL A   1      44.851  29.319  28.584  1.00  0.00     0.049 A 
ATOM     46  H   UNL A   1      44.352  27.300  28.312  1.00  0.00     0.167 HD
ATOM     47  C   UNL A   1      43.078  23.404  27.007  1.00  0.00     0.034 A 
ATOM     48  C   UNL A   1      46.178  29.386  28.282  1.00  0.00     0.034 A 
ATOM     49  C   UNL A   1      43.601  23.134  28.334  1.00  0.00     0.049 A 
ATOM     50  C   UNL A   1      46.716  28.009  28.398  1.00  0.00     0.074 A 
ATOM     51  C   UNL A   1      43.028  22.849  29.560  1.00  0.00     0.029 A 
ATOM     52  N   UNL A   1      44.887  23.540  28.620  1.00  0.00    -0.354 N 
ATOM     53  N   UNL A   1      46.786  27.365  29.529  1.00  0.00    -0.248 NA
ATOM     54  C   UNL A   1      46.719  27.168  27.210  1.00  0.00     0.031 C 
ATOM     55  C   UNL A   1      43.796  23.597  30.503  1.00  0.00     0.029 A 
ATOM     56  C   UNL A   1      44.853  24.203  29.822  1.00  0.00     0.049 A 
ATOM     57  H   UNL A   1      45.684  23.384  28.064  1.00  0.00     0.167 HD
ATOM     58  C   UNL A   1      46.371  26.077  29.232  1.00  0.00     0.074 A 
ATOM     59  C   UNL A   1      46.451  25.986  27.775  1.00  0.00     0.031 C 
ATOM     60  C   UNL A   1      45.733  25.307  30.164  1.00  0.00     0.034 A 
BRANCH  47  61
ATOM     61  C   UNL A   1      43.778  22.899  25.760  1.00  0.00     0.023 A 
ATOM     62  C   UNL A   1      43.834  21.501  25.587  1.00  0.00     0.031 A 
ATOM     63  C   UNL A   1      44.633  23.649  24.921  1.00  0.00     0.131 A 
ATOM     64  C   UNL A   1      44.791  20.912  24.744  1.00  0.00     0.055 A 
ATOM     65  C   UNL A   1      45.533  23.059  24.028  1.00  0.00     0.041 A 
ATOM     66  F   UNL A   1      44.718  24.983  24.971  1.00  0.00    -0.206 F 
ATOM     67  C   UNL A   1      45.646  21.682  23.964  1.00  0.00     0.022 A 
BRANCH  64  68
ATOM     68  S   UNL A   1      45.029  19.121  24.850  1.00  0.00     0.124 S 
ATOM     69  O   UNL A   1      46.229  19.040  25.676  1.00  0.00    -0.237 OA
ATOM     70  O   UNL A   1      43.783  18.691  25.476  1.00  0.00    -0.237 OA
ATOM     71  O   UNL A   1      45.198  18.720  23.455  1.00  0.00    -0.744 OA
ENDBRANCH  64  68
ENDBRANCH  47  61
BRANCH  48  72
ATOM     72  C   UNL A   1      46.925  30.504  27.636  1.00  0.00     0.023 A 
ATOM     73  C   UNL A   1      46.286  31.583  26.982  1.00  0.00     0.031 A 
ATOM     74  C   UNL A   1      48.306  30.653  27.894  1.00  0.00     0.131 A 
ATOM     75  C   UNL A   1      47.019  32.742  26.629  1.00  0.00     0.055 A 
ATOM     76  C   UNL A   1      49.025  31.799  27.542  1.00  0.00     0.041 A 
ATOM     77  F   UNL A   1      48.989  29.727  28.584  1.00  0.00    -0.206 F 
ATOM     78  C   UNL A   1      48.381  32.855  26.918  1.00  0.00     0.022 A 
BRANCH  75  79
ATOM     79  S   UNL A   1      46.191  34.184  25.875  1.00  0.00     0.124 S 
ATOM     80  O   UNL A   1      45.794  34.961  27.043  1.00  0.00    -0.237 OA
ATOM     81  O   UNL A   1      47.243  34.753  25.041  1.00  0.00    -0.237 OA
ATOM     82  O   UNL A   1      45.080  33.587  25.131  1.00  0.00    -0.744 OA
ENDBRANCH  75  79
ENDBRANCH  48  72
BRANCH  60  83
ATOM     83  C   UNL A   1      45.781  25.737  31.620  1.00  0.00     0.023 A 
ATOM     84  C   UNL A   1      46.838  25.466  32.521  1.00  0.00     0.031 A 
ATOM     85  C   UNL A   1      44.720  26.532  32.091  1.00  0.00     0.131 A 
ATOM     86  C   UNL A   1      46.790  25.963  33.840  1.00  0.00     0.055 A 
ATOM     87  C   UNL A   1      44.689  27.044  33.386  1.00  0.00     0.041 A 
ATOM     88  F   UNL A   1      43.693  26.847  31.284  1.00  0.00    -0.206 F 
ATOM     89  C   UNL A   1      45.719  26.752  34.270  1.00  0.00     0.022 A 
BRANCH  86  90
ATOM     90  S   UNL A   1      48.095  25.553  35.043  1.00  0.00     0.124 S 
ATOM     91  O   UNL A   1      49.181  26.464  34.702  1.00  0.00    -0.237 OA
ATOM     92  O   UNL A   1      47.432  25.801  36.321  1.00  0.00    -0.237 OA
ATOM     93  O   UNL A   1      48.375  24.141  34.769  1.00  0.00    -0.744 OA
ENDBRANCH  86  90
ENDBRANCH  60  83
ENDBRANCH  34  35
ENDBRANCH  26  29
ENDBRANCH  24  25
ENDBRANCH  23  24
ENDBRANCH  22  23
ENDBRANCH   1  22
TORSDOF 19
ENDMDL
MODEL 3
REMARK VINA RESULT:     -11.4      1.884      2.210
REMARK SMILES COc1ncccc1Cn1ccc(C(=O)NCCCCCCNC(=O)c2ccc(-c3c4nc(c(-c5cc(S(=O)(=O)[O-])ccc5F)c5ccc([nH]5)c(-c5cc(S(=O)(=O)[O-])ccc5F)c5nc(c(-c6cc(S(=O)(=O)[O-])ccc6F)c6ccc3[nH]6)C=C5)C=C4)cc2)n1
REMARK SMILES IDX 19 1 18 2 17 3 16 4 14 5 15 6 13 8 10 9 11 10 89 11 12 12
REMARK SMILES IDX 9 13 8 14 3 15 4 16 5 17 7 18 6 19 2 20 1 21 20 22 21 23
REMARK SMILES IDX 22 24 23 25 24 26 25 28 26 29 27 30 88 31 28 32 87 33 29 34
REMARK SMILES IDX 30 35 31 36 81 37 32 38 86 39 80 40 82 41 33 42 85 43 79 44
REMARK SMILES IDX 78 45 34 47 66 48 46 49 65 50 47 51 50 52 64 53 83 54 48 55
REMARK SMILES IDX 49 56 63 58 84 59 51 60 35 61 36 62 44 63 37 64 43 65 45 66
REMARK SMILES IDX 42 67 38 68 39 69 40 70 41 71 67 72 68 73 76 74 69 75 75 76
REMARK SMILES IDX 77 77 74 78 70 79 71 80 72 81 73 82 52 83 53 84 61 85 54 86
REMARK SMILES IDX 60 87 62 88 59 89 55 90 56 91 57 92 58 93
REMARK H PARENT 16 7 23 27 82 46 50 57
REMARK Flexibility Score: inf
ROOT
ATOM      1  C   UNL A   1      33.142  29.280  24.385  1.00  0.00     0.002 C 
ENDROOT
BRANCH   1   2
ATOM      2  C   UNL A   1      33.269  28.582  23.030  1.00  0.00     0.021 C 
BRANCH   2   3
ATOM      3  C   UNL A   1      32.134  27.622  22.687  1.00  0.00     0.116 C 
BRANCH   3   4
ATOM      4  N   UNL A   1      32.497  26.666  21.653  1.00  0.00    -0.351 N 
ATOM      5  C   UNL A   1      32.673  25.303  21.758  1.00  0.00     0.271 C 
ATOM      6  O   UNL A   1      33.075  24.678  20.777  1.00  0.00    -0.267 OA
ATOM      7  H   UNL A   1      32.636  27.045  20.756  1.00  0.00     0.163 HD
BRANCH   5   8
ATOM      8  C   UNL A   1      32.455  24.662  23.058  1.00  0.00     0.150 A 
ATOM      9  N   UNL A   1      32.886  23.826  24.971  1.00  0.00    -0.267 N 
ATOM     10  C   UNL A   1      31.680  23.291  24.610  1.00  0.00     0.110 A 
ATOM     11  N   UNL A   1      33.334  24.727  24.077  1.00  0.00    -0.167 NA
ATOM     12  C   UNL A   1      31.333  23.883  23.420  1.00  0.00     0.056 A 
BRANCH   9  13
ATOM     13  C   UNL A   1      33.712  23.575  26.156  1.00  0.00     0.185 C 
BRANCH  13  14
ATOM     14  C   UNL A   1      35.067  23.022  25.839  1.00  0.00     0.036 A 
ATOM     15  C   UNL A   1      35.264  21.677  25.531  1.00  0.00     0.218 A 
ATOM     16  N   UNL A   1      36.453  21.165  25.150  1.00  0.00    -0.222 NA
ATOM     17  C   UNL A   1      37.502  22.019  25.104  1.00  0.00     0.115 A 
ATOM     18  C   UNL A   1      36.186  23.867  25.809  1.00  0.00     0.013 A 
ATOM     19  C   UNL A   1      37.426  23.356  25.449  1.00  0.00     0.021 A 
BRANCH  15  20
ATOM     20  O   UNL A   1      34.304  20.746  25.838  1.00  0.00    -0.481 OA
ATOM     21  C   UNL A   1      33.667  20.198  24.691  1.00  0.00     0.280 C 
ENDBRANCH  15  20
ENDBRANCH  13  14
ENDBRANCH   9  13
ENDBRANCH   5   8
ENDBRANCH   3   4
ENDBRANCH   2   3
ENDBRANCH   1   2
BRANCH   1  22
ATOM     22  C   UNL A   1      33.654  28.490  25.596  1.00  0.00     0.002 C 
BRANCH  22  23
ATOM     23  C   UNL A   1      33.855  29.280  26.896  1.00  0.00     0.021 C 
BRANCH  23  24
ATOM     24  C   UNL A   1      35.269  29.218  27.455  1.00  0.00     0.116 C 
BRANCH  24  25
ATOM     25  N   UNL A   1      35.378  29.884  28.746  1.00  0.00    -0.352 N 
ATOM     26  C   UNL A   1      36.332  29.682  29.724  1.00  0.00     0.251 C 
ATOM     27  H   UNL A   1      34.689  30.558  28.945  1.00  0.00     0.163 HD
ATOM     28  O   UNL A   1      36.097  29.980  30.884  1.00  0.00    -0.269 OA
BRANCH  26  29
ATOM     29  C   UNL A   1      37.633  29.096  29.339  1.00  0.00     0.039 A 
ATOM     30  C   UNL A   1      38.337  29.598  28.242  1.00  0.00     0.014 A 
ATOM     31  C   UNL A   1      38.150  28.042  30.094  1.00  0.00     0.014 A 
ATOM     32  C   UNL A   1      39.603  29.088  27.966  1.00  0.00     0.010 A 
ATOM     33  C   UNL A   1      39.441  27.608  29.882  1.00  0.00     0.010 A 
ATOM     34  C   UNL A   1      40.166  28.110  28.807  1.00  0.00    -0.014 A 
BRANCH  34  35
ATOM     35  C   UNL A   1      41.577  27.749  28.665  1.00  0.00     0.031 A 
ATOM     36  C   UNL A   1      41.807  26.561  27.800  1.00  0.00     0.074 A 
ATOM     37  C   UNL A   1      42.619  28.499  29.087  1.00  0.00     0.049 A 
ATOM     38  N   UNL A   1      42.144  25.375  28.180  1.00  0.00    -0.248 NA
ATOM     39  C   UNL A   1      41.454  26.645  26.374  1.00  0.00     0.031 C 
ATOM     40  C   UNL A   1      42.584  29.832  29.692  1.00  0.00     0.029 A 
ATOM     41  N   UNL A   1      43.958  28.258  28.970  1.00  0.00    -0.354 N 
ATOM     42  C   UNL A   1      42.316  24.634  27.016  1.00  0.00     0.074 A 
ATOM     43  C   UNL A   1      41.660  25.386  25.981  1.00  0.00     0.031 C 
ATOM     44  C   UNL A   1      43.826  30.366  29.684  1.00  0.00     0.029 A 
ATOM     45  C   UNL A   1      44.770  29.363  29.222  1.00  0.00     0.049 A 
ATOM     46  H   UNL A   1      44.320  27.376  28.728  1.00  0.00     0.167 HD
ATOM     47  C   UNL A   1      43.211  23.608  26.972  1.00  0.00     0.034 A 
ATOM     48  C   UNL A   1      46.118  29.461  29.050  1.00  0.00     0.034 A 
ATOM     49  C   UNL A   1      43.614  23.222  28.312  1.00  0.00     0.049 A 
ATOM     50  C   UNL A   1      46.658  28.080  29.092  1.00  0.00     0.074 A 
ATOM     51  C   UNL A   1      42.936  22.827  29.451  1.00  0.00     0.029 A 
ATOM     52  N   UNL A   1      44.865  23.604  28.749  1.00  0.00    -0.354 N 
ATOM     53  N   UNL A   1      46.632  27.338  30.164  1.00  0.00    -0.248 NA
ATOM     54  C   UNL A   1      46.778  27.349  27.840  1.00  0.00     0.031 C 
ATOM     55  C   UNL A   1      43.607  23.490  30.523  1.00  0.00     0.029 A 
ATOM     56  C   UNL A   1      44.714  24.158  29.997  1.00  0.00     0.049 A 
ATOM     57  H   UNL A   1      45.711  23.500  28.257  1.00  0.00     0.167 HD
ATOM     58  C   UNL A   1      46.260  26.081  29.717  1.00  0.00     0.074 A 
ATOM     59  C   UNL A   1      46.473  26.120  28.271  1.00  0.00     0.031 C 
ATOM     60  C   UNL A   1      45.548  25.229  30.515  1.00  0.00     0.034 A 
BRANCH  47  61
ATOM     61  C   UNL A   1      44.028  23.218  25.755  1.00  0.00     0.023 A 
ATOM     62  C   UNL A   1      43.997  21.860  25.379  1.00  0.00     0.031 A 
ATOM     63  C   UNL A   1      45.041  23.992  25.146  1.00  0.00     0.131 A 
ATOM     64  C   UNL A   1      45.007  21.305  24.576  1.00  0.00     0.055 A 
ATOM     65  C   UNL A   1      46.002  23.450  24.286  1.00  0.00     0.041 A 
ATOM     66  F   UNL A   1      45.223  25.291  25.407  1.00  0.00    -0.206 F 
ATOM     67  C   UNL A   1      46.015  22.091  24.028  1.00  0.00     0.022 A 
BRANCH  64  68
ATOM     68  S   UNL A   1      45.088  19.502  24.436  1.00  0.00     0.124 S 
ATOM     69  O   UNL A   1      44.130  19.094  25.458  1.00  0.00    -0.237 OA
ATOM     70  O   UNL A   1      44.684  19.292  23.051  1.00  0.00    -0.237 OA
ATOM     71  O   UNL A   1      46.487  19.204  24.732  1.00  0.00    -0.744 OA
ENDBRANCH  64  68
ENDBRANCH  47  61
BRANCH  48  72
ATOM     72  C   UNL A   1      46.909  30.634  28.577  1.00  0.00     0.023 A 
ATOM     73  C   UNL A   1      48.109  31.055  29.195  1.00  0.00     0.031 A 
ATOM     74  C   UNL A   1      46.615  31.204  27.319  1.00  0.00     0.131 A 
ATOM     75  C   UNL A   1      48.955  31.993  28.553  1.00  0.00     0.055 A 
ATOM     76  C   UNL A   1      47.452  32.131  26.690  1.00  0.00     0.041 A 
ATOM     77  F   UNL A   1      45.546  30.811  26.609  1.00  0.00    -0.206 F 
ATOM     78  C   UNL A   1      48.633  32.520  27.299  1.00  0.00     0.022 A 
BRANCH  75  79
ATOM     79  S   UNL A   1      50.556  32.471  29.288  1.00  0.00     0.124 S 
ATOM     80  O   UNL A   1      51.508  31.728  28.473  1.00  0.00    -0.237 OA
ATOM     81  O   UNL A   1      50.555  33.921  29.132  1.00  0.00    -0.237 OA
ATOM     82  O   UNL A   1      50.444  32.010  30.674  1.00  0.00    -0.744 OA
ENDBRANCH  75  79
ENDBRANCH  48  72
BRANCH  60  83
ATOM     83  C   UNL A   1      45.459  25.527  32.001  1.00  0.00     0.023 A 
ATOM     84  C   UNL A   1      46.411  25.142  32.974  1.00  0.00     0.031 A 
ATOM     85  C   UNL A   1      44.376  26.314  32.435  1.00  0.00     0.131 A 
ATOM     86  C   UNL A   1      46.242  25.523  34.321  1.00  0.00     0.055 A 
ATOM     87  C   UNL A   1      44.226  26.712  33.762  1.00  0.00     0.041 A 
ATOM     88  F   UNL A   1      43.445  26.734  31.562  1.00  0.00    -0.206 F 
ATOM     89  C   UNL A   1      45.154  26.308  34.713  1.00  0.00     0.022 A 
BRANCH  86  90
ATOM     90  S   UNL A   1      47.407  24.963  35.606  1.00  0.00     0.124 S 
ATOM     91  O   UNL A   1      46.660  23.944  36.332  1.00  0.00    -0.237 OA
ATOM     92  O   UNL A   1      48.538  24.483  34.816  1.00  0.00    -0.237 OA
ATOM     93  O   UNL A   1      47.677  26.183  36.371  1.00  0.00    -0.744 OA
ENDBRANCH  86  90
ENDBRANCH  60  83
ENDBRANCH  34  35
ENDBRANCH  26  29
ENDBRANCH  24  25
ENDBRANCH  23  24
ENDBRANCH  22  23
ENDBRANCH   1  22
TORSDOF 19
ENDMDL
