MODEL 1
REMARK VINA RESULT:     -10.5      0.000      0.000
REMARK SMILES O=C(NCCCCCCNC(=O)[C@H](CO)NC(=O)[C@H](CS)NC(=O)c1ccc(F)cc1)c1ccc(-c2c3nc(c(-c4cc(S(=O)(=O)[O-])ccc4F)c4ccc([nH]4)c(-c4cc(S(=O)(=O)[O-])ccc4F)c4nc(c(-c5cc(S(=O)(=O)[O-])ccc5F)c5ccc2[nH]5)C=C4)C=C3)cc1
REMARK SMILES IDX 7 1 6 2 5 3 4 4 3 5 1 6 2 7 32 9 33 10 94 11 34 12 93 13
REMARK SMILES IDX 35 14 36 15 37 16 87 17 38 18 92 19 86 20 88 21 39 22 91 23
REMARK SMILES IDX 85 24 84 25 40 27 72 28 52 29 71 30 53 31 56 32 70 33 89 34
REMARK SMILES IDX 54 35 55 36 69 38 90 39 57 40 41 41 42 42 50 43 43 44 49 45
REMARK SMILES IDX 51 46 48 47 44 48 45 49 46 50 47 51 73 52 74 53 82 54 75 55
REMARK SMILES IDX 81 56 83 57 80 58 76 59 77 60 78 61 79 62 58 63 59 64 67 65
REMARK SMILES IDX 60 66 66 67 68 68 65 69 61 70 62 71 63 72 64 73 8 74 9 75
REMARK SMILES IDX 10 76 11 77 12 79 13 80 16 81 17 82 18 84 19 85 22 86 23 87
REMARK SMILES IDX 24 89 25 90 26 91 31 92 27 93 30 94 28 95 29 96 20 97 21 98
REMARK SMILES IDX 14 100 15 101
REMARK H PARENT 3 8 88 26 56 37 10 78 16 83 22 88 21 99 15 102
REMARK Flexibility Score: inf
ROOT
ATOM      1  C   UNL A   1      31.574  29.500  25.404  1.00  0.00     0.002 C 
ENDROOT
BRANCH   1   2
ATOM      2  C   UNL A   1      31.507  30.195  26.768  1.00  0.00     0.002 C 
BRANCH   2   3
ATOM      3  C   UNL A   1      31.400  31.722  26.733  1.00  0.00     0.021 C 
BRANCH   3   4
ATOM      4  C   UNL A   1      32.726  32.470  26.823  1.00  0.00     0.116 C 
BRANCH   4   5
ATOM      5  N   UNL A   1      32.557  33.827  27.309  1.00  0.00    -0.352 N 
ATOM      6  O   UNL A   1      32.745  35.543  28.751  1.00  0.00    -0.269 OA
ATOM      7  C   UNL A   1      33.155  34.449  28.376  1.00  0.00     0.251 C 
ATOM      8  H   UNL A   1      31.923  34.382  26.799  1.00  0.00     0.163 HD
BRANCH   7   9
ATOM      9  C   UNL A   1      34.282  33.797  29.079  1.00  0.00     0.039 A 
ATOM     10  C   UNL A   1      34.058  32.745  29.972  1.00  0.00     0.014 A 
ATOM     11  C   UNL A   1      35.586  34.217  28.802  1.00  0.00     0.014 A 
ATOM     12  C   UNL A   1      35.130  32.173  30.654  1.00  0.00     0.010 A 
ATOM     13  C   UNL A   1      36.666  33.601  29.442  1.00  0.00     0.010 A 
ATOM     14  C   UNL A   1      36.445  32.581  30.379  1.00  0.00    -0.014 A 
BRANCH  14  15
ATOM     15  C   UNL A   1      37.585  31.877  31.020  1.00  0.00     0.031 A 
ATOM     16  C   UNL A   1      37.946  32.135  32.455  1.00  0.00     0.074 A 
ATOM     17  C   UNL A   1      38.280  30.979  30.294  1.00  0.00     0.049 A 
ATOM     18  N   UNL A   1      38.943  31.651  33.151  1.00  0.00    -0.248 NA
ATOM     19  C   UNL A   1      37.077  33.052  33.207  1.00  0.00     0.031 C 
ATOM     20  C   UNL A   1      38.000  30.625  28.899  1.00  0.00     0.029 A 
ATOM     21  N   UNL A   1      39.348  30.186  30.627  1.00  0.00    -0.354 N 
ATOM     22  C   UNL A   1      38.827  32.203  34.421  1.00  0.00     0.074 A 
ATOM     23  C   UNL A   1      37.672  33.079  34.393  1.00  0.00     0.031 C 
ATOM     24  C   UNL A   1      38.842  29.655  28.514  1.00  0.00     0.029 A 
ATOM     25  C   UNL A   1      39.766  29.367  29.605  1.00  0.00     0.049 A 
ATOM     26  H   UNL A   1      39.776  30.203  31.513  1.00  0.00     0.167 HD
ATOM     27  C   UNL A   1      39.608  31.993  35.507  1.00  0.00     0.034 A 
ATOM     28  C   UNL A   1      40.790  28.495  29.543  1.00  0.00     0.034 A 
ATOM     29  C   UNL A   1      40.759  31.122  35.521  1.00  0.00     0.049 A 
ATOM     30  C   UNL A   1      41.684  28.339  30.742  1.00  0.00     0.074 A 
ATOM     31  C   UNL A   1      41.633  30.866  36.564  1.00  0.00     0.029 A 
ATOM     32  N   UNL A   1      41.192  30.362  34.444  1.00  0.00    -0.354 N 
ATOM     33  N   UNL A   1      41.599  28.925  31.913  1.00  0.00    -0.248 NA
ATOM     34  C   UNL A   1      42.818  27.416  30.606  1.00  0.00     0.031 C 
ATOM     35  C   UNL A   1      42.617  29.984  36.106  1.00  0.00     0.029 A 
ATOM     36  C   UNL A   1      42.326  29.645  34.795  1.00  0.00     0.049 A 
ATOM     37  H   UNL A   1      40.757  30.334  33.561  1.00  0.00     0.167 HD
ATOM     38  C   UNL A   1      42.663  28.431  32.657  1.00  0.00     0.074 A 
ATOM     39  C   UNL A   1      43.368  27.491  31.810  1.00  0.00     0.031 C 
ATOM     40  C   UNL A   1      43.026  28.728  33.930  1.00  0.00     0.034 A 
BRANCH  27  41
ATOM     41  C   UNL A   1      39.271  32.741  36.769  1.00  0.00     0.023 A 
ATOM     42  C   UNL A   1      38.442  32.179  37.754  1.00  0.00     0.031 A 
ATOM     43  C   UNL A   1      39.817  34.015  37.006  1.00  0.00     0.131 A 
ATOM     44  C   UNL A   1      38.161  32.904  38.923  1.00  0.00     0.055 A 
ATOM     45  C   UNL A   1      39.576  34.708  38.193  1.00  0.00     0.041 A 
ATOM     46  F   UNL A   1      40.601  34.602  36.088  1.00  0.00    -0.206 F 
ATOM     47  C   UNL A   1      38.741  34.154  39.159  1.00  0.00     0.022 A 
BRANCH  44  48
ATOM     48  S   UNL A   1      36.984  32.213  40.118  1.00  0.00     0.124 S 
ATOM     49  O   UNL A   1      35.915  31.744  39.239  1.00  0.00    -0.237 OA
ATOM     50  O   UNL A   1      37.768  31.175  40.777  1.00  0.00    -0.237 OA
ATOM     51  O   UNL A   1      36.637  33.358  40.957  1.00  0.00    -0.744 OA
ENDBRANCH  44  48
ENDBRANCH  27  41
BRANCH  28  52
ATOM     52  C   UNL A   1      41.049  27.730  28.294  1.00  0.00     0.023 A 
ATOM     53  C   UNL A   1      40.749  26.362  28.212  1.00  0.00     0.031 A 
ATOM     54  C   UNL A   1      41.613  28.356  27.167  1.00  0.00     0.131 A 
ATOM     55  C   UNL A   1      41.039  25.655  27.035  1.00  0.00     0.055 A 
ATOM     56  C   UNL A   1      41.860  27.657  25.986  1.00  0.00     0.041 A 
ATOM     57  F   UNL A   1      41.910  29.665  27.196  1.00  0.00    -0.206 F 
ATOM     58  C   UNL A   1      41.581  26.296  25.918  1.00  0.00     0.022 A 
BRANCH  55  59
ATOM     59  S   UNL A   1      40.737  23.868  27.001  1.00  0.00     0.124 S 
ATOM     60  O   UNL A   1      41.597  23.442  25.903  1.00  0.00    -0.237 OA
ATOM     61  O   UNL A   1      41.155  23.463  28.339  1.00  0.00    -0.237 OA
ATOM     62  O   UNL A   1      39.301  23.772  26.744  1.00  0.00    -0.744 OA
ENDBRANCH  55  59
ENDBRANCH  28  52
BRANCH  40  63
ATOM     63  C   UNL A   1      44.220  28.002  34.484  1.00  0.00     0.023 A 
ATOM     64  C   UNL A   1      44.094  26.737  35.084  1.00  0.00     0.031 A 
ATOM     65  C   UNL A   1      45.497  28.582  34.407  1.00  0.00     0.131 A 
ATOM     66  C   UNL A   1      45.225  26.108  35.622  1.00  0.00     0.055 A 
ATOM     67  C   UNL A   1      46.626  27.932  34.905  1.00  0.00     0.041 A 
ATOM     68  F   UNL A   1      45.665  29.788  33.843  1.00  0.00    -0.206 F 
ATOM     69  C   UNL A   1      46.493  26.692  35.524  1.00  0.00     0.022 A 
BRANCH  66  70
ATOM     70  S   UNL A   1      45.015  24.535  36.496  1.00  0.00     0.124 S 
ATOM     71  O   UNL A   1      44.697  24.981  37.850  1.00  0.00    -0.237 OA
ATOM     72  O   UNL A   1      43.922  23.907  35.760  1.00  0.00    -0.237 OA
ATOM     73  O   UNL A   1      46.314  23.882  36.347  1.00  0.00    -0.744 OA
ENDBRANCH  66  70
ENDBRANCH  40  63
ENDBRANCH  14  15
ENDBRANCH   7   9
ENDBRANCH   4   5
ENDBRANCH   3   4
ENDBRANCH   2   3
ENDBRANCH   1   2
BRANCH   1  74
ATOM     74  C   UNL A   1      30.634  30.058  24.333  1.00  0.00     0.021 C 
BRANCH  74  75
ATOM     75  C   UNL A   1      30.719  29.359  22.979  1.00  0.00     0.116 C 
BRANCH  75  76
ATOM     76  N   UNL A   1      32.093  29.144  22.573  1.00  0.00    -0.354 N 
ATOM     77  C   UNL A   1      32.844  28.029  22.360  1.00  0.00     0.244 C 
ATOM     78  H   UNL A   1      32.589  29.981  22.419  1.00  0.00     0.163 HD
ATOM     79  O   UNL A   1      34.043  28.235  22.135  1.00  0.00    -0.273 OA
BRANCH  77  80
ATOM     80  C   UNL A   1      32.324  26.584  22.583  1.00  0.00     0.197 C 
BRANCH  80  81
ATOM     81  N   UNL A   1      31.157  26.418  23.454  1.00  0.00    -0.340 N 
ATOM     82  C   UNL A   1      30.842  25.456  24.368  1.00  0.00     0.244 C 
ATOM     83  H   UNL A   1      30.479  27.127  23.362  1.00  0.00     0.164 HD
ATOM     84  O   UNL A   1      29.836  25.654  25.055  1.00  0.00    -0.273 OA
BRANCH  82  85
ATOM     85  C   UNL A   1      31.722  24.216  24.625  1.00  0.00     0.181 C 
BRANCH  85  86
ATOM     86  N   UNL A   1      31.604  23.810  26.027  1.00  0.00    -0.339 N 
ATOM     87  C   UNL A   1      32.535  23.201  26.828  1.00  0.00     0.251 C 
ATOM     88  H   UNL A   1      30.737  24.001  26.454  1.00  0.00     0.164 HD
ATOM     89  O   UNL A   1      32.249  22.928  27.990  1.00  0.00    -0.269 OA
BRANCH  87  90
ATOM     90  C   UNL A   1      33.845  22.790  26.281  1.00  0.00     0.040 A 
ATOM     91  C   UNL A   1      34.898  23.698  26.111  1.00  0.00     0.017 A 
ATOM     92  C   UNL A   1      34.011  21.441  25.938  1.00  0.00     0.017 A 
ATOM     93  C   UNL A   1      36.098  23.263  25.541  1.00  0.00     0.040 A 
ATOM     94  C   UNL A   1      35.215  21.011  25.381  1.00  0.00     0.040 A 
ATOM     95  C   UNL A   1      36.243  21.926  25.179  1.00  0.00     0.123 A 
ATOM     96  F   UNL A   1      37.392  21.512  24.633  1.00  0.00    -0.207 F 
ENDBRANCH  87  90
ENDBRANCH  85  86
BRANCH  85  97
ATOM     97  C   UNL A   1      31.449  23.100  23.608  1.00  0.00     0.101 C 
BRANCH  97  98
ATOM     98  S   UNL A   1      32.902  22.687  22.587  1.00  0.00    -0.177 SA
ATOM     99  H   UNL A   1      33.316  21.424  22.877  1.00  0.00     0.102 HD
ENDBRANCH  97  98
ENDBRANCH  85  97
ENDBRANCH  82  85
ENDBRANCH  80  81
BRANCH  80 100
ATOM    100  C   UNL A   1      32.041  25.930  21.217  1.00  0.00     0.191 C 
BRANCH 100 101
ATOM    101  O   UNL A   1      33.201  25.923  20.383  1.00  0.00    -0.394 OA
ATOM    102  H   UNL A   1      33.106  25.238  19.703  1.00  0.00     0.210 HD
ENDBRANCH 100 101
ENDBRANCH  80 100
ENDBRANCH  77  80
ENDBRANCH  75  76
ENDBRANCH  74  75
ENDBRANCH   1  74
TORSDOF 24
ENDMDL
MODEL 2
REMARK VINA RESULT:     -10.2      5.828     11.014
REMARK SMILES O=C(NCCCCCCNC(=O)[C@H](CO)NC(=O)[C@H](CS)NC(=O)c1ccc(F)cc1)c1ccc(-c2c3nc(c(-c4cc(S(=O)(=O)[O-])ccc4F)c4ccc([nH]4)c(-c4cc(S(=O)(=O)[O-])ccc4F)c4nc(c(-c5cc(S(=O)(=O)[O-])ccc5F)c5ccc2[nH]5)C=C4)C=C3)cc1
REMARK SMILES IDX 7 1 6 2 5 3 4 4 3 5 1 6 2 7 32 9 33 10 94 11 34 12 93 13
REMARK SMILES IDX 35 14 36 15 37 16 87 17 38 18 92 19 86 20 88 21 39 22 91 23
REMARK SMILES IDX 85 24 84 25 40 27 72 28 52 29 71 30 53 31 56 32 70 33 89 34
REMARK SMILES IDX 54 35 55 36 69 38 90 39 57 40 41 41 42 42 50 43 43 44 49 45
REMARK SMILES IDX 51 46 48 47 44 48 45 49 46 50 47 51 73 52 74 53 82 54 75 55
REMARK SMILES IDX 81 56 83 57 80 58 76 59 77 60 78 61 79 62 58 63 59 64 67 65
REMARK SMILES IDX 60 66 66 67 68 68 65 69 61 70 62 71 63 72 64 73 8 74 9 75
REMARK SMILES IDX 10 76 11 77 12 79 13 80 16 81 17 82 18 84 19 85 22 86 23 87
REMARK SMILES IDX 24 89 25 90 26 91 31 92 27 93 30 94 28 95 29 96 20 97 21 98
REMARK SMILES IDX 14 100 15 101
REMARK H PARENT 3 8 88 26 56 37 10 78 16 83 22 88 21 99 15 102
REMARK Flexibility Score: inf
ROOT
ATOM      1  C   UNL A   1      37.099  21.973  25.147  1.00  0.00     0.002 C 
ENDROOT
BRANCH   1   2
ATOM      2  C   UNL A   1      36.933  20.513  24.711  1.00  0.00     0.002 C 
BRANCH   2   3
ATOM      3  C   UNL A   1      38.130  19.598  24.983  1.00  0.00     0.021 C 
BRANCH   3   4
ATOM      4  C   UNL A   1      39.185  20.167  25.926  1.00  0.00     0.116 C 
BRANCH   4   5
ATOM      5  N   UNL A   1      40.349  19.308  26.028  1.00  0.00    -0.352 N 
ATOM      6  O   UNL A   1      42.538  18.788  26.044  1.00  0.00    -0.269 OA
ATOM      7  C   UNL A   1      41.672  19.648  26.167  1.00  0.00     0.251 C 
ATOM      8  H   UNL A   1      40.165  18.341  25.994  1.00  0.00     0.163 HD
BRANCH   7   9
ATOM      9  C   UNL A   1      42.052  21.050  26.451  1.00  0.00     0.039 A 
ATOM     10  C   UNL A   1      42.281  21.479  27.762  1.00  0.00     0.014 A 
ATOM     11  C   UNL A   1      42.226  21.934  25.383  1.00  0.00     0.014 A 
ATOM     12  C   UNL A   1      42.598  22.813  28.010  1.00  0.00     0.010 A 
ATOM     13  C   UNL A   1      42.603  23.258  25.629  1.00  0.00     0.010 A 
ATOM     14  C   UNL A   1      42.782  23.709  26.945  1.00  0.00    -0.014 A 
BRANCH  14  15
ATOM     15  C   UNL A   1      43.242  25.095  27.218  1.00  0.00     0.031 A 
ATOM     16  C   UNL A   1      44.651  25.517  26.913  1.00  0.00     0.074 A 
ATOM     17  C   UNL A   1      42.362  25.979  27.726  1.00  0.00     0.049 A 
ATOM     18  N   UNL A   1      45.232  26.666  27.142  1.00  0.00    -0.248 NA
ATOM     19  C   UNL A   1      45.520  24.522  26.266  1.00  0.00     0.031 C 
ATOM     20  C   UNL A   1      40.958  25.689  28.034  1.00  0.00     0.029 A 
ATOM     21  N   UNL A   1      42.504  27.303  28.055  1.00  0.00    -0.354 N 
ATOM     22  C   UNL A   1      46.533  26.538  26.672  1.00  0.00     0.074 A 
ATOM     23  C   UNL A   1      46.664  25.187  26.164  1.00  0.00     0.031 C 
ATOM     24  C   UNL A   1      40.360  26.811  28.460  1.00  0.00     0.029 A 
ATOM     25  C   UNL A   1      41.348  27.881  28.526  1.00  0.00     0.049 A 
ATOM     26  H   UNL A   1      43.353  27.792  27.965  1.00  0.00     0.167 HD
ATOM     27  C   UNL A   1      47.522  27.464  26.662  1.00  0.00     0.034 A 
ATOM     28  C   UNL A   1      41.113  29.127  28.979  1.00  0.00     0.034 A 
ATOM     29  C   UNL A   1      47.381  28.805  27.176  1.00  0.00     0.049 A 
ATOM     30  C   UNL A   1      42.250  30.110  29.023  1.00  0.00     0.074 A 
ATOM     31  C   UNL A   1      48.334  29.808  27.239  1.00  0.00     0.029 A 
ATOM     32  N   UNL A   1      46.214  29.332  27.709  1.00  0.00    -0.354 N 
ATOM     33  N   UNL A   1      43.494  29.946  28.640  1.00  0.00    -0.248 NA
ATOM     34  C   UNL A   1      41.955  31.438  29.576  1.00  0.00     0.031 C 
ATOM     35  C   UNL A   1      47.754  30.927  27.847  1.00  0.00     0.029 A 
ATOM     36  C   UNL A   1      46.426  30.642  28.113  1.00  0.00     0.049 A 
ATOM     37  H   UNL A   1      45.360  28.848  27.788  1.00  0.00     0.167 HD
ATOM     38  C   UNL A   1      44.127  31.157  28.893  1.00  0.00     0.074 A 
ATOM     39  C   UNL A   1      43.127  32.045  29.450  1.00  0.00     0.031 C 
ATOM     40  C   UNL A   1      45.421  31.505  28.683  1.00  0.00     0.034 A 
BRANCH  27  41
ATOM     41  C   UNL A   1      48.861  27.054  26.108  1.00  0.00     0.023 A 
ATOM     42  C   UNL A   1      49.276  27.452  24.827  1.00  0.00     0.031 A 
ATOM     43  C   UNL A   1      49.747  26.291  26.888  1.00  0.00     0.131 A 
ATOM     44  C   UNL A   1      50.536  27.060  24.351  1.00  0.00     0.055 A 
ATOM     45  C   UNL A   1      51.020  25.949  26.429  1.00  0.00     0.041 A 
ATOM     46  F   UNL A   1      49.391  25.872  28.113  1.00  0.00    -0.206 F 
ATOM     47  C   UNL A   1      51.420  26.331  25.152  1.00  0.00     0.022 A 
BRANCH  44  48
ATOM     48  S   UNL A   1      50.994  27.473  22.645  1.00  0.00     0.124 S 
ATOM     49  O   UNL A   1      49.788  27.089  21.916  1.00  0.00    -0.237 OA
ATOM     50  O   UNL A   1      51.262  28.905  22.723  1.00  0.00    -0.237 OA
ATOM     51  O   UNL A   1      52.163  26.635  22.392  1.00  0.00    -0.744 OA
ENDBRANCH  44  48
ENDBRANCH  27  41
BRANCH  28  52
ATOM     52  C   UNL A   1      39.758  29.506  29.459  1.00  0.00     0.023 A 
ATOM     53  C   UNL A   1      39.469  29.558  30.831  1.00  0.00     0.031 A 
ATOM     54  C   UNL A   1      38.728  29.811  28.551  1.00  0.00     0.131 A 
ATOM     55  C   UNL A   1      38.172  29.880  31.258  1.00  0.00     0.055 A 
ATOM     56  C   UNL A   1      37.451  30.171  28.981  1.00  0.00     0.041 A 
ATOM     57  F   UNL A   1      38.959  29.781  27.229  1.00  0.00    -0.206 F 
ATOM     58  C   UNL A   1      37.165  30.199  30.343  1.00  0.00     0.022 A 
BRANCH  55  59
ATOM     59  S   UNL A   1      37.806  29.834  33.033  1.00  0.00     0.124 S 
ATOM     60  O   UNL A   1      37.300  28.476  33.197  1.00  0.00    -0.237 OA
ATOM     61  O   UNL A   1      39.113  30.108  33.620  1.00  0.00    -0.237 OA
ATOM     62  O   UNL A   1      36.815  30.895  33.202  1.00  0.00    -0.744 OA
ENDBRANCH  55  59
ENDBRANCH  28  52
BRANCH  40  63
ATOM     63  C   UNL A   1      45.811  32.914  29.032  1.00  0.00     0.023 A 
ATOM     64  C   UNL A   1      45.750  33.946  28.080  1.00  0.00     0.031 A 
ATOM     65  C   UNL A   1      46.247  33.226  30.330  1.00  0.00     0.131 A 
ATOM     66  C   UNL A   1      46.158  35.241  28.433  1.00  0.00     0.055 A 
ATOM     67  C   UNL A   1      46.610  34.524  30.688  1.00  0.00     0.041 A 
ATOM     68  F   UNL A   1      46.322  32.272  31.272  1.00  0.00    -0.206 F 
ATOM     69  C   UNL A   1      46.575  35.539  29.734  1.00  0.00     0.022 A 
BRANCH  66  70
ATOM     70  S   UNL A   1      46.183  36.525  27.155  1.00  0.00     0.124 S 
ATOM     71  O   UNL A   1      47.290  37.368  27.595  1.00  0.00    -0.237 OA
ATOM     72  O   UNL A   1      46.414  35.756  25.936  1.00  0.00    -0.237 OA
ATOM     73  O   UNL A   1      44.859  37.137  27.256  1.00  0.00    -0.744 OA
ENDBRANCH  66  70
ENDBRANCH  40  63
ENDBRANCH  14  15
ENDBRANCH   7   9
ENDBRANCH   4   5
ENDBRANCH   3   4
ENDBRANCH   2   3
ENDBRANCH   1   2
BRANCH   1  74
ATOM     74  C   UNL A   1      36.930  23.015  24.040  1.00  0.00     0.021 C 
BRANCH  74  75
ATOM     75  C   UNL A   1      35.566  23.699  24.007  1.00  0.00     0.116 C 
BRANCH  75  76
ATOM     76  N   UNL A   1      34.621  22.968  23.188  1.00  0.00    -0.354 N 
ATOM     77  C   UNL A   1      33.445  23.302  22.589  1.00  0.00     0.244 C 
ATOM     78  H   UNL A   1      34.882  22.031  23.034  1.00  0.00     0.163 HD
ATOM     79  O   UNL A   1      32.836  22.363  22.060  1.00  0.00    -0.273 OA
BRANCH  77  80
ATOM     80  C   UNL A   1      32.777  24.697  22.718  1.00  0.00     0.197 C 
BRANCH  80  81
ATOM     81  N   UNL A   1      33.603  25.789  23.240  1.00  0.00    -0.340 N 
ATOM     82  C   UNL A   1      33.267  26.979  23.817  1.00  0.00     0.244 C 
ATOM     83  H   UNL A   1      34.573  25.639  23.159  1.00  0.00     0.164 HD
ATOM     84  O   UNL A   1      34.192  27.649  24.283  1.00  0.00    -0.273 OA
BRANCH  82  85
ATOM     85  C   UNL A   1      31.810  27.455  23.982  1.00  0.00     0.181 C 
BRANCH  85  86
ATOM     86  N   UNL A   1      31.559  27.801  25.382  1.00  0.00    -0.339 N 
ATOM     87  C   UNL A   1      31.474  26.974  26.472  1.00  0.00     0.251 C 
ATOM     88  H   UNL A   1      31.435  28.761  25.568  1.00  0.00     0.164 HD
ATOM     89  O   UNL A   1      31.248  27.453  27.580  1.00  0.00    -0.269 OA
BRANCH  87  90
ATOM     90  C   UNL A   1      31.563  25.508  26.312  1.00  0.00     0.040 A 
ATOM     91  C   UNL A   1      32.753  24.805  26.540  1.00  0.00     0.017 A 
ATOM     92  C   UNL A   1      30.400  24.825  25.928  1.00  0.00     0.017 A 
ATOM     93  C   UNL A   1      32.790  23.425  26.323  1.00  0.00     0.040 A 
ATOM     94  C   UNL A   1      30.441  23.446  25.725  1.00  0.00     0.040 A 
ATOM     95  C   UNL A   1      31.636  22.760  25.916  1.00  0.00     0.123 A 
ATOM     96  F   UNL A   1      31.675  21.439  25.708  1.00  0.00    -0.207 F 
ENDBRANCH  87  90
ENDBRANCH  85  86
BRANCH  85  97
ATOM     97  C   UNL A   1      31.449  28.554  22.974  1.00  0.00     0.101 C 
BRANCH  97  98
ATOM     98  S   UNL A   1      30.175  29.705  23.590  1.00  0.00    -0.177 SA
ATOM     99  H   UNL A   1      30.621  30.308  24.724  1.00  0.00     0.102 HD
ENDBRANCH  97  98
ENDBRANCH  85  97
ENDBRANCH  82  85
ENDBRANCH  80  81
BRANCH  80 100
ATOM    100  C   UNL A   1      32.188  25.106  21.355  1.00  0.00     0.191 C 
BRANCH 100 101
ATOM    101  O   UNL A   1      33.211  25.385  20.398  1.00  0.00    -0.394 OA
ATOM    102  H   UNL A   1      33.589  26.261  20.574  1.00  0.00     0.210 HD
ENDBRANCH 100 101
ENDBRANCH  80 100
ENDBRANCH  77  80
ENDBRANCH  75  76
ENDBRANCH  74  75
ENDBRANCH   1  74
TORSDOF 24
ENDMDL
MODEL 3
REMARK VINA RESULT:     -10.2      1.599      2.069
REMARK SMILES O=C(NCCCCCCNC(=O)[C@H](CO)NC(=O)[C@H](CS)NC(=O)c1ccc(F)cc1)c1ccc(-c2c3nc(c(-c4cc(S(=O)(=O)[O-])ccc4F)c4ccc([nH]4)c(-c4cc(S(=O)(=O)[O-])ccc4F)c4nc(c(-c5cc(S(=O)(=O)[O-])ccc5F)c5ccc2[nH]5)C=C4)C=C3)cc1
REMARK SMILES IDX 7 1 6 2 5 3 4 4 3 5 1 6 2 7 32 9 33 10 94 11 34 12 93 13
REMARK SMILES IDX 35 14 36 15 37 16 87 17 38 18 92 19 86 20 88 21 39 22 91 23
REMARK SMILES IDX 85 24 84 25 40 27 72 28 52 29 71 30 53 31 56 32 70 33 89 34
REMARK SMILES IDX 54 35 55 36 69 38 90 39 57 40 41 41 42 42 50 43 43 44 49 45
REMARK SMILES IDX 51 46 48 47 44 48 45 49 46 50 47 51 73 52 74 53 82 54 75 55
REMARK SMILES IDX 81 56 83 57 80 58 76 59 77 60 78 61 79 62 58 63 59 64 67 65
REMARK SMILES IDX 60 66 66 67 68 68 65 69 61 70 62 71 63 72 64 73 8 74 9 75
REMARK SMILES IDX 10 76 11 77 12 79 13 80 16 81 17 82 18 84 19 85 22 86 23 87
REMARK SMILES IDX 24 89 25 90 26 91 31 92 27 93 30 94 28 95 29 96 20 97 21 98
REMARK SMILES IDX 14 100 15 101
REMARK H PARENT 3 8 88 26 56 37 10 78 16 83 22 88 21 99 15 102
REMARK Flexibility Score: inf
ROOT
ATOM      1  C   UNL A   1      33.052  30.113  26.521  1.00  0.00     0.002 C 
ENDROOT
BRANCH   1   2
ATOM      2  C   UNL A   1      33.418  31.128  27.609  1.00  0.00     0.002 C 
BRANCH   2   3
ATOM      3  C   UNL A   1      32.543  32.383  27.670  1.00  0.00     0.021 C 
BRANCH   3   4
ATOM      4  C   UNL A   1      33.273  33.698  27.415  1.00  0.00     0.116 C 
BRANCH   4   5
ATOM      5  N   UNL A   1      32.909  34.721  28.378  1.00  0.00    -0.352 N 
ATOM      6  O   UNL A   1      32.818  35.727  30.388  1.00  0.00    -0.269 OA
ATOM      7  C   UNL A   1      33.382  34.925  29.650  1.00  0.00     0.251 C 
ATOM      8  H   UNL A   1      32.225  35.362  28.075  1.00  0.00     0.163 HD
BRANCH   7   9
ATOM      9  C   UNL A   1      34.561  34.172  30.134  1.00  0.00     0.039 A 
ATOM     10  C   UNL A   1      35.849  34.503  29.704  1.00  0.00     0.014 A 
ATOM     11  C   UNL A   1      34.374  33.150  31.068  1.00  0.00     0.014 A 
ATOM     12  C   UNL A   1      36.940  33.754  30.140  1.00  0.00     0.010 A 
ATOM     13  C   UNL A   1      35.476  32.438  31.551  1.00  0.00     0.010 A 
ATOM     14  C   UNL A   1      36.766  32.729  31.084  1.00  0.00    -0.014 A 
BRANCH  14  15
ATOM     15  C   UNL A   1      37.951  32.024  31.635  1.00  0.00     0.031 A 
ATOM     16  C   UNL A   1      38.525  32.401  32.970  1.00  0.00     0.074 A 
ATOM     17  C   UNL A   1      38.493  31.017  30.921  1.00  0.00     0.049 A 
ATOM     18  N   UNL A   1      39.588  31.930  33.571  1.00  0.00    -0.248 NA
ATOM     19  C   UNL A   1      37.817  33.441  33.732  1.00  0.00     0.031 C 
ATOM     20  C   UNL A   1      38.000  30.543  29.624  1.00  0.00     0.029 A 
ATOM     21  N   UNL A   1      39.560  30.198  31.187  1.00  0.00    -0.354 N 
ATOM     22  C   UNL A   1      39.680  32.612  34.777  1.00  0.00     0.074 A 
ATOM     23  C   UNL A   1      38.576  33.549  34.815  1.00  0.00     0.031 C 
ATOM     24  C   UNL A   1      38.732  29.490  29.234  1.00  0.00     0.029 A 
ATOM     25  C   UNL A   1      39.789  29.256  30.211  1.00  0.00     0.049 A 
ATOM     26  H   UNL A   1      40.111  30.277  31.999  1.00  0.00     0.167 HD
ATOM     27  C   UNL A   1      40.599  32.464  35.763  1.00  0.00     0.034 A 
ATOM     28  C   UNL A   1      40.752  28.322  30.103  1.00  0.00     0.034 A 
ATOM     29  C   UNL A   1      41.697  31.531  35.711  1.00  0.00     0.049 A 
ATOM     30  C   UNL A   1      41.800  28.232  31.178  1.00  0.00     0.074 A 
ATOM     31  C   UNL A   1      42.699  31.327  36.646  1.00  0.00     0.029 A 
ATOM     32  N   UNL A   1      41.936  30.641  34.674  1.00  0.00    -0.354 N 
ATOM     33  N   UNL A   1      41.911  28.937  32.280  1.00  0.00    -0.248 NA
ATOM     34  C   UNL A   1      42.859  27.233  30.987  1.00  0.00     0.031 C 
ATOM     35  C   UNL A   1      43.566  30.345  36.155  1.00  0.00     0.029 A 
ATOM     36  C   UNL A   1      43.075  29.896  34.940  1.00  0.00     0.049 A 
ATOM     37  H   UNL A   1      41.379  30.552  33.867  1.00  0.00     0.167 HD
ATOM     38  C   UNL A   1      43.046  28.456  32.920  1.00  0.00     0.074 A 
ATOM     39  C   UNL A   1      43.578  27.394  32.089  1.00  0.00     0.031 C 
ATOM     40  C   UNL A   1      43.600  28.855  34.091  1.00  0.00     0.034 A 
BRANCH  27  41
ATOM     41  C   UNL A   1      40.480  33.354  36.971  1.00  0.00     0.023 A 
ATOM     42  C   UNL A   1      39.858  32.910  38.149  1.00  0.00     0.031 A 
ATOM     43  C   UNL A   1      41.032  34.648  36.956  1.00  0.00     0.131 A 
ATOM     44  C   UNL A   1      39.778  33.766  39.259  1.00  0.00     0.055 A 
ATOM     45  C   UNL A   1      40.995  35.474  38.080  1.00  0.00     0.041 A 
ATOM     46  F   UNL A   1      41.622  35.124  35.848  1.00  0.00    -0.206 F 
ATOM     47  C   UNL A   1      40.363  35.035  39.240  1.00  0.00     0.022 A 
BRANCH  44  48
ATOM     48  S   UNL A   1      38.855  33.218  40.721  1.00  0.00     0.124 S 
ATOM     49  O   UNL A   1      39.067  31.773  40.677  1.00  0.00    -0.237 OA
ATOM     50  O   UNL A   1      39.523  33.927  41.807  1.00  0.00    -0.237 OA
ATOM     51  O   UNL A   1      37.487  33.651  40.444  1.00  0.00    -0.744 OA
ENDBRANCH  44  48
ENDBRANCH  27  41
BRANCH  28  52
ATOM     52  C   UNL A   1      40.794  27.422  28.920  1.00  0.00     0.023 A 
ATOM     53  C   UNL A   1      41.725  27.629  27.891  1.00  0.00     0.031 A 
ATOM     54  C   UNL A   1      39.895  26.348  28.796  1.00  0.00     0.131 A 
ATOM     55  C   UNL A   1      41.718  26.790  26.767  1.00  0.00     0.055 A 
ATOM     56  C   UNL A   1      39.919  25.491  27.697  1.00  0.00     0.041 A 
ATOM     57  F   UNL A   1      38.990  26.106  29.760  1.00  0.00    -0.206 F 
ATOM     58  C   UNL A   1      40.830  25.715  26.669  1.00  0.00     0.022 A 
BRANCH  55  59
ATOM     59  S   UNL A   1      42.863  27.150  25.408  1.00  0.00     0.124 S 
ATOM     60  O   UNL A   1      42.200  28.271  24.750  1.00  0.00    -0.237 OA
ATOM     61  O   UNL A   1      44.095  27.463  26.123  1.00  0.00    -0.237 OA
ATOM     62  O   UNL A   1      42.887  25.904  24.645  1.00  0.00    -0.744 OA
ENDBRANCH  55  59
ENDBRANCH  28  52
BRANCH  40  63
ATOM     63  C   UNL A   1      44.826  28.117  34.550  1.00  0.00     0.023 A 
ATOM     64  C   UNL A   1      44.730  26.972  35.360  1.00  0.00     0.031 A 
ATOM     65  C   UNL A   1      46.103  28.563  34.172  1.00  0.00     0.131 A 
ATOM     66  C   UNL A   1      45.898  26.332  35.799  1.00  0.00     0.055 A 
ATOM     67  C   UNL A   1      47.261  27.898  34.575  1.00  0.00     0.041 A 
ATOM     68  F   UNL A   1      46.243  29.653  33.400  1.00  0.00    -0.206 F 
ATOM     69  C   UNL A   1      47.163  26.780  35.400  1.00  0.00     0.022 A 
BRANCH  66  70
ATOM     70  S   UNL A   1      45.749  24.931  36.938  1.00  0.00     0.124 S 
ATOM     71  O   UNL A   1      47.141  24.692  37.307  1.00  0.00    -0.237 OA
ATOM     72  O   UNL A   1      44.894  25.469  37.992  1.00  0.00    -0.237 OA
ATOM     73  O   UNL A   1      45.137  23.886  36.120  1.00  0.00    -0.744 OA
ENDBRANCH  66  70
ENDBRANCH  40  63
ENDBRANCH  14  15
ENDBRANCH   7   9
ENDBRANCH   4   5
ENDBRANCH   3   4
ENDBRANCH   2   3
ENDBRANCH   1   2
BRANCH   1  74
ATOM     74  C   UNL A   1      34.015  28.934  26.367  1.00  0.00     0.021 C 
BRANCH  74  75
ATOM     75  C   UNL A   1      33.343  27.572  26.219  1.00  0.00     0.116 C 
BRANCH  75  76
ATOM     76  N   UNL A   1      33.818  26.866  25.047  1.00  0.00    -0.354 N 
ATOM     77  C   UNL A   1      33.219  26.442  23.900  1.00  0.00     0.244 C 
ATOM     78  H   UNL A   1      34.777  26.645  25.087  1.00  0.00     0.163 HD
ATOM     79  O   UNL A   1      33.926  25.748  23.160  1.00  0.00    -0.273 OA
BRANCH  77  80
ATOM     80  C   UNL A   1      31.704  26.612  23.606  1.00  0.00     0.197 C 
BRANCH  80  81
ATOM     81  N   UNL A   1      30.773  26.347  24.706  1.00  0.00    -0.340 N 
ATOM     82  C   UNL A   1      30.651  25.280  25.548  1.00  0.00     0.244 C 
ATOM     83  H   UNL A   1      30.120  27.066  24.866  1.00  0.00     0.164 HD
ATOM     84  O   UNL A   1      29.845  25.397  26.476  1.00  0.00    -0.273 OA
BRANCH  82  85
ATOM     85  C   UNL A   1      31.521  24.013  25.436  1.00  0.00     0.181 C 
BRANCH  85  86
ATOM     86  N   UNL A   1      31.753  23.454  26.769  1.00  0.00    -0.339 N 
ATOM     87  C   UNL A   1      32.860  22.803  27.249  1.00  0.00     0.251 C 
ATOM     88  H   UNL A   1      31.012  23.560  27.410  1.00  0.00     0.164 HD
ATOM     89  O   UNL A   1      32.868  22.395  28.408  1.00  0.00    -0.269 OA
BRANCH  87  90
ATOM     90  C   UNL A   1      34.005  22.511  26.362  1.00  0.00     0.040 A 
ATOM     91  C   UNL A   1      34.227  21.235  25.829  1.00  0.00     0.017 A 
ATOM     92  C   UNL A   1      34.874  23.567  26.056  1.00  0.00     0.017 A 
ATOM     93  C   UNL A   1      35.355  21.006  25.038  1.00  0.00     0.040 A 
ATOM     94  C   UNL A   1      35.993  23.334  25.256  1.00  0.00     0.040 A 
ATOM     95  C   UNL A   1      36.228  22.055  24.762  1.00  0.00     0.123 A 
ATOM     96  F   UNL A   1      37.308  21.833  24.004  1.00  0.00    -0.207 F 
ENDBRANCH  87  90
ENDBRANCH  85  86
BRANCH  85  97
ATOM     97  C   UNL A   1      30.956  23.018  24.413  1.00  0.00     0.101 C 
BRANCH  97  98
ATOM     98  S   UNL A   1      32.112  22.650  23.052  1.00  0.00    -0.177 SA
ATOM     99  H   UNL A   1      32.148  23.701  22.190  1.00  0.00     0.102 HD
ENDBRANCH  97  98
ENDBRANCH  85  97
ENDBRANCH  82  85
ENDBRANCH  80  81
BRANCH  80 100
ATOM    100  C   UNL A   1      31.451  28.026  23.049  1.00  0.00     0.191 C 
BRANCH 100 101
ATOM    101  O   UNL A   1      30.706  27.990  21.831  1.00  0.00    -0.394 OA
ATOM    102  H   UNL A   1      30.960  27.205  21.320  1.00  0.00     0.210 HD
ENDBRANCH 100 101
ENDBRANCH  80 100
ENDBRANCH  77  80
ENDBRANCH  75  76
ENDBRANCH  74  75
ENDBRANCH   1  74
TORSDOF 24
ENDMDL
