MODEL 1
REMARK VINA RESULT:     -12.4      0.000      0.000
REMARK SMILES Cc1nsc(NC(=O)c2ccc(N)cc2)c1C(=O)NCCCCCCNC(=O)c1ccc(-c2c3nc(c(-c4cc(S(=O)(=O)[O-])ccc4F)c4ccc([nH]4)c(-c4cc(S(=O)(=O)[O-])ccc4F)c4nc(c(-c5cc(S(=O)(=O)[O-])ccc5F)c5ccc2[nH]5)C=C4)C=C3)cc1
REMARK SMILES IDX 22 1 21 2 20 3 19 4 17 5 18 6 16 8 1 9 2 10 3 11 4 12 5 13
REMARK SMILES IDX 6 14 7 15 8 17 9 18 10 19 15 20 11 21 14 22 12 23 13 24
REMARK SMILES IDX 23 27 24 28 25 29 26 30 27 31 28 33 29 34 30 35 91 36 31 37
REMARK SMILES IDX 90 38 32 39 33 40 34 41 84 42 35 43 89 44 83 45 85 46 36 47
REMARK SMILES IDX 88 48 82 49 81 50 37 52 69 53 49 54 68 55 50 56 53 57 67 58
REMARK SMILES IDX 86 59 51 60 52 61 66 63 87 64 54 65 38 66 39 67 47 68 40 69
REMARK SMILES IDX 46 70 48 71 45 72 41 73 42 74 43 75 44 76 70 77 71 78 79 79
REMARK SMILES IDX 72 80 78 81 80 82 77 83 73 84 74 85 75 86 76 87 55 88 56 89
REMARK SMILES IDX 64 90 57 91 63 92 65 93 62 94 58 95 59 96 60 97 61 98
REMARK H PARENT 19 7 6 16 13 25 13 26 26 32 85 51 53 62
REMARK Flexibility Score: inf
ROOT
ATOM      1  C   UNL A   1      31.821  29.758  26.114  1.00  0.00     0.002 C 
ENDROOT
BRANCH   1   2
ATOM      2  C   UNL A   1      31.136  29.600  24.761  1.00  0.00     0.021 C 
BRANCH   2   3
ATOM      3  C   UNL A   1      30.653  28.215  24.364  1.00  0.00     0.116 C 
BRANCH   3   4
ATOM      4  N   UNL A   1      31.145  27.102  25.132  1.00  0.00    -0.352 N 
ATOM      5  C   UNL A   1      32.088  26.155  24.803  1.00  0.00     0.256 C 
ATOM      6  O   UNL A   1      32.377  25.343  25.689  1.00  0.00    -0.269 OA
ATOM      7  H   UNL A   1      30.748  27.002  26.028  1.00  0.00     0.163 HD
BRANCH   5   8
ATOM      8  C   UNL A   1      32.646  26.014  23.450  1.00  0.00     0.097 A 
ATOM      9  C   UNL A   1      34.060  28.221  22.883  1.00  0.00     0.069 C 
ATOM     10  C   UNL A   1      33.403  26.915  22.583  1.00  0.00     0.066 A 
ATOM     11  N   UNL A   1      33.565  26.509  21.322  1.00  0.00    -0.195 NA
ATOM     12  S   UNL A   1      32.912  25.017  21.154  1.00  0.00    -0.017 S 
ATOM     13  C   UNL A   1      32.611  24.770  22.809  1.00  0.00     0.129 A 
BRANCH  13  14
ATOM     14  N   UNL A   1      32.265  23.533  23.336  1.00  0.00    -0.312 N 
ATOM     15  C   UNL A   1      33.047  22.547  23.907  1.00  0.00     0.256 C 
ATOM     16  H   UNL A   1      31.303  23.324  23.296  1.00  0.00     0.171 HD
ATOM     17  O   UNL A   1      32.572  21.448  24.188  1.00  0.00    -0.269 OA
BRANCH  15  18
ATOM     18  C   UNL A   1      34.455  22.804  24.269  1.00  0.00     0.040 A 
ATOM     19  C   UNL A   1      35.446  22.863  23.282  1.00  0.00     0.016 A 
ATOM     20  C   UNL A   1      34.794  22.908  25.618  1.00  0.00     0.016 A 
ATOM     21  C   UNL A   1      36.790  22.872  23.663  1.00  0.00     0.026 A 
ATOM     22  C   UNL A   1      36.143  22.930  25.983  1.00  0.00     0.026 A 
ATOM     23  C   UNL A   1      37.146  22.826  25.014  1.00  0.00     0.031 A 
BRANCH  23  24
ATOM     24  N   UNL A   1      38.483  22.805  25.387  1.00  0.00    -0.399 N 
ATOM     25  H   UNL A   1      38.761  22.320  26.197  1.00  0.00     0.156 HD
ATOM     26  H   UNL A   1      39.154  23.277  24.842  1.00  0.00     0.156 HD
ENDBRANCH  23  24
ENDBRANCH  15  18
ENDBRANCH  13  14
ENDBRANCH   5   8
ENDBRANCH   3   4
ENDBRANCH   2   3
ENDBRANCH   1   2
BRANCH   1  27
ATOM     27  C   UNL A   1      33.355  29.745  26.157  1.00  0.00     0.002 C 
BRANCH  27  28
ATOM     28  C   UNL A   1      34.053  28.960  27.277  1.00  0.00     0.021 C 
BRANCH  28  29
ATOM     29  C   UNL A   1      35.442  29.449  27.651  1.00  0.00     0.116 C 
BRANCH  29  30
ATOM     30  N   UNL A   1      35.580  29.797  29.064  1.00  0.00    -0.352 N 
ATOM     31  C   UNL A   1      36.571  29.400  29.942  1.00  0.00     0.251 C 
ATOM     32  H   UNL A   1      34.884  30.385  29.435  1.00  0.00     0.163 HD
ATOM     33  O   UNL A   1      36.361  29.427  31.161  1.00  0.00    -0.269 OA
BRANCH  31  34
ATOM     34  C   UNL A   1      37.868  28.944  29.410  1.00  0.00     0.039 A 
ATOM     35  C   UNL A   1      38.447  29.503  28.268  1.00  0.00     0.014 A 
ATOM     36  C   UNL A   1      38.526  27.929  30.101  1.00  0.00     0.014 A 
ATOM     37  C   UNL A   1      39.718  29.077  27.885  1.00  0.00     0.010 A 
ATOM     38  C   UNL A   1      39.843  27.659  29.847  1.00  0.00     0.010 A 
ATOM     39  C   UNL A   1      40.420  28.167  28.696  1.00  0.00    -0.014 A 
BRANCH  39  40
ATOM     40  C   UNL A   1      41.803  27.799  28.423  1.00  0.00     0.031 A 
ATOM     41  C   UNL A   1      41.945  26.572  27.607  1.00  0.00     0.074 A 
ATOM     42  C   UNL A   1      42.869  28.579  28.708  1.00  0.00     0.049 A 
ATOM     43  N   UNL A   1      42.216  25.390  28.045  1.00  0.00    -0.248 NA
ATOM     44  C   UNL A   1      41.552  26.604  26.191  1.00  0.00     0.031 C 
ATOM     45  C   UNL A   1      42.900  29.940  29.254  1.00  0.00     0.029 A 
ATOM     46  N   UNL A   1      44.186  28.324  28.484  1.00  0.00    -0.354 N 
ATOM     47  C   UNL A   1      42.310  24.580  26.923  1.00  0.00     0.074 A 
ATOM     48  C   UNL A   1      41.662  25.313  25.867  1.00  0.00     0.031 C 
ATOM     49  C   UNL A   1      44.142  30.461  29.117  1.00  0.00     0.029 A 
ATOM     50  C   UNL A   1      45.033  29.419  28.637  1.00  0.00     0.049 A 
ATOM     51  H   UNL A   1      44.516  27.431  28.232  1.00  0.00     0.167 HD
ATOM     52  C   UNL A   1      43.144  23.503  26.919  1.00  0.00     0.034 A 
ATOM     53  C   UNL A   1      46.373  29.462  28.396  1.00  0.00     0.034 A 
ATOM     54  C   UNL A   1      43.606  23.215  28.266  1.00  0.00     0.049 A 
ATOM     55  C   UNL A   1      46.859  28.064  28.527  1.00  0.00     0.074 A 
ATOM     56  C   UNL A   1      42.977  22.931  29.464  1.00  0.00     0.029 A 
ATOM     57  N   UNL A   1      44.879  23.620  28.612  1.00  0.00    -0.354 N 
ATOM     58  N   UNL A   1      46.828  27.407  29.655  1.00  0.00    -0.248 NA
ATOM     59  C   UNL A   1      46.886  27.233  27.332  1.00  0.00     0.031 C 
ATOM     60  C   UNL A   1      43.701  23.677  30.443  1.00  0.00     0.029 A 
ATOM     61  C   UNL A   1      44.790  24.284  29.814  1.00  0.00     0.049 A 
ATOM     62  H   UNL A   1      45.702  23.464  28.094  1.00  0.00     0.167 HD
ATOM     63  C   UNL A   1      46.374  26.140  29.321  1.00  0.00     0.074 A 
ATOM     64  C   UNL A   1      46.520  26.063  27.866  1.00  0.00     0.031 C 
ATOM     65  C   UNL A   1      45.658  25.382  30.205  1.00  0.00     0.034 A 
BRANCH  52  66
ATOM     66  C   UNL A   1      43.861  22.951  25.706  1.00  0.00     0.023 A 
ATOM     67  C   UNL A   1      43.795  21.557  25.519  1.00  0.00     0.031 A 
ATOM     68  C   UNL A   1      44.814  23.630  24.916  1.00  0.00     0.131 A 
ATOM     69  C   UNL A   1      44.728  20.890  24.709  1.00  0.00     0.055 A 
ATOM     70  C   UNL A   1      45.695  22.967  24.055  1.00  0.00     0.041 A 
ATOM     71  F   UNL A   1      45.015  24.948  24.987  1.00  0.00    -0.206 F 
ATOM     72  C   UNL A   1      45.684  21.586  23.977  1.00  0.00     0.022 A 
BRANCH  69  73
ATOM     73  S   UNL A   1      44.786  19.083  24.794  1.00  0.00     0.124 S 
ATOM     74  O   UNL A   1      45.994  18.870  25.582  1.00  0.00    -0.237 OA
ATOM     75  O   UNL A   1      43.522  18.775  25.454  1.00  0.00    -0.237 OA
ATOM     76  O   UNL A   1      44.872  18.683  23.393  1.00  0.00    -0.744 OA
ENDBRANCH  69  73
ENDBRANCH  52  66
BRANCH  53  77
ATOM     77  C   UNL A   1      47.149  30.552  27.735  1.00  0.00     0.023 A 
ATOM     78  C   UNL A   1      46.539  31.648  27.081  1.00  0.00     0.031 A 
ATOM     79  C   UNL A   1      48.539  30.657  27.972  1.00  0.00     0.131 A 
ATOM     80  C   UNL A   1      47.308  32.781  26.710  1.00  0.00     0.055 A 
ATOM     81  C   UNL A   1      49.289  31.779  27.609  1.00  0.00     0.041 A 
ATOM     82  F   UNL A   1      49.202  29.706  28.649  1.00  0.00    -0.206 F 
ATOM     83  C   UNL A   1      48.673  32.852  26.988  1.00  0.00     0.022 A 
BRANCH  80  84
ATOM     84  S   UNL A   1      46.522  34.236  25.937  1.00  0.00     0.124 S 
ATOM     85  O   UNL A   1      46.181  35.056  27.094  1.00  0.00    -0.237 OA
ATOM     86  O   UNL A   1      47.579  34.744  25.070  1.00  0.00    -0.237 OA
ATOM     87  O   UNL A   1      45.372  33.669  25.229  1.00  0.00    -0.744 OA
ENDBRANCH  80  84
ENDBRANCH  53  77
BRANCH  65  88
ATOM     88  C   UNL A   1      45.605  25.814  31.660  1.00  0.00     0.023 A 
ATOM     89  C   UNL A   1      46.614  25.574  32.624  1.00  0.00     0.031 A 
ATOM     90  C   UNL A   1      44.516  26.616  32.047  1.00  0.00     0.131 A 
ATOM     91  C   UNL A   1      46.497  26.121  33.920  1.00  0.00     0.055 A 
ATOM     92  C   UNL A   1      44.416  27.174  33.321  1.00  0.00     0.041 A 
ATOM     93  F   UNL A   1      43.536  26.900  31.175  1.00  0.00    -0.206 F 
ATOM     94  C   UNL A   1      45.404  26.924  34.265  1.00  0.00     0.022 A 
BRANCH  91  95
ATOM     95  S   UNL A   1      47.752  25.781  35.199  1.00  0.00     0.124 S 
ATOM     96  O   UNL A   1      47.302  26.568  36.340  1.00  0.00    -0.237 OA
ATOM     97  O   UNL A   1      47.667  24.331  35.350  1.00  0.00    -0.237 OA
ATOM     98  O   UNL A   1      48.996  26.254  34.588  1.00  0.00    -0.744 OA
ENDBRANCH  91  95
ENDBRANCH  65  88
ENDBRANCH  39  40
ENDBRANCH  31  34
ENDBRANCH  29  30
ENDBRANCH  28  29
ENDBRANCH  27  28
ENDBRANCH   1  27
TORSDOF 19
ENDMDL
MODEL 2
REMARK VINA RESULT:     -12.1      3.284      8.558
REMARK SMILES Cc1nsc(NC(=O)c2ccc(N)cc2)c1C(=O)NCCCCCCNC(=O)c1ccc(-c2c3nc(c(-c4cc(S(=O)(=O)[O-])ccc4F)c4ccc([nH]4)c(-c4cc(S(=O)(=O)[O-])ccc4F)c4nc(c(-c5cc(S(=O)(=O)[O-])ccc5F)c5ccc2[nH]5)C=C4)C=C3)cc1
REMARK SMILES IDX 22 1 21 2 20 3 19 4 17 5 18 6 16 8 1 9 2 10 3 11 4 12 5 13
REMARK SMILES IDX 6 14 7 15 8 17 9 18 10 19 15 20 11 21 14 22 12 23 13 24
REMARK SMILES IDX 23 27 24 28 25 29 26 30 27 31 28 33 29 34 30 35 91 36 31 37
REMARK SMILES IDX 90 38 32 39 33 40 34 41 84 42 35 43 89 44 83 45 85 46 36 47
REMARK SMILES IDX 88 48 82 49 81 50 37 52 69 53 49 54 68 55 50 56 53 57 67 58
REMARK SMILES IDX 86 59 51 60 52 61 66 63 87 64 54 65 38 66 39 67 47 68 40 69
REMARK SMILES IDX 46 70 48 71 45 72 41 73 42 74 43 75 44 76 70 77 71 78 79 79
REMARK SMILES IDX 72 80 78 81 80 82 77 83 73 84 74 85 75 86 76 87 55 88 56 89
REMARK SMILES IDX 64 90 57 91 63 92 65 93 62 94 58 95 59 96 60 97 61 98
REMARK H PARENT 19 7 6 16 13 25 13 26 26 32 85 51 53 62
REMARK Flexibility Score: inf
ROOT
ATOM      1  C   UNL A   1      38.206  22.250  25.907  1.00  0.00     0.002 C 
ENDROOT
BRANCH   1   2
ATOM      2  C   UNL A   1      37.480  23.591  25.901  1.00  0.00     0.021 C 
BRANCH   2   3
ATOM      3  C   UNL A   1      35.992  23.595  25.594  1.00  0.00     0.116 C 
BRANCH   3   4
ATOM      4  N   UNL A   1      35.591  24.069  24.295  1.00  0.00    -0.352 N 
ATOM      5  C   UNL A   1      34.333  24.341  23.808  1.00  0.00     0.256 C 
ATOM      6  O   UNL A   1      34.281  24.811  22.665  1.00  0.00    -0.269 OA
ATOM      7  H   UNL A   1      36.327  24.222  23.659  1.00  0.00     0.163 HD
BRANCH   5   8
ATOM      8  C   UNL A   1      33.100  23.991  24.528  1.00  0.00     0.097 A 
ATOM      9  C   UNL A   1      32.399  21.495  23.843  1.00  0.00     0.069 C 
ATOM     10  C   UNL A   1      32.214  22.829  24.486  1.00  0.00     0.066 A 
ATOM     11  N   UNL A   1      31.059  22.953  25.142  1.00  0.00    -0.195 NA
ATOM     12  S   UNL A   1      31.031  24.404  25.902  1.00  0.00    -0.017 S 
ATOM     13  C   UNL A   1      32.652  24.803  25.576  1.00  0.00     0.129 A 
BRANCH  13  14
ATOM     14  N   UNL A   1      33.307  25.858  26.196  1.00  0.00    -0.312 N 
ATOM     15  C   UNL A   1      33.473  27.172  25.799  1.00  0.00     0.256 C 
ATOM     16  H   UNL A   1      33.721  25.635  27.061  1.00  0.00     0.171 HD
ATOM     17  O   UNL A   1      34.215  27.930  26.420  1.00  0.00    -0.269 OA
BRANCH  15  18
ATOM     18  C   UNL A   1      32.711  27.729  24.663  1.00  0.00     0.040 A 
ATOM     19  C   UNL A   1      33.336  27.974  23.436  1.00  0.00     0.016 A 
ATOM     20  C   UNL A   1      31.375  28.079  24.858  1.00  0.00     0.016 A 
ATOM     21  C   UNL A   1      32.662  28.712  22.460  1.00  0.00     0.026 A 
ATOM     22  C   UNL A   1      30.708  28.805  23.868  1.00  0.00     0.026 A 
ATOM     23  C   UNL A   1      31.373  29.198  22.702  1.00  0.00     0.031 A 
BRANCH  23  24
ATOM     24  N   UNL A   1      30.717  29.955  21.740  1.00  0.00    -0.399 N 
ATOM     25  H   UNL A   1      31.079  30.831  21.472  1.00  0.00     0.156 HD
ATOM     26  H   UNL A   1      29.890  29.617  21.327  1.00  0.00     0.156 HD
ENDBRANCH  23  24
ENDBRANCH  15  18
ENDBRANCH  13  14
ENDBRANCH   5   8
ENDBRANCH   3   4
ENDBRANCH   2   3
ENDBRANCH   1   2
BRANCH   1  27
ATOM     27  C   UNL A   1      37.634  21.112  25.051  1.00  0.00     0.002 C 
BRANCH  27  28
ATOM     28  C   UNL A   1      38.548  19.932  24.690  1.00  0.00     0.021 C 
BRANCH  28  29
ATOM     29  C   UNL A   1      39.157  19.191  25.868  1.00  0.00     0.116 C 
BRANCH  29  30
ATOM     30  N   UNL A   1      40.549  18.798  25.657  1.00  0.00    -0.352 N 
ATOM     31  C   UNL A   1      41.674  19.597  25.716  1.00  0.00     0.251 C 
ATOM     32  H   UNL A   1      40.703  17.848  25.449  1.00  0.00     0.163 HD
ATOM     33  O   UNL A   1      42.711  19.246  25.139  1.00  0.00    -0.269 OA
BRANCH  31  34
ATOM     34  C   UNL A   1      41.622  20.867  26.464  1.00  0.00     0.039 A 
ATOM     35  C   UNL A   1      41.133  20.945  27.771  1.00  0.00     0.014 A 
ATOM     36  C   UNL A   1      42.098  22.010  25.827  1.00  0.00     0.014 A 
ATOM     37  C   UNL A   1      41.203  22.166  28.439  1.00  0.00     0.010 A 
ATOM     38  C   UNL A   1      42.352  23.147  26.543  1.00  0.00     0.010 A 
ATOM     39  C   UNL A   1      41.837  23.261  27.823  1.00  0.00    -0.014 A 
BRANCH  39  40
ATOM     40  C   UNL A   1      42.067  24.515  28.527  1.00  0.00     0.031 A 
ATOM     41  C   UNL A   1      40.985  25.509  28.347  1.00  0.00     0.074 A 
ATOM     42  C   UNL A   1      43.063  24.717  29.417  1.00  0.00     0.049 A 
ATOM     43  N   UNL A   1      40.995  26.512  27.537  1.00  0.00    -0.248 NA
ATOM     44  C   UNL A   1      39.676  25.264  28.971  1.00  0.00     0.031 C 
ATOM     45  C   UNL A   1      44.052  23.763  29.931  1.00  0.00     0.029 A 
ATOM     46  N   UNL A   1      43.349  25.843  30.125  1.00  0.00    -0.354 N 
ATOM     47  C   UNL A   1      39.806  27.192  27.757  1.00  0.00     0.074 A 
ATOM     48  C   UNL A   1      38.955  26.261  28.449  1.00  0.00     0.031 C 
ATOM     49  C   UNL A   1      44.680  24.289  31.009  1.00  0.00     0.029 A 
ATOM     50  C   UNL A   1      44.266  25.673  31.159  1.00  0.00     0.049 A 
ATOM     51  H   UNL A   1      42.936  26.714  29.921  1.00  0.00     0.167 HD
ATOM     52  C   UNL A   1      39.742  28.541  27.578  1.00  0.00     0.034 A 
ATOM     53  C   UNL A   1      44.665  26.608  32.066  1.00  0.00     0.034 A 
ATOM     54  C   UNL A   1      40.923  29.017  26.881  1.00  0.00     0.049 A 
ATOM     55  C   UNL A   1      44.434  27.928  31.424  1.00  0.00     0.074 A 
ATOM     56  C   UNL A   1      41.515  28.719  25.666  1.00  0.00     0.029 A 
ATOM     57  N   UNL A   1      41.911  29.626  27.626  1.00  0.00    -0.354 N 
ATOM     58  N   UNL A   1      45.081  28.320  30.360  1.00  0.00    -0.248 NA
ATOM     59  C   UNL A   1      43.149  28.578  31.637  1.00  0.00     0.031 C 
ATOM     60  C   UNL A   1      42.914  28.672  25.945  1.00  0.00     0.029 A 
ATOM     61  C   UNL A   1      43.110  29.049  27.275  1.00  0.00     0.049 A 
ATOM     62  H   UNL A   1      41.783  30.343  28.289  1.00  0.00     0.167 HD
ATOM     63  C   UNL A   1      44.118  28.898  29.547  1.00  0.00     0.074 A 
ATOM     64  C   UNL A   1      42.968  29.115  30.426  1.00  0.00     0.031 C 
ATOM     65  C   UNL A   1      44.231  28.882  28.184  1.00  0.00     0.034 A 
BRANCH  52  66
ATOM     66  C   UNL A   1      38.847  29.488  28.350  1.00  0.00     0.023 A 
ATOM     67  C   UNL A   1      39.082  29.583  29.735  1.00  0.00     0.031 A 
ATOM     68  C   UNL A   1      37.638  30.055  27.895  1.00  0.00     0.131 A 
ATOM     69  C   UNL A   1      38.097  30.077  30.605  1.00  0.00     0.055 A 
ATOM     70  C   UNL A   1      36.689  30.612  28.758  1.00  0.00     0.041 A 
ATOM     71  F   UNL A   1      37.257  30.031  26.614  1.00  0.00    -0.206 F 
ATOM     72  C   UNL A   1      36.896  30.589  30.126  1.00  0.00     0.022 A 
BRANCH  69  73
ATOM     73  S   UNL A   1      38.344  29.849  32.383  1.00  0.00     0.124 S 
ATOM     74  O   UNL A   1      39.711  29.343  32.422  1.00  0.00    -0.237 OA
ATOM     75  O   UNL A   1      38.141  31.203  32.889  1.00  0.00    -0.237 OA
ATOM     76  O   UNL A   1      37.308  28.885  32.745  1.00  0.00    -0.744 OA
ENDBRANCH  69  73
ENDBRANCH  52  66
BRANCH  53  77
ATOM     77  C   UNL A   1      44.888  26.424  33.531  1.00  0.00     0.023 A 
ATOM     78  C   UNL A   1      43.876  26.627  34.498  1.00  0.00     0.031 A 
ATOM     79  C   UNL A   1      46.064  25.780  33.978  1.00  0.00     0.131 A 
ATOM     80  C   UNL A   1      44.059  26.183  35.832  1.00  0.00     0.055 A 
ATOM     81  C   UNL A   1      46.236  25.339  35.293  1.00  0.00     0.041 A 
ATOM     82  F   UNL A   1      47.055  25.474  33.127  1.00  0.00    -0.206 F 
ATOM     83  C   UNL A   1      45.228  25.528  36.224  1.00  0.00     0.022 A 
BRANCH  80  84
ATOM     84  S   UNL A   1      42.733  26.366  37.073  1.00  0.00     0.124 S 
ATOM     85  O   UNL A   1      41.937  25.163  36.856  1.00  0.00    -0.237 OA
ATOM     86  O   UNL A   1      43.477  26.435  38.325  1.00  0.00    -0.237 OA
ATOM     87  O   UNL A   1      42.073  27.615  36.688  1.00  0.00    -0.744 OA
ENDBRANCH  80  84
ENDBRANCH  53  77
BRANCH  65  88
ATOM     88  C   UNL A   1      45.561  28.483  27.569  1.00  0.00     0.023 A 
ATOM     89  C   UNL A   1      45.857  27.220  27.001  1.00  0.00     0.031 A 
ATOM     90  C   UNL A   1      46.538  29.489  27.454  1.00  0.00     0.131 A 
ATOM     91  C   UNL A   1      47.097  27.005  26.362  1.00  0.00     0.055 A 
ATOM     92  C   UNL A   1      47.752  29.280  26.801  1.00  0.00     0.041 A 
ATOM     93  F   UNL A   1      46.313  30.715  27.952  1.00  0.00    -0.206 F 
ATOM     94  C   UNL A   1      48.038  28.034  26.258  1.00  0.00     0.022 A 
BRANCH  91  95
ATOM     95  S   UNL A   1      47.526  25.372  25.673  1.00  0.00     0.124 S 
ATOM     96  O   UNL A   1      48.857  25.574  25.113  1.00  0.00    -0.237 OA
ATOM     97  O   UNL A   1      47.452  24.503  26.845  1.00  0.00    -0.237 OA
ATOM     98  O   UNL A   1      46.478  25.137  24.678  1.00  0.00    -0.744 OA
ENDBRANCH  91  95
ENDBRANCH  65  88
ENDBRANCH  39  40
ENDBRANCH  31  34
ENDBRANCH  29  30
ENDBRANCH  28  29
ENDBRANCH  27  28
ENDBRANCH   1  27
TORSDOF 19
ENDMDL
MODEL 3
REMARK VINA RESULT:     -11.9      1.651      2.903
REMARK SMILES Cc1nsc(NC(=O)c2ccc(N)cc2)c1C(=O)NCCCCCCNC(=O)c1ccc(-c2c3nc(c(-c4cc(S(=O)(=O)[O-])ccc4F)c4ccc([nH]4)c(-c4cc(S(=O)(=O)[O-])ccc4F)c4nc(c(-c5cc(S(=O)(=O)[O-])ccc5F)c5ccc2[nH]5)C=C4)C=C3)cc1
REMARK SMILES IDX 22 1 21 2 20 3 19 4 17 5 18 6 16 8 1 9 2 10 3 11 4 12 5 13
REMARK SMILES IDX 6 14 7 15 8 17 9 18 10 19 15 20 11 21 14 22 12 23 13 24
REMARK SMILES IDX 23 27 24 28 25 29 26 30 27 31 28 33 29 34 30 35 91 36 31 37
REMARK SMILES IDX 90 38 32 39 33 40 34 41 84 42 35 43 89 44 83 45 85 46 36 47
REMARK SMILES IDX 88 48 82 49 81 50 37 52 69 53 49 54 68 55 50 56 53 57 67 58
REMARK SMILES IDX 86 59 51 60 52 61 66 63 87 64 54 65 38 66 39 67 47 68 40 69
REMARK SMILES IDX 46 70 48 71 45 72 41 73 42 74 43 75 44 76 70 77 71 78 79 79
REMARK SMILES IDX 72 80 78 81 80 82 77 83 73 84 74 85 75 86 76 87 55 88 56 89
REMARK SMILES IDX 64 90 57 91 63 92 65 93 62 94 58 95 59 96 60 97 61 98
REMARK H PARENT 19 7 6 16 13 25 13 26 26 32 85 51 53 62
REMARK Flexibility Score: inf
ROOT
ATOM      1  C   UNL A   1      31.668  28.194  27.111  1.00  0.00     0.002 C 
ENDROOT
BRANCH   1   2
ATOM      2  C   UNL A   1      31.050  27.030  26.344  1.00  0.00     0.021 C 
BRANCH   2   3
ATOM      3  C   UNL A   1      31.730  25.675  26.437  1.00  0.00     0.116 C 
BRANCH   3   4
ATOM      4  N   UNL A   1      31.305  24.661  25.507  1.00  0.00    -0.352 N 
ATOM      5  C   UNL A   1      31.998  23.585  25.001  1.00  0.00     0.256 C 
ATOM      6  O   UNL A   1      31.360  22.824  24.265  1.00  0.00    -0.269 OA
ATOM      7  H   UNL A   1      30.379  24.751  25.184  1.00  0.00     0.163 HD
BRANCH   5   8
ATOM      8  C   UNL A   1      33.441  23.393  25.203  1.00  0.00     0.097 A 
ATOM      9  C   UNL A   1      33.829  22.431  27.676  1.00  0.00     0.069 C 
ATOM     10  C   UNL A   1      34.244  22.996  26.359  1.00  0.00     0.066 A 
ATOM     11  N   UNL A   1      35.564  23.130  26.224  1.00  0.00    -0.195 NA
ATOM     12  S   UNL A   1      35.896  23.636  24.702  1.00  0.00    -0.017 S 
ATOM     13  C   UNL A   1      34.312  23.460  24.110  1.00  0.00     0.129 A 
BRANCH  13  14
ATOM     14  N   UNL A   1      34.003  23.516  22.758  1.00  0.00    -0.312 N 
ATOM     15  C   UNL A   1      33.280  24.449  22.038  1.00  0.00     0.256 C 
ATOM     16  H   UNL A   1      34.357  22.769  22.223  1.00  0.00     0.171 HD
ATOM     17  O   UNL A   1      32.989  24.251  20.860  1.00  0.00    -0.269 OA
BRANCH  15  18
ATOM     18  C   UNL A   1      32.899  25.745  22.634  1.00  0.00     0.040 A 
ATOM     19  C   UNL A   1      31.606  26.253  22.470  1.00  0.00     0.016 A 
ATOM     20  C   UNL A   1      33.872  26.491  23.299  1.00  0.00     0.016 A 
ATOM     21  C   UNL A   1      31.338  27.574  22.837  1.00  0.00     0.026 A 
ATOM     22  C   UNL A   1      33.586  27.807  23.674  1.00  0.00     0.026 A 
ATOM     23  C   UNL A   1      32.348  28.382  23.369  1.00  0.00     0.031 A 
BRANCH  23  24
ATOM     24  N   UNL A   1      32.085  29.703  23.706  1.00  0.00    -0.399 N 
ATOM     25  H   UNL A   1      31.200  30.091  23.521  1.00  0.00     0.156 HD
ATOM     26  H   UNL A   1      32.785  30.251  24.130  1.00  0.00     0.156 HD
ENDBRANCH  23  24
ENDBRANCH  15  18
ENDBRANCH  13  14
ENDBRANCH   5   8
ENDBRANCH   3   4
ENDBRANCH   2   3
ENDBRANCH   1   2
BRANCH   1  27
ATOM     27  C   UNL A   1      33.190  28.203  27.314  1.00  0.00     0.002 C 
BRANCH  27  28
ATOM     28  C   UNL A   1      33.974  29.469  26.941  1.00  0.00     0.021 C 
BRANCH  28  29
ATOM     29  C   UNL A   1      35.408  29.521  27.441  1.00  0.00     0.116 C 
BRANCH  29  30
ATOM     30  N   UNL A   1      35.520  29.803  28.871  1.00  0.00    -0.352 N 
ATOM     31  C   UNL A   1      36.503  29.377  29.744  1.00  0.00     0.251 C 
ATOM     32  H   UNL A   1      34.811  30.364  29.258  1.00  0.00     0.163 HD
ATOM     33  O   UNL A   1      36.274  29.343  30.960  1.00  0.00    -0.269 OA
BRANCH  31  34
ATOM     34  C   UNL A   1      37.813  28.962  29.213  1.00  0.00     0.039 A 
ATOM     35  C   UNL A   1      38.396  29.573  28.099  1.00  0.00     0.014 A 
ATOM     36  C   UNL A   1      38.479  27.932  29.872  1.00  0.00     0.014 A 
ATOM     37  C   UNL A   1      39.679  29.182  27.716  1.00  0.00     0.010 A 
ATOM     38  C   UNL A   1      39.803  27.694  29.625  1.00  0.00     0.010 A 
ATOM     39  C   UNL A   1      40.386  28.254  28.502  1.00  0.00    -0.014 A 
BRANCH  39  40
ATOM     40  C   UNL A   1      41.778  27.918  28.232  1.00  0.00     0.031 A 
ATOM     41  C   UNL A   1      41.953  26.670  27.457  1.00  0.00     0.074 A 
ATOM     42  C   UNL A   1      42.822  28.739  28.485  1.00  0.00     0.049 A 
ATOM     43  N   UNL A   1      42.261  25.512  27.932  1.00  0.00    -0.248 NA
ATOM     44  C   UNL A   1      41.552  26.642  26.043  1.00  0.00     0.031 C 
ATOM     45  C   UNL A   1      42.814  30.118  28.984  1.00  0.00     0.029 A 
ATOM     46  N   UNL A   1      44.145  28.517  28.260  1.00  0.00    -0.354 N 
ATOM     47  C   UNL A   1      42.374  24.668  26.837  1.00  0.00     0.074 A 
ATOM     48  C   UNL A   1      41.699  25.345  25.762  1.00  0.00     0.031 C 
ATOM     49  C   UNL A   1      44.039  30.671  28.821  1.00  0.00     0.029 A 
ATOM     50  C   UNL A   1      44.959  29.641  28.371  1.00  0.00     0.049 A 
ATOM     51  H   UNL A   1      44.500  27.626  28.036  1.00  0.00     0.167 HD
ATOM     52  C   UNL A   1      43.240  23.617  26.864  1.00  0.00     0.034 A 
ATOM     53  C   UNL A   1      46.295  29.716  28.121  1.00  0.00     0.034 A 
ATOM     54  C   UNL A   1      43.718  23.388  28.216  1.00  0.00     0.049 A 
ATOM     55  C   UNL A   1      46.824  28.338  28.295  1.00  0.00     0.074 A 
ATOM     56  C   UNL A   1      43.104  23.125  29.428  1.00  0.00     0.029 A 
ATOM     57  N   UNL A   1      44.980  23.842  28.541  1.00  0.00    -0.354 N 
ATOM     58  N   UNL A   1      46.819  27.719  29.445  1.00  0.00    -0.248 NA
ATOM     59  C   UNL A   1      46.870  27.469  27.128  1.00  0.00     0.031 C 
ATOM     60  C   UNL A   1      43.810  23.925  30.376  1.00  0.00     0.029 A 
ATOM     61  C   UNL A   1      44.877  24.543  29.720  1.00  0.00     0.049 A 
ATOM     62  H   UNL A   1      45.804  23.694  28.023  1.00  0.00     0.167 HD
ATOM     63  C   UNL A   1      46.402  26.428  29.156  1.00  0.00     0.074 A 
ATOM     64  C   UNL A   1      46.542  26.307  27.704  1.00  0.00     0.031 C 
ATOM     65  C   UNL A   1      45.713  25.679  30.069  1.00  0.00     0.034 A 
BRANCH  52  66
ATOM     66  C   UNL A   1      43.967  23.046  25.665  1.00  0.00     0.023 A 
ATOM     67  C   UNL A   1      43.774  21.675  25.408  1.00  0.00     0.031 A 
ATOM     68  C   UNL A   1      45.027  23.657  24.960  1.00  0.00     0.131 A 
ATOM     69  C   UNL A   1      44.680  20.951  24.618  1.00  0.00     0.055 A 
ATOM     70  C   UNL A   1      45.885  22.945  24.117  1.00  0.00     0.041 A 
ATOM     71  F   UNL A   1      45.354  24.944  25.104  1.00  0.00    -0.206 F 
ATOM     72  C   UNL A   1      45.741  21.576  23.972  1.00  0.00     0.022 A 
BRANCH  69  73
ATOM     73  S   UNL A   1      44.553  19.146  24.620  1.00  0.00     0.124 S 
ATOM     74  O   UNL A   1      43.189  18.953  25.098  1.00  0.00    -0.237 OA
ATOM     75  O   UNL A   1      44.796  18.828  23.217  1.00  0.00    -0.237 OA
ATOM     76  O   UNL A   1      45.605  18.735  25.545  1.00  0.00    -0.744 OA
ENDBRANCH  69  73
ENDBRANCH  52  66
BRANCH  53  77
ATOM     77  C   UNL A   1      47.035  30.806  27.418  1.00  0.00     0.023 A 
ATOM     78  C   UNL A   1      46.402  31.963  26.906  1.00  0.00     0.031 A 
ATOM     79  C   UNL A   1      48.447  30.836  27.475  1.00  0.00     0.131 A 
ATOM     80  C   UNL A   1      47.173  33.080  26.495  1.00  0.00     0.055 A 
ATOM     81  C   UNL A   1      49.201  31.942  27.074  1.00  0.00     0.041 A 
ATOM     82  F   UNL A   1      49.142  29.820  28.010  1.00  0.00    -0.206 F 
ATOM     83  C   UNL A   1      48.566  33.075  26.593  1.00  0.00     0.022 A 
BRANCH  80  84
ATOM     84  S   UNL A   1      46.371  34.610  25.906  1.00  0.00     0.124 S 
ATOM     85  O   UNL A   1      47.510  35.411  25.473  1.00  0.00    -0.237 OA
ATOM     86  O   UNL A   1      45.485  34.120  24.857  1.00  0.00    -0.237 OA
ATOM     87  O   UNL A   1      45.683  35.116  27.096  1.00  0.00    -0.744 OA
ENDBRANCH  80  84
ENDBRANCH  53  77
BRANCH  65  88
ATOM     88  C   UNL A   1      45.656  26.159  31.509  1.00  0.00     0.023 A 
ATOM     89  C   UNL A   1      44.542  26.780  32.124  1.00  0.00     0.031 A 
ATOM     90  C   UNL A   1      46.761  25.856  32.325  1.00  0.00     0.131 A 
ATOM     91  C   UNL A   1      44.574  27.084  33.502  1.00  0.00     0.055 A 
ATOM     92  C   UNL A   1      46.779  26.136  33.691  1.00  0.00     0.041 A 
ATOM     93  F   UNL A   1      47.842  25.248  31.811  1.00  0.00    -0.206 F 
ATOM     94  C   UNL A   1      45.686  26.757  34.284  1.00  0.00     0.022 A 
BRANCH  91  95
ATOM     95  S   UNL A   1      43.176  27.935  34.307  1.00  0.00     0.124 S 
ATOM     96  O   UNL A   1      43.632  28.124  35.678  1.00  0.00    -0.237 OA
ATOM     97  O   UNL A   1      43.039  29.149  33.506  1.00  0.00    -0.237 OA
ATOM     98  O   UNL A   1      42.070  26.986  34.160  1.00  0.00    -0.744 OA
ENDBRANCH  91  95
ENDBRANCH  65  88
ENDBRANCH  39  40
ENDBRANCH  31  34
ENDBRANCH  29  30
ENDBRANCH  28  29
ENDBRANCH  27  28
ENDBRANCH   1  27
TORSDOF 19
ENDMDL
