MODEL 1
REMARK VINA RESULT:     -12.2      0.000      0.000
REMARK SMILES Cc1ccc(C)c(/C=C2\SC(=S)N(CC(=O)NCCCCCCNC(=O)c3ccc(-c4c5nc(c(-c6cc(S(=O)(=O)[O-])ccc6F)c6ccc([nH]6)c(-c6cc(S(=O)(=O)[O-])ccc6F)c6nc(c(-c7cc(S(=O)(=O)[O-])ccc7F)c7ccc4[nH]7)C=C6)C=C5)cc3)C2=O)c1
REMARK SMILES IDX 21 1 20 2 19 3 18 4 17 5 15 6 16 7 14 9 13 10 8 11 9 12
REMARK SMILES IDX 10 13 90 14 11 15 91 16 12 17 7 18 1 19 2 20 3 21 92 22 4 23
REMARK SMILES IDX 5 24 6 25 22 26 23 27 24 28 25 29 26 31 27 32 28 33 89 34
REMARK SMILES IDX 29 35 88 36 30 37 31 38 32 39 82 40 33 41 87 42 81 43 83 44
REMARK SMILES IDX 34 45 86 46 80 47 79 48 35 50 67 51 47 52 66 53 48 54 51 55
REMARK SMILES IDX 65 56 84 57 49 58 50 59 64 61 85 62 52 63 36 64 37 65 45 66
REMARK SMILES IDX 38 67 44 68 46 69 43 70 39 71 40 72 41 73 42 74 68 75 69 76
REMARK SMILES IDX 77 77 70 78 76 79 78 80 75 81 71 82 72 83 73 84 74 85 53 86
REMARK SMILES IDX 54 87 62 88 55 89 61 90 63 91 60 92 56 93 57 94 58 95 59 96
REMARK H PARENT 17 8 24 30 83 49 51 60
REMARK Flexibility Score: inf
ROOT
ATOM      1  C   UNL A   1      33.524  29.199  25.769  1.00  0.00     0.002 C 
ENDROOT
BRANCH   1   2
ATOM      2  C   UNL A   1      32.136  29.696  25.333  1.00  0.00     0.002 C 
BRANCH   2   3
ATOM      3  C   UNL A   1      31.612  29.201  23.984  1.00  0.00     0.021 C 
BRANCH   3   4
ATOM      4  C   UNL A   1      30.276  28.473  24.071  1.00  0.00     0.116 C 
BRANCH   4   5
ATOM      5  N   UNL A   1      30.346  27.122  23.552  1.00  0.00    -0.355 N 
ATOM      6  C   UNL A   1      30.787  25.962  24.112  1.00  0.00     0.240 C 
ATOM      7  O   UNL A   1      30.406  24.913  23.577  1.00  0.00    -0.273 OA
ATOM      8  H   UNL A   1      30.016  27.026  22.630  1.00  0.00     0.163 HD
BRANCH   6   9
ATOM      9  C   UNL A   1      31.532  25.907  25.453  1.00  0.00     0.227 C 
BRANCH   9  10
ATOM     10  N   UNL A   1      32.542  24.863  25.576  1.00  0.00    -0.283 N 
ATOM     11  C   UNL A   1      35.985  24.040  24.944  1.00  0.00     0.029 C 
ATOM     12  C   UNL A   1      34.690  23.972  25.262  1.00  0.00     0.081 C 
ATOM     13  S   UNL A   1      33.872  22.726  26.111  1.00  0.00    -0.054 SA
ATOM     14  C   UNL A   1      33.767  25.097  24.971  1.00  0.00     0.266 C 
ATOM     15  C   UNL A   1      32.357  23.614  26.127  1.00  0.00     0.148 C 
ATOM     16  O   UNL A   1      34.055  26.072  24.306  1.00  0.00    -0.268 OA
ATOM     17  S   UNL A   1      30.955  22.957  26.755  1.00  0.00    -0.052 S 
BRANCH  11  18
ATOM     18  C   UNL A   1      37.002  23.061  25.340  1.00  0.00    -0.021 A 
ATOM     19  C   UNL A   1      37.826  19.391  24.737  1.00  0.00     0.044 C 
ATOM     20  C   UNL A   1      37.921  20.815  25.198  1.00  0.00    -0.051 A 
ATOM     21  C   UNL A   1      39.025  21.233  25.945  1.00  0.00     0.004 A 
ATOM     22  C   UNL A   1      36.932  21.747  24.861  1.00  0.00     0.011 A 
ATOM     23  C   UNL A   1      39.088  22.533  26.443  1.00  0.00     0.004 A 
ATOM     24  C   UNL A   1      38.054  23.443  26.190  1.00  0.00    -0.044 A 
ATOM     25  C   UNL A   1      38.094  24.804  26.825  1.00  0.00     0.045 C 
ENDBRANCH  11  18
ENDBRANCH   9  10
ENDBRANCH   6   9
ENDBRANCH   4   5
ENDBRANCH   3   4
ENDBRANCH   2   3
ENDBRANCH   1   2
BRANCH   1  26
ATOM     26  C   UNL A   1      33.934  29.281  27.250  1.00  0.00     0.021 C 
BRANCH  26  27
ATOM     27  C   UNL A   1      35.357  29.729  27.601  1.00  0.00     0.116 C 
BRANCH  27  28
ATOM     28  N   UNL A   1      35.566  29.934  29.036  1.00  0.00    -0.352 N 
ATOM     29  C   UNL A   1      36.543  29.483  29.903  1.00  0.00     0.251 C 
ATOM     30  H   UNL A   1      34.882  30.500  29.462  1.00  0.00     0.163 HD
ATOM     31  O   UNL A   1      36.296  29.471  31.107  1.00  0.00    -0.269 OA
BRANCH  29  32
ATOM     32  C   UNL A   1      37.872  29.039  29.419  1.00  0.00     0.039 A 
ATOM     33  C   UNL A   1      38.418  29.503  28.217  1.00  0.00     0.014 A 
ATOM     34  C   UNL A   1      38.570  28.088  30.145  1.00  0.00     0.014 A 
ATOM     35  C   UNL A   1      39.672  29.036  27.803  1.00  0.00     0.010 A 
ATOM     36  C   UNL A   1      39.847  27.716  29.816  1.00  0.00     0.010 A 
ATOM     37  C   UNL A   1      40.384  28.140  28.614  1.00  0.00    -0.014 A 
BRANCH  37  38
ATOM     38  C   UNL A   1      41.758  27.732  28.334  1.00  0.00     0.031 A 
ATOM     39  C   UNL A   1      41.867  26.442  27.630  1.00  0.00     0.074 A 
ATOM     40  C   UNL A   1      42.824  28.550  28.478  1.00  0.00     0.049 A 
ATOM     41  N   UNL A   1      42.274  25.329  28.140  1.00  0.00    -0.248 NA
ATOM     42  C   UNL A   1      41.298  26.308  26.282  1.00  0.00     0.031 C 
ATOM     43  C   UNL A   1      42.817  29.918  28.997  1.00  0.00     0.029 A 
ATOM     44  N   UNL A   1      44.127  28.373  28.105  1.00  0.00    -0.354 N 
ATOM     45  C   UNL A   1      42.282  24.421  27.094  1.00  0.00     0.074 A 
ATOM     46  C   UNL A   1      41.442  24.997  26.078  1.00  0.00     0.031 C 
ATOM     47  C   UNL A   1      44.013  30.498  28.762  1.00  0.00     0.029 A 
ATOM     48  C   UNL A   1      44.912  29.533  28.151  1.00  0.00     0.049 A 
ATOM     49  H   UNL A   1      44.486  27.500  27.825  1.00  0.00     0.167 HD
ATOM     50  C   UNL A   1      43.208  23.423  27.056  1.00  0.00     0.034 A 
ATOM     51  C   UNL A   1      46.205  29.685  27.734  1.00  0.00     0.034 A 
ATOM     52  C   UNL A   1      43.878  23.302  28.340  1.00  0.00     0.049 A 
ATOM     53  C   UNL A   1      46.809  28.331  27.878  1.00  0.00     0.074 A 
ATOM     54  C   UNL A   1      43.455  23.071  29.637  1.00  0.00     0.029 A 
ATOM     55  N   UNL A   1      45.146  23.835  28.452  1.00  0.00    -0.354 N 
ATOM     56  N   UNL A   1      46.979  27.761  29.041  1.00  0.00    -0.248 NA
ATOM     57  C   UNL A   1      46.824  27.405  26.750  1.00  0.00     0.031 C 
ATOM     58  C   UNL A   1      44.284  23.896  30.455  1.00  0.00     0.029 A 
ATOM     59  C   UNL A   1      45.223  24.528  29.636  1.00  0.00     0.049 A 
ATOM     60  H   UNL A   1      45.872  23.736  27.794  1.00  0.00     0.167 HD
ATOM     61  C   UNL A   1      46.638  26.433  28.846  1.00  0.00     0.074 A 
ATOM     62  C   UNL A   1      46.715  26.240  27.401  1.00  0.00     0.031 C 
ATOM     63  C   UNL A   1      46.049  25.707  29.845  1.00  0.00     0.034 A 
BRANCH  50  64
ATOM     64  C   UNL A   1      43.792  22.826  25.793  1.00  0.00     0.023 A 
ATOM     65  C   UNL A   1      43.825  21.420  25.717  1.00  0.00     0.031 A 
ATOM     66  C   UNL A   1      44.545  23.504  24.809  1.00  0.00     0.131 A 
ATOM     67  C   UNL A   1      44.661  20.762  24.802  1.00  0.00     0.055 A 
ATOM     68  C   UNL A   1      45.319  22.844  23.850  1.00  0.00     0.041 A 
ATOM     69  F   UNL A   1      44.655  24.835  24.759  1.00  0.00    -0.206 F 
ATOM     70  C   UNL A   1      45.412  21.465  23.866  1.00  0.00     0.022 A 
BRANCH  67  71
ATOM     71  S   UNL A   1      44.894  18.977  24.991  1.00  0.00     0.124 S 
ATOM     72  O   UNL A   1      44.949  18.543  23.599  1.00  0.00    -0.237 OA
ATOM     73  O   UNL A   1      46.147  18.918  25.737  1.00  0.00    -0.237 OA
ATOM     74  O   UNL A   1      43.706  18.559  25.730  1.00  0.00    -0.744 OA
ENDBRANCH  67  71
ENDBRANCH  50  64
BRANCH  51  75
ATOM     75  C   UNL A   1      46.945  30.877  27.188  1.00  0.00     0.023 A 
ATOM     76  C   UNL A   1      46.265  32.037  26.740  1.00  0.00     0.031 A 
ATOM     77  C   UNL A   1      48.347  31.010  27.288  1.00  0.00     0.131 A 
ATOM     78  C   UNL A   1      46.969  33.246  26.495  1.00  0.00     0.055 A 
ATOM     79  C   UNL A   1      49.030  32.215  27.086  1.00  0.00     0.041 A 
ATOM     80  F   UNL A   1      49.135  29.986  27.620  1.00  0.00    -0.206 F 
ATOM     81  C   UNL A   1      48.339  33.350  26.719  1.00  0.00     0.022 A 
BRANCH  78  82
ATOM     82  S   UNL A   1      46.128  34.753  25.918  1.00  0.00     0.124 S 
ATOM     83  O   UNL A   1      45.519  34.299  24.671  1.00  0.00    -0.237 OA
ATOM     84  O   UNL A   1      45.211  35.067  27.006  1.00  0.00    -0.237 OA
ATOM     85  O   UNL A   1      47.230  35.703  25.754  1.00  0.00    -0.744 OA
ENDBRANCH  78  82
ENDBRANCH  51  75
BRANCH  63  86
ATOM     86  C   UNL A   1      46.083  26.296  31.245  1.00  0.00     0.023 A 
ATOM     87  C   UNL A   1      45.009  26.992  31.847  1.00  0.00     0.031 A 
ATOM     88  C   UNL A   1      47.228  26.072  32.026  1.00  0.00     0.131 A 
ATOM     89  C   UNL A   1      45.118  27.463  33.169  1.00  0.00     0.055 A 
ATOM     90  C   UNL A   1      47.326  26.520  33.345  1.00  0.00     0.041 A 
ATOM     91  F   UNL A   1      48.271  25.387  31.528  1.00  0.00    -0.206 F 
ATOM     92  C   UNL A   1      46.275  27.227  33.918  1.00  0.00     0.022 A 
BRANCH  89  93
ATOM     93  S   UNL A   1      43.765  28.421  33.925  1.00  0.00     0.124 S 
ATOM     94  O   UNL A   1      42.597  27.565  33.749  1.00  0.00    -0.237 OA
ATOM     95  O   UNL A   1      44.229  28.591  35.300  1.00  0.00    -0.237 OA
ATOM     96  O   UNL A   1      43.740  29.654  33.136  1.00  0.00    -0.744 OA
ENDBRANCH  89  93
ENDBRANCH  63  86
ENDBRANCH  37  38
ENDBRANCH  29  32
ENDBRANCH  27  28
ENDBRANCH  26  27
ENDBRANCH   1  26
TORSDOF 18
ENDMDL
MODEL 2
REMARK VINA RESULT:     -11.4      1.600      2.228
REMARK SMILES Cc1ccc(C)c(/C=C2\SC(=S)N(CC(=O)NCCCCCCNC(=O)c3ccc(-c4c5nc(c(-c6cc(S(=O)(=O)[O-])ccc6F)c6ccc([nH]6)c(-c6cc(S(=O)(=O)[O-])ccc6F)c6nc(c(-c7cc(S(=O)(=O)[O-])ccc7F)c7ccc4[nH]7)C=C6)C=C5)cc3)C2=O)c1
REMARK SMILES IDX 21 1 20 2 19 3 18 4 17 5 15 6 16 7 14 9 13 10 8 11 9 12
REMARK SMILES IDX 10 13 90 14 11 15 91 16 12 17 7 18 1 19 2 20 3 21 92 22 4 23
REMARK SMILES IDX 5 24 6 25 22 26 23 27 24 28 25 29 26 31 27 32 28 33 89 34
REMARK SMILES IDX 29 35 88 36 30 37 31 38 32 39 82 40 33 41 87 42 81 43 83 44
REMARK SMILES IDX 34 45 86 46 80 47 79 48 35 50 67 51 47 52 66 53 48 54 51 55
REMARK SMILES IDX 65 56 84 57 49 58 50 59 64 61 85 62 52 63 36 64 37 65 45 66
REMARK SMILES IDX 38 67 44 68 46 69 43 70 39 71 40 72 41 73 42 74 68 75 69 76
REMARK SMILES IDX 77 77 70 78 76 79 78 80 75 81 71 82 72 83 73 84 74 85 53 86
REMARK SMILES IDX 54 87 62 88 55 89 61 90 63 91 60 92 56 93 57 94 58 95 59 96
REMARK H PARENT 17 8 24 30 83 49 51 60
REMARK Flexibility Score: inf
ROOT
ATOM      1  C   UNL A   1      33.629  29.342  26.865  1.00  0.00     0.002 C 
ENDROOT
BRANCH   1   2
ATOM      2  C   UNL A   1      32.703  28.216  26.377  1.00  0.00     0.002 C 
BRANCH   2   3
ATOM      3  C   UNL A   1      31.296  28.617  25.928  1.00  0.00     0.021 C 
BRANCH   3   4
ATOM      4  C   UNL A   1      31.271  29.471  24.666  1.00  0.00     0.116 C 
BRANCH   4   5
ATOM      5  N   UNL A   1      32.441  29.267  23.836  1.00  0.00    -0.355 N 
ATOM      6  C   UNL A   1      32.620  28.560  22.686  1.00  0.00     0.240 C 
ATOM      7  O   UNL A   1      33.619  28.847  22.013  1.00  0.00    -0.273 OA
ATOM      8  H   UNL A   1      33.252  29.721  24.162  1.00  0.00     0.163 HD
BRANCH   6   9
ATOM      9  C   UNL A   1      31.560  27.610  22.111  1.00  0.00     0.227 C 
BRANCH   9  10
ATOM     10  N   UNL A   1      31.541  26.265  22.673  1.00  0.00    -0.283 N 
ATOM     11  C   UNL A   1      33.370  23.178  22.925  1.00  0.00     0.029 C 
ATOM     12  C   UNL A   1      32.418  24.112  22.998  1.00  0.00     0.081 C 
ATOM     13  S   UNL A   1      30.991  24.099  23.949  1.00  0.00    -0.054 SA
ATOM     14  C   UNL A   1      32.550  25.401  22.274  1.00  0.00     0.266 C 
ATOM     15  C   UNL A   1      30.548  25.728  23.462  1.00  0.00     0.148 C 
ATOM     16  O   UNL A   1      33.417  25.651  21.462  1.00  0.00    -0.268 OA
ATOM     17  S   UNL A   1      29.116  26.437  23.950  1.00  0.00    -0.052 S 
BRANCH  11  18
ATOM     18  C   UNL A   1      33.411  21.954  23.731  1.00  0.00    -0.021 A 
ATOM     19  C   UNL A   1      32.114  18.377  23.568  1.00  0.00     0.044 C 
ATOM     20  C   UNL A   1      32.841  19.609  24.017  1.00  0.00    -0.051 A 
ATOM     21  C   UNL A   1      33.627  19.571  25.172  1.00  0.00     0.004 A 
ATOM     22  C   UNL A   1      32.773  20.795  23.277  1.00  0.00     0.011 A 
ATOM     23  C   UNL A   1      34.246  20.728  25.641  1.00  0.00     0.004 A 
ATOM     24  C   UNL A   1      34.102  21.941  24.955  1.00  0.00    -0.044 A 
ATOM     25  C   UNL A   1      34.690  23.195  25.538  1.00  0.00     0.045 C 
ENDBRANCH  11  18
ENDBRANCH   9  10
ENDBRANCH   6   9
ENDBRANCH   4   5
ENDBRANCH   3   4
ENDBRANCH   2   3
ENDBRANCH   1   2
BRANCH   1  26
ATOM     26  C   UNL A   1      35.086  29.022  27.242  1.00  0.00     0.021 C 
BRANCH  26  27
ATOM     27  C   UNL A   1      35.969  30.142  27.803  1.00  0.00     0.116 C 
BRANCH  27  28
ATOM     28  N   UNL A   1      35.923  30.243  29.263  1.00  0.00    -0.352 N 
ATOM     29  C   UNL A   1      36.691  29.666  30.257  1.00  0.00     0.251 C 
ATOM     30  H   UNL A   1      35.211  30.834  29.600  1.00  0.00     0.163 HD
ATOM     31  O   UNL A   1      36.226  29.600  31.392  1.00  0.00    -0.269 OA
BRANCH  29  32
ATOM     32  C   UNL A   1      38.054  29.148  29.987  1.00  0.00     0.039 A 
ATOM     33  C   UNL A   1      38.466  27.882  30.417  1.00  0.00     0.014 A 
ATOM     34  C   UNL A   1      38.970  29.964  29.343  1.00  0.00     0.014 A 
ATOM     35  C   UNL A   1      39.771  27.452  30.145  1.00  0.00     0.010 A 
ATOM     36  C   UNL A   1      40.206  29.511  28.964  1.00  0.00     0.010 A 
ATOM     37  C   UNL A   1      40.638  28.276  29.413  1.00  0.00    -0.014 A 
BRANCH  37  38
ATOM     38  C   UNL A   1      41.953  27.839  28.952  1.00  0.00     0.031 A 
ATOM     39  C   UNL A   1      41.930  26.580  28.185  1.00  0.00     0.074 A 
ATOM     40  C   UNL A   1      43.058  28.615  29.002  1.00  0.00     0.049 A 
ATOM     41  N   UNL A   1      42.353  25.433  28.593  1.00  0.00    -0.248 NA
ATOM     42  C   UNL A   1      41.200  26.529  26.911  1.00  0.00     0.031 C 
ATOM     43  C   UNL A   1      43.164  29.956  29.577  1.00  0.00     0.029 A 
ATOM     44  N   UNL A   1      44.300  28.414  28.467  1.00  0.00    -0.354 N 
ATOM     45  C   UNL A   1      42.201  24.575  27.515  1.00  0.00     0.074 A 
ATOM     46  C   UNL A   1      41.269  25.225  26.635  1.00  0.00     0.031 C 
ATOM     47  C   UNL A   1      44.344  30.508  29.225  1.00  0.00     0.029 A 
ATOM     48  C   UNL A   1      45.128  29.545  28.469  1.00  0.00     0.049 A 
ATOM     49  H   UNL A   1      44.590  27.544  28.108  1.00  0.00     0.167 HD
ATOM     50  C   UNL A   1      43.079  23.552  27.323  1.00  0.00     0.034 A 
ATOM     51  C   UNL A   1      46.366  29.676  27.905  1.00  0.00     0.034 A 
ATOM     52  C   UNL A   1      43.892  23.349  28.510  1.00  0.00     0.049 A 
ATOM     53  C   UNL A   1      46.932  28.297  27.916  1.00  0.00     0.074 A 
ATOM     54  C   UNL A   1      43.618  23.070  29.837  1.00  0.00     0.029 A 
ATOM     55  N   UNL A   1      45.183  23.835  28.491  1.00  0.00    -0.354 N 
ATOM     56  N   UNL A   1      47.218  27.668  29.025  1.00  0.00    -0.248 NA
ATOM     57  C   UNL A   1      46.778  27.427  26.756  1.00  0.00     0.031 C 
ATOM     58  C   UNL A   1      44.569  23.828  30.584  1.00  0.00     0.029 A 
ATOM     59  C   UNL A   1      45.427  24.468  29.687  1.00  0.00     0.049 A 
ATOM     60  H   UNL A   1      45.821  23.744  27.747  1.00  0.00     0.167 HD
ATOM     61  C   UNL A   1      46.807  26.362  28.815  1.00  0.00     0.074 A 
ATOM     62  C   UNL A   1      46.704  26.236  27.364  1.00  0.00     0.031 C 
ATOM     63  C   UNL A   1      46.315  25.609  29.845  1.00  0.00     0.034 A 
BRANCH  50  64
ATOM     64  C   UNL A   1      43.485  22.996  25.974  1.00  0.00     0.023 A 
ATOM     65  C   UNL A   1      43.471  21.595  25.839  1.00  0.00     0.031 A 
ATOM     66  C   UNL A   1      44.128  23.700  24.932  1.00  0.00     0.131 A 
ATOM     67  C   UNL A   1      44.170  20.959  24.800  1.00  0.00     0.055 A 
ATOM     68  C   UNL A   1      44.760  23.065  23.858  1.00  0.00     0.041 A 
ATOM     69  F   UNL A   1      44.268  25.029  24.922  1.00  0.00    -0.206 F 
ATOM     70  C   UNL A   1      44.817  21.685  23.807  1.00  0.00     0.022 A 
BRANCH  67  71
ATOM     71  S   UNL A   1      44.376  19.163  24.887  1.00  0.00     0.124 S 
ATOM     72  O   UNL A   1      45.444  19.042  25.875  1.00  0.00    -0.237 OA
ATOM     73  O   UNL A   1      43.049  18.731  25.313  1.00  0.00    -0.237 OA
ATOM     74  O   UNL A   1      44.745  18.800  23.522  1.00  0.00    -0.744 OA
ENDBRANCH  67  71
ENDBRANCH  50  64
BRANCH  51  75
ATOM     75  C   UNL A   1      47.081  30.868  27.327  1.00  0.00     0.023 A 
ATOM     76  C   UNL A   1      46.374  31.979  26.803  1.00  0.00     0.031 A 
ATOM     77  C   UNL A   1      48.472  31.058  27.463  1.00  0.00     0.131 A 
ATOM     78  C   UNL A   1      47.041  33.201  26.523  1.00  0.00     0.055 A 
ATOM     79  C   UNL A   1      49.118  32.277  27.225  1.00  0.00     0.041 A 
ATOM     80  F   UNL A   1      49.285  30.081  27.867  1.00  0.00    -0.206 F 
ATOM     81  C   UNL A   1      48.398  33.367  26.783  1.00  0.00     0.022 A 
BRANCH  78  82
ATOM     82  S   UNL A   1      46.165  34.647  25.849  1.00  0.00     0.124 S 
ATOM     83  O   UNL A   1      47.268  35.452  25.331  1.00  0.00    -0.237 OA
ATOM     84  O   UNL A   1      45.269  34.067  24.856  1.00  0.00    -0.237 OA
ATOM     85  O   UNL A   1      45.496  35.205  27.025  1.00  0.00    -0.744 OA
ENDBRANCH  78  82
ENDBRANCH  51  75
BRANCH  63  86
ATOM     86  C   UNL A   1      46.537  26.129  31.255  1.00  0.00     0.023 A 
ATOM     87  C   UNL A   1      45.555  26.789  32.029  1.00  0.00     0.031 A 
ATOM     88  C   UNL A   1      47.777  25.874  31.864  1.00  0.00     0.131 A 
ATOM     89  C   UNL A   1      45.841  27.196  33.346  1.00  0.00     0.055 A 
ATOM     90  C   UNL A   1      48.051  26.257  33.177  1.00  0.00     0.041 A 
ATOM     91  F   UNL A   1      48.742  25.219  31.197  1.00  0.00    -0.206 F 
ATOM     92  C   UNL A   1      47.088  26.930  33.920  1.00  0.00     0.022 A 
BRANCH  89  93
ATOM     93  S   UNL A   1      44.602  28.108  34.323  1.00  0.00     0.124 S 
ATOM     94  O   UNL A   1      43.937  27.067  35.096  1.00  0.00    -0.237 OA
ATOM     95  O   UNL A   1      45.428  29.041  35.087  1.00  0.00    -0.237 OA
ATOM     96  O   UNL A   1      43.762  28.738  33.302  1.00  0.00    -0.744 OA
ENDBRANCH  89  93
ENDBRANCH  63  86
ENDBRANCH  37  38
ENDBRANCH  29  32
ENDBRANCH  27  28
ENDBRANCH  26  27
ENDBRANCH   1  26
TORSDOF 18
ENDMDL
MODEL 3
REMARK VINA RESULT:     -11.3      1.691      2.201
REMARK SMILES Cc1ccc(C)c(/C=C2\SC(=S)N(CC(=O)NCCCCCCNC(=O)c3ccc(-c4c5nc(c(-c6cc(S(=O)(=O)[O-])ccc6F)c6ccc([nH]6)c(-c6cc(S(=O)(=O)[O-])ccc6F)c6nc(c(-c7cc(S(=O)(=O)[O-])ccc7F)c7ccc4[nH]7)C=C6)C=C5)cc3)C2=O)c1
REMARK SMILES IDX 21 1 20 2 19 3 18 4 17 5 15 6 16 7 14 9 13 10 8 11 9 12
REMARK SMILES IDX 10 13 90 14 11 15 91 16 12 17 7 18 1 19 2 20 3 21 92 22 4 23
REMARK SMILES IDX 5 24 6 25 22 26 23 27 24 28 25 29 26 31 27 32 28 33 89 34
REMARK SMILES IDX 29 35 88 36 30 37 31 38 32 39 82 40 33 41 87 42 81 43 83 44
REMARK SMILES IDX 34 45 86 46 80 47 79 48 35 50 67 51 47 52 66 53 48 54 51 55
REMARK SMILES IDX 65 56 84 57 49 58 50 59 64 61 85 62 52 63 36 64 37 65 45 66
REMARK SMILES IDX 38 67 44 68 46 69 43 70 39 71 40 72 41 73 42 74 68 75 69 76
REMARK SMILES IDX 77 77 70 78 76 79 78 80 75 81 71 82 72 83 73 84 74 85 53 86
REMARK SMILES IDX 54 87 62 88 55 89 61 90 63 91 60 92 56 93 57 94 58 95 59 96
REMARK H PARENT 17 8 24 30 83 49 51 60
REMARK Flexibility Score: inf
ROOT
ATOM      1  C   UNL A   1      33.294  29.042  25.814  1.00  0.00     0.002 C 
ENDROOT
BRANCH   1   2
ATOM      2  C   UNL A   1      32.022  29.765  25.343  1.00  0.00     0.002 C 
BRANCH   2   3
ATOM      3  C   UNL A   1      31.422  29.320  24.008  1.00  0.00     0.021 C 
BRANCH   3   4
ATOM      4  C   UNL A   1      29.961  28.895  24.099  1.00  0.00     0.116 C 
BRANCH   4   5
ATOM      5  N   UNL A   1      29.736  27.566  23.567  1.00  0.00    -0.355 N 
ATOM      6  C   UNL A   1      30.384  26.387  23.778  1.00  0.00     0.240 C 
ATOM      7  O   UNL A   1      29.768  25.358  23.474  1.00  0.00    -0.273 OA
ATOM      8  H   UNL A   1      28.979  27.505  22.940  1.00  0.00     0.163 HD
BRANCH   6   9
ATOM      9  C   UNL A   1      31.710  26.284  24.545  1.00  0.00     0.227 C 
BRANCH   9  10
ATOM     10  N   UNL A   1      32.529  25.116  24.244  1.00  0.00    -0.283 N 
ATOM     11  C   UNL A   1      34.061  22.182  25.650  1.00  0.00     0.029 C 
ATOM     12  C   UNL A   1      33.703  23.169  24.824  1.00  0.00     0.081 C 
ATOM     13  S   UNL A   1      33.906  23.254  23.123  1.00  0.00    -0.054 SA
ATOM     14  C   UNL A   1      32.952  24.349  25.319  1.00  0.00     0.266 C 
ATOM     15  C   UNL A   1      33.029  24.772  23.008  1.00  0.00     0.148 C 
ATOM     16  O   UNL A   1      32.741  24.593  26.490  1.00  0.00    -0.268 OA
ATOM     17  S   UNL A   1      32.871  25.592  21.561  1.00  0.00    -0.052 S 
BRANCH  11  18
ATOM     18  C   UNL A   1      34.651  20.907  25.230  1.00  0.00    -0.021 A 
ATOM     19  C   UNL A   1      38.103  19.363  24.777  1.00  0.00     0.044 C 
ATOM     20  C   UNL A   1      36.614  19.525  24.855  1.00  0.00    -0.051 A 
ATOM     21  C   UNL A   1      35.782  18.432  24.601  1.00  0.00     0.004 A 
ATOM     22  C   UNL A   1      36.041  20.751  25.212  1.00  0.00     0.011 A 
ATOM     23  C   UNL A   1      34.396  18.587  24.596  1.00  0.00     0.004 A 
ATOM     24  C   UNL A   1      33.819  19.836  24.859  1.00  0.00    -0.044 A 
ATOM     25  C   UNL A   1      32.331  20.002  24.743  1.00  0.00     0.045 C 
ENDBRANCH  11  18
ENDBRANCH   9  10
ENDBRANCH   6   9
ENDBRANCH   4   5
ENDBRANCH   3   4
ENDBRANCH   2   3
ENDBRANCH   1   2
BRANCH   1  26
ATOM     26  C   UNL A   1      33.744  29.168  27.281  1.00  0.00     0.021 C 
BRANCH  26  27
ATOM     27  C   UNL A   1      35.213  29.487  27.579  1.00  0.00     0.116 C 
BRANCH  27  28
ATOM     28  N   UNL A   1      35.454  29.871  28.971  1.00  0.00    -0.352 N 
ATOM     29  C   UNL A   1      36.455  29.537  29.864  1.00  0.00     0.251 C 
ATOM     30  H   UNL A   1      34.776  30.482  29.341  1.00  0.00     0.163 HD
ATOM     31  O   UNL A   1      36.237  29.673  31.066  1.00  0.00    -0.269 OA
BRANCH  29  32
ATOM     32  C   UNL A   1      37.776  29.042  29.407  1.00  0.00     0.039 A 
ATOM     33  C   UNL A   1      38.369  29.495  28.222  1.00  0.00     0.014 A 
ATOM     34  C   UNL A   1      38.417  28.058  30.140  1.00  0.00     0.014 A 
ATOM     35  C   UNL A   1      39.612  28.981  27.833  1.00  0.00     0.010 A 
ATOM     36  C   UNL A   1      39.686  27.637  29.837  1.00  0.00     0.010 A 
ATOM     37  C   UNL A   1      40.267  28.049  28.651  1.00  0.00    -0.014 A 
BRANCH  37  38
ATOM     38  C   UNL A   1      41.630  27.588  28.400  1.00  0.00     0.031 A 
ATOM     39  C   UNL A   1      41.704  26.322  27.648  1.00  0.00     0.074 A 
ATOM     40  C   UNL A   1      42.727  28.348  28.612  1.00  0.00     0.049 A 
ATOM     41  N   UNL A   1      42.041  25.172  28.124  1.00  0.00    -0.248 NA
ATOM     42  C   UNL A   1      41.176  26.269  26.277  1.00  0.00     0.031 C 
ATOM     43  C   UNL A   1      42.765  29.693  29.186  1.00  0.00     0.029 A 
ATOM     44  N   UNL A   1      44.033  28.123  28.274  1.00  0.00    -0.354 N 
ATOM     45  C   UNL A   1      42.042  24.307  27.042  1.00  0.00     0.074 A 
ATOM     46  C   UNL A   1      41.266  24.962  26.024  1.00  0.00     0.031 C 
ATOM     47  C   UNL A   1      43.994  30.224  29.014  1.00  0.00     0.029 A 
ATOM     48  C   UNL A   1      44.869  29.242  28.394  1.00  0.00     0.049 A 
ATOM     49  H   UNL A   1      44.360  27.246  27.970  1.00  0.00     0.167 HD
ATOM     50  C   UNL A   1      42.923  23.268  26.994  1.00  0.00     0.034 A 
ATOM     51  C   UNL A   1      46.180  29.349  28.025  1.00  0.00     0.034 A 
ATOM     52  C   UNL A   1      43.542  23.065  28.292  1.00  0.00     0.049 A 
ATOM     53  C   UNL A   1      46.716  27.962  28.132  1.00  0.00     0.074 A 
ATOM     54  C   UNL A   1      43.064  22.803  29.564  1.00  0.00     0.029 A 
ATOM     55  N   UNL A   1      44.828  23.532  28.467  1.00  0.00    -0.354 N 
ATOM     56  N   UNL A   1      46.820  27.340  29.277  1.00  0.00    -0.248 NA
ATOM     57  C   UNL A   1      46.727  27.083  26.969  1.00  0.00     0.031 C 
ATOM     58  C   UNL A   1      43.902  23.554  30.442  1.00  0.00     0.029 A 
ATOM     59  C   UNL A   1      44.897  24.173  29.681  1.00  0.00     0.049 A 
ATOM     60  H   UNL A   1      45.571  23.425  27.830  1.00  0.00     0.167 HD
ATOM     61  C   UNL A   1      46.424  26.038  29.016  1.00  0.00     0.074 A 
ATOM     62  C   UNL A   1      46.541  25.899  27.567  1.00  0.00     0.031 C 
ATOM     63  C   UNL A   1      45.768  25.302  29.964  1.00  0.00     0.034 A 
BRANCH  50  64
ATOM     64  C   UNL A   1      43.521  22.694  25.727  1.00  0.00     0.023 A 
ATOM     65  C   UNL A   1      43.631  21.292  25.660  1.00  0.00     0.031 A 
ATOM     66  C   UNL A   1      44.221  23.405  24.727  1.00  0.00     0.131 A 
ATOM     67  C   UNL A   1      44.489  20.674  24.737  1.00  0.00     0.055 A 
ATOM     68  C   UNL A   1      45.018  22.781  23.762  1.00  0.00     0.041 A 
ATOM     69  F   UNL A   1      44.258  24.740  24.666  1.00  0.00    -0.206 F 
ATOM     70  C   UNL A   1      45.187  21.410  23.786  1.00  0.00     0.022 A 
BRANCH  67  71
ATOM     71  S   UNL A   1      44.823  18.906  24.936  1.00  0.00     0.124 S 
ATOM     72  O   UNL A   1      45.097  18.507  23.559  1.00  0.00    -0.237 OA
ATOM     73  O   UNL A   1      45.964  18.919  25.846  1.00  0.00    -0.237 OA
ATOM     74  O   UNL A   1      43.579  18.390  25.500  1.00  0.00    -0.744 OA
ENDBRANCH  67  71
ENDBRANCH  50  64
BRANCH  51  75
ATOM     75  C   UNL A   1      46.994  30.524  27.553  1.00  0.00     0.023 A 
ATOM     76  C   UNL A   1      46.385  31.679  27.001  1.00  0.00     0.031 A 
ATOM     77  C   UNL A   1      48.373  30.651  27.825  1.00  0.00     0.131 A 
ATOM     78  C   UNL A   1      47.124  32.879  26.822  1.00  0.00     0.055 A 
ATOM     79  C   UNL A   1      49.086  31.848  27.686  1.00  0.00     0.041 A 
ATOM     80  F   UNL A   1      49.104  29.629  28.272  1.00  0.00    -0.206 F 
ATOM     81  C   UNL A   1      48.456  32.979  27.213  1.00  0.00     0.022 A 
BRANCH  78  82
ATOM     82  S   UNL A   1      46.375  34.379  26.115  1.00  0.00     0.124 S 
ATOM     83  O   UNL A   1      45.040  33.908  25.755  1.00  0.00    -0.237 OA
ATOM     84  O   UNL A   1      46.447  35.340  27.207  1.00  0.00    -0.237 OA
ATOM     85  O   UNL A   1      47.248  34.678  24.978  1.00  0.00    -0.744 OA
ENDBRANCH  78  82
ENDBRANCH  51  75
BRANCH  63  86
ATOM     86  C   UNL A   1      45.782  25.833  31.388  1.00  0.00     0.023 A 
ATOM     87  C   UNL A   1      46.881  25.728  32.271  1.00  0.00     0.031 A 
ATOM     88  C   UNL A   1      44.656  26.543  31.837  1.00  0.00     0.131 A 
ATOM     89  C   UNL A   1      46.816  26.292  33.559  1.00  0.00     0.055 A 
ATOM     90  C   UNL A   1      44.602  27.121  33.106  1.00  0.00     0.041 A 
ATOM     91  F   UNL A   1      43.591  26.710  31.036  1.00  0.00    -0.206 F 
ATOM     92  C   UNL A   1      45.678  26.988  33.977  1.00  0.00     0.022 A 
BRANCH  89  93
ATOM     93  S   UNL A   1      48.203  26.099  34.725  1.00  0.00     0.124 S 
ATOM     94  O   UNL A   1      47.918  27.079  35.766  1.00  0.00    -0.237 OA
ATOM     95  O   UNL A   1      48.089  24.697  35.121  1.00  0.00    -0.237 OA
ATOM     96  O   UNL A   1      49.378  26.405  33.907  1.00  0.00    -0.744 OA
ENDBRANCH  89  93
ENDBRANCH  63  86
ENDBRANCH  37  38
ENDBRANCH  29  32
ENDBRANCH  27  28
ENDBRANCH  26  27
ENDBRANCH   1  26
TORSDOF 18
ENDMDL
