MODEL 1
REMARK VINA RESULT:     -10.5      0.000      0.000
REMARK SMILES CC[NH2+][C@@]1(C(=O)NCCCCCCNC(=O)c2ccc(-c3c4nc(c(-c5cc(S(=O)(=O)[O-])ccc5F)c5ccc([nH]5)c(-c5cc(S(=O)(=O)[O-])ccc5F)c5nc(c(-c6cc(S(=O)(=O)[O-])ccc6F)c6ccc3[nH]6)C=C5)C=C4)cc2)CCC[C@@H](Sc2ncc(C)cn2)C1
REMARK SMILES IDX 11 1 10 2 9 3 8 4 7 5 5 6 6 7 4 9 80 10 92 11 81 12 83 13
REMARK SMILES IDX 82 14 3 15 2 18 1 19 84 20 85 21 86 22 91 23 87 24 90 25
REMARK SMILES IDX 88 26 89 27 12 28 13 29 14 30 15 31 16 33 17 34 18 35 79 36
REMARK SMILES IDX 19 37 78 38 20 39 21 40 22 41 72 42 23 43 77 44 71 45 73 46
REMARK SMILES IDX 24 47 76 48 70 49 69 50 25 52 57 53 37 54 56 55 38 56 41 57
REMARK SMILES IDX 55 58 74 59 39 60 40 61 54 63 75 64 42 65 26 66 27 67 35 68
REMARK SMILES IDX 28 69 34 70 36 71 33 72 29 73 30 74 31 75 32 76 58 77 59 78
REMARK SMILES IDX 67 79 60 80 66 81 68 82 65 83 61 84 62 85 63 86 64 87 43 88
REMARK SMILES IDX 44 89 52 90 45 91 51 92 53 93 50 94 46 95 47 96 48 97 49 98
REMARK H PARENT 7 8 3 16 3 17 14 32 73 51 41 62
REMARK Flexibility Score: inf
ROOT
ATOM      1  C   UNL A   1      40.872  21.724  27.347  1.00  0.00     0.002 C 
ENDROOT
BRANCH   1   2
ATOM      2  C   UNL A   1      39.875  22.843  27.025  1.00  0.00     0.002 C 
BRANCH   2   3
ATOM      3  C   UNL A   1      38.707  22.436  26.126  1.00  0.00     0.021 C 
BRANCH   3   4
ATOM      4  C   UNL A   1      37.821  23.603  25.680  1.00  0.00     0.116 C 
BRANCH   4   5
ATOM      5  N   UNL A   1      37.229  23.359  24.386  1.00  0.00    -0.351 N 
ATOM      6  C   UNL A   1      35.984  23.443  23.869  1.00  0.00     0.281 C 
ATOM      7  O   UNL A   1      35.912  23.012  22.702  1.00  0.00    -0.268 OA
ATOM      8  H   UNL A   1      37.891  23.062  23.722  1.00  0.00     0.163 HD
BRANCH   6   9
ATOM      9  C   UNL A   1      34.643  23.931  24.605  1.00  0.00     0.176 C 
ATOM     10  C   UNL A   1      34.764  24.121  26.136  1.00  0.00     0.079 C 
ATOM     11  C   UNL A   1      33.502  22.990  24.156  1.00  0.00     0.094 C 
ATOM     12  C   UNL A   1      34.211  23.038  27.072  1.00  0.00     0.008 C 
ATOM     13  C   UNL A   1      33.356  21.759  25.045  1.00  0.00     0.061 C 
ATOM     14  C   UNL A   1      33.108  22.155  26.499  1.00  0.00     0.015 C 
BRANCH   9  15
ATOM     15  N   UNL A   1      34.456  25.296  23.990  1.00  0.00    -0.334 N 
ATOM     16  H   UNL A   1      34.907  25.964  24.616  1.00  0.00     0.347 HD
ATOM     17  H   UNL A   1      34.848  25.184  23.055  1.00  0.00     0.347 HD
BRANCH  15  18
ATOM     18  C   UNL A   1      33.119  25.806  23.727  1.00  0.00     0.257 C 
ATOM     19  C   UNL A   1      32.937  27.139  24.447  1.00  0.00     0.071 C 
ENDBRANCH  15  18
ENDBRANCH   9  15
BRANCH  13  20
ATOM     20  S   UNL A   1      32.129  20.565  24.377  1.00  0.00    -0.083 SA
BRANCH  20  21
ATOM     21  C   UNL A   1      32.996  19.038  24.586  1.00  0.00     0.187 A 
ATOM     22  N   UNL A   1      32.298  17.970  25.004  1.00  0.00    -0.231 NA
ATOM     23  N   UNL A   1      34.316  19.054  24.350  1.00  0.00    -0.231 NA
ATOM     24  C   UNL A   1      33.004  16.839  25.190  1.00  0.00     0.119 A 
ATOM     25  C   UNL A   1      34.971  17.897  24.549  1.00  0.00     0.119 A 
ATOM     26  C   UNL A   1      34.362  16.739  24.983  1.00  0.00    -0.014 A 
ATOM     27  C   UNL A   1      35.123  15.476  25.193  1.00  0.00     0.048 C 
ENDBRANCH  20  21
ENDBRANCH  13  20
ENDBRANCH   6   9
ENDBRANCH   4   5
ENDBRANCH   3   4
ENDBRANCH   2   3
ENDBRANCH   1   2
BRANCH   1  28
ATOM     28  C   UNL A   1      40.934  20.570  26.339  1.00  0.00     0.021 C 
BRANCH  28  29
ATOM     29  C   UNL A   1      41.908  19.442  26.683  1.00  0.00     0.116 C 
BRANCH  29  30
ATOM     30  N   UNL A   1      42.855  19.192  25.612  1.00  0.00    -0.352 N 
ATOM     31  C   UNL A   1      43.673  20.045  24.919  1.00  0.00     0.251 C 
ATOM     32  H   UNL A   1      42.920  18.249  25.336  1.00  0.00     0.163 HD
ATOM     33  O   UNL A   1      44.224  19.631  23.898  1.00  0.00    -0.269 OA
BRANCH  31  34
ATOM     34  C   UNL A   1      43.896  21.439  25.363  1.00  0.00     0.039 A 
ATOM     35  C   UNL A   1      44.513  21.648  26.600  1.00  0.00     0.014 A 
ATOM     36  C   UNL A   1      43.441  22.535  24.623  1.00  0.00     0.014 A 
ATOM     37  C   UNL A   1      44.702  22.947  27.078  1.00  0.00     0.010 A 
ATOM     38  C   UNL A   1      43.686  23.836  25.072  1.00  0.00     0.010 A 
ATOM     39  C   UNL A   1      44.307  24.055  26.309  1.00  0.00    -0.014 A 
BRANCH  39  40
ATOM     40  C   UNL A   1      44.541  25.434  26.810  1.00  0.00     0.031 A 
ATOM     41  C   UNL A   1      45.909  26.057  26.731  1.00  0.00     0.074 A 
ATOM     42  C   UNL A   1      43.516  26.120  27.353  1.00  0.00     0.049 A 
ATOM     43  N   UNL A   1      46.294  27.258  27.084  1.00  0.00    -0.248 NA
ATOM     44  C   UNL A   1      46.991  25.209  26.209  1.00  0.00     0.031 C 
ATOM     45  C   UNL A   1      42.158  25.601  27.534  1.00  0.00     0.029 A 
ATOM     46  N   UNL A   1      43.451  27.398  27.845  1.00  0.00    -0.354 N 
ATOM     47  C   UNL A   1      47.661  27.310  26.831  1.00  0.00     0.074 A 
ATOM     48  C   UNL A   1      48.046  25.998  26.352  1.00  0.00     0.031 C 
ATOM     49  C   UNL A   1      41.388  26.564  28.066  1.00  0.00     0.029 A 
ATOM     50  C   UNL A   1      42.200  27.756  28.289  1.00  0.00     0.049 A 
ATOM     51  H   UNL A   1      44.228  28.004  27.877  1.00  0.00     0.167 HD
ATOM     52  C   UNL A   1      48.512  28.360  26.964  1.00  0.00     0.034 A 
ATOM     53  C   UNL A   1      41.755  28.915  28.811  1.00  0.00     0.034 A 
ATOM     54  C   UNL A   1      48.109  29.664  27.437  1.00  0.00     0.049 A 
ATOM     55  C   UNL A   1      42.712  30.071  28.935  1.00  0.00     0.074 A 
ATOM     56  C   UNL A   1      48.873  30.812  27.562  1.00  0.00     0.029 A 
ATOM     57  N   UNL A   1      46.831  29.992  27.874  1.00  0.00    -0.354 N 
ATOM     58  N   UNL A   1      43.989  30.124  28.630  1.00  0.00    -0.248 NA
ATOM     59  C   UNL A   1      42.162  31.329  29.452  1.00  0.00     0.031 C 
ATOM     60  C   UNL A   1      48.074  31.814  28.126  1.00  0.00     0.029 A 
ATOM     61  C   UNL A   1      46.792  31.314  28.293  1.00  0.00     0.049 A 
ATOM     62  H   UNL A   1      46.064  29.375  27.884  1.00  0.00     0.167 HD
ATOM     63  C   UNL A   1      44.388  31.429  28.903  1.00  0.00     0.074 A 
ATOM     64  C   UNL A   1      43.211  32.134  29.368  1.00  0.00     0.031 C 
ATOM     65  C   UNL A   1      45.617  31.995  28.781  1.00  0.00     0.034 A 
BRANCH  52  66
ATOM     66  C   UNL A   1      49.963  28.124  26.614  1.00  0.00     0.023 A 
ATOM     67  C   UNL A   1      50.411  28.127  25.281  1.00  0.00     0.031 A 
ATOM     68  C   UNL A   1      50.908  27.863  27.622  1.00  0.00     0.131 A 
ATOM     69  C   UNL A   1      51.744  27.798  24.986  1.00  0.00     0.055 A 
ATOM     70  C   UNL A   1      52.250  27.614  27.328  1.00  0.00     0.041 A 
ATOM     71  F   UNL A   1      50.538  27.828  28.913  1.00  0.00    -0.206 F 
ATOM     72  C   UNL A   1      52.672  27.564  26.003  1.00  0.00     0.022 A 
BRANCH  69  73
ATOM     73  S   UNL A   1      52.211  27.541  23.252  1.00  0.00     0.124 S 
ATOM     74  O   UNL A   1      52.823  28.825  22.919  1.00  0.00    -0.237 OA
ATOM     75  O   UNL A   1      53.118  26.402  23.334  1.00  0.00    -0.237 OA
ATOM     76  O   UNL A   1      50.935  27.277  22.590  1.00  0.00    -0.744 OA
ENDBRANCH  69  73
ENDBRANCH  52  66
BRANCH  53  77
ATOM     77  C   UNL A   1      40.336  29.049  29.246  1.00  0.00     0.023 A 
ATOM     78  C   UNL A   1      39.980  28.937  30.599  1.00  0.00     0.031 A 
ATOM     79  C   UNL A   1      39.311  29.262  28.306  1.00  0.00     0.131 A 
ATOM     80  C   UNL A   1      38.629  28.993  30.972  1.00  0.00     0.055 A 
ATOM     81  C   UNL A   1      37.973  29.363  28.689  1.00  0.00     0.041 A 
ATOM     82  F   UNL A   1      39.600  29.386  27.002  1.00  0.00    -0.206 F 
ATOM     83  C   UNL A   1      37.624  29.216  30.028  1.00  0.00     0.022 A 
BRANCH  80  84
ATOM     84  S   UNL A   1      38.195  28.698  32.708  1.00  0.00     0.124 S 
ATOM     85  O   UNL A   1      39.311  29.325  33.406  1.00  0.00    -0.237 OA
ATOM     86  O   UNL A   1      36.908  29.376  32.817  1.00  0.00    -0.237 OA
ATOM     87  O   UNL A   1      38.139  27.241  32.802  1.00  0.00    -0.744 OA
ENDBRANCH  80  84
ENDBRANCH  53  77
BRANCH  65  88
ATOM     88  C   UNL A   1      45.725  33.456  29.144  1.00  0.00     0.023 A 
ATOM     89  C   UNL A   1      45.513  34.467  28.190  1.00  0.00     0.031 A 
ATOM     90  C   UNL A   1      46.090  33.841  30.444  1.00  0.00     0.131 A 
ATOM     91  C   UNL A   1      45.739  35.809  28.530  1.00  0.00     0.055 A 
ATOM     92  C   UNL A   1      46.253  35.182  30.795  1.00  0.00     0.041 A 
ATOM     93  F   UNL A   1      46.306  32.918  31.395  1.00  0.00    -0.206 F 
ATOM     94  C   UNL A   1      46.095  36.174  29.830  1.00  0.00     0.022 A 
BRANCH  91  95
ATOM     95  S   UNL A   1      45.677  37.061  27.218  1.00  0.00     0.124 S 
ATOM     96  O   UNL A   1      44.253  37.097  26.899  1.00  0.00    -0.237 OA
ATOM     97  O   UNL A   1      46.211  38.241  27.888  1.00  0.00    -0.237 OA
ATOM     98  O   UNL A   1      46.532  36.502  26.171  1.00  0.00    -0.744 OA
ENDBRANCH  91  95
ENDBRANCH  65  88
ENDBRANCH  39  40
ENDBRANCH  31  34
ENDBRANCH  29  30
ENDBRANCH  28  29
ENDBRANCH   1  28
TORSDOF 20
ENDMDL
MODEL 2
REMARK VINA RESULT:     -10.5      2.196      8.448
REMARK SMILES CC[NH2+][C@@]1(C(=O)NCCCCCCNC(=O)c2ccc(-c3c4nc(c(-c5cc(S(=O)(=O)[O-])ccc5F)c5ccc([nH]5)c(-c5cc(S(=O)(=O)[O-])ccc5F)c5nc(c(-c6cc(S(=O)(=O)[O-])ccc6F)c6ccc3[nH]6)C=C5)C=C4)cc2)CCC[C@@H](Sc2ncc(C)cn2)C1
REMARK SMILES IDX 11 1 10 2 9 3 8 4 7 5 5 6 6 7 4 9 80 10 92 11 81 12 83 13
REMARK SMILES IDX 82 14 3 15 2 18 1 19 84 20 85 21 86 22 91 23 87 24 90 25
REMARK SMILES IDX 88 26 89 27 12 28 13 29 14 30 15 31 16 33 17 34 18 35 79 36
REMARK SMILES IDX 19 37 78 38 20 39 21 40 22 41 72 42 23 43 77 44 71 45 73 46
REMARK SMILES IDX 24 47 76 48 70 49 69 50 25 52 57 53 37 54 56 55 38 56 41 57
REMARK SMILES IDX 55 58 74 59 39 60 40 61 54 63 75 64 42 65 26 66 27 67 35 68
REMARK SMILES IDX 28 69 34 70 36 71 33 72 29 73 30 74 31 75 32 76 58 77 59 78
REMARK SMILES IDX 67 79 60 80 66 81 68 82 65 83 61 84 62 85 63 86 64 87 43 88
REMARK SMILES IDX 44 89 52 90 45 91 51 92 53 93 50 94 46 95 47 96 48 97 49 98
REMARK H PARENT 7 8 3 16 3 17 14 32 73 51 41 62
REMARK Flexibility Score: inf
ROOT
ATOM      1  C   UNL A   1      38.481  22.726  25.730  1.00  0.00     0.002 C 
ENDROOT
BRANCH   1   2
ATOM      2  C   UNL A   1      37.436  23.746  26.196  1.00  0.00     0.002 C 
BRANCH   2   3
ATOM      3  C   UNL A   1      36.314  24.031  25.198  1.00  0.00     0.021 C 
BRANCH   3   4
ATOM      4  C   UNL A   1      34.963  24.352  25.846  1.00  0.00     0.116 C 
BRANCH   4   5
ATOM      5  N   UNL A   1      34.536  23.300  26.737  1.00  0.00    -0.351 N 
ATOM      6  C   UNL A   1      33.706  22.237  26.638  1.00  0.00     0.281 C 
ATOM      7  O   UNL A   1      33.542  21.648  27.724  1.00  0.00    -0.268 OA
ATOM      8  H   UNL A   1      34.947  23.372  27.628  1.00  0.00     0.163 HD
BRANCH   6   9
ATOM      9  C   UNL A   1      32.885  21.746  25.350  1.00  0.00     0.176 C 
ATOM     10  C   UNL A   1      33.702  21.671  24.037  1.00  0.00     0.079 C 
ATOM     11  C   UNL A   1      31.600  22.601  25.267  1.00  0.00     0.094 C 
ATOM     12  C   UNL A   1      33.558  22.794  23.001  1.00  0.00     0.008 C 
ATOM     13  C   UNL A   1      31.786  23.886  24.465  1.00  0.00     0.061 C 
ATOM     14  C   UNL A   1      32.256  23.584  23.043  1.00  0.00     0.015 C 
BRANCH   9  15
ATOM     15  N   UNL A   1      32.537  20.333  25.750  1.00  0.00    -0.334 N 
ATOM     16  H   UNL A   1      32.822  20.226  26.724  1.00  0.00     0.347 HD
ATOM     17  H   UNL A   1      31.541  20.272  25.539  1.00  0.00     0.347 HD
BRANCH  15  18
ATOM     18  C   UNL A   1      33.098  19.204  25.025  1.00  0.00     0.257 C 
ATOM     19  C   UNL A   1      32.585  17.904  25.638  1.00  0.00     0.071 C 
ENDBRANCH  15  18
ENDBRANCH   9  15
BRANCH  13  20
ATOM     20  S   UNL A   1      30.308  24.974  24.548  1.00  0.00    -0.083 SA
BRANCH  20  21
ATOM     21  C   UNL A   1      30.997  26.422  25.294  1.00  0.00     0.187 A 
ATOM     22  N   UNL A   1      31.663  27.280  24.504  1.00  0.00    -0.231 NA
ATOM     23  N   UNL A   1      30.844  26.552  26.620  1.00  0.00    -0.231 NA
ATOM     24  C   UNL A   1      32.207  28.347  25.118  1.00  0.00     0.119 A 
ATOM     25  C   UNL A   1      31.405  27.638  27.181  1.00  0.00     0.119 A 
ATOM     26  C   UNL A   1      32.117  28.582  26.473  1.00  0.00    -0.014 A 
ATOM     27  C   UNL A   1      32.725  29.771  27.131  1.00  0.00     0.048 C 
ENDBRANCH  20  21
ENDBRANCH  13  20
ENDBRANCH   6   9
ENDBRANCH   4   5
ENDBRANCH   3   4
ENDBRANCH   2   3
ENDBRANCH   1   2
BRANCH   1  28
ATOM     28  C   UNL A   1      38.133  21.251  25.967  1.00  0.00     0.021 C 
BRANCH  28  29
ATOM     29  C   UNL A   1      38.873  20.246  25.084  1.00  0.00     0.116 C 
BRANCH  29  30
ATOM     30  N   UNL A   1      39.772  19.403  25.850  1.00  0.00    -0.352 N 
ATOM     31  C   UNL A   1      40.935  19.697  26.511  1.00  0.00     0.251 C 
ATOM     32  H   UNL A   1      39.500  18.458  25.903  1.00  0.00     0.163 HD
ATOM     33  O   UNL A   1      41.641  18.767  26.901  1.00  0.00    -0.269 OA
BRANCH  31  34
ATOM     34  C   UNL A   1      41.358  21.095  26.753  1.00  0.00     0.039 A 
ATOM     35  C   UNL A   1      41.948  21.799  25.699  1.00  0.00     0.014 A 
ATOM     36  C   UNL A   1      41.259  21.693  28.014  1.00  0.00     0.014 A 
ATOM     37  C   UNL A   1      42.404  23.105  25.897  1.00  0.00     0.010 A 
ATOM     38  C   UNL A   1      41.657  23.020  28.195  1.00  0.00     0.010 A 
ATOM     39  C   UNL A   1      42.245  23.734  27.142  1.00  0.00    -0.014 A 
BRANCH  39  40
ATOM     40  C   UNL A   1      42.704  25.134  27.335  1.00  0.00     0.031 A 
ATOM     41  C   UNL A   1      41.803  26.154  27.980  1.00  0.00     0.074 A 
ATOM     42  C   UNL A   1      43.933  25.489  26.913  1.00  0.00     0.049 A 
ATOM     43  N   UNL A   1      42.043  27.410  28.263  1.00  0.00    -0.248 NA
ATOM     44  C   UNL A   1      40.446  25.709  28.329  1.00  0.00     0.031 C 
ATOM     45  C   UNL A   1      44.875  24.603  26.226  1.00  0.00     0.029 A 
ATOM     46  N   UNL A   1      44.606  26.681  27.004  1.00  0.00    -0.354 N 
ATOM     47  C   UNL A   1      40.869  27.907  28.820  1.00  0.00     0.074 A 
ATOM     48  C   UNL A   1      39.900  26.831  28.776  1.00  0.00     0.031 C 
ATOM     49  C   UNL A   1      46.014  25.273  25.987  1.00  0.00     0.029 A 
ATOM     50  C   UNL A   1      45.876  26.640  26.478  1.00  0.00     0.049 A 
ATOM     51  H   UNL A   1      44.216  27.490  27.408  1.00  0.00     0.167 HD
ATOM     52  C   UNL A   1      40.628  29.138  29.339  1.00  0.00     0.034 A 
ATOM     53  C   UNL A   1      46.824  27.594  26.406  1.00  0.00     0.034 A 
ATOM     54  C   UNL A   1      41.608  30.198  29.380  1.00  0.00     0.049 A 
ATOM     55  C   UNL A   1      46.540  28.947  27.003  1.00  0.00     0.074 A 
ATOM     56  C   UNL A   1      41.491  31.464  29.928  1.00  0.00     0.029 A 
ATOM     57  N   UNL A   1      42.887  30.119  28.842  1.00  0.00    -0.354 N 
ATOM     58  N   UNL A   1      45.445  29.382  27.584  1.00  0.00    -0.248 NA
ATOM     59  C   UNL A   1      47.628  29.930  26.951  1.00  0.00     0.031 C 
ATOM     60  C   UNL A   1      42.674  32.167  29.671  1.00  0.00     0.029 A 
ATOM     61  C   UNL A   1      43.558  31.321  29.022  1.00  0.00     0.049 A 
ATOM     62  H   UNL A   1      43.264  29.325  28.398  1.00  0.00     0.167 HD
ATOM     63  C   UNL A   1      45.722  30.685  27.985  1.00  0.00     0.074 A 
ATOM     64  C   UNL A   1      47.095  30.953  27.603  1.00  0.00     0.031 C 
ATOM     65  C   UNL A   1      44.917  31.582  28.611  1.00  0.00     0.034 A 
BRANCH  52  66
ATOM     66  C   UNL A   1      39.241  29.402  29.878  1.00  0.00     0.023 A 
ATOM     67  C   UNL A   1      38.320  30.206  29.184  1.00  0.00     0.031 A 
ATOM     68  C   UNL A   1      38.843  28.869  31.117  1.00  0.00     0.131 A 
ATOM     69  C   UNL A   1      37.080  30.518  29.767  1.00  0.00     0.055 A 
ATOM     70  C   UNL A   1      37.579  29.118  31.655  1.00  0.00     0.041 A 
ATOM     71  F   UNL A   1      39.685  28.109  31.836  1.00  0.00    -0.206 F 
ATOM     72  C   UNL A   1      36.694  29.960  30.988  1.00  0.00     0.022 A 
BRANCH  69  73
ATOM     73  S   UNL A   1      36.040  31.774  28.972  1.00  0.00     0.124 S 
ATOM     74  O   UNL A   1      34.828  31.710  29.785  1.00  0.00    -0.237 OA
ATOM     75  O   UNL A   1      36.842  32.984  29.113  1.00  0.00    -0.237 OA
ATOM     76  O   UNL A   1      35.891  31.280  27.605  1.00  0.00    -0.744 OA
ENDBRANCH  69  73
ENDBRANCH  52  66
BRANCH  53  77
ATOM     77  C   UNL A   1      48.133  27.305  25.757  1.00  0.00     0.023 A 
ATOM     78  C   UNL A   1      48.320  27.513  24.381  1.00  0.00     0.031 A 
ATOM     79  C   UNL A   1      49.209  26.788  26.501  1.00  0.00     0.131 A 
ATOM     80  C   UNL A   1      49.539  27.163  23.781  1.00  0.00     0.055 A 
ATOM     81  C   UNL A   1      50.435  26.485  25.907  1.00  0.00     0.041 A 
ATOM     82  F   UNL A   1      49.084  26.581  27.821  1.00  0.00    -0.206 F 
ATOM     83  C   UNL A   1      50.602  26.661  24.537  1.00  0.00     0.022 A 
BRANCH  80  84
ATOM     84  S   UNL A   1      49.694  27.308  21.980  1.00  0.00     0.124 S 
ATOM     85  O   UNL A   1      51.119  27.067  21.783  1.00  0.00    -0.237 OA
ATOM     86  O   UNL A   1      48.795  26.257  21.514  1.00  0.00    -0.237 OA
ATOM     87  O   UNL A   1      49.248  28.672  21.709  1.00  0.00    -0.744 OA
ENDBRANCH  80  84
ENDBRANCH  53  77
BRANCH  65  88
ATOM     88  C   UNL A   1      45.525  32.925  28.931  1.00  0.00     0.023 A 
ATOM     89  C   UNL A   1      45.420  34.010  28.042  1.00  0.00     0.031 A 
ATOM     90  C   UNL A   1      46.258  33.110  30.115  1.00  0.00     0.131 A 
ATOM     91  C   UNL A   1      46.098  35.207  28.315  1.00  0.00     0.055 A 
ATOM     92  C   UNL A   1      46.880  34.324  30.412  1.00  0.00     0.041 A 
ATOM     93  F   UNL A   1      46.392  32.109  30.999  1.00  0.00    -0.206 F 
ATOM     94  C   UNL A   1      46.817  35.375  29.501  1.00  0.00     0.022 A 
BRANCH  91  95
ATOM     95  S   UNL A   1      46.127  36.500  27.042  1.00  0.00     0.124 S 
ATOM     96  O   UNL A   1      44.726  36.906  26.990  1.00  0.00    -0.237 OA
ATOM     97  O   UNL A   1      47.053  37.474  27.609  1.00  0.00    -0.237 OA
ATOM     98  O   UNL A   1      46.613  35.799  25.854  1.00  0.00    -0.744 OA
ENDBRANCH  91  95
ENDBRANCH  65  88
ENDBRANCH  39  40
ENDBRANCH  31  34
ENDBRANCH  29  30
ENDBRANCH  28  29
ENDBRANCH   1  28
TORSDOF 20
ENDMDL
MODEL 3
REMARK VINA RESULT:     -10.3      5.764     10.650
REMARK SMILES CC[NH2+][C@@]1(C(=O)NCCCCCCNC(=O)c2ccc(-c3c4nc(c(-c5cc(S(=O)(=O)[O-])ccc5F)c5ccc([nH]5)c(-c5cc(S(=O)(=O)[O-])ccc5F)c5nc(c(-c6cc(S(=O)(=O)[O-])ccc6F)c6ccc3[nH]6)C=C5)C=C4)cc2)CCC[C@@H](Sc2ncc(C)cn2)C1
REMARK SMILES IDX 11 1 10 2 9 3 8 4 7 5 5 6 6 7 4 9 80 10 92 11 81 12 83 13
REMARK SMILES IDX 82 14 3 15 2 18 1 19 84 20 85 21 86 22 91 23 87 24 90 25
REMARK SMILES IDX 88 26 89 27 12 28 13 29 14 30 15 31 16 33 17 34 18 35 79 36
REMARK SMILES IDX 19 37 78 38 20 39 21 40 22 41 72 42 23 43 77 44 71 45 73 46
REMARK SMILES IDX 24 47 76 48 70 49 69 50 25 52 57 53 37 54 56 55 38 56 41 57
REMARK SMILES IDX 55 58 74 59 39 60 40 61 54 63 75 64 42 65 26 66 27 67 35 68
REMARK SMILES IDX 28 69 34 70 36 71 33 72 29 73 30 74 31 75 32 76 58 77 59 78
REMARK SMILES IDX 67 79 60 80 66 81 68 82 65 83 61 84 62 85 63 86 64 87 43 88
REMARK SMILES IDX 44 89 52 90 45 91 51 92 53 93 50 94 46 95 47 96 48 97 49 98
REMARK H PARENT 7 8 3 16 3 17 14 32 73 51 41 62
REMARK Flexibility Score: inf
ROOT
ATOM      1  C   UNL A   1      33.732  29.136  26.851  1.00  0.00     0.002 C 
ENDROOT
BRANCH   1   2
ATOM      2  C   UNL A   1      32.209  29.037  26.706  1.00  0.00     0.002 C 
BRANCH   2   3
ATOM      3  C   UNL A   1      31.586  27.749  27.246  1.00  0.00     0.021 C 
BRANCH   3   4
ATOM      4  C   UNL A   1      30.809  26.941  26.201  1.00  0.00     0.116 C 
BRANCH   4   5
ATOM      5  N   UNL A   1      30.467  25.627  26.691  1.00  0.00    -0.351 N 
ATOM      6  C   UNL A   1      30.957  24.380  26.514  1.00  0.00     0.281 C 
ATOM      7  O   UNL A   1      30.257  23.502  27.056  1.00  0.00    -0.268 OA
ATOM      8  H   UNL A   1      29.693  25.643  27.298  1.00  0.00     0.163 HD
BRANCH   6   9
ATOM      9  C   UNL A   1      32.231  23.937  25.645  1.00  0.00     0.176 C 
ATOM     10  C   UNL A   1      33.591  24.481  26.144  1.00  0.00     0.079 C 
ATOM     11  C   UNL A   1      31.910  24.247  24.165  1.00  0.00     0.094 C 
ATOM     12  C   UNL A   1      34.226  25.680  25.427  1.00  0.00     0.008 C 
ATOM     13  C   UNL A   1      32.313  25.659  23.749  1.00  0.00     0.061 C 
ATOM     14  C   UNL A   1      33.805  25.897  23.978  1.00  0.00     0.015 C 
BRANCH   9  15
ATOM     15  N   UNL A   1      32.229  22.444  25.869  1.00  0.00    -0.334 N 
ATOM     16  H   UNL A   1      31.518  22.255  26.576  1.00  0.00     0.347 HD
ATOM     17  H   UNL A   1      32.076  22.071  24.932  1.00  0.00     0.347 HD
BRANCH  15  18
ATOM     18  C   UNL A   1      33.440  21.764  26.301  1.00  0.00     0.257 C 
ATOM     19  C   UNL A   1      33.448  20.344  25.743  1.00  0.00     0.071 C 
ENDBRANCH  15  18
ENDBRANCH   9  15
BRANCH  13  20
ATOM     20  S   UNL A   1      31.744  26.068  22.050  1.00  0.00    -0.083 SA
BRANCH  20  21
ATOM     21  C   UNL A   1      30.574  27.350  22.386  1.00  0.00     0.187 A 
ATOM     22  N   UNL A   1      30.857  28.589  21.954  1.00  0.00    -0.231 NA
ATOM     23  N   UNL A   1      29.487  27.007  23.092  1.00  0.00    -0.231 NA
ATOM     24  C   UNL A   1      29.960  29.543  22.267  1.00  0.00     0.119 A 
ATOM     25  C   UNL A   1      28.623  27.999  23.374  1.00  0.00     0.119 A 
ATOM     26  C   UNL A   1      28.811  29.309  22.990  1.00  0.00    -0.014 A 
ATOM     27  C   UNL A   1      27.832  30.380  23.323  1.00  0.00     0.048 C 
ENDBRANCH  20  21
ENDBRANCH  13  20
ENDBRANCH   6   9
ENDBRANCH   4   5
ENDBRANCH   3   4
ENDBRANCH   2   3
ENDBRANCH   1   2
BRANCH   1  28
ATOM     28  C   UNL A   1      34.241  30.058  27.966  1.00  0.00     0.021 C 
BRANCH  28  29
ATOM     29  C   UNL A   1      34.446  31.521  27.574  1.00  0.00     0.116 C 
BRANCH  29  30
ATOM     30  N   UNL A   1      34.209  32.424  28.686  1.00  0.00    -0.352 N 
ATOM     31  C   UNL A   1      34.874  32.579  29.873  1.00  0.00     0.251 C 
ATOM     32  H   UNL A   1      33.439  33.026  28.566  1.00  0.00     0.163 HD
ATOM     33  O   UNL A   1      34.348  33.258  30.757  1.00  0.00    -0.269 OA
BRANCH  31  34
ATOM     34  C   UNL A   1      36.191  31.949  30.115  1.00  0.00     0.039 A 
ATOM     35  C   UNL A   1      36.251  30.857  30.986  1.00  0.00     0.014 A 
ATOM     36  C   UNL A   1      37.371  32.460  29.565  1.00  0.00     0.014 A 
ATOM     37  C   UNL A   1      37.479  30.260  31.278  1.00  0.00     0.010 A 
ATOM     38  C   UNL A   1      38.591  31.825  29.808  1.00  0.00     0.010 A 
ATOM     39  C   UNL A   1      38.660  30.727  30.677  1.00  0.00    -0.014 A 
BRANCH  39  40
ATOM     40  C   UNL A   1      39.959  30.067  30.968  1.00  0.00     0.031 A 
ATOM     41  C   UNL A   1      40.799  30.510  32.136  1.00  0.00     0.074 A 
ATOM     42  C   UNL A   1      40.388  29.073  30.166  1.00  0.00     0.049 A 
ATOM     43  N   UNL A   1      41.940  30.031  32.565  1.00  0.00    -0.248 NA
ATOM     44  C   UNL A   1      40.303  31.660  32.907  1.00  0.00     0.031 C 
ATOM     45  C   UNL A   1      39.687  28.593  28.972  1.00  0.00     0.029 A 
ATOM     46  N   UNL A   1      41.507  28.284  30.232  1.00  0.00    -0.354 N 
ATOM     47  C   UNL A   1      42.300  30.820  33.653  1.00  0.00     0.074 A 
ATOM     48  C   UNL A   1      41.285  31.847  33.777  1.00  0.00     0.031 C 
ATOM     49  C   UNL A   1      40.377  27.572  28.439  1.00  0.00     0.029 A 
ATOM     50  C   UNL A   1      41.579  27.341  29.233  1.00  0.00     0.049 A 
ATOM     51  H   UNL A   1      42.196  28.383  30.929  1.00  0.00     0.167 HD
ATOM     52  C   UNL A   1      43.365  30.688  34.484  1.00  0.00     0.034 A 
ATOM     53  C   UNL A   1      42.504  26.394  28.989  1.00  0.00     0.034 A 
ATOM     54  C   UNL A   1      44.365  29.654  34.350  1.00  0.00     0.049 A 
ATOM     55  C   UNL A   1      43.670  26.255  29.934  1.00  0.00     0.074 A 
ATOM     56  C   UNL A   1      45.455  29.394  35.163  1.00  0.00     0.029 A 
ATOM     57  N   UNL A   1      44.402  28.712  33.329  1.00  0.00    -0.354 N 
ATOM     58  N   UNL A   1      43.962  26.970  30.996  1.00  0.00    -0.248 NA
ATOM     59  C   UNL A   1      44.616  25.169  29.656  1.00  0.00     0.031 C 
ATOM     60  C   UNL A   1      46.180  28.335  34.603  1.00  0.00     0.029 A 
ATOM     61  C   UNL A   1      45.509  27.888  33.476  1.00  0.00     0.049 A 
ATOM     62  H   UNL A   1      43.739  28.639  32.605  1.00  0.00     0.167 HD
ATOM     63  C   UNL A   1      45.119  26.404  31.524  1.00  0.00     0.074 A 
ATOM     64  C   UNL A   1      45.450  25.275  30.679  1.00  0.00     0.031 C 
ATOM     65  C   UNL A   1      45.843  26.783  32.609  1.00  0.00     0.034 A 
BRANCH  52  66
ATOM     66  C   UNL A   1      43.509  31.705  35.593  1.00  0.00     0.023 A 
ATOM     67  C   UNL A   1      42.740  31.628  36.769  1.00  0.00     0.031 A 
ATOM     68  C   UNL A   1      44.402  32.782  35.463  1.00  0.00     0.131 A 
ATOM     69  C   UNL A   1      42.822  32.649  37.729  1.00  0.00     0.055 A 
ATOM     70  C   UNL A   1      44.537  33.753  36.458  1.00  0.00     0.041 A 
ATOM     71  F   UNL A   1      45.150  32.921  34.356  1.00  0.00    -0.206 F 
ATOM     72  C   UNL A   1      43.733  33.699  37.593  1.00  0.00     0.022 A 
BRANCH  69  73
ATOM     73  S   UNL A   1      41.621  32.658  39.090  1.00  0.00     0.124 S 
ATOM     74  O   UNL A   1      41.672  34.053  39.517  1.00  0.00    -0.237 OA
ATOM     75  O   UNL A   1      40.392  32.235  38.429  1.00  0.00    -0.237 OA
ATOM     76  O   UNL A   1      42.178  31.701  40.043  1.00  0.00    -0.744 OA
ENDBRANCH  69  73
ENDBRANCH  52  66
BRANCH  53  77
ATOM     77  C   UNL A   1      42.367  25.494  27.810  1.00  0.00     0.023 A 
ATOM     78  C   UNL A   1      41.566  24.342  27.868  1.00  0.00     0.031 A 
ATOM     79  C   UNL A   1      43.061  25.759  26.616  1.00  0.00     0.131 A 
ATOM     80  C   UNL A   1      41.513  23.472  26.768  1.00  0.00     0.055 A 
ATOM     81  C   UNL A   1      42.967  24.915  25.508  1.00  0.00     0.041 A 
ATOM     82  F   UNL A   1      43.831  26.852  26.506  1.00  0.00    -0.206 F 
ATOM     83  C   UNL A   1      42.200  23.757  25.585  1.00  0.00     0.022 A 
BRANCH  80  84
ATOM     84  S   UNL A   1      40.587  21.922  26.931  1.00  0.00     0.124 S 
ATOM     85  O   UNL A   1      39.237  22.341  26.572  1.00  0.00    -0.237 OA
ATOM     86  O   UNL A   1      41.268  21.061  25.970  1.00  0.00    -0.237 OA
ATOM     87  O   UNL A   1      40.776  21.558  28.333  1.00  0.00    -0.744 OA
ENDBRANCH  80  84
ENDBRANCH  53  77
BRANCH  65  88
ATOM     88  C   UNL A   1      47.052  25.944  32.939  1.00  0.00     0.023 A 
ATOM     89  C   UNL A   1      46.973  24.860  33.832  1.00  0.00     0.031 A 
ATOM     90  C   UNL A   1      48.308  26.259  32.392  1.00  0.00     0.131 A 
ATOM     91  C   UNL A   1      48.139  24.177  34.208  1.00  0.00     0.055 A 
ATOM     92  C   UNL A   1      49.455  25.536  32.722  1.00  0.00     0.041 A 
ATOM     93  F   UNL A   1      48.442  27.284  31.536  1.00  0.00    -0.206 F 
ATOM     94  C   UNL A   1      49.377  24.500  33.649  1.00  0.00     0.022 A 
BRANCH  91  95
ATOM     95  S   UNL A   1      48.032  22.939  35.530  1.00  0.00     0.124 S 
ATOM     96  O   UNL A   1      48.559  21.747  34.874  1.00  0.00    -0.237 OA
ATOM     97  O   UNL A   1      48.874  23.519  36.570  1.00  0.00    -0.237 OA
ATOM     98  O   UNL A   1      46.603  22.893  35.842  1.00  0.00    -0.744 OA
ENDBRANCH  91  95
ENDBRANCH  65  88
ENDBRANCH  39  40
ENDBRANCH  31  34
ENDBRANCH  29  30
ENDBRANCH  28  29
ENDBRANCH   1  28
TORSDOF 20
ENDMDL
