MODEL 1
REMARK VINA RESULT:     -12.9      0.000      0.000
REMARK SMILES CC(C)CCn1nc(C(=O)NCCCCCCNC(=O)c2ccc(-c3c4nc(c(-c5cc(S(=O)(=O)[O-])ccc5F)c5ccc([nH]5)c(-c5cc(S(=O)(=O)[O-])ccc5F)c5nc(c(-c6cc(S(=O)(=O)[O-])ccc6F)c6ccc3[nH]6)C=C5)C=C4)cc2)c2c1CCN(C(=O)[C@@H]1CCc3nn(C)c(=O)n3C1)C2
REMARK SMILES IDX 14 1 13 2 12 3 11 4 9 5 10 6 8 8 6 9 7 10 85 11 84 12 86 13
REMARK SMILES IDX 102 14 87 15 88 16 5 17 4 18 2 19 1 20 3 21 89 22 90 23
REMARK SMILES IDX 91 24 92 25 101 26 93 27 100 28 94 29 98 30 95 31 96 32
REMARK SMILES IDX 99 33 97 34 15 35 16 36 17 37 18 38 19 39 20 41 21 42 22 43
REMARK SMILES IDX 83 44 23 45 82 46 24 47 25 48 26 49 76 50 27 51 81 52 75 53
REMARK SMILES IDX 77 54 28 55 80 56 74 57 73 58 29 60 61 61 41 62 60 63 42 64
REMARK SMILES IDX 45 65 59 66 78 67 43 68 44 69 58 71 79 72 46 73 30 74 31 75
REMARK SMILES IDX 39 76 32 77 38 78 40 79 37 80 33 81 34 82 35 83 36 84 62 85
REMARK SMILES IDX 63 86 71 87 64 88 70 89 72 90 69 91 65 92 66 93 67 94 68 95
REMARK SMILES IDX 47 96 48 97 56 98 49 99 55 100 57 101 54 102 50 103 51 104
REMARK SMILES IDX 52 105 53 106
REMARK H PARENT 11 7 18 40 77 59 45 70
REMARK Flexibility Score: inf
ROOT
ATOM      1  C   UNL A   1      34.941  22.507  25.901  1.00  0.00     0.002 C 
ENDROOT
BRANCH   1   2
ATOM      2  C   UNL A   1      34.467  23.089  27.231  1.00  0.00     0.021 C 
BRANCH   2   3
ATOM      3  C   UNL A   1      33.506  22.204  28.055  1.00  0.00     0.116 C 
BRANCH   3   4
ATOM      4  N   UNL A   1      32.109  22.587  27.875  1.00  0.00    -0.351 N 
ATOM      5  C   UNL A   1      31.184  22.487  26.852  1.00  0.00     0.272 C 
ATOM      6  O   UNL A   1      30.013  22.681  27.201  1.00  0.00    -0.267 OA
ATOM      7  H   UNL A   1      31.734  23.021  28.675  1.00  0.00     0.163 HD
BRANCH   5   8
ATOM      8  C   UNL A   1      31.520  22.124  25.451  1.00  0.00     0.155 A 
ATOM      9  N   UNL A   1      32.121  20.830  23.835  1.00  0.00    -0.268 N 
ATOM     10  N   UNL A   1      31.823  20.831  25.148  1.00  0.00    -0.167 NA
ATOM     11  C   UNL A   1      32.217  22.088  23.353  1.00  0.00     0.046 A 
ATOM     12  C   UNL A   1      31.566  22.900  24.257  1.00  0.00     0.026 A 
ATOM     13  C   UNL A   1      32.901  22.583  22.140  1.00  0.00     0.078 C 
ATOM     14  C   UNL A   1      31.238  24.316  23.949  1.00  0.00     0.159 C 
ATOM     15  C   UNL A   1      33.097  24.092  22.387  1.00  0.00     0.126 C 
ATOM     16  N   UNL A   1      31.827  24.762  22.678  1.00  0.00    -0.338 N 
BRANCH   9  17
ATOM     17  C   UNL A   1      32.312  19.590  23.105  1.00  0.00     0.145 C 
BRANCH  17  18
ATOM     18  C   UNL A   1      32.257  18.329  23.980  1.00  0.00     0.027 C 
BRANCH  18  19
ATOM     19  C   UNL A   1      33.589  17.565  24.154  1.00  0.00    -0.016 C 
ATOM     20  C   UNL A   1      34.018  16.823  22.887  1.00  0.00     0.007 C 
ATOM     21  C   UNL A   1      34.696  18.543  24.562  1.00  0.00     0.007 C 
ENDBRANCH  18  19
ENDBRANCH  17  18
ENDBRANCH   9  17
BRANCH  16  22
ATOM     22  C   UNL A   1      31.460  26.032  22.257  1.00  0.00     0.227 C 
ATOM     23  O   UNL A   1      32.104  26.571  21.345  1.00  0.00    -0.274 OA
BRANCH  22  24
ATOM     24  C   UNL A   1      30.326  26.861  22.901  1.00  0.00     0.099 C 
ATOM     25  C   UNL A   1      30.191  28.302  22.401  1.00  0.00     0.023 C 
ATOM     26  C   UNL A   1      30.168  26.786  24.413  1.00  0.00     0.142 C 
ATOM     27  C   UNL A   1      31.074  29.313  23.122  1.00  0.00     0.078 C 
ATOM     28  N   UNL A   1      30.916  27.816  25.097  1.00  0.00    -0.278 N 
ATOM     29  C   UNL A   1      31.440  28.919  24.524  1.00  0.00     0.133 A 
ATOM     30  C   UNL A   1      31.617  27.606  26.261  1.00  0.00     0.345 A 
ATOM     31  N   UNL A   1      32.410  29.471  25.199  1.00  0.00    -0.155 NA
ATOM     32  N   UNL A   1      32.564  28.645  26.299  1.00  0.00    -0.216 N 
ATOM     33  O   UNL A   1      31.580  26.619  26.979  1.00  0.00    -0.246 OA
ATOM     34  C   UNL A   1      33.836  28.513  26.967  1.00  0.00     0.179 C 
ENDBRANCH  22  24
ENDBRANCH  16  22
ENDBRANCH   5   8
ENDBRANCH   3   4
ENDBRANCH   2   3
ENDBRANCH   1   2
BRANCH   1  35
ATOM     35  C   UNL A   1      35.869  23.431  25.093  1.00  0.00     0.002 C 
BRANCH  35  36
ATOM     36  C   UNL A   1      37.360  23.048  25.006  1.00  0.00     0.021 C 
BRANCH  36  37
ATOM     37  C   UNL A   1      38.229  23.672  26.087  1.00  0.00     0.116 C 
BRANCH  37  38
ATOM     38  N   UNL A   1      39.123  22.705  26.730  1.00  0.00    -0.352 N 
ATOM     39  C   UNL A   1      40.275  22.913  27.474  1.00  0.00     0.251 C 
ATOM     40  H   UNL A   1      38.865  21.760  26.617  1.00  0.00     0.163 HD
ATOM     41  O   UNL A   1      41.056  21.996  27.655  1.00  0.00    -0.269 OA
BRANCH  39  42
ATOM     42  C   UNL A   1      40.545  24.257  28.031  1.00  0.00     0.039 A 
ATOM     43  C   UNL A   1      41.833  24.671  28.386  1.00  0.00     0.014 A 
ATOM     44  C   UNL A   1      39.466  25.111  28.223  1.00  0.00     0.014 A 
ATOM     45  C   UNL A   1      42.008  25.961  28.890  1.00  0.00     0.010 A 
ATOM     46  C   UNL A   1      39.664  26.434  28.484  1.00  0.00     0.010 A 
ATOM     47  C   UNL A   1      40.909  26.831  28.930  1.00  0.00    -0.014 A 
BRANCH  47  48
ATOM     48  C   UNL A   1      41.004  28.201  29.398  1.00  0.00     0.031 A 
ATOM     49  C   UNL A   1      41.984  29.028  28.668  1.00  0.00     0.074 A 
ATOM     50  C   UNL A   1      40.099  28.746  30.239  1.00  0.00     0.049 A 
ATOM     51  N   UNL A   1      43.142  29.403  29.092  1.00  0.00    -0.248 NA
ATOM     52  C   UNL A   1      41.746  29.327  27.249  1.00  0.00     0.031 C 
ATOM     53  C   UNL A   1      38.876  28.149  30.789  1.00  0.00     0.029 A 
ATOM     54  N   UNL A   1      40.030  30.024  30.685  1.00  0.00    -0.354 N 
ATOM     55  C   UNL A   1      43.679  30.198  28.091  1.00  0.00     0.074 A 
ATOM     56  C   UNL A   1      42.895  29.920  26.916  1.00  0.00     0.031 C 
ATOM     57  C   UNL A   1      38.085  29.123  31.293  1.00  0.00     0.029 A 
ATOM     58  C   UNL A   1      38.809  30.382  31.247  1.00  0.00     0.049 A 
ATOM     59  H   UNL A   1      40.786  30.652  30.616  1.00  0.00     0.167 HD
ATOM     60  C   UNL A   1      44.568  31.185  28.390  1.00  0.00     0.034 A 
ATOM     61  C   UNL A   1      38.419  31.634  31.608  1.00  0.00     0.034 A 
ATOM     62  C   UNL A   1      44.990  31.084  29.774  1.00  0.00     0.049 A 
ATOM     63  C   UNL A   1      39.672  32.405  31.838  1.00  0.00     0.074 A 
ATOM     64  C   UNL A   1      45.611  30.101  30.524  1.00  0.00     0.029 A 
ATOM     65  N   UNL A   1      44.393  31.925  30.691  1.00  0.00    -0.354 N 
ATOM     66  N   UNL A   1      40.527  32.107  32.780  1.00  0.00    -0.248 NA
ATOM     67  C   UNL A   1      40.235  33.153  30.720  1.00  0.00     0.031 C 
ATOM     68  C   UNL A   1      44.923  30.111  31.774  1.00  0.00     0.029 A 
ATOM     69  C   UNL A   1      43.996  31.157  31.761  1.00  0.00     0.049 A 
ATOM     70  H   UNL A   1      44.272  32.897  30.597  1.00  0.00     0.167 HD
ATOM     71  C   UNL A   1      41.777  32.212  32.185  1.00  0.00     0.074 A 
ATOM     72  C   UNL A   1      41.540  32.962  30.951  1.00  0.00     0.031 C 
ATOM     73  C   UNL A   1      42.829  31.433  32.584  1.00  0.00     0.034 A 
BRANCH  60  74
ATOM     74  C   UNL A   1      44.811  32.441  27.589  1.00  0.00     0.023 A 
ATOM     75  C   UNL A   1      44.163  33.610  28.037  1.00  0.00     0.031 A 
ATOM     76  C   UNL A   1      45.394  32.519  26.306  1.00  0.00     0.131 A 
ATOM     77  C   UNL A   1      44.010  34.723  27.197  1.00  0.00     0.055 A 
ATOM     78  C   UNL A   1      45.301  33.659  25.500  1.00  0.00     0.041 A 
ATOM     79  F   UNL A   1      46.002  31.484  25.719  1.00  0.00    -0.206 F 
ATOM     80  C   UNL A   1      44.575  34.756  25.927  1.00  0.00     0.022 A 
BRANCH  77  81
ATOM     81  S   UNL A   1      42.896  36.045  27.732  1.00  0.00     0.124 S 
ATOM     82  O   UNL A   1      43.150  36.079  29.169  1.00  0.00    -0.237 OA
ATOM     83  O   UNL A   1      43.388  37.181  26.962  1.00  0.00    -0.237 OA
ATOM     84  O   UNL A   1      41.577  35.551  27.344  1.00  0.00    -0.744 OA
ENDBRANCH  77  81
ENDBRANCH  60  74
BRANCH  61  85
ATOM     85  C   UNL A   1      37.067  32.244  31.432  1.00  0.00     0.023 A 
ATOM     86  C   UNL A   1      36.492  32.486  30.165  1.00  0.00     0.031 A 
ATOM     87  C   UNL A   1      36.207  32.385  32.546  1.00  0.00     0.131 A 
ATOM     88  C   UNL A   1      35.126  32.845  30.054  1.00  0.00     0.055 A 
ATOM     89  C   UNL A   1      34.861  32.744  32.431  1.00  0.00     0.041 A 
ATOM     90  F   UNL A   1      36.618  32.089  33.790  1.00  0.00    -0.206 F 
ATOM     91  C   UNL A   1      34.311  32.965  31.182  1.00  0.00     0.022 A 
BRANCH  88  92
ATOM     92  S   UNL A   1      34.345  33.056  28.418  1.00  0.00     0.124 S 
ATOM     93  O   UNL A   1      35.452  33.549  27.608  1.00  0.00    -0.237 OA
ATOM     94  O   UNL A   1      33.869  31.711  28.119  1.00  0.00    -0.237 OA
ATOM     95  O   UNL A   1      33.285  34.034  28.672  1.00  0.00    -0.744 OA
ENDBRANCH  88  92
ENDBRANCH  61  85
BRANCH  73  96
ATOM     96  C   UNL A   1      42.696  30.626  33.866  1.00  0.00     0.023 A 
ATOM     97  C   UNL A   1      42.227  29.293  33.941  1.00  0.00     0.031 A 
ATOM     98  C   UNL A   1      43.213  31.197  35.043  1.00  0.00     0.131 A 
ATOM     99  C   UNL A   1      42.279  28.592  35.165  1.00  0.00     0.055 A 
ATOM    100  C   UNL A   1      43.286  30.492  36.244  1.00  0.00     0.041 A 
ATOM    101  F   UNL A   1      43.698  32.449  35.036  1.00  0.00    -0.206 F 
ATOM    102  C   UNL A   1      42.814  29.187  36.311  1.00  0.00     0.022 A 
BRANCH  99 103
ATOM    103  S   UNL A   1      41.631  26.892  35.294  1.00  0.00     0.124 S 
ATOM    104  O   UNL A   1      40.592  26.843  34.272  1.00  0.00    -0.237 OA
ATOM    105  O   UNL A   1      42.818  26.080  35.042  1.00  0.00    -0.237 OA
ATOM    106  O   UNL A   1      41.132  26.824  36.670  1.00  0.00    -0.744 OA
ENDBRANCH  99 103
ENDBRANCH  73  96
ENDBRANCH  47  48
ENDBRANCH  39  42
ENDBRANCH  37  38
ENDBRANCH  36  37
ENDBRANCH  35  36
ENDBRANCH   1  35
TORSDOF 21
ENDMDL
MODEL 2
REMARK VINA RESULT:     -12.8      2.800      8.332
REMARK SMILES CC(C)CCn1nc(C(=O)NCCCCCCNC(=O)c2ccc(-c3c4nc(c(-c5cc(S(=O)(=O)[O-])ccc5F)c5ccc([nH]5)c(-c5cc(S(=O)(=O)[O-])ccc5F)c5nc(c(-c6cc(S(=O)(=O)[O-])ccc6F)c6ccc3[nH]6)C=C5)C=C4)cc2)c2c1CCN(C(=O)[C@@H]1CCc3nn(C)c(=O)n3C1)C2
REMARK SMILES IDX 14 1 13 2 12 3 11 4 9 5 10 6 8 8 6 9 7 10 85 11 84 12 86 13
REMARK SMILES IDX 102 14 87 15 88 16 5 17 4 18 2 19 1 20 3 21 89 22 90 23
REMARK SMILES IDX 91 24 92 25 101 26 93 27 100 28 94 29 98 30 95 31 96 32
REMARK SMILES IDX 99 33 97 34 15 35 16 36 17 37 18 38 19 39 20 41 21 42 22 43
REMARK SMILES IDX 83 44 23 45 82 46 24 47 25 48 26 49 76 50 27 51 81 52 75 53
REMARK SMILES IDX 77 54 28 55 80 56 74 57 73 58 29 60 61 61 41 62 60 63 42 64
REMARK SMILES IDX 45 65 59 66 78 67 43 68 44 69 58 71 79 72 46 73 30 74 31 75
REMARK SMILES IDX 39 76 32 77 38 78 40 79 37 80 33 81 34 82 35 83 36 84 62 85
REMARK SMILES IDX 63 86 71 87 64 88 70 89 72 90 69 91 65 92 66 93 67 94 68 95
REMARK SMILES IDX 47 96 48 97 56 98 49 99 55 100 57 101 54 102 50 103 51 104
REMARK SMILES IDX 52 105 53 106
REMARK H PARENT 11 7 18 40 77 59 45 70
REMARK Flexibility Score: inf
ROOT
ATOM      1  C   UNL A   1      35.023  32.946  27.812  1.00  0.00     0.002 C 
ENDROOT
BRANCH   1   2
ATOM      2  C   UNL A   1      34.157  31.770  28.258  1.00  0.00     0.021 C 
BRANCH   2   3
ATOM      3  C   UNL A   1      33.549  30.908  27.131  1.00  0.00     0.116 C 
BRANCH   3   4
ATOM      4  N   UNL A   1      32.567  29.951  27.635  1.00  0.00    -0.351 N 
ATOM      5  C   UNL A   1      31.842  28.906  27.092  1.00  0.00     0.272 C 
ATOM      6  O   UNL A   1      31.323  28.157  27.928  1.00  0.00    -0.267 OA
ATOM      7  H   UNL A   1      32.377  30.080  28.591  1.00  0.00     0.163 HD
BRANCH   5   8
ATOM      8  C   UNL A   1      31.717  28.640  25.636  1.00  0.00     0.155 A 
ATOM      9  N   UNL A   1      30.992  28.940  23.627  1.00  0.00    -0.268 N 
ATOM     10  N   UNL A   1      30.939  29.456  24.871  1.00  0.00    -0.167 NA
ATOM     11  C   UNL A   1      31.597  27.732  23.623  1.00  0.00     0.046 A 
ATOM     12  C   UNL A   1      32.313  27.653  24.798  1.00  0.00     0.026 A 
ATOM     13  C   UNL A   1      31.521  26.645  22.626  1.00  0.00     0.078 C 
ATOM     14  C   UNL A   1      33.313  26.582  25.040  1.00  0.00     0.159 C 
ATOM     15  C   UNL A   1      31.983  25.383  23.384  1.00  0.00     0.126 C 
ATOM     16  N   UNL A   1      33.310  25.565  23.978  1.00  0.00    -0.338 N 
BRANCH   9  17
ATOM     17  C   UNL A   1      30.435  29.651  22.491  1.00  0.00     0.145 C 
BRANCH  17  18
ATOM     18  C   UNL A   1      28.950  29.357  22.231  1.00  0.00     0.027 C 
BRANCH  18  19
ATOM     19  C   UNL A   1      27.996  30.570  22.303  1.00  0.00    -0.016 C 
ATOM     20  C   UNL A   1      28.240  31.447  23.533  1.00  0.00     0.007 C 
ATOM     21  C   UNL A   1      28.150  31.424  21.039  1.00  0.00     0.007 C 
ENDBRANCH  18  19
ENDBRANCH  17  18
ENDBRANCH   9  17
BRANCH  16  22
ATOM     22  C   UNL A   1      34.304  24.600  24.065  1.00  0.00     0.227 C 
ATOM     23  O   UNL A   1      34.816  24.172  23.020  1.00  0.00    -0.274 OA
BRANCH  22  24
ATOM     24  C   UNL A   1      34.778  23.966  25.391  1.00  0.00     0.099 C 
ATOM     25  C   UNL A   1      36.179  23.349  25.368  1.00  0.00     0.023 C 
ATOM     26  C   UNL A   1      33.795  23.074  26.138  1.00  0.00     0.142 C 
ATOM     27  C   UNL A   1      36.232  21.905  24.885  1.00  0.00     0.078 C 
ATOM     28  N   UNL A   1      33.920  21.685  25.764  1.00  0.00    -0.278 N 
ATOM     29  C   UNL A   1      34.957  21.139  25.096  1.00  0.00     0.133 A 
ATOM     30  C   UNL A   1      32.847  20.843  25.580  1.00  0.00     0.345 A 
ATOM     31  N   UNL A   1      34.684  20.013  24.498  1.00  0.00    -0.155 NA
ATOM     32  N   UNL A   1      33.341  19.809  24.766  1.00  0.00    -0.216 N 
ATOM     33  O   UNL A   1      31.679  21.061  25.865  1.00  0.00    -0.246 OA
ATOM     34  C   UNL A   1      32.500  19.061  23.864  1.00  0.00     0.179 C 
ENDBRANCH  22  24
ENDBRANCH  16  22
ENDBRANCH   5   8
ENDBRANCH   3   4
ENDBRANCH   2   3
ENDBRANCH   1   2
BRANCH   1  35
ATOM     35  C   UNL A   1      34.460  34.330  28.177  1.00  0.00     0.002 C 
BRANCH  35  36
ATOM     36  C   UNL A   1      33.145  34.377  28.982  1.00  0.00     0.021 C 
BRANCH  36  37
ATOM     37  C   UNL A   1      33.040  35.554  29.939  1.00  0.00     0.116 C 
BRANCH  37  38
ATOM     38  N   UNL A   1      32.766  35.145  31.320  1.00  0.00    -0.352 N 
ATOM     39  C   UNL A   1      33.437  34.242  32.131  1.00  0.00     0.251 C 
ATOM     40  H   UNL A   1      31.986  35.579  31.736  1.00  0.00     0.163 HD
ATOM     41  O   UNL A   1      32.889  33.792  33.122  1.00  0.00    -0.269 OA
BRANCH  39  42
ATOM     42  C   UNL A   1      34.812  33.828  31.773  1.00  0.00     0.039 A 
ATOM     43  C   UNL A   1      35.849  34.752  31.610  1.00  0.00     0.014 A 
ATOM     44  C   UNL A   1      35.052  32.475  31.571  1.00  0.00     0.014 A 
ATOM     45  C   UNL A   1      37.123  34.281  31.288  1.00  0.00     0.010 A 
ATOM     46  C   UNL A   1      36.327  31.999  31.494  1.00  0.00     0.010 A 
ATOM     47  C   UNL A   1      37.344  32.897  31.236  1.00  0.00    -0.014 A 
BRANCH  47  48
ATOM     48  C   UNL A   1      38.642  32.316  30.950  1.00  0.00     0.031 A 
ATOM     49  C   UNL A   1      38.598  31.134  30.066  1.00  0.00     0.074 A 
ATOM     50  C   UNL A   1      39.801  32.946  31.240  1.00  0.00     0.049 A 
ATOM     51  N   UNL A   1      38.758  29.905  30.418  1.00  0.00    -0.248 NA
ATOM     52  C   UNL A   1      38.153  31.302  28.676  1.00  0.00     0.031 C 
ATOM     53  C   UNL A   1      40.005  34.281  31.815  1.00  0.00     0.029 A 
ATOM     54  N   UNL A   1      41.066  32.550  30.955  1.00  0.00    -0.354 N 
ATOM     55  C   UNL A   1      38.684  29.160  29.251  1.00  0.00     0.074 A 
ATOM     56  C   UNL A   1      38.084  30.030  28.274  1.00  0.00     0.031 C 
ATOM     57  C   UNL A   1      41.287  34.665  31.620  1.00  0.00     0.029 A 
ATOM     58  C   UNL A   1      42.027  33.550  31.055  1.00  0.00     0.049 A 
ATOM     59  H   UNL A   1      41.288  31.626  30.697  1.00  0.00     0.167 HD
ATOM     60  C   UNL A   1      39.342  27.972  29.143  1.00  0.00     0.034 A 
ATOM     61  C   UNL A   1      43.326  33.467  30.661  1.00  0.00     0.034 A 
ATOM     62  C   UNL A   1      39.868  27.565  30.432  1.00  0.00     0.049 A 
ATOM     63  C   UNL A   1      43.665  32.017  30.661  1.00  0.00     0.074 A 
ATOM     64  C   UNL A   1      39.300  27.300  31.665  1.00  0.00     0.029 A 
ATOM     65  N   UNL A   1      41.204  27.801  30.684  1.00  0.00    -0.354 N 
ATOM     66  N   UNL A   1      43.665  31.287  31.746  1.00  0.00    -0.248 NA
ATOM     67  C   UNL A   1      43.483  31.267  29.424  1.00  0.00     0.031 C 
ATOM     68  C   UNL A   1      40.187  27.899  32.609  1.00  0.00     0.029 A 
ATOM     69  C   UNL A   1      41.293  28.403  31.917  1.00  0.00     0.049 A 
ATOM     70  H   UNL A   1      41.957  27.579  30.090  1.00  0.00     0.167 HD
ATOM     71  C   UNL A   1      43.041  30.100  31.387  1.00  0.00     0.074 A 
ATOM     72  C   UNL A   1      43.048  30.103  29.923  1.00  0.00     0.031 C 
ATOM     73  C   UNL A   1      42.312  29.373  32.288  1.00  0.00     0.034 A 
BRANCH  60  74
ATOM     74  C   UNL A   1      39.829  27.335  27.863  1.00  0.00     0.023 A 
ATOM     75  C   UNL A   1      39.783  25.928  27.803  1.00  0.00     0.031 A 
ATOM     76  C   UNL A   1      40.561  27.968  26.836  1.00  0.00     0.131 A 
ATOM     77  C   UNL A   1      40.528  25.217  26.850  1.00  0.00     0.055 A 
ATOM     78  C   UNL A   1      41.244  27.256  25.844  1.00  0.00     0.041 A 
ATOM     79  F   UNL A   1      40.740  29.291  26.778  1.00  0.00    -0.206 F 
ATOM     80  C   UNL A   1      41.261  25.873  25.867  1.00  0.00     0.022 A 
BRANCH  77  81
ATOM     81  S   UNL A   1      40.668  23.423  27.045  1.00  0.00     0.124 S 
ATOM     82  O   UNL A   1      41.103  23.312  28.433  1.00  0.00    -0.237 OA
ATOM     83  O   UNL A   1      39.307  22.984  26.758  1.00  0.00    -0.237 OA
ATOM     84  O   UNL A   1      41.667  23.053  26.046  1.00  0.00    -0.744 OA
ENDBRANCH  77  81
ENDBRANCH  60  74
BRANCH  61  85
ATOM     85  C   UNL A   1      44.134  34.527  29.987  1.00  0.00     0.023 A 
ATOM     86  C   UNL A   1      43.607  35.379  28.991  1.00  0.00     0.031 A 
ATOM     87  C   UNL A   1      45.407  34.875  30.497  1.00  0.00     0.131 A 
ATOM     88  C   UNL A   1      44.339  36.512  28.555  1.00  0.00     0.055 A 
ATOM     89  C   UNL A   1      46.127  35.990  30.059  1.00  0.00     0.041 A 
ATOM     90  F   UNL A   1      45.965  34.192  31.510  1.00  0.00    -0.206 F 
ATOM     91  C   UNL A   1      45.590  36.821  29.093  1.00  0.00     0.022 A 
BRANCH  88  92
ATOM     92  S   UNL A   1      43.623  37.679  27.349  1.00  0.00     0.124 S 
ATOM     93  O   UNL A   1      43.028  36.781  26.366  1.00  0.00    -0.237 OA
ATOM     94  O   UNL A   1      42.699  38.453  28.168  1.00  0.00    -0.237 OA
ATOM     95  O   UNL A   1      44.787  38.428  26.870  1.00  0.00    -0.744 OA
ENDBRANCH  88  92
ENDBRANCH  61  85
BRANCH  73  96
ATOM     96  C   UNL A   1      42.401  29.734  33.762  1.00  0.00     0.023 A 
ATOM     97  C   UNL A   1      41.586  30.691  34.414  1.00  0.00     0.031 A 
ATOM     98  C   UNL A   1      43.256  28.959  34.566  1.00  0.00     0.131 A 
ATOM     99  C   UNL A   1      41.658  30.845  35.815  1.00  0.00     0.055 A 
ATOM    100  C   UNL A   1      43.305  29.097  35.953  1.00  0.00     0.041 A 
ATOM    101  F   UNL A   1      44.037  28.016  34.015  1.00  0.00    -0.206 F 
ATOM    102  C   UNL A   1      42.509  30.045  36.583  1.00  0.00     0.022 A 
BRANCH  99 103
ATOM    103  S   UNL A   1      40.655  32.108  36.667  1.00  0.00     0.124 S 
ATOM    104  O   UNL A   1      41.289  32.223  37.975  1.00  0.00    -0.237 OA
ATOM    105  O   UNL A   1      40.787  33.265  35.787  1.00  0.00    -0.237 OA
ATOM    106  O   UNL A   1      39.315  31.515  36.692  1.00  0.00    -0.744 OA
ENDBRANCH  99 103
ENDBRANCH  73  96
ENDBRANCH  47  48
ENDBRANCH  39  42
ENDBRANCH  37  38
ENDBRANCH  36  37
ENDBRANCH  35  36
ENDBRANCH   1  35
TORSDOF 21
ENDMDL
MODEL 3
REMARK VINA RESULT:     -12.7      1.891      2.151
REMARK SMILES CC(C)CCn1nc(C(=O)NCCCCCCNC(=O)c2ccc(-c3c4nc(c(-c5cc(S(=O)(=O)[O-])ccc5F)c5ccc([nH]5)c(-c5cc(S(=O)(=O)[O-])ccc5F)c5nc(c(-c6cc(S(=O)(=O)[O-])ccc6F)c6ccc3[nH]6)C=C5)C=C4)cc2)c2c1CCN(C(=O)[C@@H]1CCc3nn(C)c(=O)n3C1)C2
REMARK SMILES IDX 14 1 13 2 12 3 11 4 9 5 10 6 8 8 6 9 7 10 85 11 84 12 86 13
REMARK SMILES IDX 102 14 87 15 88 16 5 17 4 18 2 19 1 20 3 21 89 22 90 23
REMARK SMILES IDX 91 24 92 25 101 26 93 27 100 28 94 29 98 30 95 31 96 32
REMARK SMILES IDX 99 33 97 34 15 35 16 36 17 37 18 38 19 39 20 41 21 42 22 43
REMARK SMILES IDX 83 44 23 45 82 46 24 47 25 48 26 49 76 50 27 51 81 52 75 53
REMARK SMILES IDX 77 54 28 55 80 56 74 57 73 58 29 60 61 61 41 62 60 63 42 64
REMARK SMILES IDX 45 65 59 66 78 67 43 68 44 69 58 71 79 72 46 73 30 74 31 75
REMARK SMILES IDX 39 76 32 77 38 78 40 79 37 80 33 81 34 82 35 83 36 84 62 85
REMARK SMILES IDX 63 86 71 87 64 88 70 89 72 90 69 91 65 92 66 93 67 94 68 95
REMARK SMILES IDX 47 96 48 97 56 98 49 99 55 100 57 101 54 102 50 103 51 104
REMARK SMILES IDX 52 105 53 106
REMARK H PARENT 11 7 18 40 77 59 45 70
REMARK Flexibility Score: inf
ROOT
ATOM      1  C   UNL A   1      35.233  22.204  25.750  1.00  0.00     0.002 C 
ENDROOT
BRANCH   1   2
ATOM      2  C   UNL A   1      34.779  22.915  27.022  1.00  0.00     0.021 C 
BRANCH   2   3
ATOM      3  C   UNL A   1      33.839  22.115  27.950  1.00  0.00     0.116 C 
BRANCH   3   4
ATOM      4  N   UNL A   1      32.456  22.574  27.867  1.00  0.00    -0.351 N 
ATOM      5  C   UNL A   1      31.459  22.531  26.910  1.00  0.00     0.272 C 
ATOM      6  O   UNL A   1      30.328  22.787  27.339  1.00  0.00    -0.267 OA
ATOM      7  H   UNL A   1      32.161  23.023  28.692  1.00  0.00     0.163 HD
BRANCH   5   8
ATOM      8  C   UNL A   1      31.679  22.161  25.488  1.00  0.00     0.155 A 
ATOM      9  N   UNL A   1      32.103  20.848  23.830  1.00  0.00    -0.268 N 
ATOM     10  N   UNL A   1      31.900  20.857  25.162  1.00  0.00    -0.167 NA
ATOM     11  C   UNL A   1      32.223  22.104  23.346  1.00  0.00     0.046 A 
ATOM     12  C   UNL A   1      31.675  22.940  24.295  1.00  0.00     0.026 A 
ATOM     13  C   UNL A   1      32.841  22.572  22.088  1.00  0.00     0.078 C 
ATOM     14  C   UNL A   1      31.391  24.370  24.013  1.00  0.00     0.159 C 
ATOM     15  C   UNL A   1      33.123  24.070  22.323  1.00  0.00     0.126 C 
ATOM     16  N   UNL A   1      31.909  24.796  22.704  1.00  0.00    -0.338 N 
BRANCH   9  17
ATOM     17  C   UNL A   1      32.185  19.605  23.087  1.00  0.00     0.145 C 
BRANCH  17  18
ATOM     18  C   UNL A   1      33.341  18.689  23.517  1.00  0.00     0.027 C 
BRANCH  18  19
ATOM     19  C   UNL A   1      32.944  17.274  23.995  1.00  0.00    -0.016 C 
ATOM     20  C   UNL A   1      34.035  16.232  23.740  1.00  0.00     0.007 C 
ATOM     21  C   UNL A   1      32.622  17.307  25.493  1.00  0.00     0.007 C 
ENDBRANCH  18  19
ENDBRANCH  17  18
ENDBRANCH   9  17
BRANCH  16  22
ATOM     22  C   UNL A   1      31.570  26.083  22.313  1.00  0.00     0.227 C 
ATOM     23  O   UNL A   1      32.289  26.666  21.486  1.00  0.00    -0.274 OA
BRANCH  22  24
ATOM     24  C   UNL A   1      30.380  26.878  22.893  1.00  0.00     0.099 C 
ATOM     25  C   UNL A   1      30.221  28.309  22.374  1.00  0.00     0.023 C 
ATOM     26  C   UNL A   1      30.150  26.809  24.396  1.00  0.00     0.142 C 
ATOM     27  C   UNL A   1      31.034  29.355  23.128  1.00  0.00     0.078 C 
ATOM     28  N   UNL A   1      30.829  27.868  25.106  1.00  0.00    -0.278 N 
ATOM     29  C   UNL A   1      31.344  28.984  24.550  1.00  0.00     0.133 A 
ATOM     30  C   UNL A   1      31.479  27.691  26.305  1.00  0.00     0.345 A 
ATOM     31  N   UNL A   1      32.260  29.573  25.266  1.00  0.00    -0.155 NA
ATOM     32  N   UNL A   1      32.388  28.761  26.379  1.00  0.00    -0.216 N 
ATOM     33  O   UNL A   1      31.440  26.708  27.030  1.00  0.00    -0.246 OA
ATOM     34  C   UNL A   1      33.629  28.678  27.110  1.00  0.00     0.179 C 
ENDBRANCH  22  24
ENDBRANCH  16  22
ENDBRANCH   5   8
ENDBRANCH   3   4
ENDBRANCH   2   3
ENDBRANCH   1   2
BRANCH   1  35
ATOM     35  C   UNL A   1      35.899  23.119  24.708  1.00  0.00     0.002 C 
BRANCH  35  36
ATOM     36  C   UNL A   1      37.433  23.269  24.765  1.00  0.00     0.021 C 
BRANCH  36  37
ATOM     37  C   UNL A   1      37.970  23.681  26.127  1.00  0.00     0.116 C 
BRANCH  37  38
ATOM     38  N   UNL A   1      38.895  22.698  26.697  1.00  0.00    -0.352 N 
ATOM     39  C   UNL A   1      40.106  22.886  27.349  1.00  0.00     0.251 C 
ATOM     40  H   UNL A   1      38.614  21.758  26.604  1.00  0.00     0.163 HD
ATOM     41  O   UNL A   1      40.883  21.956  27.467  1.00  0.00    -0.269 OA
BRANCH  39  42
ATOM     42  C   UNL A   1      40.440  24.224  27.883  1.00  0.00     0.039 A 
ATOM     43  C   UNL A   1      41.734  24.558  28.300  1.00  0.00     0.014 A 
ATOM     44  C   UNL A   1      39.417  25.157  27.991  1.00  0.00     0.014 A 
ATOM     45  C   UNL A   1      41.973  25.848  28.778  1.00  0.00     0.010 A 
ATOM     46  C   UNL A   1      39.694  26.470  28.228  1.00  0.00     0.010 A 
ATOM     47  C   UNL A   1      40.939  26.793  28.732  1.00  0.00    -0.014 A 
BRANCH  47  48
ATOM     48  C   UNL A   1      41.105  28.166  29.168  1.00  0.00     0.031 A 
ATOM     49  C   UNL A   1      42.172  28.904  28.463  1.00  0.00     0.074 A 
ATOM     50  C   UNL A   1      40.203  28.796  29.951  1.00  0.00     0.049 A 
ATOM     51  N   UNL A   1      43.332  29.213  28.931  1.00  0.00    -0.248 NA
ATOM     52  C   UNL A   1      42.018  29.177  27.028  1.00  0.00     0.031 C 
ATOM     53  C   UNL A   1      38.918  28.298  30.459  1.00  0.00     0.029 A 
ATOM     54  N   UNL A   1      40.201  30.088  30.360  1.00  0.00    -0.354 N 
ATOM     55  C   UNL A   1      43.966  29.941  27.935  1.00  0.00     0.074 A 
ATOM     56  C   UNL A   1      43.219  29.681  26.733  1.00  0.00     0.031 C 
ATOM     57  C   UNL A   1      38.174  29.338  30.900  1.00  0.00     0.029 A 
ATOM     58  C   UNL A   1      38.983  30.544  30.854  1.00  0.00     0.049 A 
ATOM     59  H   UNL A   1      41.000  30.662  30.310  1.00  0.00     0.167 HD
ATOM     60  C   UNL A   1      44.907  30.874  28.250  1.00  0.00     0.034 A 
ATOM     61  C   UNL A   1      38.665  31.829  31.164  1.00  0.00     0.034 A 
ATOM     62  C   UNL A   1      45.258  30.786  29.655  1.00  0.00     0.049 A 
ATOM     63  C   UNL A   1      39.956  32.521  31.431  1.00  0.00     0.074 A 
ATOM     64  C   UNL A   1      45.776  29.786  30.459  1.00  0.00     0.029 A 
ATOM     65  N   UNL A   1      44.679  31.692  30.520  1.00  0.00    -0.354 N 
ATOM     66  N   UNL A   1      40.745  32.194  32.421  1.00  0.00    -0.248 NA
ATOM     67  C   UNL A   1      40.618  33.196  30.322  1.00  0.00     0.031 C 
ATOM     68  C   UNL A   1      45.035  29.878  31.674  1.00  0.00     0.029 A 
ATOM     69  C   UNL A   1      44.183  30.983  31.590  1.00  0.00     0.049 A 
ATOM     70  H   UNL A   1      44.629  32.667  30.395  1.00  0.00     0.167 HD
ATOM     71  C   UNL A   1      42.025  32.197  31.882  1.00  0.00     0.074 A 
ATOM     72  C   UNL A   1      41.895  32.925  30.619  1.00  0.00     0.031 C 
ATOM     73  C   UNL A   1      43.001  31.361  32.350  1.00  0.00     0.034 A 
BRANCH  60  74
ATOM     74  C   UNL A   1      45.270  32.087  27.428  1.00  0.00     0.023 A 
ATOM     75  C   UNL A   1      46.617  32.199  27.031  1.00  0.00     0.031 A 
ATOM     76  C   UNL A   1      44.479  33.241  27.239  1.00  0.00     0.131 A 
ATOM     77  C   UNL A   1      47.148  33.423  26.597  1.00  0.00     0.055 A 
ATOM     78  C   UNL A   1      44.997  34.440  26.737  1.00  0.00     0.041 A 
ATOM     79  F   UNL A   1      43.197  33.313  27.609  1.00  0.00    -0.206 F 
ATOM     80  C   UNL A   1      46.345  34.549  26.448  1.00  0.00     0.022 A 
BRANCH  77  81
ATOM     81  S   UNL A   1      48.944  33.556  26.417  1.00  0.00     0.124 S 
ATOM     82  O   UNL A   1      49.334  32.152  26.331  1.00  0.00    -0.237 OA
ATOM     83  O   UNL A   1      49.065  34.336  25.191  1.00  0.00    -0.237 OA
ATOM     84  O   UNL A   1      49.355  34.244  27.638  1.00  0.00    -0.744 OA
ENDBRANCH  77  81
ENDBRANCH  60  74
BRANCH  61  85
ATOM     85  C   UNL A   1      37.367  32.522  30.908  1.00  0.00     0.023 A 
ATOM     86  C   UNL A   1      36.536  33.004  31.944  1.00  0.00     0.031 A 
ATOM     87  C   UNL A   1      37.034  32.936  29.597  1.00  0.00     0.131 A 
ATOM     88  C   UNL A   1      35.441  33.854  31.648  1.00  0.00     0.055 A 
ATOM     89  C   UNL A   1      35.950  33.770  29.311  1.00  0.00     0.041 A 
ATOM     90  F   UNL A   1      37.807  32.617  28.546  1.00  0.00    -0.206 F 
ATOM     91  C   UNL A   1      35.154  34.243  30.338  1.00  0.00     0.022 A 
BRANCH  88  92
ATOM     92  S   UNL A   1      34.425  34.568  32.985  1.00  0.00     0.124 S 
ATOM     93  O   UNL A   1      35.203  35.740  33.372  1.00  0.00    -0.237 OA
ATOM     94  O   UNL A   1      33.155  34.823  32.316  1.00  0.00    -0.237 OA
ATOM     95  O   UNL A   1      34.382  33.501  33.986  1.00  0.00    -0.744 OA
ENDBRANCH  88  92
ENDBRANCH  61  85
BRANCH  73  96
ATOM     96  C   UNL A   1      42.757  30.603  33.645  1.00  0.00     0.023 A 
ATOM     97  C   UNL A   1      42.307  29.264  33.729  1.00  0.00     0.031 A 
ATOM     98  C   UNL A   1      43.143  31.231  34.843  1.00  0.00     0.131 A 
ATOM     99  C   UNL A   1      42.249  28.614  34.980  1.00  0.00     0.055 A 
ATOM    100  C   UNL A   1      43.109  30.577  36.074  1.00  0.00     0.041 A 
ATOM    101  F   UNL A   1      43.604  32.493  34.831  1.00  0.00    -0.206 F 
ATOM    102  C   UNL A   1      42.657  29.265  36.148  1.00  0.00     0.022 A 
BRANCH  99 103
ATOM    103  S   UNL A   1      41.622  26.906  35.116  1.00  0.00     0.124 S 
ATOM    104  O   UNL A   1      41.265  26.784  36.524  1.00  0.00    -0.237 OA
ATOM    105  O   UNL A   1      40.511  26.900  34.170  1.00  0.00    -0.237 OA
ATOM    106  O   UNL A   1      42.770  26.091  34.708  1.00  0.00    -0.744 OA
ENDBRANCH  99 103
ENDBRANCH  73  96
ENDBRANCH  47  48
ENDBRANCH  39  42
ENDBRANCH  37  38
ENDBRANCH  36  37
ENDBRANCH  35  36
ENDBRANCH   1  35
TORSDOF 21
ENDMDL
