MODEL 1
REMARK VINA RESULT:     -11.3      0.000      0.000
REMARK SMILES N#C/C(=C\c1ccc(-c2cc(C(F)(F)F)ccc2Cl)o1)C(=O)NCCCCCCNC(=O)c1ccc(-c2c3nc(c(-c4cc(S(=O)(=O)[O-])ccc4F)c4ccc([nH]4)c(-c4cc(S(=O)(=O)[O-])ccc4F)c4nc(c(-c5cc(S(=O)(=O)[O-])ccc5F)c5ccc2[nH]5)C=C4)C=C3)cc1
REMARK SMILES IDX 26 1 25 2 24 3 23 4 21 5 22 6 3 8 4 9 2 10 1 11 5 12 6 13
REMARK SMILES IDX 20 14 7 15 8 16 9 17 10 18 18 19 11 20 17 21 19 22 16 23
REMARK SMILES IDX 12 24 13 25 14 26 15 27 27 28 28 29 29 30 30 31 31 32 32 34
REMARK SMILES IDX 33 35 34 36 95 37 35 38 94 39 36 40 37 41 38 42 88 43 39 44
REMARK SMILES IDX 93 45 87 46 89 47 40 48 92 49 86 50 85 51 41 53 73 54 53 55
REMARK SMILES IDX 72 56 54 57 57 58 71 59 90 60 55 61 56 62 70 64 91 65 58 66
REMARK SMILES IDX 42 67 43 68 51 69 44 70 50 71 52 72 49 73 45 74 46 75 47 76
REMARK SMILES IDX 48 77 74 78 75 79 83 80 76 81 82 82 84 83 81 84 77 85 78 86
REMARK SMILES IDX 79 87 80 88 59 89 60 90 68 91 61 92 67 93 69 94 66 95 62 96
REMARK SMILES IDX 63 97 64 98 65 99
REMARK H PARENT 23 7 30 33 89 52 57 63
REMARK Flexibility Score: inf
ROOT
ATOM      1  C   UNL A   1      39.217  22.472  26.523  1.00  0.00     0.002 C 
ENDROOT
BRANCH   1   2
ATOM      2  C   UNL A   1      38.420  23.774  26.511  1.00  0.00     0.021 C 
BRANCH   2   3
ATOM      3  C   UNL A   1      37.203  23.739  25.596  1.00  0.00     0.116 C 
BRANCH   3   4
ATOM      4  N   UNL A   1      36.013  23.220  26.251  1.00  0.00    -0.351 N 
ATOM      5  C   UNL A   1      34.688  23.537  26.225  1.00  0.00     0.262 C 
ATOM      6  O   UNL A   1      33.937  22.861  26.931  1.00  0.00    -0.268 OA
ATOM      7  H   UNL A   1      36.210  22.466  26.853  1.00  0.00     0.163 HD
BRANCH   5   8
ATOM      8  C   UNL A   1      34.126  24.662  25.440  1.00  0.00     0.120 C 
ATOM      9  C   UNL A   1      34.006  25.966  25.807  1.00  0.00     0.072 C 
BRANCH   8  10
ATOM     10  C   UNL A   1      33.989  24.525  23.933  1.00  0.00     0.105 C 
ATOM     11  N   UNL A   1      33.875  24.411  22.682  1.00  0.00    -0.192 NA
ENDBRANCH   8  10
BRANCH   9  12
ATOM     12  C   UNL A   1      33.415  27.005  25.000  1.00  0.00     0.129 A 
ATOM     13  C   UNL A   1      34.004  27.968  24.181  1.00  0.00     0.051 A 
ATOM     14  O   UNL A   1      32.044  27.158  24.874  1.00  0.00    -0.457 OA
ATOM     15  C   UNL A   1      32.981  28.744  23.597  1.00  0.00     0.051 A 
ATOM     16  C   UNL A   1      31.795  28.193  24.018  1.00  0.00     0.136 A 
BRANCH  16  17
ATOM     17  C   UNL A   1      30.399  28.495  23.720  1.00  0.00     0.036 A 
ATOM     18  C   UNL A   1      29.985  29.837  23.630  1.00  0.00     0.026 A 
ATOM     19  C   UNL A   1      29.455  27.487  23.450  1.00  0.00     0.052 A 
ATOM     20  C   UNL A   1      28.671  30.176  23.253  1.00  0.00     0.056 A 
ATOM     21  C   UNL A   1      28.142  27.816  23.092  1.00  0.00     0.022 A 
ATOM     22  Cl  UNL A   1      29.836  25.800  23.552  1.00  0.00    -0.084 Cl
ATOM     23  C   UNL A   1      27.754  29.150  22.989  1.00  0.00     0.014 A 
BRANCH  20  24
ATOM     24  C   UNL A   1      28.267  31.627  23.122  1.00  0.00     0.416 C 
ATOM     25  F   UNL A   1      28.123  32.016  21.827  1.00  0.00    -0.166 F 
ATOM     26  F   UNL A   1      27.074  31.885  23.726  1.00  0.00    -0.166 F 
ATOM     27  F   UNL A   1      29.157  32.493  23.681  1.00  0.00    -0.166 F 
ENDBRANCH  20  24
ENDBRANCH  16  17
ENDBRANCH   9  12
ENDBRANCH   5   8
ENDBRANCH   3   4
ENDBRANCH   2   3
ENDBRANCH   1   2
BRANCH   1  28
ATOM     28  C   UNL A   1      38.922  21.520  25.355  1.00  0.00     0.002 C 
BRANCH  28  29
ATOM     29  C   UNL A   1      39.013  20.025  25.681  1.00  0.00     0.021 C 
BRANCH  29  30
ATOM     30  C   UNL A   1      40.028  19.672  26.766  1.00  0.00     0.116 C 
BRANCH  30  31
ATOM     31  N   UNL A   1      41.235  19.094  26.199  1.00  0.00    -0.352 N 
ATOM     32  C   UNL A   1      42.385  19.711  25.773  1.00  0.00     0.251 C 
ATOM     33  H   UNL A   1      41.227  18.114  26.105  1.00  0.00     0.163 HD
ATOM     34  O   UNL A   1      43.183  19.092  25.079  1.00  0.00    -0.269 OA
BRANCH  32  35
ATOM     35  C   UNL A   1      42.646  21.119  26.140  1.00  0.00     0.039 A 
ATOM     36  C   UNL A   1      42.978  21.422  27.463  1.00  0.00     0.014 A 
ATOM     37  C   UNL A   1      42.550  22.138  25.187  1.00  0.00     0.014 A 
ATOM     38  C   UNL A   1      43.284  22.739  27.812  1.00  0.00     0.010 A 
ATOM     39  C   UNL A   1      42.917  23.439  25.523  1.00  0.00     0.010 A 
ATOM     40  C   UNL A   1      43.299  23.750  26.837  1.00  0.00    -0.014 A 
BRANCH  40  41
ATOM     41  C   UNL A   1      43.755  25.126  27.167  1.00  0.00     0.031 A 
ATOM     42  C   UNL A   1      42.789  26.138  27.719  1.00  0.00     0.074 A 
ATOM     43  C   UNL A   1      45.030  25.476  26.902  1.00  0.00     0.049 A 
ATOM     44  N   UNL A   1      42.986  27.401  27.997  1.00  0.00    -0.248 NA
ATOM     45  C   UNL A   1      41.415  25.675  27.973  1.00  0.00     0.031 C 
ATOM     46  C   UNL A   1      46.046  24.587  26.331  1.00  0.00     0.029 A 
ATOM     47  N   UNL A   1      45.690  26.668  27.064  1.00  0.00    -0.354 N 
ATOM     48  C   UNL A   1      41.765  27.887  28.449  1.00  0.00     0.074 A 
ATOM     49  C   UNL A   1      40.821  26.793  28.365  1.00  0.00     0.031 C 
ATOM     50  C   UNL A   1      47.201  25.259  26.208  1.00  0.00     0.029 A 
ATOM     51  C   UNL A   1      46.999  26.639  26.638  1.00  0.00     0.049 A 
ATOM     52  H   UNL A   1      45.267  27.469  27.448  1.00  0.00     0.167 HD
ATOM     53  C   UNL A   1      41.466  29.129  28.906  1.00  0.00     0.034 A 
ATOM     54  C   UNL A   1      47.925  27.616  26.579  1.00  0.00     0.034 A 
ATOM     55  C   UNL A   1      42.425  30.204  28.993  1.00  0.00     0.049 A 
ATOM     56  C   UNL A   1      47.552  28.997  27.059  1.00  0.00     0.074 A 
ATOM     57  C   UNL A   1      42.244  31.477  29.508  1.00  0.00     0.029 A 
ATOM     58  N   UNL A   1      43.737  30.142  28.544  1.00  0.00    -0.354 N 
ATOM     59  N   UNL A   1      46.409  29.420  27.549  1.00  0.00    -0.248 NA
ATOM     60  C   UNL A   1      48.594  30.029  26.986  1.00  0.00     0.031 C 
ATOM     61  C   UNL A   1      43.417  32.207  29.297  1.00  0.00     0.029 A 
ATOM     62  C   UNL A   1      44.362  31.367  28.728  1.00  0.00     0.049 A 
ATOM     63  H   UNL A   1      44.163  29.345  28.152  1.00  0.00     0.167 HD
ATOM     64  C   UNL A   1      46.607  30.761  27.866  1.00  0.00     0.074 A 
ATOM     65  C   UNL A   1      47.984  31.067  27.537  1.00  0.00     0.031 C 
ATOM     66  C   UNL A   1      45.732  31.661  28.380  1.00  0.00     0.034 A 
BRANCH  53  67
ATOM     67  C   UNL A   1      40.042  29.404  29.322  1.00  0.00     0.023 A 
ATOM     68  C   UNL A   1      39.664  29.472  30.674  1.00  0.00     0.031 A 
ATOM     69  C   UNL A   1      39.052  29.629  28.348  1.00  0.00     0.131 A 
ATOM     70  C   UNL A   1      38.323  29.710  31.014  1.00  0.00     0.055 A 
ATOM     71  C   UNL A   1      37.734  29.937  28.694  1.00  0.00     0.041 A 
ATOM     72  F   UNL A   1      39.350  29.556  27.041  1.00  0.00    -0.206 F 
ATOM     73  C   UNL A   1      37.362  29.969  30.034  1.00  0.00     0.022 A 
BRANCH  70  74
ATOM     74  S   UNL A   1      37.831  29.572  32.754  1.00  0.00     0.124 S 
ATOM     75  O   UNL A   1      39.077  29.903  33.440  1.00  0.00    -0.237 OA
ATOM     76  O   UNL A   1      36.762  30.558  32.859  1.00  0.00    -0.237 OA
ATOM     77  O   UNL A   1      37.409  28.178  32.881  1.00  0.00    -0.744 OA
ENDBRANCH  70  74
ENDBRANCH  53  67
BRANCH  54  78
ATOM     78  C   UNL A   1      49.282  27.350  26.017  1.00  0.00     0.023 A 
ATOM     79  C   UNL A   1      49.584  27.650  24.679  1.00  0.00     0.031 A 
ATOM     80  C   UNL A   1      50.278  26.722  26.788  1.00  0.00     0.131 A 
ATOM     81  C   UNL A   1      50.818  27.263  24.134  1.00  0.00     0.055 A 
ATOM     82  C   UNL A   1      51.529  26.401  26.261  1.00  0.00     0.041 A 
ATOM     83  F   UNL A   1      50.047  26.413  28.074  1.00  0.00    -0.206 F 
ATOM     84  C   UNL A   1      51.799  26.655  24.920  1.00  0.00     0.022 A 
BRANCH  81  85
ATOM     85  S   UNL A   1      51.074  27.455  22.348  1.00  0.00     0.124 S 
ATOM     86  O   UNL A   1      52.169  26.523  22.105  1.00  0.00    -0.237 OA
ATOM     87  O   UNL A   1      49.772  27.072  21.815  1.00  0.00    -0.237 OA
ATOM     88  O   UNL A   1      51.414  28.869  22.205  1.00  0.00    -0.744 OA
ENDBRANCH  81  85
ENDBRANCH  54  78
BRANCH  66  89
ATOM     89  C   UNL A   1      46.256  33.053  28.644  1.00  0.00     0.023 A 
ATOM     90  C   UNL A   1      46.511  33.955  27.596  1.00  0.00     0.031 A 
ATOM     91  C   UNL A   1      46.520  33.475  29.958  1.00  0.00     0.131 A 
ATOM     92  C   UNL A   1      47.071  35.210  27.876  1.00  0.00     0.055 A 
ATOM     93  C   UNL A   1      47.014  34.750  30.236  1.00  0.00     0.041 A 
ATOM     94  F   UNL A   1      46.299  32.653  30.998  1.00  0.00    -0.206 F 
ATOM     95  C   UNL A   1      47.306  35.620  29.190  1.00  0.00     0.022 A 
BRANCH  92  96
ATOM     96  S   UNL A   1      47.578  36.263  26.489  1.00  0.00     0.124 S 
ATOM     97  O   UNL A   1      47.693  35.298  25.401  1.00  0.00    -0.237 OA
ATOM     98  O   UNL A   1      46.469  37.206  26.389  1.00  0.00    -0.237 OA
ATOM     99  O   UNL A   1      48.843  36.840  26.942  1.00  0.00    -0.744 OA
ENDBRANCH  92  96
ENDBRANCH  66  89
ENDBRANCH  40  41
ENDBRANCH  32  35
ENDBRANCH  30  31
ENDBRANCH  29  30
ENDBRANCH  28  29
ENDBRANCH   1  28
TORSDOF 20
ENDMDL
MODEL 2
REMARK VINA RESULT:     -11.2      1.896      7.529
REMARK SMILES N#C/C(=C\c1ccc(-c2cc(C(F)(F)F)ccc2Cl)o1)C(=O)NCCCCCCNC(=O)c1ccc(-c2c3nc(c(-c4cc(S(=O)(=O)[O-])ccc4F)c4ccc([nH]4)c(-c4cc(S(=O)(=O)[O-])ccc4F)c4nc(c(-c5cc(S(=O)(=O)[O-])ccc5F)c5ccc2[nH]5)C=C4)C=C3)cc1
REMARK SMILES IDX 26 1 25 2 24 3 23 4 21 5 22 6 3 8 4 9 2 10 1 11 5 12 6 13
REMARK SMILES IDX 20 14 7 15 8 16 9 17 10 18 18 19 11 20 17 21 19 22 16 23
REMARK SMILES IDX 12 24 13 25 14 26 15 27 27 28 28 29 29 30 30 31 31 32 32 34
REMARK SMILES IDX 33 35 34 36 95 37 35 38 94 39 36 40 37 41 38 42 88 43 39 44
REMARK SMILES IDX 93 45 87 46 89 47 40 48 92 49 86 50 85 51 41 53 73 54 53 55
REMARK SMILES IDX 72 56 54 57 57 58 71 59 90 60 55 61 56 62 70 64 91 65 58 66
REMARK SMILES IDX 42 67 43 68 51 69 44 70 50 71 52 72 49 73 45 74 46 75 47 76
REMARK SMILES IDX 48 77 74 78 75 79 83 80 76 81 82 82 84 83 81 84 77 85 78 86
REMARK SMILES IDX 79 87 80 88 59 89 60 90 68 91 61 92 67 93 69 94 66 95 62 96
REMARK SMILES IDX 63 97 64 98 65 99
REMARK H PARENT 23 7 30 33 89 52 57 63
REMARK Flexibility Score: inf
ROOT
ATOM      1  C   UNL A   1      39.196  22.668  26.875  1.00  0.00     0.002 C 
ENDROOT
BRANCH   1   2
ATOM      2  C   UNL A   1      38.462  23.952  26.499  1.00  0.00     0.021 C 
BRANCH   2   3
ATOM      3  C   UNL A   1      37.298  23.735  25.542  1.00  0.00     0.116 C 
BRANCH   3   4
ATOM      4  N   UNL A   1      36.114  23.200  26.198  1.00  0.00    -0.351 N 
ATOM      5  C   UNL A   1      34.786  23.503  26.176  1.00  0.00     0.262 C 
ATOM      6  O   UNL A   1      34.044  22.816  26.881  1.00  0.00    -0.268 OA
ATOM      7  H   UNL A   1      36.321  22.445  26.795  1.00  0.00     0.163 HD
BRANCH   5   8
ATOM      8  C   UNL A   1      34.210  24.625  25.398  1.00  0.00     0.120 C 
ATOM      9  C   UNL A   1      34.087  25.928  25.767  1.00  0.00     0.072 C 
BRANCH   8  10
ATOM     10  C   UNL A   1      34.059  24.489  23.891  1.00  0.00     0.105 C 
ATOM     11  N   UNL A   1      33.933  24.376  22.642  1.00  0.00    -0.192 NA
ENDBRANCH   8  10
BRANCH   9  12
ATOM     12  C   UNL A   1      33.482  26.966  24.968  1.00  0.00     0.129 A 
ATOM     13  C   UNL A   1      34.056  27.917  24.125  1.00  0.00     0.051 A 
ATOM     14  O   UNL A   1      32.109  27.127  24.875  1.00  0.00    -0.457 OA
ATOM     15  C   UNL A   1      33.024  28.696  23.562  1.00  0.00     0.051 A 
ATOM     16  C   UNL A   1      31.845  28.157  24.017  1.00  0.00     0.136 A 
BRANCH  16  17
ATOM     17  C   UNL A   1      30.444  28.465  23.753  1.00  0.00     0.036 A 
ATOM     18  C   UNL A   1      30.043  29.809  23.634  1.00  0.00     0.026 A 
ATOM     19  C   UNL A   1      29.481  27.462  23.544  1.00  0.00     0.052 A 
ATOM     20  C   UNL A   1      28.721  30.152  23.287  1.00  0.00     0.056 A 
ATOM     21  C   UNL A   1      28.162  27.794  23.216  1.00  0.00     0.022 A 
ATOM     22  Cl  UNL A   1      29.846  25.774  23.687  1.00  0.00    -0.084 Cl
ATOM     23  C   UNL A   1      27.785  29.130  23.083  1.00  0.00     0.014 A 
BRANCH  20  24
ATOM     24  C   UNL A   1      28.329  31.603  23.123  1.00  0.00     0.416 C 
ATOM     25  F   UNL A   1      27.073  31.861  23.574  1.00  0.00    -0.166 F 
ATOM     26  F   UNL A   1      29.154  32.440  23.812  1.00  0.00    -0.166 F 
ATOM     27  F   UNL A   1      28.364  32.034  21.831  1.00  0.00    -0.166 F 
ENDBRANCH  20  24
ENDBRANCH  16  17
ENDBRANCH   9  12
ENDBRANCH   5   8
ENDBRANCH   3   4
ENDBRANCH   2   3
ENDBRANCH   1   2
BRANCH   1  28
ATOM     28  C   UNL A   1      39.462  21.707  25.707  1.00  0.00     0.002 C 
BRANCH  28  29
ATOM     29  C   UNL A   1      39.664  20.238  26.092  1.00  0.00     0.021 C 
BRANCH  29  30
ATOM     30  C   UNL A   1      40.865  19.977  26.998  1.00  0.00     0.116 C 
BRANCH  30  31
ATOM     31  N   UNL A   1      42.070  19.723  26.227  1.00  0.00    -0.352 N 
ATOM     32  C   UNL A   1      42.982  20.608  25.709  1.00  0.00     0.251 C 
ATOM     33  H   UNL A   1      42.261  18.773  26.050  1.00  0.00     0.163 HD
ATOM     34  O   UNL A   1      43.783  20.227  24.863  1.00  0.00    -0.269 OA
BRANCH  32  35
ATOM     35  C   UNL A   1      42.982  22.016  26.161  1.00  0.00     0.039 A 
ATOM     36  C   UNL A   1      43.096  22.286  27.527  1.00  0.00     0.014 A 
ATOM     37  C   UNL A   1      42.857  23.063  25.244  1.00  0.00     0.014 A 
ATOM     38  C   UNL A   1      43.157  23.610  27.965  1.00  0.00     0.010 A 
ATOM     39  C   UNL A   1      42.982  24.382  25.676  1.00  0.00     0.010 A 
ATOM     40  C   UNL A   1      43.145  24.668  27.039  1.00  0.00    -0.014 A 
BRANCH  40  41
ATOM     41  C   UNL A   1      43.345  26.073  27.480  1.00  0.00     0.031 A 
ATOM     42  C   UNL A   1      44.722  26.679  27.494  1.00  0.00     0.074 A 
ATOM     43  C   UNL A   1      42.286  26.777  27.931  1.00  0.00     0.049 A 
ATOM     44  N   UNL A   1      45.099  27.860  27.913  1.00  0.00    -0.248 NA
ATOM     45  C   UNL A   1      45.822  25.841  26.991  1.00  0.00     0.031 C 
ATOM     46  C   UNL A   1      40.911  26.277  27.997  1.00  0.00     0.029 A 
ATOM     47  N   UNL A   1      42.198  28.053  28.428  1.00  0.00    -0.354 N 
ATOM     48  C   UNL A   1      46.477  27.906  27.734  1.00  0.00     0.074 A 
ATOM     49  C   UNL A   1      46.875  26.616  27.211  1.00  0.00     0.031 C 
ATOM     50  C   UNL A   1      40.115  27.241  28.488  1.00  0.00     0.029 A 
ATOM     51  C   UNL A   1      40.927  28.406  28.823  1.00  0.00     0.049 A 
ATOM     52  H   UNL A   1      42.971  28.659  28.497  1.00  0.00     0.167 HD
ATOM     53  C   UNL A   1      47.326  28.936  27.971  1.00  0.00     0.034 A 
ATOM     54  C   UNL A   1      40.470  29.531  29.409  1.00  0.00     0.034 A 
ATOM     55  C   UNL A   1      46.908  30.219  28.483  1.00  0.00     0.049 A 
ATOM     56  C   UNL A   1      41.446  30.645  29.695  1.00  0.00     0.074 A 
ATOM     57  C   UNL A   1      47.676  31.354  28.691  1.00  0.00     0.029 A 
ATOM     58  N   UNL A   1      45.617  30.538  28.881  1.00  0.00    -0.354 N 
ATOM     59  N   UNL A   1      42.736  30.696  29.454  1.00  0.00    -0.248 NA
ATOM     60  C   UNL A   1      40.904  31.856  30.325  1.00  0.00     0.031 C 
ATOM     61  C   UNL A   1      46.870  32.327  29.287  1.00  0.00     0.029 A 
ATOM     62  C   UNL A   1      45.577  31.834  29.375  1.00  0.00     0.049 A 
ATOM     63  H   UNL A   1      44.842  29.934  28.821  1.00  0.00     0.167 HD
ATOM     64  C   UNL A   1      43.151  31.955  29.879  1.00  0.00     0.074 A 
ATOM     65  C   UNL A   1      41.971  32.639  30.365  1.00  0.00     0.031 C 
ATOM     66  C   UNL A   1      44.395  32.498  29.871  1.00  0.00     0.034 A 
BRANCH  53  67
ATOM     67  C   UNL A   1      48.795  28.715  27.708  1.00  0.00     0.023 A 
ATOM     68  C   UNL A   1      49.347  28.847  26.422  1.00  0.00     0.031 A 
ATOM     69  C   UNL A   1      49.663  28.393  28.767  1.00  0.00     0.131 A 
ATOM     70  C   UNL A   1      50.716  28.611  26.220  1.00  0.00     0.055 A 
ATOM     71  C   UNL A   1      51.036  28.230  28.572  1.00  0.00     0.041 A 
ATOM     72  F   UNL A   1      49.190  28.234  30.014  1.00  0.00    -0.206 F 
ATOM     73  C   UNL A   1      51.568  28.329  27.290  1.00  0.00     0.022 A 
BRANCH  70  74
ATOM     74  S   UNL A   1      51.349  28.572  24.521  1.00  0.00     0.124 S 
ATOM     75  O   UNL A   1      50.162  28.169  23.773  1.00  0.00    -0.237 OA
ATOM     76  O   UNL A   1      51.795  29.946  24.320  1.00  0.00    -0.237 OA
ATOM     77  O   UNL A   1      52.413  27.571  24.575  1.00  0.00    -0.744 OA
ENDBRANCH  70  74
ENDBRANCH  53  67
BRANCH  54  78
ATOM     78  C   UNL A   1      39.036  29.660  29.800  1.00  0.00     0.023 A 
ATOM     79  C   UNL A   1      38.161  30.492  29.083  1.00  0.00     0.031 A 
ATOM     80  C   UNL A   1      38.533  29.012  30.943  1.00  0.00     0.131 A 
ATOM     81  C   UNL A   1      36.856  30.708  29.551  1.00  0.00     0.055 A 
ATOM     82  C   UNL A   1      37.214  29.175  31.367  1.00  0.00     0.041 A 
ATOM     83  F   UNL A   1      39.323  28.203  31.668  1.00  0.00    -0.206 F 
ATOM     84  C   UNL A   1      36.371  30.043  30.680  1.00  0.00     0.022 A 
BRANCH  81  85
ATOM     85  S   UNL A   1      35.840  31.968  28.734  1.00  0.00     0.124 S 
ATOM     86  O   UNL A   1      35.599  31.355  27.432  1.00  0.00    -0.237 OA
ATOM     87  O   UNL A   1      34.690  32.054  29.627  1.00  0.00    -0.237 OA
ATOM     88  O   UNL A   1      36.706  33.145  28.720  1.00  0.00    -0.744 OA
ENDBRANCH  81  85
ENDBRANCH  54  78
BRANCH  66  89
ATOM     89  C   UNL A   1      44.527  33.914  30.380  1.00  0.00     0.023 A 
ATOM     90  C   UNL A   1      44.411  35.019  29.519  1.00  0.00     0.031 A 
ATOM     91  C   UNL A   1      44.790  34.158  31.739  1.00  0.00     0.131 A 
ATOM     92  C   UNL A   1      44.618  36.315  30.014  1.00  0.00     0.055 A 
ATOM     93  C   UNL A   1      44.927  35.454  32.239  1.00  0.00     0.041 A 
ATOM     94  F   UNL A   1      44.914  33.140  32.606  1.00  0.00    -0.206 F 
ATOM     95  C   UNL A   1      44.856  36.540  31.373  1.00  0.00     0.022 A 
BRANCH  92  96
ATOM     96  S   UNL A   1      44.668  37.696  28.840  1.00  0.00     0.124 S 
ATOM     97  O   UNL A   1      46.093  38.003  28.793  1.00  0.00    -0.237 OA
ATOM     98  O   UNL A   1      44.103  37.102  27.633  1.00  0.00    -0.237 OA
ATOM     99  O   UNL A   1      43.834  38.716  29.476  1.00  0.00    -0.744 OA
ENDBRANCH  92  96
ENDBRANCH  66  89
ENDBRANCH  40  41
ENDBRANCH  32  35
ENDBRANCH  30  31
ENDBRANCH  29  30
ENDBRANCH  28  29
ENDBRANCH   1  28
TORSDOF 20
ENDMDL
MODEL 3
REMARK VINA RESULT:     -11.0      1.566      7.697
REMARK SMILES N#C/C(=C\c1ccc(-c2cc(C(F)(F)F)ccc2Cl)o1)C(=O)NCCCCCCNC(=O)c1ccc(-c2c3nc(c(-c4cc(S(=O)(=O)[O-])ccc4F)c4ccc([nH]4)c(-c4cc(S(=O)(=O)[O-])ccc4F)c4nc(c(-c5cc(S(=O)(=O)[O-])ccc5F)c5ccc2[nH]5)C=C4)C=C3)cc1
REMARK SMILES IDX 26 1 25 2 24 3 23 4 21 5 22 6 3 8 4 9 2 10 1 11 5 12 6 13
REMARK SMILES IDX 20 14 7 15 8 16 9 17 10 18 18 19 11 20 17 21 19 22 16 23
REMARK SMILES IDX 12 24 13 25 14 26 15 27 27 28 28 29 29 30 30 31 31 32 32 34
REMARK SMILES IDX 33 35 34 36 95 37 35 38 94 39 36 40 37 41 38 42 88 43 39 44
REMARK SMILES IDX 93 45 87 46 89 47 40 48 92 49 86 50 85 51 41 53 73 54 53 55
REMARK SMILES IDX 72 56 54 57 57 58 71 59 90 60 55 61 56 62 70 64 91 65 58 66
REMARK SMILES IDX 42 67 43 68 51 69 44 70 50 71 52 72 49 73 45 74 46 75 47 76
REMARK SMILES IDX 48 77 74 78 75 79 83 80 76 81 82 82 84 83 81 84 77 85 78 86
REMARK SMILES IDX 79 87 80 88 59 89 60 90 68 91 61 92 67 93 69 94 66 95 62 96
REMARK SMILES IDX 63 97 64 98 65 99
REMARK H PARENT 23 7 30 33 89 52 57 63
REMARK Flexibility Score: inf
ROOT
ATOM      1  C   UNL A   1      39.276  23.274  27.217  1.00  0.00     0.002 C 
ENDROOT
BRANCH   1   2
ATOM      2  C   UNL A   1      38.453  24.329  26.481  1.00  0.00     0.021 C 
BRANCH   2   3
ATOM      3  C   UNL A   1      37.392  23.745  25.559  1.00  0.00     0.116 C 
BRANCH   3   4
ATOM      4  N   UNL A   1      36.225  23.253  26.275  1.00  0.00    -0.351 N 
ATOM      5  C   UNL A   1      34.894  23.546  26.257  1.00  0.00     0.262 C 
ATOM      6  O   UNL A   1      34.171  22.908  27.023  1.00  0.00    -0.268 OA
ATOM      7  H   UNL A   1      36.448  22.544  26.921  1.00  0.00     0.163 HD
BRANCH   5   8
ATOM      8  C   UNL A   1      34.297  24.606  25.411  1.00  0.00     0.120 C 
ATOM      9  C   UNL A   1      34.092  25.914  25.722  1.00  0.00     0.072 C 
BRANCH   8  10
ATOM     10  C   UNL A   1      34.217  24.404  23.906  1.00  0.00     0.105 C 
ATOM     11  N   UNL A   1      34.151  24.236  22.658  1.00  0.00    -0.192 NA
ENDBRANCH   8  10
BRANCH   9  12
ATOM     12  C   UNL A   1      33.470  26.887  24.856  1.00  0.00     0.129 A 
ATOM     13  C   UNL A   1      34.017  27.716  23.878  1.00  0.00     0.051 A 
ATOM     14  O   UNL A   1      32.102  27.100  24.841  1.00  0.00    -0.457 OA
ATOM     15  C   UNL A   1      32.977  28.477  23.304  1.00  0.00     0.051 A 
ATOM     16  C   UNL A   1      31.815  28.044  23.896  1.00  0.00     0.136 A 
BRANCH  16  17
ATOM     17  C   UNL A   1      30.411  28.386  23.696  1.00  0.00     0.036 A 
ATOM     18  C   UNL A   1      30.034  29.740  23.616  1.00  0.00     0.026 A 
ATOM     19  C   UNL A   1      29.418  27.407  23.511  1.00  0.00     0.052 A 
ATOM     20  C   UNL A   1      28.707  30.117  23.331  1.00  0.00     0.056 A 
ATOM     21  C   UNL A   1      28.094  27.773  23.244  1.00  0.00     0.022 A 
ATOM     22  Cl  UNL A   1      29.753  25.710  23.610  1.00  0.00    -0.084 Cl
ATOM     23  C   UNL A   1      27.742  29.118  23.150  1.00  0.00     0.014 A 
BRANCH  20  24
ATOM     24  C   UNL A   1      28.340  31.578  23.208  1.00  0.00     0.416 C 
ATOM     25  F   UNL A   1      27.105  31.853  23.706  1.00  0.00    -0.166 F 
ATOM     26  F   UNL A   1      29.206  32.384  23.884  1.00  0.00    -0.166 F 
ATOM     27  F   UNL A   1      28.341  32.033  21.924  1.00  0.00    -0.166 F 
ENDBRANCH  20  24
ENDBRANCH  16  17
ENDBRANCH   9  12
ENDBRANCH   5   8
ENDBRANCH   3   4
ENDBRANCH   2   3
ENDBRANCH   1   2
BRANCH   1  28
ATOM     28  C   UNL A   1      40.235  22.466  26.331  1.00  0.00     0.002 C 
BRANCH  28  29
ATOM     29  C   UNL A   1      39.977  20.956  26.283  1.00  0.00     0.021 C 
BRANCH  29  30
ATOM     30  C   UNL A   1      40.968  20.116  27.084  1.00  0.00     0.116 C 
BRANCH  30  31
ATOM     31  N   UNL A   1      41.934  19.460  26.218  1.00  0.00    -0.352 N 
ATOM     32  C   UNL A   1      42.980  19.996  25.509  1.00  0.00     0.251 C 
ATOM     33  H   UNL A   1      41.821  18.486  26.127  1.00  0.00     0.163 HD
ATOM     34  O   UNL A   1      43.516  19.334  24.627  1.00  0.00    -0.269 OA
BRANCH  32  35
ATOM     35  C   UNL A   1      43.442  21.370  25.800  1.00  0.00     0.039 A 
ATOM     36  C   UNL A   1      43.398  22.328  24.784  1.00  0.00     0.014 A 
ATOM     37  C   UNL A   1      43.927  21.709  27.067  1.00  0.00     0.014 A 
ATOM     38  C   UNL A   1      43.775  23.643  25.059  1.00  0.00     0.010 A 
ATOM     39  C   UNL A   1      44.242  23.035  27.357  1.00  0.00     0.010 A 
ATOM     40  C   UNL A   1      44.158  24.017  26.359  1.00  0.00    -0.014 A 
BRANCH  40  41
ATOM     41  C   UNL A   1      44.430  25.439  26.697  1.00  0.00     0.031 A 
ATOM     42  C   UNL A   1      45.814  26.008  26.547  1.00  0.00     0.074 A 
ATOM     43  C   UNL A   1      43.434  26.194  27.205  1.00  0.00     0.049 A 
ATOM     44  N   UNL A   1      46.255  27.199  26.860  1.00  0.00    -0.248 NA
ATOM     45  C   UNL A   1      46.843  25.114  25.991  1.00  0.00     0.031 C 
ATOM     46  C   UNL A   1      42.061  25.736  27.430  1.00  0.00     0.029 A 
ATOM     47  N   UNL A   1      43.421  27.497  27.635  1.00  0.00    -0.354 N 
ATOM     48  C   UNL A   1      47.610  27.198  26.550  1.00  0.00     0.074 A 
ATOM     49  C   UNL A   1      47.928  25.872  26.066  1.00  0.00     0.031 C 
ATOM     50  C   UNL A   1      41.336  26.746  27.937  1.00  0.00     0.029 A 
ATOM     51  C   UNL A   1      42.201  27.906  28.126  1.00  0.00     0.049 A 
ATOM     52  H   UNL A   1      44.209  28.085  27.596  1.00  0.00     0.167 HD
ATOM     53  C   UNL A   1      48.499  28.217  26.646  1.00  0.00     0.034 A 
ATOM     54  C   UNL A   1      41.827  29.073  28.687  1.00  0.00     0.034 A 
ATOM     55  C   UNL A   1      48.160  29.537  27.120  1.00  0.00     0.049 A 
ATOM     56  C   UNL A   1      42.849  30.175  28.816  1.00  0.00     0.074 A 
ATOM     57  C   UNL A   1      48.969  30.660  27.190  1.00  0.00     0.029 A 
ATOM     58  N   UNL A   1      46.920  29.912  27.620  1.00  0.00    -0.354 N 
ATOM     59  N   UNL A   1      44.111  30.178  28.452  1.00  0.00    -0.248 NA
ATOM     60  C   UNL A   1      42.396  31.433  29.424  1.00  0.00     0.031 C 
ATOM     61  C   UNL A   1      48.244  31.686  27.803  1.00  0.00     0.029 A 
ATOM     62  C   UNL A   1      46.955  31.233  28.040  1.00  0.00     0.049 A 
ATOM     63  H   UNL A   1      46.130  29.326  27.668  1.00  0.00     0.167 HD
ATOM     64  C   UNL A   1      44.592  31.446  28.764  1.00  0.00     0.074 A 
ATOM     65  C   UNL A   1      43.479  32.187  29.318  1.00  0.00     0.031 C 
ATOM     66  C   UNL A   1      45.841  31.955  28.607  1.00  0.00     0.034 A 
BRANCH  53  67
ATOM     67  C   UNL A   1      49.932  27.943  26.258  1.00  0.00     0.023 A 
ATOM     68  C   UNL A   1      50.357  27.974  24.919  1.00  0.00     0.031 A 
ATOM     69  C   UNL A   1      50.893  27.671  27.249  1.00  0.00     0.131 A 
ATOM     70  C   UNL A   1      51.695  27.691  24.604  1.00  0.00     0.055 A 
ATOM     71  C   UNL A   1      52.237  27.462  26.934  1.00  0.00     0.041 A 
ATOM     72  F   UNL A   1      50.541  27.608  28.544  1.00  0.00    -0.206 F 
ATOM     73  C   UNL A   1      52.643  27.461  25.603  1.00  0.00     0.022 A 
BRANCH  70  74
ATOM     74  S   UNL A   1      52.158  27.523  22.858  1.00  0.00     0.124 S 
ATOM     75  O   UNL A   1      53.205  26.507  22.927  1.00  0.00    -0.237 OA
ATOM     76  O   UNL A   1      50.905  27.109  22.237  1.00  0.00    -0.237 OA
ATOM     77  O   UNL A   1      52.623  28.861  22.496  1.00  0.00    -0.744 OA
ENDBRANCH  70  74
ENDBRANCH  53  67
BRANCH  54  78
ATOM     78  C   UNL A   1      40.440  29.262  29.204  1.00  0.00     0.023 A 
ATOM     79  C   UNL A   1      40.163  29.195  30.579  1.00  0.00     0.031 A 
ATOM     80  C   UNL A   1      39.355  29.438  28.326  1.00  0.00     0.131 A 
ATOM     81  C   UNL A   1      38.835  29.235  31.031  1.00  0.00     0.055 A 
ATOM     82  C   UNL A   1      38.042  29.547  28.784  1.00  0.00     0.041 A 
ATOM     83  F   UNL A   1      39.558  29.511  27.000  1.00  0.00    -0.206 F 
ATOM     84  C   UNL A   1      37.773  29.426  30.144  1.00  0.00     0.022 A 
BRANCH  81  85
ATOM     85  S   UNL A   1      38.506  28.908  32.784  1.00  0.00     0.124 S 
ATOM     86  O   UNL A   1      37.064  28.690  32.779  1.00  0.00    -0.237 OA
ATOM     87  O   UNL A   1      39.334  27.732  33.031  1.00  0.00    -0.237 OA
ATOM     88  O   UNL A   1      38.951  30.132  33.447  1.00  0.00    -0.744 OA
ENDBRANCH  81  85
ENDBRANCH  54  78
BRANCH  66  89
ATOM     89  C   UNL A   1      46.051  33.392  29.019  1.00  0.00     0.023 A 
ATOM     90  C   UNL A   1      46.467  33.734  30.318  1.00  0.00     0.031 A 
ATOM     91  C   UNL A   1      45.815  34.434  28.105  1.00  0.00     0.131 A 
ATOM     92  C   UNL A   1      46.575  35.083  30.684  1.00  0.00     0.055 A 
ATOM     93  C   UNL A   1      45.991  35.773  28.456  1.00  0.00     0.041 A 
ATOM     94  F   UNL A   1      45.413  34.167  26.851  1.00  0.00    -0.206 F 
ATOM     95  C   UNL A   1      46.358  36.104  29.756  1.00  0.00     0.022 A 
BRANCH  92  96
ATOM     96  S   UNL A   1      46.910  35.487  32.421  1.00  0.00     0.124 S 
ATOM     97  O   UNL A   1      46.010  34.578  33.122  1.00  0.00    -0.237 OA
ATOM     98  O   UNL A   1      48.334  35.193  32.541  1.00  0.00    -0.237 OA
ATOM     99  O   UNL A   1      46.560  36.903  32.516  1.00  0.00    -0.744 OA
ENDBRANCH  92  96
ENDBRANCH  66  89
ENDBRANCH  40  41
ENDBRANCH  32  35
ENDBRANCH  30  31
ENDBRANCH  29  30
ENDBRANCH  28  29
ENDBRANCH   1  28
TORSDOF 20
ENDMDL
