MODEL 1
REMARK VINA RESULT:     -12.0      0.000      0.000
REMARK SMILES O=C(NCCCCCCNC(=O)c1ccc(-c2c3nc(c(-c4cc(S(=O)(=O)[O-])ccc4F)c4ccc([nH]4)c(-c4cc(S(=O)(=O)[O-])ccc4F)c4nc(c(-c5cc(S(=O)(=O)[O-])ccc5F)c5ccc2[nH]5)C=C4)C=C3)cc1)C1=Cc2c(ccc(Cl)c2Cl)O[C@H]1C(F)(F)F
REMARK SMILES IDX 7 1 6 2 5 3 4 4 3 5 1 6 2 7 76 9 77 10 87 11 78 12 86 13
REMARK SMILES IDX 79 14 84 15 80 16 82 17 85 18 81 19 83 20 88 21 89 22 90 23
REMARK SMILES IDX 91 24 8 25 9 26 10 27 11 28 12 30 13 31 14 32 75 33 15 34
REMARK SMILES IDX 74 35 16 36 17 37 18 38 68 39 19 40 73 41 67 42 69 43 20 44
REMARK SMILES IDX 72 45 66 46 65 47 21 49 53 50 33 51 52 52 34 53 37 54 51 55
REMARK SMILES IDX 70 56 35 57 36 58 50 60 71 61 38 62 22 63 23 64 31 65 24 66
REMARK SMILES IDX 30 67 32 68 29 69 25 70 26 71 27 72 28 73 54 74 55 75 63 76
REMARK SMILES IDX 56 77 62 78 64 79 61 80 57 81 58 82 59 83 60 84 39 85 40 86
REMARK SMILES IDX 48 87 41 88 47 89 49 90 46 91 42 92 43 93 44 94 45 95
REMARK H PARENT 3 8 10 29 69 48 37 59
REMARK Flexibility Score: inf
ROOT
ATOM      1  C   UNL A   1      31.160  31.061  25.776  1.00  0.00     0.002 C 
ENDROOT
BRANCH   1   2
ATOM      2  C   UNL A   1      32.061  29.819  25.777  1.00  0.00     0.002 C 
BRANCH   2   3
ATOM      3  C   UNL A   1      32.397  29.205  24.417  1.00  0.00     0.021 C 
BRANCH   3   4
ATOM      4  C   UNL A   1      33.688  28.396  24.338  1.00  0.00     0.116 C 
BRANCH   4   5
ATOM      5  N   UNL A   1      33.764  27.428  23.259  1.00  0.00    -0.352 N 
ATOM      6  O   UNL A   1      33.890  25.372  22.336  1.00  0.00    -0.270 OA
ATOM      7  C   UNL A   1      33.739  26.061  23.341  1.00  0.00     0.251 C 
ATOM      8  H   UNL A   1      33.845  27.802  22.352  1.00  0.00     0.163 HD
BRANCH   7   9
ATOM      9  C   UNL A   1      33.572  25.391  24.658  1.00  0.00     0.067 C 
ATOM     10  C   UNL A   1      34.682  24.972  25.287  1.00  0.00     0.027 C 
ATOM     11  C   UNL A   1      32.244  24.731  24.900  1.00  0.00     0.314 C 
ATOM     12  C   UNL A   1      34.775  23.492  25.319  1.00  0.00     0.037 A 
ATOM     13  O   UNL A   1      32.343  23.289  25.084  1.00  0.00    -0.475 OA
ATOM     14  C   UNL A   1      33.598  22.737  25.164  1.00  0.00     0.129 A 
ATOM     15  C   UNL A   1      36.028  22.848  25.299  1.00  0.00     0.070 A 
ATOM     16  C   UNL A   1      33.670  21.362  24.953  1.00  0.00     0.049 A 
ATOM     17  C   UNL A   1      36.091  21.471  25.054  1.00  0.00     0.060 A 
ATOM     18  Cl  UNL A   1      37.480  23.787  25.484  1.00  0.00    -0.082 Cl
ATOM     19  C   UNL A   1      34.916  20.735  24.872  1.00  0.00     0.026 A 
ATOM     20  Cl  UNL A   1      37.591  20.630  24.878  1.00  0.00    -0.083 Cl
BRANCH  11  21
ATOM     21  C   UNL A   1      31.477  25.373  26.075  1.00  0.00     0.429 C 
ATOM     22  F   UNL A   1      31.354  24.546  27.140  1.00  0.00    -0.167 F 
ATOM     23  F   UNL A   1      32.109  26.489  26.515  1.00  0.00    -0.167 F 
ATOM     24  F   UNL A   1      30.221  25.740  25.723  1.00  0.00    -0.167 F 
ENDBRANCH  11  21
ENDBRANCH   7   9
ENDBRANCH   4   5
ENDBRANCH   3   4
ENDBRANCH   2   3
ENDBRANCH   1   2
BRANCH   1  25
ATOM     25  C   UNL A   1      31.329  32.048  26.935  1.00  0.00     0.021 C 
BRANCH  25  26
ATOM     26  C   UNL A   1      32.723  32.643  27.131  1.00  0.00     0.116 C 
BRANCH  26  27
ATOM     27  N   UNL A   1      32.693  34.021  27.586  1.00  0.00    -0.352 N 
ATOM     28  C   UNL A   1      33.417  34.656  28.564  1.00  0.00     0.251 C 
ATOM     29  H   UNL A   1      32.048  34.596  27.114  1.00  0.00     0.163 HD
ATOM     30  O   UNL A   1      33.105  35.810  28.872  1.00  0.00    -0.269 OA
BRANCH  28  31
ATOM     31  C   UNL A   1      34.536  33.987  29.272  1.00  0.00     0.039 A 
ATOM     32  C   UNL A   1      35.847  34.359  28.952  1.00  0.00     0.014 A 
ATOM     33  C   UNL A   1      34.323  32.961  30.199  1.00  0.00     0.014 A 
ATOM     34  C   UNL A   1      36.931  33.749  29.591  1.00  0.00     0.010 A 
ATOM     35  C   UNL A   1      35.403  32.399  30.885  1.00  0.00     0.010 A 
ATOM     36  C   UNL A   1      36.720  32.781  30.587  1.00  0.00    -0.014 A 
BRANCH  36  37
ATOM     37  C   UNL A   1      37.865  32.159  31.311  1.00  0.00     0.031 A 
ATOM     38  C   UNL A   1      38.645  31.035  30.680  1.00  0.00     0.074 A 
ATOM     39  C   UNL A   1      38.174  32.571  32.557  1.00  0.00     0.049 A 
ATOM     40  N   UNL A   1      39.631  30.329  31.174  1.00  0.00    -0.248 NA
ATOM     41  C   UNL A   1      38.243  30.636  29.324  1.00  0.00     0.031 C 
ATOM     42  C   UNL A   1      37.481  33.632  33.291  1.00  0.00     0.029 A 
ATOM     43  N   UNL A   1      39.147  32.146  33.429  1.00  0.00    -0.354 N 
ATOM     44  C   UNL A   1      39.955  29.390  30.199  1.00  0.00     0.074 A 
ATOM     45  C   UNL A   1      39.021  29.586  29.109  1.00  0.00     0.031 C 
ATOM     46  C   UNL A   1      38.068  33.794  34.486  1.00  0.00     0.029 A 
ATOM     47  C   UNL A   1      39.146  32.821  34.629  1.00  0.00     0.049 A 
ATOM     48  H   UNL A   1      39.783  31.427  33.215  1.00  0.00     0.167 HD
ATOM     49  C   UNL A   1      40.949  28.465  30.203  1.00  0.00     0.034 A 
ATOM     50  C   UNL A   1      39.918  32.667  35.724  1.00  0.00     0.034 A 
ATOM     51  C   UNL A   1      41.884  28.294  31.290  1.00  0.00     0.049 A 
ATOM     52  C   UNL A   1      40.996  31.612  35.719  1.00  0.00     0.074 A 
ATOM     53  C   UNL A   1      42.969  27.437  31.367  1.00  0.00     0.029 A 
ATOM     54  N   UNL A   1      41.840  28.982  32.496  1.00  0.00    -0.354 N 
ATOM     55  N   UNL A   1      41.322  30.766  34.768  1.00  0.00    -0.248 NA
ATOM     56  C   UNL A   1      41.812  31.494  36.934  1.00  0.00     0.031 C 
ATOM     57  C   UNL A   1      43.533  27.552  32.643  1.00  0.00     0.029 A 
ATOM     58  C   UNL A   1      42.852  28.539  33.336  1.00  0.00     0.049 A 
ATOM     59  H   UNL A   1      41.186  29.682  32.723  1.00  0.00     0.167 HD
ATOM     60  C   UNL A   1      42.404  30.042  35.259  1.00  0.00     0.074 A 
ATOM     61  C   UNL A   1      42.681  30.557  36.584  1.00  0.00     0.031 C 
ATOM     62  C   UNL A   1      43.111  29.047  34.664  1.00  0.00     0.034 A 
BRANCH  49  63
ATOM     63  C   UNL A   1      41.049  27.545  29.007  1.00  0.00     0.023 A 
ATOM     64  C   UNL A   1      42.051  27.699  28.032  1.00  0.00     0.031 A 
ATOM     65  C   UNL A   1      40.109  26.514  28.823  1.00  0.00     0.131 A 
ATOM     66  C   UNL A   1      42.037  26.897  26.880  1.00  0.00     0.055 A 
ATOM     67  C   UNL A   1      40.156  25.662  27.718  1.00  0.00     0.041 A 
ATOM     68  F   UNL A   1      39.118  26.326  29.708  1.00  0.00    -0.206 F 
ATOM     69  C   UNL A   1      41.113  25.862  26.728  1.00  0.00     0.022 A 
BRANCH  66  70
ATOM     70  S   UNL A   1      43.145  27.334  25.510  1.00  0.00     0.124 S 
ATOM     71  O   UNL A   1      44.232  28.010  26.214  1.00  0.00    -0.237 OA
ATOM     72  O   UNL A   1      43.466  26.032  24.938  1.00  0.00    -0.237 OA
ATOM     73  O   UNL A   1      42.324  28.201  24.668  1.00  0.00    -0.744 OA
ENDBRANCH  66  70
ENDBRANCH  49  63
BRANCH  50  74
ATOM     74  C   UNL A   1      39.706  33.526  36.924  1.00  0.00     0.023 A 
ATOM     75  C   UNL A   1      39.008  33.042  38.042  1.00  0.00     0.031 A 
ATOM     76  C   UNL A   1      40.165  34.855  36.957  1.00  0.00     0.131 A 
ATOM     77  C   UNL A   1      38.751  33.893  39.128  1.00  0.00     0.055 A 
ATOM     78  C   UNL A   1      39.951  35.681  38.061  1.00  0.00     0.041 A 
ATOM     79  F   UNL A   1      40.840  35.367  35.915  1.00  0.00    -0.206 F 
ATOM     80  C   UNL A   1      39.229  35.205  39.152  1.00  0.00     0.022 A 
BRANCH  77  81
ATOM     81  S   UNL A   1      37.710  33.282  40.482  1.00  0.00     0.124 S 
ATOM     82  O   UNL A   1      38.601  32.330  41.134  1.00  0.00    -0.237 OA
ATOM     83  O   UNL A   1      37.426  34.507  41.223  1.00  0.00    -0.237 OA
ATOM     84  O   UNL A   1      36.563  32.695  39.792  1.00  0.00    -0.744 OA
ENDBRANCH  77  81
ENDBRANCH  50  74
BRANCH  62  85
ATOM     85  C   UNL A   1      44.282  28.482  35.433  1.00  0.00     0.023 A 
ATOM     86  C   UNL A   1      44.122  27.456  36.381  1.00  0.00     0.031 A 
ATOM     87  C   UNL A   1      45.576  28.993  35.224  1.00  0.00     0.131 A 
ATOM     88  C   UNL A   1      45.228  27.011  37.122  1.00  0.00     0.055 A 
ATOM     89  C   UNL A   1      46.682  28.503  35.921  1.00  0.00     0.041 A 
ATOM     90  F   UNL A   1      45.788  29.975  34.335  1.00  0.00    -0.206 F 
ATOM     91  C   UNL A   1      46.509  27.516  36.887  1.00  0.00     0.022 A 
BRANCH  88  92
ATOM     92  S   UNL A   1      44.954  25.826  38.469  1.00  0.00     0.124 S 
ATOM     93  O   UNL A   1      44.272  24.736  37.780  1.00  0.00    -0.237 OA
ATOM     94  O   UNL A   1      46.313  25.545  38.919  1.00  0.00    -0.237 OA
ATOM     95  O   UNL A   1      44.129  26.571  39.419  1.00  0.00    -0.744 OA
ENDBRANCH  88  92
ENDBRANCH  62  85
ENDBRANCH  36  37
ENDBRANCH  28  31
ENDBRANCH  26  27
ENDBRANCH  25  26
ENDBRANCH   1  25
TORSDOF 17
ENDMDL
MODEL 2
REMARK VINA RESULT:     -11.9      1.307      1.635
REMARK SMILES O=C(NCCCCCCNC(=O)c1ccc(-c2c3nc(c(-c4cc(S(=O)(=O)[O-])ccc4F)c4ccc([nH]4)c(-c4cc(S(=O)(=O)[O-])ccc4F)c4nc(c(-c5cc(S(=O)(=O)[O-])ccc5F)c5ccc2[nH]5)C=C4)C=C3)cc1)C1=Cc2c(ccc(Cl)c2Cl)O[C@H]1C(F)(F)F
REMARK SMILES IDX 7 1 6 2 5 3 4 4 3 5 1 6 2 7 76 9 77 10 87 11 78 12 86 13
REMARK SMILES IDX 79 14 84 15 80 16 82 17 85 18 81 19 83 20 88 21 89 22 90 23
REMARK SMILES IDX 91 24 8 25 9 26 10 27 11 28 12 30 13 31 14 32 75 33 15 34
REMARK SMILES IDX 74 35 16 36 17 37 18 38 68 39 19 40 73 41 67 42 69 43 20 44
REMARK SMILES IDX 72 45 66 46 65 47 21 49 53 50 33 51 52 52 34 53 37 54 51 55
REMARK SMILES IDX 70 56 35 57 36 58 50 60 71 61 38 62 22 63 23 64 31 65 24 66
REMARK SMILES IDX 30 67 32 68 29 69 25 70 26 71 27 72 28 73 54 74 55 75 63 76
REMARK SMILES IDX 56 77 62 78 64 79 61 80 57 81 58 82 59 83 60 84 39 85 40 86
REMARK SMILES IDX 48 87 41 88 47 89 49 90 46 91 42 92 43 93 44 94 45 95
REMARK H PARENT 3 8 10 29 69 48 37 59
REMARK Flexibility Score: inf
ROOT
ATOM      1  C   UNL A   1      31.461  30.440  26.030  1.00  0.00     0.002 C 
ENDROOT
BRANCH   1   2
ATOM      2  C   UNL A   1      32.784  29.917  25.457  1.00  0.00     0.002 C 
BRANCH   2   3
ATOM      3  C   UNL A   1      32.692  28.885  24.331  1.00  0.00     0.021 C 
BRANCH   3   4
ATOM      4  C   UNL A   1      33.934  28.034  24.089  1.00  0.00     0.116 C 
BRANCH   4   5
ATOM      5  N   UNL A   1      33.826  27.042  23.034  1.00  0.00    -0.352 N 
ATOM      6  O   UNL A   1      33.666  24.966  22.161  1.00  0.00    -0.270 OA
ATOM      7  C   UNL A   1      33.666  25.687  23.156  1.00  0.00     0.251 C 
ATOM      8  H   UNL A   1      33.874  27.388  22.113  1.00  0.00     0.163 HD
BRANCH   7   9
ATOM      9  C   UNL A   1      33.533  25.065  24.499  1.00  0.00     0.067 C 
ATOM     10  C   UNL A   1      34.663  24.749  25.152  1.00  0.00     0.027 C 
ATOM     11  C   UNL A   1      32.250  24.328  24.762  1.00  0.00     0.314 C 
ATOM     12  C   UNL A   1      34.855  23.281  25.249  1.00  0.00     0.037 A 
ATOM     13  O   UNL A   1      32.444  22.904  25.009  1.00  0.00    -0.475 OA
ATOM     14  C   UNL A   1      33.733  22.443  25.120  1.00  0.00     0.129 A 
ATOM     15  C   UNL A   1      36.149  22.724  25.264  1.00  0.00     0.070 A 
ATOM     16  C   UNL A   1      33.900  21.068  24.970  1.00  0.00     0.049 A 
ATOM     17  C   UNL A   1      36.307  21.344  25.080  1.00  0.00     0.060 A 
ATOM     18  Cl  UNL A   1      37.533  23.765  25.416  1.00  0.00    -0.082 Cl
ATOM     19  C   UNL A   1      35.185  20.524  24.923  1.00  0.00     0.026 A 
ATOM     20  Cl  UNL A   1      37.861  20.600  24.948  1.00  0.00    -0.083 Cl
BRANCH  11  21
ATOM     21  C   UNL A   1      31.432  24.966  25.904  1.00  0.00     0.429 C 
ATOM     22  F   UNL A   1      31.790  24.512  27.128  1.00  0.00    -0.167 F 
ATOM     23  F   UNL A   1      31.593  26.313  25.922  1.00  0.00    -0.167 F 
ATOM     24  F   UNL A   1      30.105  24.726  25.775  1.00  0.00    -0.167 F 
ENDBRANCH  11  21
ENDBRANCH   7   9
ENDBRANCH   4   5
ENDBRANCH   3   4
ENDBRANCH   2   3
ENDBRANCH   1   2
BRANCH   1  25
ATOM     25  C   UNL A   1      31.427  31.901  26.492  1.00  0.00     0.021 C 
BRANCH  25  26
ATOM     26  C   UNL A   1      32.688  32.435  27.170  1.00  0.00     0.116 C 
BRANCH  26  27
ATOM     27  N   UNL A   1      32.559  33.814  27.602  1.00  0.00    -0.352 N 
ATOM     28  C   UNL A   1      33.239  34.515  28.567  1.00  0.00     0.251 C 
ATOM     29  H   UNL A   1      31.873  34.332  27.124  1.00  0.00     0.163 HD
ATOM     30  O   UNL A   1      32.845  35.649  28.858  1.00  0.00    -0.269 OA
BRANCH  28  31
ATOM     31  C   UNL A   1      34.407  33.941  29.279  1.00  0.00     0.039 A 
ATOM     32  C   UNL A   1      34.177  33.009  30.298  1.00  0.00     0.014 A 
ATOM     33  C   UNL A   1      35.717  34.347  29.006  1.00  0.00     0.014 A 
ATOM     34  C   UNL A   1      35.251  32.449  30.999  1.00  0.00     0.010 A 
ATOM     35  C   UNL A   1      36.792  33.738  29.660  1.00  0.00     0.010 A 
ATOM     36  C   UNL A   1      36.573  32.786  30.668  1.00  0.00    -0.014 A 
BRANCH  36  37
ATOM     37  C   UNL A   1      37.727  32.159  31.373  1.00  0.00     0.031 A 
ATOM     38  C   UNL A   1      38.503  31.044  30.724  1.00  0.00     0.074 A 
ATOM     39  C   UNL A   1      38.048  32.560  32.620  1.00  0.00     0.049 A 
ATOM     40  N   UNL A   1      39.495  30.335  31.201  1.00  0.00    -0.248 NA
ATOM     41  C   UNL A   1      38.088  30.657  29.368  1.00  0.00     0.031 C 
ATOM     42  C   UNL A   1      37.359  33.613  33.371  1.00  0.00     0.029 A 
ATOM     43  N   UNL A   1      39.030  32.130  33.478  1.00  0.00    -0.354 N 
ATOM     44  C   UNL A   1      39.812  29.407  30.213  1.00  0.00     0.074 A 
ATOM     45  C   UNL A   1      38.867  29.611  29.135  1.00  0.00     0.031 C 
ATOM     46  C   UNL A   1      37.958  33.764  34.562  1.00  0.00     0.029 A 
ATOM     47  C   UNL A   1      39.040  32.793  34.685  1.00  0.00     0.049 A 
ATOM     48  H   UNL A   1      39.666  31.414  33.251  1.00  0.00     0.167 HD
ATOM     49  C   UNL A   1      40.808  28.485  30.198  1.00  0.00     0.034 A 
ATOM     50  C   UNL A   1      39.824  32.630  35.770  1.00  0.00     0.034 A 
ATOM     51  C   UNL A   1      41.755  28.305  31.274  1.00  0.00     0.049 A 
ATOM     52  C   UNL A   1      40.903  31.578  35.744  1.00  0.00     0.074 A 
ATOM     53  C   UNL A   1      42.843  27.451  31.332  1.00  0.00     0.029 A 
ATOM     54  N   UNL A   1      41.722  28.982  32.488  1.00  0.00    -0.354 N 
ATOM     55  N   UNL A   1      41.222  30.743  34.781  1.00  0.00    -0.248 NA
ATOM     56  C   UNL A   1      41.732  31.451  36.949  1.00  0.00     0.031 C 
ATOM     57  C   UNL A   1      43.420  27.556  32.603  1.00  0.00     0.029 A 
ATOM     58  C   UNL A   1      42.743  28.534  33.313  1.00  0.00     0.049 A 
ATOM     59  H   UNL A   1      41.068  29.678  32.728  1.00  0.00     0.167 HD
ATOM     60  C   UNL A   1      42.311  30.017  35.254  1.00  0.00     0.074 A 
ATOM     61  C   UNL A   1      42.600  30.520  36.581  1.00  0.00     0.031 C 
ATOM     62  C   UNL A   1      43.014  29.030  34.643  1.00  0.00     0.034 A 
BRANCH  49  63
ATOM     63  C   UNL A   1      40.898  27.577  28.993  1.00  0.00     0.023 A 
ATOM     64  C   UNL A   1      41.891  27.741  28.010  1.00  0.00     0.031 A 
ATOM     65  C   UNL A   1      39.958  26.546  28.807  1.00  0.00     0.131 A 
ATOM     66  C   UNL A   1      41.868  26.951  26.851  1.00  0.00     0.055 A 
ATOM     67  C   UNL A   1      39.995  25.705  27.693  1.00  0.00     0.041 A 
ATOM     68  F   UNL A   1      38.975  26.349  29.699  1.00  0.00    -0.206 F 
ATOM     69  C   UNL A   1      40.944  25.916  26.697  1.00  0.00     0.022 A 
BRANCH  66  70
ATOM     70  S   UNL A   1      42.964  27.401  25.475  1.00  0.00     0.124 S 
ATOM     71  O   UNL A   1      44.087  28.012  26.182  1.00  0.00    -0.237 OA
ATOM     72  O   UNL A   1      43.227  26.112  24.848  1.00  0.00    -0.237 OA
ATOM     73  O   UNL A   1      42.157  28.328  24.685  1.00  0.00    -0.744 OA
ENDBRANCH  66  70
ENDBRANCH  49  63
BRANCH  50  74
ATOM     74  C   UNL A   1      39.621  33.477  36.980  1.00  0.00     0.023 A 
ATOM     75  C   UNL A   1      40.438  34.593  37.223  1.00  0.00     0.031 A 
ATOM     76  C   UNL A   1      38.633  33.164  37.930  1.00  0.00     0.131 A 
ATOM     77  C   UNL A   1      40.282  35.330  38.408  1.00  0.00     0.055 A 
ATOM     78  C   UNL A   1      38.448  33.931  39.081  1.00  0.00     0.041 A 
ATOM     79  F   UNL A   1      37.823  32.109  37.746  1.00  0.00    -0.206 F 
ATOM     80  C   UNL A   1      39.284  35.016  39.332  1.00  0.00     0.022 A 
BRANCH  77  81
ATOM     81  S   UNL A   1      41.459  36.664  38.762  1.00  0.00     0.124 S 
ATOM     82  O   UNL A   1      40.569  37.742  39.176  1.00  0.00    -0.237 OA
ATOM     83  O   UNL A   1      42.283  36.071  39.811  1.00  0.00    -0.237 OA
ATOM     84  O   UNL A   1      42.136  36.869  37.483  1.00  0.00    -0.744 OA
ENDBRANCH  77  81
ENDBRANCH  50  74
BRANCH  62  85
ATOM     85  C   UNL A   1      44.195  28.460  35.394  1.00  0.00     0.023 A 
ATOM     86  C   UNL A   1      44.051  27.409  36.317  1.00  0.00     0.031 A 
ATOM     87  C   UNL A   1      45.482  28.992  35.194  1.00  0.00     0.131 A 
ATOM     88  C   UNL A   1      45.164  26.959  37.044  1.00  0.00     0.055 A 
ATOM     89  C   UNL A   1      46.596  28.499  35.876  1.00  0.00     0.041 A 
ATOM     90  F   UNL A   1      45.678  29.999  34.329  1.00  0.00    -0.206 F 
ATOM     91  C   UNL A   1      46.438  27.487  36.817  1.00  0.00     0.022 A 
BRANCH  88  92
ATOM     92  S   UNL A   1      44.909  25.739  38.362  1.00  0.00     0.124 S 
ATOM     93  O   UNL A   1      44.295  26.548  39.410  1.00  0.00    -0.237 OA
ATOM     94  O   UNL A   1      44.038  24.762  37.718  1.00  0.00    -0.237 OA
ATOM     95  O   UNL A   1      46.260  25.264  38.657  1.00  0.00    -0.744 OA
ENDBRANCH  88  92
ENDBRANCH  62  85
ENDBRANCH  36  37
ENDBRANCH  28  31
ENDBRANCH  26  27
ENDBRANCH  25  26
ENDBRANCH   1  25
TORSDOF 17
ENDMDL
MODEL 3
REMARK VINA RESULT:     -11.9      2.631      3.543
REMARK SMILES O=C(NCCCCCCNC(=O)c1ccc(-c2c3nc(c(-c4cc(S(=O)(=O)[O-])ccc4F)c4ccc([nH]4)c(-c4cc(S(=O)(=O)[O-])ccc4F)c4nc(c(-c5cc(S(=O)(=O)[O-])ccc5F)c5ccc2[nH]5)C=C4)C=C3)cc1)C1=Cc2c(ccc(Cl)c2Cl)O[C@H]1C(F)(F)F
REMARK SMILES IDX 7 1 6 2 5 3 4 4 3 5 1 6 2 7 76 9 77 10 87 11 78 12 86 13
REMARK SMILES IDX 79 14 84 15 80 16 82 17 85 18 81 19 83 20 88 21 89 22 90 23
REMARK SMILES IDX 91 24 8 25 9 26 10 27 11 28 12 30 13 31 14 32 75 33 15 34
REMARK SMILES IDX 74 35 16 36 17 37 18 38 68 39 19 40 73 41 67 42 69 43 20 44
REMARK SMILES IDX 72 45 66 46 65 47 21 49 53 50 33 51 52 52 34 53 37 54 51 55
REMARK SMILES IDX 70 56 35 57 36 58 50 60 71 61 38 62 22 63 23 64 31 65 24 66
REMARK SMILES IDX 30 67 32 68 29 69 25 70 26 71 27 72 28 73 54 74 55 75 63 76
REMARK SMILES IDX 56 77 62 78 64 79 61 80 57 81 58 82 59 83 60 84 39 85 40 86
REMARK SMILES IDX 48 87 41 88 47 89 49 90 46 91 42 92 43 93 44 94 45 95
REMARK H PARENT 3 8 10 29 69 48 37 59
REMARK Flexibility Score: inf
ROOT
ATOM      1  C   UNL A   1      33.914  28.424  24.004  1.00  0.00     0.002 C 
ENDROOT
BRANCH   1   2
ATOM      2  C   UNL A   1      34.027  26.898  24.114  1.00  0.00     0.002 C 
BRANCH   2   3
ATOM      3  C   UNL A   1      33.928  26.295  25.516  1.00  0.00     0.021 C 
BRANCH   3   4
ATOM      4  C   UNL A   1      34.365  24.841  25.662  1.00  0.00     0.116 C 
BRANCH   4   5
ATOM      5  N   UNL A   1      35.242  24.336  24.621  1.00  0.00    -0.352 N 
ATOM      6  O   UNL A   1      35.831  23.043  22.866  1.00  0.00    -0.270 OA
ATOM      7  C   UNL A   1      34.954  23.431  23.634  1.00  0.00     0.251 C 
ATOM      8  H   UNL A   1      36.161  24.688  24.626  1.00  0.00     0.163 HD
BRANCH   7   9
ATOM      9  C   UNL A   1      33.583  22.871  23.505  1.00  0.00     0.067 C 
ATOM     10  C   UNL A   1      32.713  23.528  22.721  1.00  0.00     0.027 C 
ATOM     11  C   UNL A   1      33.109  22.016  24.647  1.00  0.00     0.314 C 
ATOM     12  C   UNL A   1      31.634  24.171  23.508  1.00  0.00     0.037 A 
ATOM     13  O   UNL A   1      31.950  22.568  25.336  1.00  0.00    -0.475 OA
ATOM     14  C   UNL A   1      31.351  23.680  24.795  1.00  0.00     0.129 A 
ATOM     15  C   UNL A   1      31.041  25.372  23.070  1.00  0.00     0.070 A 
ATOM     16  C   UNL A   1      30.517  24.396  25.651  1.00  0.00     0.049 A 
ATOM     17  C   UNL A   1      30.230  26.101  23.950  1.00  0.00     0.060 A 
ATOM     18  Cl  UNL A   1      31.399  25.978  21.480  1.00  0.00    -0.082 Cl
ATOM     19  C   UNL A   1      29.980  25.617  25.238  1.00  0.00     0.026 A 
ATOM     20  Cl  UNL A   1      29.577  27.647  23.539  1.00  0.00    -0.083 Cl
BRANCH  11  21
ATOM     21  C   UNL A   1      32.837  20.560  24.215  1.00  0.00     0.429 C 
ATOM     22  F   UNL A   1      32.384  20.463  22.942  1.00  0.00    -0.167 F 
ATOM     23  F   UNL A   1      33.966  19.813  24.288  1.00  0.00    -0.167 F 
ATOM     24  F   UNL A   1      31.912  19.960  25.002  1.00  0.00    -0.167 F 
ENDBRANCH  11  21
ENDBRANCH   7   9
ENDBRANCH   4   5
ENDBRANCH   3   4
ENDBRANCH   2   3
ENDBRANCH   1   2
BRANCH   1  25
ATOM     25  C   UNL A   1      32.557  29.050  24.343  1.00  0.00     0.021 C 
BRANCH  25  26
ATOM     26  C   UNL A   1      32.290  29.349  25.818  1.00  0.00     0.116 C 
BRANCH  26  27
ATOM     27  N   UNL A   1      32.055  30.757  26.078  1.00  0.00    -0.352 N 
ATOM     28  C   UNL A   1      32.698  31.630  26.920  1.00  0.00     0.251 C 
ATOM     29  H   UNL A   1      31.313  31.152  25.566  1.00  0.00     0.163 HD
ATOM     30  O   UNL A   1      32.217  32.756  27.081  1.00  0.00    -0.269 OA
BRANCH  28  31
ATOM     31  C   UNL A   1      33.931  31.250  27.654  1.00  0.00     0.039 A 
ATOM     32  C   UNL A   1      34.835  32.259  28.009  1.00  0.00     0.014 A 
ATOM     33  C   UNL A   1      34.243  29.919  27.944  1.00  0.00     0.014 A 
ATOM     34  C   UNL A   1      36.012  31.943  28.696  1.00  0.00     0.010 A 
ATOM     35  C   UNL A   1      35.386  29.611  28.687  1.00  0.00     0.010 A 
ATOM     36  C   UNL A   1      36.287  30.617  29.068  1.00  0.00    -0.014 A 
BRANCH  36  37
ATOM     37  C   UNL A   1      37.513  30.274  29.842  1.00  0.00     0.031 A 
ATOM     38  C   UNL A   1      38.572  29.389  29.239  1.00  0.00     0.074 A 
ATOM     39  C   UNL A   1      37.653  30.718  31.108  1.00  0.00     0.049 A 
ATOM     40  N   UNL A   1      39.676  28.932  29.775  1.00  0.00    -0.248 NA
ATOM     41  C   UNL A   1      38.345  28.938  27.860  1.00  0.00     0.031 C 
ATOM     42  C   UNL A   1      36.688  31.561  31.818  1.00  0.00     0.029 A 
ATOM     43  N   UNL A   1      38.657  30.521  32.024  1.00  0.00    -0.354 N 
ATOM     44  C   UNL A   1      40.266  28.125  28.806  1.00  0.00     0.074 A 
ATOM     45  C   UNL A   1      39.365  28.114  27.672  1.00  0.00     0.031 C 
ATOM     46  C   UNL A   1      37.161  31.830  33.045  1.00  0.00     0.029 A 
ATOM     47  C   UNL A   1      38.436  31.145  33.231  1.00  0.00     0.049 A 
ATOM     48  H   UNL A   1      39.460  29.983  31.835  1.00  0.00     0.167 HD
ATOM     49  C   UNL A   1      41.454  27.469  28.851  1.00  0.00     0.034 A 
ATOM     50  C   UNL A   1      39.169  31.156  34.363  1.00  0.00     0.034 A 
ATOM     51  C   UNL A   1      42.350  27.503  29.983  1.00  0.00     0.049 A 
ATOM     52  C   UNL A   1      40.470  30.395  34.400  1.00  0.00     0.074 A 
ATOM     53  C   UNL A   1      43.607  26.934  30.105  1.00  0.00     0.029 A 
ATOM     54  N   UNL A   1      42.082  28.130  31.194  1.00  0.00    -0.354 N 
ATOM     55  N   UNL A   1      41.037  29.678  33.457  1.00  0.00    -0.248 NA
ATOM     56  C   UNL A   1      41.232  30.450  35.655  1.00  0.00     0.031 C 
ATOM     57  C   UNL A   1      44.064  27.152  31.410  1.00  0.00     0.029 A 
ATOM     58  C   UNL A   1      43.131  27.926  32.079  1.00  0.00     0.049 A 
ATOM     59  H   UNL A   1      41.267  28.644  31.395  1.00  0.00     0.167 HD
ATOM     60  C   UNL A   1      42.239  29.227  33.995  1.00  0.00     0.074 A 
ATOM     61  C   UNL A   1      42.319  29.761  35.339  1.00  0.00     0.031 C 
ATOM     62  C   UNL A   1      43.195  28.449  33.425  1.00  0.00     0.034 A 
BRANCH  49  63
ATOM     63  C   UNL A   1      41.832  26.631  27.651  1.00  0.00     0.023 A 
ATOM     64  C   UNL A   1      41.707  25.229  27.653  1.00  0.00     0.031 A 
ATOM     65  C   UNL A   1      42.354  27.239  26.494  1.00  0.00     0.131 A 
ATOM     66  C   UNL A   1      42.178  24.482  26.563  1.00  0.00     0.055 A 
ATOM     67  C   UNL A   1      42.738  26.494  25.377  1.00  0.00     0.041 A 
ATOM     68  F   UNL A   1      42.515  28.570  26.435  1.00  0.00    -0.206 F 
ATOM     69  C   UNL A   1      42.668  25.105  25.414  1.00  0.00     0.022 A 
BRANCH  66  70
ATOM     70  S   UNL A   1      42.290  22.678  26.735  1.00  0.00     0.124 S 
ATOM     71  O   UNL A   1      43.653  22.515  27.234  1.00  0.00    -0.237 OA
ATOM     72  O   UNL A   1      41.222  22.386  27.684  1.00  0.00    -0.237 OA
ATOM     73  O   UNL A   1      42.069  22.190  25.376  1.00  0.00    -0.744 OA
ENDBRANCH  66  70
ENDBRANCH  49  63
BRANCH  50  74
ATOM     74  C   UNL A   1      38.697  31.908  35.560  1.00  0.00     0.023 A 
ATOM     75  C   UNL A   1      38.150  31.235  36.665  1.00  0.00     0.031 A 
ATOM     76  C   UNL A   1      38.751  33.313  35.605  1.00  0.00     0.131 A 
ATOM     77  C   UNL A   1      37.639  31.967  37.748  1.00  0.00     0.055 A 
ATOM     78  C   UNL A   1      38.289  34.034  36.707  1.00  0.00     0.041 A 
ATOM     79  F   UNL A   1      39.266  34.006  34.577  1.00  0.00    -0.206 F 
ATOM     80  C   UNL A   1      37.717  33.361  37.783  1.00  0.00     0.022 A 
BRANCH  77  81
ATOM     81  S   UNL A   1      36.798  31.070  39.081  1.00  0.00     0.124 S 
ATOM     82  O   UNL A   1      37.767  31.173  40.165  1.00  0.00    -0.237 OA
ATOM     83  O   UNL A   1      35.571  31.846  39.240  1.00  0.00    -0.237 OA
ATOM     84  O   UNL A   1      36.616  29.730  38.529  1.00  0.00    -0.744 OA
ENDBRANCH  77  81
ENDBRANCH  50  74
BRANCH  62  85
ATOM     85  C   UNL A   1      44.430  28.166  34.247  1.00  0.00     0.023 A 
ATOM     86  C   UNL A   1      44.525  27.039  35.082  1.00  0.00     0.031 A 
ATOM     87  C   UNL A   1      45.524  29.051  34.204  1.00  0.00     0.131 A 
ATOM     88  C   UNL A   1      45.665  26.855  35.881  1.00  0.00     0.055 A 
ATOM     89  C   UNL A   1      46.679  28.829  34.955  1.00  0.00     0.041 A 
ATOM     90  F   UNL A   1      45.488  30.145  33.428  1.00  0.00    -0.206 F 
ATOM     91  C   UNL A   1      46.748  27.733  35.810  1.00  0.00     0.022 A 
BRANCH  88  92
ATOM     92  S   UNL A   1      45.673  25.500  37.087  1.00  0.00     0.124 S 
ATOM     93  O   UNL A   1      46.521  24.511  36.428  1.00  0.00    -0.237 OA
ATOM     94  O   UNL A   1      46.240  26.138  38.270  1.00  0.00    -0.237 OA
ATOM     95  O   UNL A   1      44.262  25.131  37.199  1.00  0.00    -0.744 OA
ENDBRANCH  88  92
ENDBRANCH  62  85
ENDBRANCH  36  37
ENDBRANCH  28  31
ENDBRANCH  26  27
ENDBRANCH  25  26
ENDBRANCH   1  25
TORSDOF 17
ENDMDL
