MODEL 1
REMARK VINA RESULT:     -13.0      0.000      0.000
REMARK SMILES O=C(NCCCCCCNC(=O)C1CCN(C2=[NH+]C(Cl)=[NH+]C3=[NH+]C=N[C@@H]32)CC1)c1ccc(-c2c3nc(c(-c4cc(S(=O)(=O)[O-])ccc4F)c4ccc([nH]4)c(-c4cc(S(=O)(=O)[O-])ccc4F)c4nc(c(-c5cc(S(=O)(=O)[O-])ccc5F)c5ccc2[nH]5)C=C4)C=C3)cc1
REMARK SMILES IDX 5 1 4 2 3 3 1 4 2 5 29 7 30 8 91 9 31 10 90 11 32 12 33 13
REMARK SMILES IDX 34 14 84 15 35 16 89 17 83 18 85 19 36 20 88 21 82 22 81 23
REMARK SMILES IDX 37 25 69 26 49 27 68 28 50 29 53 30 67 31 86 32 51 33 52 34
REMARK SMILES IDX 66 36 87 37 54 38 38 39 39 40 47 41 40 42 46 43 48 44 45 45
REMARK SMILES IDX 41 46 42 47 43 48 44 49 70 50 71 51 79 52 72 53 78 54 80 55
REMARK SMILES IDX 77 56 73 57 74 58 75 59 76 60 55 61 56 62 64 63 57 64 63 65
REMARK SMILES IDX 65 66 62 67 58 68 59 69 60 70 61 71 6 72 7 73 8 74 9 75
REMARK SMILES IDX 10 76 11 77 12 79 13 80 14 81 28 82 15 83 27 84 16 85 17 86
REMARK SMILES IDX 18 87 26 88 19 89 22 91 25 92 20 93 21 94 23 95 24 96
REMARK H PARENT 3 6 85 24 53 35 10 78 18 90 21 97 23 98
REMARK Flexibility Score: inf
ROOT
ATOM      1  C   UNL A   1      37.467  32.425  29.539  1.00  0.00     0.021 C 
ENDROOT
BRANCH   1   2
ATOM      2  C   UNL A   1      36.334  31.587  30.128  1.00  0.00     0.116 C 
BRANCH   2   3
ATOM      3  N   UNL A   1      35.652  30.733  29.178  1.00  0.00    -0.352 N 
ATOM      4  O   UNL A   1      35.153  29.154  27.711  1.00  0.00    -0.269 OA
ATOM      5  C   UNL A   1      36.037  29.683  28.390  1.00  0.00     0.251 C 
ATOM      6  H   UNL A   1      34.700  30.960  29.076  1.00  0.00     0.163 HD
BRANCH   5   7
ATOM      7  C   UNL A   1      37.433  29.187  28.267  1.00  0.00     0.039 A 
ATOM      8  C   UNL A   1      38.330  29.550  27.262  1.00  0.00     0.014 A 
ATOM      9  C   UNL A   1      37.873  28.319  29.283  1.00  0.00     0.014 A 
ATOM     10  C   UNL A   1      39.615  29.010  27.235  1.00  0.00     0.010 A 
ATOM     11  C   UNL A   1      39.164  27.796  29.274  1.00  0.00     0.010 A 
ATOM     12  C   UNL A   1      40.034  28.131  28.239  1.00  0.00    -0.014 A 
BRANCH  12  13
ATOM     13  C   UNL A   1      41.452  27.766  28.292  1.00  0.00     0.031 A 
ATOM     14  C   UNL A   1      41.795  26.496  27.587  1.00  0.00     0.074 A 
ATOM     15  C   UNL A   1      42.438  28.561  28.755  1.00  0.00     0.049 A 
ATOM     16  N   UNL A   1      42.327  25.423  28.076  1.00  0.00    -0.248 NA
ATOM     17  C   UNL A   1      41.401  26.372  26.174  1.00  0.00     0.031 C 
ATOM     18  C   UNL A   1      42.325  29.950  29.196  1.00  0.00     0.029 A 
ATOM     19  N   UNL A   1      43.784  28.322  28.815  1.00  0.00    -0.354 N 
ATOM     20  C   UNL A   1      42.533  24.566  26.995  1.00  0.00     0.074 A 
ATOM     21  C   UNL A   1      41.800  25.131  25.896  1.00  0.00     0.031 C 
ATOM     22  C   UNL A   1      43.561  30.494  29.268  1.00  0.00     0.029 A 
ATOM     23  C   UNL A   1      44.554  29.466  28.993  1.00  0.00     0.049 A 
ATOM     24  H   UNL A   1      44.172  27.420  28.740  1.00  0.00     0.167 HD
ATOM     25  C   UNL A   1      43.458  23.566  27.039  1.00  0.00     0.034 A 
ATOM     26  C   UNL A   1      45.902  29.587  28.858  1.00  0.00     0.034 A 
ATOM     27  C   UNL A   1      43.828  23.252  28.400  1.00  0.00     0.049 A 
ATOM     28  C   UNL A   1      46.491  28.236  29.010  1.00  0.00     0.074 A 
ATOM     29  C   UNL A   1      43.133  22.857  29.527  1.00  0.00     0.029 A 
ATOM     30  N   UNL A   1      45.064  23.650  28.858  1.00  0.00    -0.354 N 
ATOM     31  N   UNL A   1      46.475  27.563  30.127  1.00  0.00    -0.248 NA
ATOM     32  C   UNL A   1      46.724  27.441  27.814  1.00  0.00     0.031 C 
ATOM     33  C   UNL A   1      43.779  23.523  30.609  1.00  0.00     0.029 A 
ATOM     34  C   UNL A   1      44.864  24.228  30.086  1.00  0.00     0.049 A 
ATOM     35  H   UNL A   1      45.924  23.542  28.393  1.00  0.00     0.167 HD
ATOM     36  C   UNL A   1      46.257  26.248  29.750  1.00  0.00     0.074 A 
ATOM     37  C   UNL A   1      46.533  26.217  28.316  1.00  0.00     0.031 C 
ATOM     38  C   UNL A   1      45.608  25.373  30.573  1.00  0.00     0.034 A 
BRANCH  25  39
ATOM     39  C   UNL A   1      44.295  23.108  25.858  1.00  0.00     0.023 A 
ATOM     40  C   UNL A   1      44.282  21.731  25.558  1.00  0.00     0.031 A 
ATOM     41  C   UNL A   1      45.313  23.859  25.228  1.00  0.00     0.131 A 
ATOM     42  C   UNL A   1      45.309  21.144  24.799  1.00  0.00     0.055 A 
ATOM     43  C   UNL A   1      46.287  23.281  24.407  1.00  0.00     0.041 A 
ATOM     44  F   UNL A   1      45.486  25.168  25.438  1.00  0.00    -0.206 F 
ATOM     45  C   UNL A   1      46.315  21.910  24.220  1.00  0.00     0.022 A 
BRANCH  42  46
ATOM     46  S   UNL A   1      45.422  19.336  24.769  1.00  0.00     0.124 S 
ATOM     47  O   UNL A   1      46.758  19.122  25.316  1.00  0.00    -0.237 OA
ATOM     48  O   UNL A   1      44.306  18.951  25.626  1.00  0.00    -0.237 OA
ATOM     49  O   UNL A   1      45.265  19.009  23.354  1.00  0.00    -0.744 OA
ENDBRANCH  42  46
ENDBRANCH  25  39
BRANCH  26  50
ATOM     50  C   UNL A   1      46.660  30.757  28.330  1.00  0.00     0.023 A 
ATOM     51  C   UNL A   1      46.128  31.648  27.373  1.00  0.00     0.031 A 
ATOM     52  C   UNL A   1      47.864  31.151  28.957  1.00  0.00     0.131 A 
ATOM     53  C   UNL A   1      46.798  32.858  27.075  1.00  0.00     0.055 A 
ATOM     54  C   UNL A   1      48.528  32.339  28.650  1.00  0.00     0.041 A 
ATOM     55  F   UNL A   1      48.396  30.430  29.957  1.00  0.00    -0.206 F 
ATOM     56  C   UNL A   1      47.993  33.205  27.711  1.00  0.00     0.022 A 
BRANCH  53  57
ATOM     57  S   UNL A   1      46.065  34.065  25.920  1.00  0.00     0.124 S 
ATOM     58  O   UNL A   1      45.421  35.011  26.828  1.00  0.00    -0.237 OA
ATOM     59  O   UNL A   1      47.227  34.551  25.192  1.00  0.00    -0.237 OA
ATOM     60  O   UNL A   1      45.140  33.255  25.125  1.00  0.00    -0.744 OA
ENDBRANCH  53  57
ENDBRANCH  26  50
BRANCH  38  61
ATOM     61  C   UNL A   1      45.436  25.730  32.033  1.00  0.00     0.023 A 
ATOM     62  C   UNL A   1      44.225  26.158  32.622  1.00  0.00     0.031 A 
ATOM     63  C   UNL A   1      46.533  25.507  32.885  1.00  0.00     0.131 A 
ATOM     64  C   UNL A   1      44.153  26.358  34.014  1.00  0.00     0.055 A 
ATOM     65  C   UNL A   1      46.452  25.688  34.264  1.00  0.00     0.041 A 
ATOM     66  F   UNL A   1      47.703  25.070  32.390  1.00  0.00    -0.206 F 
ATOM     67  C   UNL A   1      45.262  26.121  34.834  1.00  0.00     0.022 A 
BRANCH  64  68
ATOM     68  S   UNL A   1      42.611  26.941  34.788  1.00  0.00     0.124 S 
ATOM     69  O   UNL A   1      41.896  25.710  35.104  1.00  0.00    -0.237 OA
ATOM     70  O   UNL A   1      43.101  27.708  35.931  1.00  0.00    -0.237 OA
ATOM     71  O   UNL A   1      41.990  27.752  33.739  1.00  0.00    -0.744 OA
ENDBRANCH  64  68
ENDBRANCH  38  61
ENDBRANCH  12  13
ENDBRANCH   5   7
ENDBRANCH   2   3
ENDBRANCH   1   2
BRANCH   1  72
ATOM     72  C   UNL A   1      38.876  32.015  29.983  1.00  0.00     0.002 C 
BRANCH  72  73
ATOM     73  C   UNL A   1      38.974  31.267  31.319  1.00  0.00     0.002 C 
BRANCH  73  74
ATOM     74  C   UNL A   1      40.248  31.527  32.125  1.00  0.00     0.021 C 
BRANCH  74  75
ATOM     75  C   UNL A   1      40.059  32.482  33.299  1.00  0.00     0.116 C 
BRANCH  75  76
ATOM     76  N   UNL A   1      39.212  31.928  34.330  1.00  0.00    -0.356 N 
ATOM     77  C   UNL A   1      38.117  32.396  34.970  1.00  0.00     0.223 C 
ATOM     78  H   UNL A   1      39.487  31.030  34.624  1.00  0.00     0.163 HD
ATOM     79  O   UNL A   1      37.599  31.629  35.791  1.00  0.00    -0.275 OA
BRANCH  77  80
ATOM     80  C   UNL A   1      37.500  33.783  34.764  1.00  0.00     0.087 C 
ATOM     81  C   UNL A   1      36.043  33.952  35.179  1.00  0.00     0.068 C 
ATOM     82  C   UNL A   1      37.850  34.474  33.452  1.00  0.00     0.068 C 
ATOM     83  C   UNL A   1      35.017  33.877  34.062  1.00  0.00     0.277 C 
ATOM     84  C   UNL A   1      36.822  34.330  32.347  1.00  0.00     0.277 C 
ATOM     85  N   UNL A   1      35.458  34.526  32.827  1.00  0.00    -0.230 N 
ATOM     86  C   UNL A   1      34.510  35.014  31.940  1.00  0.00     0.383 C 
ATOM     87  N   UNL A   1      34.499  34.663  30.683  1.00  0.00    -0.155 N 
ATOM     88  C   UNL A   1      33.485  36.013  32.438  1.00  0.00     0.523 C 
ATOM     89  C   UNL A   1      33.545  35.217  29.859  1.00  0.00     0.414 C 
ATOM     90  H   UNL A   1      35.156  34.020  30.333  1.00  0.00     0.367 HD
ATOM     91  C   UNL A   1      33.222  36.874  31.264  1.00  0.00     0.389 C 
ATOM     92  N   UNL A   1      34.054  36.996  33.388  1.00  0.00     0.003 NA
ATOM     93  Cl  UNL A   1      33.235  34.368  28.408  1.00  0.00     0.028 Cl
ATOM     94  N   UNL A   1      32.898  36.317  30.077  1.00  0.00    -0.155 N 
ATOM     95  N   UNL A   1      33.477  38.117  31.466  1.00  0.00    -0.169 N 
ATOM     96  C   UNL A   1      33.977  38.124  32.745  1.00  0.00     0.532 C 
ATOM     97  H   UNL A   1      32.245  36.702  29.449  1.00  0.00     0.367 HD
ATOM     98  H   UNL A   1      33.347  38.878  30.854  1.00  0.00     0.365 HD
ENDBRANCH  77  80
ENDBRANCH  75  76
ENDBRANCH  74  75
ENDBRANCH  73  74
ENDBRANCH  72  73
ENDBRANCH   1  72
TORSDOF 16
ENDMDL
MODEL 2
REMARK VINA RESULT:     -12.7      4.414      9.833
REMARK SMILES O=C(NCCCCCCNC(=O)C1CCN(C2=[NH+]C(Cl)=[NH+]C3=[NH+]C=N[C@@H]32)CC1)c1ccc(-c2c3nc(c(-c4cc(S(=O)(=O)[O-])ccc4F)c4ccc([nH]4)c(-c4cc(S(=O)(=O)[O-])ccc4F)c4nc(c(-c5cc(S(=O)(=O)[O-])ccc5F)c5ccc2[nH]5)C=C4)C=C3)cc1
REMARK SMILES IDX 5 1 4 2 3 3 1 4 2 5 29 7 30 8 91 9 31 10 90 11 32 12 33 13
REMARK SMILES IDX 34 14 84 15 35 16 89 17 83 18 85 19 36 20 88 21 82 22 81 23
REMARK SMILES IDX 37 25 69 26 49 27 68 28 50 29 53 30 67 31 86 32 51 33 52 34
REMARK SMILES IDX 66 36 87 37 54 38 38 39 39 40 47 41 40 42 46 43 48 44 45 45
REMARK SMILES IDX 41 46 42 47 43 48 44 49 70 50 71 51 79 52 72 53 78 54 80 55
REMARK SMILES IDX 77 56 73 57 74 58 75 59 76 60 55 61 56 62 64 63 57 64 63 65
REMARK SMILES IDX 65 66 62 67 58 68 59 69 60 70 61 71 6 72 7 73 8 74 9 75
REMARK SMILES IDX 10 76 11 77 12 79 13 80 14 81 28 82 15 83 27 84 16 85 17 86
REMARK SMILES IDX 18 87 26 88 19 89 22 91 25 92 20 93 21 94 23 95 24 96
REMARK H PARENT 3 6 85 24 53 35 10 78 18 90 21 97 23 98
REMARK Flexibility Score: inf
ROOT
ATOM      1  C   UNL A   1      33.558  30.419  27.434  1.00  0.00     0.021 C 
ENDROOT
BRANCH   1   2
ATOM      2  C   UNL A   1      34.380  31.672  27.725  1.00  0.00     0.116 C 
BRANCH   2   3
ATOM      3  N   UNL A   1      34.395  32.080  29.114  1.00  0.00    -0.352 N 
ATOM      4  O   UNL A   1      34.981  32.474  31.210  1.00  0.00    -0.269 OA
ATOM      5  C   UNL A   1      35.298  31.959  30.135  1.00  0.00     0.251 C 
ATOM      6  H   UNL A   1      33.573  32.548  29.383  1.00  0.00     0.163 HD
BRANCH   5   7
ATOM      7  C   UNL A   1      36.582  31.215  30.044  1.00  0.00     0.039 A 
ATOM      8  C   UNL A   1      37.847  31.800  29.969  1.00  0.00     0.014 A 
ATOM      9  C   UNL A   1      36.488  29.812  30.082  1.00  0.00     0.014 A 
ATOM     10  C   UNL A   1      38.987  31.004  29.871  1.00  0.00     0.010 A 
ATOM     11  C   UNL A   1      37.626  29.012  30.010  1.00  0.00     0.010 A 
ATOM     12  C   UNL A   1      38.879  29.610  29.889  1.00  0.00    -0.014 A 
BRANCH  12  13
ATOM     13  C   UNL A   1      40.109  28.821  30.007  1.00  0.00     0.031 A 
ATOM     14  C   UNL A   1      40.559  28.576  31.409  1.00  0.00     0.074 A 
ATOM     15  C   UNL A   1      40.719  28.183  28.988  1.00  0.00     0.049 A 
ATOM     16  N   UNL A   1      41.677  28.915  31.965  1.00  0.00    -0.248 NA
ATOM     17  C   UNL A   1      39.598  27.961  32.337  1.00  0.00     0.031 C 
ATOM     18  C   UNL A   1      40.248  28.059  27.609  1.00  0.00     0.029 A 
ATOM     19  N   UNL A   1      41.843  27.403  29.006  1.00  0.00    -0.354 N 
ATOM     20  C   UNL A   1      41.651  28.372  33.249  1.00  0.00     0.074 A 
ATOM     21  C   UNL A   1      40.296  27.947  33.472  1.00  0.00     0.031 C 
ATOM     22  C   UNL A   1      40.950  27.086  26.987  1.00  0.00     0.029 A 
ATOM     23  C   UNL A   1      41.993  26.601  27.879  1.00  0.00     0.049 A 
ATOM     24  H   UNL A   1      42.488  27.411  29.749  1.00  0.00     0.167 HD
ATOM     25  C   UNL A   1      42.795  28.131  33.949  1.00  0.00     0.034 A 
ATOM     26  C   UNL A   1      42.859  25.566  27.709  1.00  0.00     0.034 A 
ATOM     27  C   UNL A   1      43.907  28.882  33.414  1.00  0.00     0.049 A 
ATOM     28  C   UNL A   1      43.968  25.745  28.675  1.00  0.00     0.074 A 
ATOM     29  C   UNL A   1      44.153  30.224  33.189  1.00  0.00     0.029 A 
ATOM     30  N   UNL A   1      44.873  28.213  32.698  1.00  0.00    -0.354 N 
ATOM     31  N   UNL A   1      44.829  26.722  28.613  1.00  0.00    -0.248 NA
ATOM     32  C   UNL A   1      43.874  25.087  29.969  1.00  0.00     0.031 C 
ATOM     33  C   UNL A   1      44.889  30.263  31.970  1.00  0.00     0.029 A 
ATOM     34  C   UNL A   1      45.104  28.946  31.561  1.00  0.00     0.049 A 
ATOM     35  H   UNL A   1      45.313  27.370  32.951  1.00  0.00     0.167 HD
ATOM     36  C   UNL A   1      45.057  27.083  29.930  1.00  0.00     0.074 A 
ATOM     37  C   UNL A   1      44.534  25.972  30.721  1.00  0.00     0.031 C 
ATOM     38  C   UNL A   1      45.393  28.363  30.266  1.00  0.00     0.034 A 
BRANCH  25  39
ATOM     39  C   UNL A   1      43.003  26.960  34.892  1.00  0.00     0.023 A 
ATOM     40  C   UNL A   1      43.787  25.887  34.420  1.00  0.00     0.031 A 
ATOM     41  C   UNL A   1      42.250  26.696  36.058  1.00  0.00     0.131 A 
ATOM     42  C   UNL A   1      43.696  24.611  35.002  1.00  0.00     0.055 A 
ATOM     43  C   UNL A   1      42.226  25.444  36.682  1.00  0.00     0.041 A 
ATOM     44  F   UNL A   1      41.427  27.593  36.610  1.00  0.00    -0.206 F 
ATOM     45  C   UNL A   1      42.918  24.380  36.132  1.00  0.00     0.022 A 
BRANCH  42  46
ATOM     46  S   UNL A   1      44.442  23.215  34.120  1.00  0.00     0.124 S 
ATOM     47  O   UNL A   1      44.358  22.161  35.125  1.00  0.00    -0.237 OA
ATOM     48  O   UNL A   1      43.556  23.080  32.968  1.00  0.00    -0.237 OA
ATOM     49  O   UNL A   1      45.791  23.687  33.818  1.00  0.00    -0.744 OA
ENDBRANCH  42  46
ENDBRANCH  25  39
BRANCH  26  50
ATOM     50  C   UNL A   1      42.624  24.302  26.954  1.00  0.00     0.023 A 
ATOM     51  C   UNL A   1      43.597  23.720  26.112  1.00  0.00     0.031 A 
ATOM     52  C   UNL A   1      41.489  23.514  27.246  1.00  0.00     0.131 A 
ATOM     53  C   UNL A   1      43.405  22.415  25.598  1.00  0.00     0.055 A 
ATOM     54  C   UNL A   1      41.299  22.232  26.727  1.00  0.00     0.041 A 
ATOM     55  F   UNL A   1      40.559  23.929  28.120  1.00  0.00    -0.206 F 
ATOM     56  C   UNL A   1      42.262  21.672  25.905  1.00  0.00     0.022 A 
BRANCH  53  57
ATOM     57  S   UNL A   1      44.702  21.612  24.598  1.00  0.00     0.124 S 
ATOM     58  O   UNL A   1      44.257  20.220  24.575  1.00  0.00    -0.237 OA
ATOM     59  O   UNL A   1      44.627  22.339  23.340  1.00  0.00    -0.237 OA
ATOM     60  O   UNL A   1      45.923  21.850  25.370  1.00  0.00    -0.744 OA
ENDBRANCH  53  57
ENDBRANCH  26  50
BRANCH  38  61
ATOM     61  C   UNL A   1      45.861  29.307  29.180  1.00  0.00     0.023 A 
ATOM     62  C   UNL A   1      45.013  30.126  28.402  1.00  0.00     0.031 A 
ATOM     63  C   UNL A   1      47.250  29.463  29.016  1.00  0.00     0.131 A 
ATOM     64  C   UNL A   1      45.567  31.049  27.494  1.00  0.00     0.055 A 
ATOM     65  C   UNL A   1      47.793  30.391  28.129  1.00  0.00     0.041 A 
ATOM     66  F   UNL A   1      48.109  28.735  29.748  1.00  0.00    -0.206 F 
ATOM     67  C   UNL A   1      46.953  31.183  27.359  1.00  0.00     0.022 A 
BRANCH  64  68
ATOM     68  S   UNL A   1      44.490  32.091  26.458  1.00  0.00     0.124 S 
ATOM     69  O   UNL A   1      43.399  31.199  26.087  1.00  0.00    -0.237 OA
ATOM     70  O   UNL A   1      44.144  33.185  27.363  1.00  0.00    -0.237 OA
ATOM     71  O   UNL A   1      45.361  32.481  25.347  1.00  0.00    -0.744 OA
ENDBRANCH  64  68
ENDBRANCH  38  61
ENDBRANCH  12  13
ENDBRANCH   5   7
ENDBRANCH   2   3
ENDBRANCH   1   2
BRANCH   1  72
ATOM     72  C   UNL A   1      34.374  29.129  27.274  1.00  0.00     0.002 C 
BRANCH  72  73
ATOM     73  C   UNL A   1      34.104  28.312  26.005  1.00  0.00     0.002 C 
BRANCH  73  74
ATOM     74  C   UNL A   1      33.261  29.014  24.939  1.00  0.00     0.021 C 
BRANCH  74  75
ATOM     75  C   UNL A   1      33.375  28.397  23.548  1.00  0.00     0.116 C 
BRANCH  75  76
ATOM     76  N   UNL A   1      32.127  28.443  22.821  1.00  0.00    -0.356 N 
ATOM     77  C   UNL A   1      31.192  27.508  22.542  1.00  0.00     0.223 C 
ATOM     78  H   UNL A   1      31.917  29.333  22.457  1.00  0.00     0.163 HD
ATOM     79  O   UNL A   1      30.201  27.903  21.914  1.00  0.00    -0.275 OA
BRANCH  77  80
ATOM     80  C   UNL A   1      31.282  26.028  22.924  1.00  0.00     0.087 C 
ATOM     81  C   UNL A   1      31.008  25.681  24.383  1.00  0.00     0.068 C 
ATOM     82  C   UNL A   1      32.448  25.259  22.318  1.00  0.00     0.068 C 
ATOM     83  C   UNL A   1      32.230  25.470  25.261  1.00  0.00     0.277 C 
ATOM     84  C   UNL A   1      33.667  25.116  23.209  1.00  0.00     0.277 C 
ATOM     85  N   UNL A   1      33.316  24.764  24.580  1.00  0.00    -0.230 N 
ATOM     86  C   UNL A   1      34.229  24.038  25.331  1.00  0.00     0.383 C 
ATOM     87  N   UNL A   1      35.515  24.241  25.233  1.00  0.00    -0.155 N 
ATOM     88  C   UNL A   1      33.720  22.954  26.258  1.00  0.00     0.523 C 
ATOM     89  C   UNL A   1      36.358  23.457  25.986  1.00  0.00     0.414 C 
ATOM     90  H   UNL A   1      35.872  24.936  24.635  1.00  0.00     0.367 HD
ATOM     91  C   UNL A   1      34.794  21.936  26.246  1.00  0.00     0.389 C 
ATOM     92  N   UNL A   1      32.595  22.184  25.679  1.00  0.00     0.003 NA
ATOM     93  Cl  UNL A   1      37.932  24.080  26.229  1.00  0.00     0.028 Cl
ATOM     94  N   UNL A   1      36.071  22.301  26.494  1.00  0.00    -0.155 N 
ATOM     95  N   UNL A   1      34.406  20.779  25.844  1.00  0.00    -0.169 N 
ATOM     96  C   UNL A   1      33.091  20.992  25.514  1.00  0.00     0.532 C 
ATOM     97  H   UNL A   1      36.711  21.751  27.001  1.00  0.00     0.367 HD
ATOM     98  H   UNL A   1      34.926  19.944  25.787  1.00  0.00     0.365 HD
ENDBRANCH  77  80
ENDBRANCH  75  76
ENDBRANCH  74  75
ENDBRANCH  73  74
ENDBRANCH  72  73
ENDBRANCH   1  72
TORSDOF 16
ENDMDL
MODEL 3
REMARK VINA RESULT:     -12.6      5.388     10.632
REMARK SMILES O=C(NCCCCCCNC(=O)C1CCN(C2=[NH+]C(Cl)=[NH+]C3=[NH+]C=N[C@@H]32)CC1)c1ccc(-c2c3nc(c(-c4cc(S(=O)(=O)[O-])ccc4F)c4ccc([nH]4)c(-c4cc(S(=O)(=O)[O-])ccc4F)c4nc(c(-c5cc(S(=O)(=O)[O-])ccc5F)c5ccc2[nH]5)C=C4)C=C3)cc1
REMARK SMILES IDX 5 1 4 2 3 3 1 4 2 5 29 7 30 8 91 9 31 10 90 11 32 12 33 13
REMARK SMILES IDX 34 14 84 15 35 16 89 17 83 18 85 19 36 20 88 21 82 22 81 23
REMARK SMILES IDX 37 25 69 26 49 27 68 28 50 29 53 30 67 31 86 32 51 33 52 34
REMARK SMILES IDX 66 36 87 37 54 38 38 39 39 40 47 41 40 42 46 43 48 44 45 45
REMARK SMILES IDX 41 46 42 47 43 48 44 49 70 50 71 51 79 52 72 53 78 54 80 55
REMARK SMILES IDX 77 56 73 57 74 58 75 59 76 60 55 61 56 62 64 63 57 64 63 65
REMARK SMILES IDX 65 66 62 67 58 68 59 69 60 70 61 71 6 72 7 73 8 74 9 75
REMARK SMILES IDX 10 76 11 77 12 79 13 80 14 81 28 82 15 83 27 84 16 85 17 86
REMARK SMILES IDX 18 87 26 88 19 89 22 91 25 92 20 93 21 94 23 95 24 96
REMARK H PARENT 3 6 85 24 53 35 10 78 18 90 21 97 23 98
REMARK Flexibility Score: inf
ROOT
ATOM      1  C   UNL A   1      32.448  29.516  26.934  1.00  0.00     0.021 C 
ENDROOT
BRANCH   1   2
ATOM      2  C   UNL A   1      33.942  29.804  26.801  1.00  0.00     0.116 C 
BRANCH   2   3
ATOM      3  N   UNL A   1      34.350  31.118  27.252  1.00  0.00    -0.352 N 
ATOM      4  O   UNL A   1      35.489  32.829  28.071  1.00  0.00    -0.269 OA
ATOM      5  C   UNL A   1      35.472  31.614  27.860  1.00  0.00     0.251 C 
ATOM      6  H   UNL A   1      33.669  31.808  27.085  1.00  0.00     0.163 HD
BRANCH   5   7
ATOM      7  C   UNL A   1      36.620  30.787  28.317  1.00  0.00     0.039 A 
ATOM      8  C   UNL A   1      36.666  29.392  28.295  1.00  0.00     0.014 A 
ATOM      9  C   UNL A   1      37.753  31.493  28.760  1.00  0.00     0.014 A 
ATOM     10  C   UNL A   1      37.792  28.717  28.763  1.00  0.00     0.010 A 
ATOM     11  C   UNL A   1      38.890  30.823  29.206  1.00  0.00     0.010 A 
ATOM     12  C   UNL A   1      38.904  29.430  29.221  1.00  0.00    -0.014 A 
BRANCH  12  13
ATOM     13  C   UNL A   1      40.139  28.688  29.494  1.00  0.00     0.031 A 
ATOM     14  C   UNL A   1      40.502  28.593  30.938  1.00  0.00     0.074 A 
ATOM     15  C   UNL A   1      40.825  27.968  28.583  1.00  0.00     0.049 A 
ATOM     16  N   UNL A   1      41.575  29.013  31.526  1.00  0.00    -0.248 NA
ATOM     17  C   UNL A   1      39.494  28.048  31.862  1.00  0.00     0.031 C 
ATOM     18  C   UNL A   1      40.446  27.697  27.197  1.00  0.00     0.029 A 
ATOM     19  N   UNL A   1      41.960  27.222  28.749  1.00  0.00    -0.354 N 
ATOM     20  C   UNL A   1      41.477  28.598  32.854  1.00  0.00     0.074 A 
ATOM     21  C   UNL A   1      40.118  28.163  33.034  1.00  0.00     0.031 C 
ATOM     22  C   UNL A   1      41.205  26.685  26.720  1.00  0.00     0.029 A 
ATOM     23  C   UNL A   1      42.197  26.317  27.720  1.00  0.00     0.049 A 
ATOM     24  H   UNL A   1      42.555  27.319  29.527  1.00  0.00     0.167 HD
ATOM     25  C   UNL A   1      42.577  28.455  33.645  1.00  0.00     0.034 A 
ATOM     26  C   UNL A   1      43.091  25.292  27.707  1.00  0.00     0.034 A 
ATOM     27  C   UNL A   1      43.707  29.178  33.108  1.00  0.00     0.049 A 
ATOM     28  C   UNL A   1      44.132  25.593  28.718  1.00  0.00     0.074 A 
ATOM     29  C   UNL A   1      43.942  30.497  32.766  1.00  0.00     0.029 A 
ATOM     30  N   UNL A   1      44.730  28.466  32.523  1.00  0.00    -0.354 N 
ATOM     31  N   UNL A   1      44.977  26.580  28.612  1.00  0.00    -0.248 NA
ATOM     32  C   UNL A   1      43.967  25.063  30.063  1.00  0.00     0.031 C 
ATOM     33  C   UNL A   1      44.755  30.434  31.597  1.00  0.00     0.029 A 
ATOM     34  C   UNL A   1      45.020  29.089  31.336  1.00  0.00     0.049 A 
ATOM     35  H   UNL A   1      45.168  27.663  32.886  1.00  0.00     0.167 HD
ATOM     36  C   UNL A   1      45.113  27.074  29.899  1.00  0.00     0.074 A 
ATOM     37  C   UNL A   1      44.561  26.034  30.762  1.00  0.00     0.031 C 
ATOM     38  C   UNL A   1      45.402  28.389  30.126  1.00  0.00     0.034 A 
BRANCH  25  39
ATOM     39  C   UNL A   1      42.746  27.388  34.710  1.00  0.00     0.023 A 
ATOM     40  C   UNL A   1      43.529  26.264  34.376  1.00  0.00     0.031 A 
ATOM     41  C   UNL A   1      41.960  27.256  35.877  1.00  0.00     0.131 A 
ATOM     42  C   UNL A   1      43.406  25.057  35.086  1.00  0.00     0.055 A 
ATOM     43  C   UNL A   1      41.904  26.077  36.628  1.00  0.00     0.041 A 
ATOM     44  F   UNL A   1      41.134  28.215  36.309  1.00  0.00    -0.206 F 
ATOM     45  C   UNL A   1      42.597  24.954  36.212  1.00  0.00     0.022 A 
BRANCH  42  46
ATOM     46  S   UNL A   1      44.157  23.569  34.375  1.00  0.00     0.124 S 
ATOM     47  O   UNL A   1      45.268  24.140  33.620  1.00  0.00    -0.237 OA
ATOM     48  O   UNL A   1      44.511  22.812  35.570  1.00  0.00    -0.237 OA
ATOM     49  O   UNL A   1      43.081  22.998  33.570  1.00  0.00    -0.744 OA
ENDBRANCH  42  46
ENDBRANCH  25  39
BRANCH  26  50
ATOM     50  C   UNL A   1      42.929  23.955  27.069  1.00  0.00     0.023 A 
ATOM     51  C   UNL A   1      43.791  23.478  26.058  1.00  0.00     0.031 A 
ATOM     52  C   UNL A   1      42.036  23.015  27.631  1.00  0.00     0.131 A 
ATOM     53  C   UNL A   1      43.729  22.125  25.646  1.00  0.00     0.055 A 
ATOM     54  C   UNL A   1      41.969  21.685  27.213  1.00  0.00     0.041 A 
ATOM     55  F   UNL A   1      41.251  23.337  28.670  1.00  0.00    -0.206 F 
ATOM     56  C   UNL A   1      42.823  21.231  26.223  1.00  0.00     0.022 A 
BRANCH  53  57
ATOM     57  S   UNL A   1      44.909  21.472  24.418  1.00  0.00     0.124 S 
ATOM     58  O   UNL A   1      44.543  20.059  24.359  1.00  0.00    -0.237 OA
ATOM     59  O   UNL A   1      44.611  22.270  23.239  1.00  0.00    -0.237 OA
ATOM     60  O   UNL A   1      46.214  21.741  25.025  1.00  0.00    -0.744 OA
ENDBRANCH  53  57
ENDBRANCH  26  50
BRANCH  38  61
ATOM     61  C   UNL A   1      45.922  29.233  28.982  1.00  0.00     0.023 A 
ATOM     62  C   UNL A   1      47.287  29.396  28.656  1.00  0.00     0.031 A 
ATOM     63  C   UNL A   1      44.971  29.801  28.115  1.00  0.00     0.131 A 
ATOM     64  C   UNL A   1      47.653  30.117  27.502  1.00  0.00     0.055 A 
ATOM     65  C   UNL A   1      45.337  30.496  26.964  1.00  0.00     0.041 A 
ATOM     66  F   UNL A   1      43.658  29.654  28.354  1.00  0.00    -0.206 F 
ATOM     67  C   UNL A   1      46.681  30.663  26.657  1.00  0.00     0.022 A 
BRANCH  64  68
ATOM     68  S   UNL A   1      49.407  30.366  27.082  1.00  0.00     0.124 S 
ATOM     69  O   UNL A   1      50.099  30.161  28.349  1.00  0.00    -0.237 OA
ATOM     70  O   UNL A   1      49.634  29.350  26.056  1.00  0.00    -0.237 OA
ATOM     71  O   UNL A   1      49.446  31.743  26.585  1.00  0.00    -0.744 OA
ENDBRANCH  64  68
ENDBRANCH  38  61
ENDBRANCH  12  13
ENDBRANCH   5   7
ENDBRANCH   2   3
ENDBRANCH   1   2
BRANCH   1  72
ATOM     72  C   UNL A   1      31.610  29.849  25.694  1.00  0.00     0.002 C 
BRANCH  72  73
ATOM     73  C   UNL A   1      31.270  28.671  24.772  1.00  0.00     0.002 C 
BRANCH  73  74
ATOM     74  C   UNL A   1      31.035  29.034  23.304  1.00  0.00     0.021 C 
BRANCH  74  75
ATOM     75  C   UNL A   1      30.545  27.871  22.445  1.00  0.00     0.116 C 
BRANCH  75  76
ATOM     76  N   UNL A   1      31.599  27.297  21.641  1.00  0.00    -0.356 N 
ATOM     77  C   UNL A   1      32.507  26.324  21.876  1.00  0.00     0.223 C 
ATOM     78  H   UNL A   1      31.669  27.694  20.744  1.00  0.00     0.163 HD
ATOM     79  O   UNL A   1      33.260  26.045  20.934  1.00  0.00    -0.275 OA
BRANCH  77  80
ATOM     80  C   UNL A   1      32.675  25.574  23.202  1.00  0.00     0.087 C 
ATOM     81  C   UNL A   1      34.046  24.967  23.475  1.00  0.00     0.068 C 
ATOM     82  C   UNL A   1      31.513  24.674  23.603  1.00  0.00     0.068 C 
ATOM     83  C   UNL A   1      34.189  23.483  23.189  1.00  0.00     0.277 C 
ATOM     84  C   UNL A   1      31.674  23.208  23.253  1.00  0.00     0.277 C 
ATOM     85  N   UNL A   1      33.007  22.705  23.565  1.00  0.00    -0.230 N 
ATOM     86  C   UNL A   1      33.150  21.361  23.876  1.00  0.00     0.383 C 
ATOM     87  N   UNL A   1      32.449  20.437  23.275  1.00  0.00    -0.155 N 
ATOM     88  C   UNL A   1      34.117  20.960  24.972  1.00  0.00     0.523 C 
ATOM     89  C   UNL A   1      32.624  19.129  23.664  1.00  0.00     0.414 C 
ATOM     90  H   UNL A   1      31.812  20.672  22.563  1.00  0.00     0.367 HD
ATOM     91  C   UNL A   1      33.495  19.761  25.579  1.00  0.00     0.389 C 
ATOM     92  N   UNL A   1      34.106  21.896  26.119  1.00  0.00     0.003 NA
ATOM     93  Cl  UNL A   1      32.111  17.946  22.541  1.00  0.00     0.028 Cl
ATOM     94  N   UNL A   1      33.112  18.731  24.795  1.00  0.00    -0.155 N 
ATOM     95  N   UNL A   1      33.244  19.888  26.832  1.00  0.00    -0.169 N 
ATOM     96  C   UNL A   1      33.622  21.182  27.093  1.00  0.00     0.532 C 
ATOM     97  H   UNL A   1      33.192  17.784  25.054  1.00  0.00     0.367 HD
ATOM     98  H   UNL A   1      32.872  19.221  27.453  1.00  0.00     0.365 HD
ENDBRANCH  77  80
ENDBRANCH  75  76
ENDBRANCH  74  75
ENDBRANCH  73  74
ENDBRANCH  72  73
ENDBRANCH   1  72
TORSDOF 16
ENDMDL
