MODEL 1
REMARK VINA RESULT:     -12.6      0.000      0.000
REMARK SMILES O=C(NCCCCCCNC(=O)c1cccnc1C(=O)Nc1ccc([N+](=O)[O-])cc1)c1ccc(-c2c3nc(c(-c4cc(S(=O)(=O)[O-])ccc4F)c4ccc([nH]4)c(-c4cc(S(=O)(=O)[O-])ccc4F)c4nc(c(-c5cc(S(=O)(=O)[O-])ccc5F)c5ccc2[nH]5)C=C4)C=C3)cc1
REMARK SMILES IDX 6 1 5 2 4 3 3 4 1 5 2 6 31 8 32 9 93 10 33 11 92 12 34 13
REMARK SMILES IDX 35 14 36 15 86 16 37 17 91 18 85 19 87 20 38 21 90 22 84 23
REMARK SMILES IDX 83 24 39 26 71 27 51 28 70 29 52 30 55 31 69 32 88 33 53 34
REMARK SMILES IDX 54 35 68 37 89 38 56 39 40 40 41 41 49 42 42 43 48 44 50 45
REMARK SMILES IDX 47 46 43 47 44 48 45 49 46 50 72 51 73 52 81 53 74 54 80 55
REMARK SMILES IDX 82 56 79 57 75 58 76 59 77 60 78 61 57 62 58 63 66 64 59 65
REMARK SMILES IDX 65 66 67 67 64 68 60 69 61 70 62 71 63 72 7 73 8 74 9 75
REMARK SMILES IDX 10 76 11 77 12 79 13 80 14 81 18 82 15 83 17 84 16 85 19 86
REMARK SMILES IDX 20 87 21 88 22 90 23 91 30 92 24 93 29 94 25 95 26 96 27 97
REMARK SMILES IDX 28 98
REMARK H PARENT 3 7 87 25 55 36 10 78 21 89
REMARK Flexibility Score: inf
ROOT
ATOM      1  C   UNL A   1      33.939  28.778  25.536  1.00  0.00     0.002 C 
ENDROOT
BRANCH   1   2
ATOM      2  C   UNL A   1      32.729  29.700  25.449  1.00  0.00     0.021 C 
BRANCH   2   3
ATOM      3  C   UNL A   1      32.229  30.198  26.792  1.00  0.00     0.116 C 
BRANCH   3   4
ATOM      4  N   UNL A   1      31.988  31.634  26.839  1.00  0.00    -0.352 N 
ATOM      5  O   UNL A   1      32.485  33.763  27.456  1.00  0.00    -0.269 OA
ATOM      6  C   UNL A   1      32.818  32.594  27.388  1.00  0.00     0.251 C 
ATOM      7  H   UNL A   1      31.147  31.955  26.438  1.00  0.00     0.163 HD
BRANCH   6   8
ATOM      8  C   UNL A   1      34.119  32.136  27.926  1.00  0.00     0.039 A 
ATOM      9  C   UNL A   1      34.222  30.842  28.437  1.00  0.00     0.014 A 
ATOM     10  C   UNL A   1      35.181  33.035  28.039  1.00  0.00     0.014 A 
ATOM     11  C   UNL A   1      35.317  30.506  29.217  1.00  0.00     0.010 A 
ATOM     12  C   UNL A   1      36.338  32.648  28.723  1.00  0.00     0.010 A 
ATOM     13  C   UNL A   1      36.404  31.390  29.343  1.00  0.00    -0.014 A 
BRANCH  13  14
ATOM     14  C   UNL A   1      37.618  30.912  30.054  1.00  0.00     0.031 A 
ATOM     15  C   UNL A   1      37.861  31.216  31.506  1.00  0.00     0.074 A 
ATOM     16  C   UNL A   1      38.475  30.130  29.366  1.00  0.00     0.049 A 
ATOM     17  N   UNL A   1      38.860  30.842  32.266  1.00  0.00    -0.248 NA
ATOM     18  C   UNL A   1      36.867  32.051  32.196  1.00  0.00     0.031 C 
ATOM     19  C   UNL A   1      38.332  29.780  27.947  1.00  0.00     0.029 A 
ATOM     20  N   UNL A   1      39.603  29.460  29.755  1.00  0.00    -0.354 N 
ATOM     21  C   UNL A   1      38.627  31.404  33.517  1.00  0.00     0.074 A 
ATOM     22  C   UNL A   1      37.402  32.168  33.405  1.00  0.00     0.031 C 
ATOM     23  C   UNL A   1      39.286  28.904  27.610  1.00  0.00     0.029 A 
ATOM     24  C   UNL A   1      40.169  28.710  28.751  1.00  0.00     0.049 A 
ATOM     25  H   UNL A   1      39.974  29.510  30.666  1.00  0.00     0.167 HD
ATOM     26  C   UNL A   1      39.369  31.284  34.648  1.00  0.00     0.034 A 
ATOM     27  C   UNL A   1      41.293  27.968  28.733  1.00  0.00     0.034 A 
ATOM     28  C   UNL A   1      40.590  30.515  34.731  1.00  0.00     0.049 A 
ATOM     29  C   UNL A   1      42.105  27.884  29.994  1.00  0.00     0.074 A 
ATOM     30  C   UNL A   1      41.418  30.326  35.826  1.00  0.00     0.029 A 
ATOM     31  N   UNL A   1      41.162  29.807  33.681  1.00  0.00    -0.354 N 
ATOM     32  N   UNL A   1      41.870  28.430  31.165  1.00  0.00    -0.248 NA
ATOM     33  C   UNL A   1      43.333  27.085  29.932  1.00  0.00     0.031 C 
ATOM     34  C   UNL A   1      42.517  29.559  35.423  1.00  0.00     0.029 A 
ATOM     35  C   UNL A   1      42.340  29.203  34.095  1.00  0.00     0.049 A 
ATOM     36  H   UNL A   1      40.785  29.743  32.773  1.00  0.00     0.167 HD
ATOM     37  C   UNL A   1      42.923  28.033  31.982  1.00  0.00     0.074 A 
ATOM     38  C   UNL A   1      43.763  27.166  31.181  1.00  0.00     0.031 C 
ATOM     39  C   UNL A   1      43.180  28.364  33.273  1.00  0.00     0.034 A 
BRANCH  26  40
ATOM     40  C   UNL A   1      38.905  32.034  35.875  1.00  0.00     0.023 A 
ATOM     41  C   UNL A   1      38.191  31.399  36.907  1.00  0.00     0.031 A 
ATOM     42  C   UNL A   1      39.199  33.401  36.026  1.00  0.00     0.131 A 
ATOM     43  C   UNL A   1      37.756  32.139  38.018  1.00  0.00     0.055 A 
ATOM     44  C   UNL A   1      38.822  34.117  37.165  1.00  0.00     0.041 A 
ATOM     45  F   UNL A   1      39.862  34.067  35.067  1.00  0.00    -0.206 F 
ATOM     46  C   UNL A   1      38.087  33.488  38.166  1.00  0.00     0.022 A 
BRANCH  43  47
ATOM     47  S   UNL A   1      36.660  31.339  39.222  1.00  0.00     0.124 S 
ATOM     48  O   UNL A   1      36.391  30.058  38.572  1.00  0.00    -0.237 OA
ATOM     49  O   UNL A   1      37.491  31.282  40.419  1.00  0.00    -0.237 OA
ATOM     50  O   UNL A   1      35.515  32.243  39.300  1.00  0.00    -0.744 OA
ENDBRANCH  43  47
ENDBRANCH  26  40
BRANCH  27  51
ATOM     51  C   UNL A   1      41.738  27.305  27.476  1.00  0.00     0.023 A 
ATOM     52  C   UNL A   1      41.705  25.910  27.339  1.00  0.00     0.031 A 
ATOM     53  C   UNL A   1      42.246  28.060  26.402  1.00  0.00     0.131 A 
ATOM     54  C   UNL A   1      42.217  25.310  26.178  1.00  0.00     0.055 A 
ATOM     55  C   UNL A   1      42.688  27.464  25.222  1.00  0.00     0.041 A 
ATOM     56  F   UNL A   1      42.300  29.400  26.478  1.00  0.00    -0.206 F 
ATOM     57  C   UNL A   1      42.692  26.077  25.112  1.00  0.00     0.022 A 
BRANCH  54  58
ATOM     58  S   UNL A   1      42.358  23.503  26.127  1.00  0.00     0.124 S 
ATOM     59  O   UNL A   1      43.185  23.236  27.299  1.00  0.00    -0.237 OA
ATOM     60  O   UNL A   1      40.962  23.089  26.220  1.00  0.00    -0.237 OA
ATOM     61  O   UNL A   1      42.998  23.248  24.839  1.00  0.00    -0.744 OA
ENDBRANCH  54  58
ENDBRANCH  27  51
BRANCH  39  62
ATOM     62  C   UNL A   1      44.419  27.755  33.882  1.00  0.00     0.023 A 
ATOM     63  C   UNL A   1      44.380  26.500  34.517  1.00  0.00     0.031 A 
ATOM     64  C   UNL A   1      45.632  28.462  33.885  1.00  0.00     0.131 A 
ATOM     65  C   UNL A   1      45.510  26.029  35.199  1.00  0.00     0.055 A 
ATOM     66  C   UNL A   1      46.775  27.955  34.506  1.00  0.00     0.041 A 
ATOM     67  F   UNL A   1      45.725  29.665  33.298  1.00  0.00    -0.206 F 
ATOM     68  C   UNL A   1      46.712  26.741  35.184  1.00  0.00     0.022 A 
BRANCH  65  69
ATOM     69  S   UNL A   1      45.348  24.535  36.215  1.00  0.00     0.124 S 
ATOM     70  O   UNL A   1      46.340  24.768  37.259  1.00  0.00    -0.237 OA
ATOM     71  O   UNL A   1      43.952  24.595  36.637  1.00  0.00    -0.237 OA
ATOM     72  O   UNL A   1      45.668  23.452  35.286  1.00  0.00    -0.744 OA
ENDBRANCH  65  69
ENDBRANCH  39  62
ENDBRANCH  13  14
ENDBRANCH   6   8
ENDBRANCH   3   4
ENDBRANCH   2   3
ENDBRANCH   1   2
BRANCH   1  73
ATOM     73  C   UNL A   1      33.763  27.548  26.431  1.00  0.00     0.002 C 
BRANCH  73  74
ATOM     74  C   UNL A   1      33.334  26.230  25.772  1.00  0.00     0.021 C 
BRANCH  74  75
ATOM     75  C   UNL A   1      34.400  25.309  25.175  1.00  0.00     0.116 C 
BRANCH  75  76
ATOM     76  N   UNL A   1      34.259  24.994  23.757  1.00  0.00    -0.352 N 
ATOM     77  C   UNL A   1      34.494  23.818  23.075  1.00  0.00     0.253 C 
ATOM     78  H   UNL A   1      33.948  25.741  23.198  1.00  0.00     0.163 HD
ATOM     79  O   UNL A   1      34.099  23.662  21.925  1.00  0.00    -0.269 OA
BRANCH  77  80
ATOM     80  C   UNL A   1      35.090  22.689  23.777  1.00  0.00     0.071 A 
ATOM     81  C   UNL A   1      36.498  22.787  23.871  1.00  0.00     0.018 A 
ATOM     82  C   UNL A   1      34.441  21.620  24.386  1.00  0.00     0.141 A 
ATOM     83  C   UNL A   1      37.243  21.797  24.487  1.00  0.00     0.021 A 
ATOM     84  N   UNL A   1      35.206  20.632  24.969  1.00  0.00    -0.250 NA
ATOM     85  C   UNL A   1      36.552  20.731  25.008  1.00  0.00     0.112 A 
BRANCH  82  86
ATOM     86  C   UNL A   1      32.964  21.338  24.685  1.00  0.00     0.275 C 
ATOM     87  O   UNL A   1      32.239  22.297  24.993  1.00  0.00    -0.267 OA
ATOM     88  N   UNL A   1      32.261  20.186  24.420  1.00  0.00    -0.321 N 
ATOM     89  H   UNL A   1      31.378  20.355  24.019  1.00  0.00     0.170 HD
BRANCH  88  90
ATOM     90  C   UNL A   1      32.527  18.834  24.595  1.00  0.00     0.042 A 
ATOM     91  C   UNL A   1      33.015  18.128  23.485  1.00  0.00     0.033 A 
ATOM     92  C   UNL A   1      32.319  18.181  25.805  1.00  0.00     0.033 A 
ATOM     93  C   UNL A   1      33.534  16.843  23.647  1.00  0.00     0.088 A 
ATOM     94  C   UNL A   1      32.790  16.875  25.959  1.00  0.00     0.088 A 
ATOM     95  C   UNL A   1      33.476  16.261  24.910  1.00  0.00     0.269 A 
BRANCH  95  96
ATOM     96  N   UNL A   1      34.255  15.061  25.189  1.00  0.00     0.062 N 
ATOM     97  O   UNL A   1      35.488  15.144  25.111  1.00  0.00    -0.258 OA
ATOM     98  O   UNL A   1      33.623  14.041  25.505  1.00  0.00    -0.258 OA
ENDBRANCH  95  96
ENDBRANCH  88  90
ENDBRANCH  82  86
ENDBRANCH  77  80
ENDBRANCH  75  76
ENDBRANCH  74  75
ENDBRANCH  73  74
ENDBRANCH   1  73
TORSDOF 19
ENDMDL
MODEL 2
REMARK VINA RESULT:     -12.6      2.840      8.684
REMARK SMILES O=C(NCCCCCCNC(=O)c1cccnc1C(=O)Nc1ccc([N+](=O)[O-])cc1)c1ccc(-c2c3nc(c(-c4cc(S(=O)(=O)[O-])ccc4F)c4ccc([nH]4)c(-c4cc(S(=O)(=O)[O-])ccc4F)c4nc(c(-c5cc(S(=O)(=O)[O-])ccc5F)c5ccc2[nH]5)C=C4)C=C3)cc1
REMARK SMILES IDX 6 1 5 2 4 3 3 4 1 5 2 6 31 8 32 9 93 10 33 11 92 12 34 13
REMARK SMILES IDX 35 14 36 15 86 16 37 17 91 18 85 19 87 20 38 21 90 22 84 23
REMARK SMILES IDX 83 24 39 26 71 27 51 28 70 29 52 30 55 31 69 32 88 33 53 34
REMARK SMILES IDX 54 35 68 37 89 38 56 39 40 40 41 41 49 42 42 43 48 44 50 45
REMARK SMILES IDX 47 46 43 47 44 48 45 49 46 50 72 51 73 52 81 53 74 54 80 55
REMARK SMILES IDX 82 56 79 57 75 58 76 59 77 60 78 61 57 62 58 63 66 64 59 65
REMARK SMILES IDX 65 66 67 67 64 68 60 69 61 70 62 71 63 72 7 73 8 74 9 75
REMARK SMILES IDX 10 76 11 77 12 79 13 80 14 81 18 82 15 83 17 84 16 85 19 86
REMARK SMILES IDX 20 87 21 88 22 90 23 91 30 92 24 93 29 94 25 95 26 96 27 97
REMARK SMILES IDX 28 98
REMARK H PARENT 3 7 87 25 55 36 10 78 21 89
REMARK Flexibility Score: inf
ROOT
ATOM      1  C   UNL A   1      32.738  30.131  27.211  1.00  0.00     0.002 C 
ENDROOT
BRANCH   1   2
ATOM      2  C   UNL A   1      32.245  31.569  27.110  1.00  0.00     0.021 C 
BRANCH   2   3
ATOM      3  C   UNL A   1      33.336  32.612  27.271  1.00  0.00     0.116 C 
BRANCH   3   4
ATOM      4  N   UNL A   1      32.849  33.918  27.695  1.00  0.00    -0.352 N 
ATOM      5  O   UNL A   1      32.722  35.678  29.126  1.00  0.00    -0.269 OA
ATOM      6  C   UNL A   1      33.254  34.631  28.809  1.00  0.00     0.251 C 
ATOM      7  H   UNL A   1      32.159  34.337  27.130  1.00  0.00     0.163 HD
BRANCH   6   8
ATOM      8  C   UNL A   1      34.344  34.048  29.624  1.00  0.00     0.039 A 
ATOM      9  C   UNL A   1      35.667  34.357  29.307  1.00  0.00     0.014 A 
ATOM     10  C   UNL A   1      34.048  33.099  30.605  1.00  0.00     0.014 A 
ATOM     11  C   UNL A   1      36.689  33.591  29.843  1.00  0.00     0.010 A 
ATOM     12  C   UNL A   1      35.093  32.413  31.234  1.00  0.00     0.010 A 
ATOM     13  C   UNL A   1      36.421  32.633  30.837  1.00  0.00    -0.014 A 
BRANCH  13  14
ATOM     14  C   UNL A   1      37.572  31.959  31.491  1.00  0.00     0.031 A 
ATOM     15  C   UNL A   1      38.392  30.917  30.783  1.00  0.00     0.074 A 
ATOM     16  C   UNL A   1      37.907  32.364  32.734  1.00  0.00     0.049 A 
ATOM     17  N   UNL A   1      39.442  30.266  31.216  1.00  0.00    -0.248 NA
ATOM     18  C   UNL A   1      37.983  30.550  29.419  1.00  0.00     0.031 C 
ATOM     19  C   UNL A   1      37.170  33.368  33.512  1.00  0.00     0.029 A 
ATOM     20  N   UNL A   1      38.954  32.025  33.547  1.00  0.00    -0.354 N 
ATOM     21  C   UNL A   1      39.813  29.401  30.191  1.00  0.00     0.074 A 
ATOM     22  C   UNL A   1      38.855  29.595  29.121  1.00  0.00     0.031 C 
ATOM     23  C   UNL A   1      37.830  33.615  34.650  1.00  0.00     0.029 A 
ATOM     24  C   UNL A   1      38.973  32.719  34.734  1.00  0.00     0.049 A 
ATOM     25  H   UNL A   1      39.629  31.349  33.306  1.00  0.00     0.167 HD
ATOM     26  C   UNL A   1      40.857  28.535  30.153  1.00  0.00     0.034 A 
ATOM     27  C   UNL A   1      39.799  32.627  35.793  1.00  0.00     0.034 A 
ATOM     28  C   UNL A   1      41.797  28.361  31.237  1.00  0.00     0.049 A 
ATOM     29  C   UNL A   1      40.926  31.635  35.729  1.00  0.00     0.074 A 
ATOM     30  C   UNL A   1      42.891  27.513  31.303  1.00  0.00     0.029 A 
ATOM     31  N   UNL A   1      41.759  29.044  32.446  1.00  0.00    -0.354 N 
ATOM     32  N   UNL A   1      41.254  30.822  34.751  1.00  0.00    -0.248 NA
ATOM     33  C   UNL A   1      41.792  31.548  36.908  1.00  0.00     0.031 C 
ATOM     34  C   UNL A   1      43.473  27.638  32.569  1.00  0.00     0.029 A 
ATOM     35  C   UNL A   1      42.791  28.620  33.271  1.00  0.00     0.049 A 
ATOM     36  H   UNL A   1      41.094  29.731  32.684  1.00  0.00     0.167 HD
ATOM     37  C   UNL A   1      42.373  30.129  35.200  1.00  0.00     0.074 A 
ATOM     38  C   UNL A   1      42.686  30.655  36.513  1.00  0.00     0.031 C 
ATOM     39  C   UNL A   1      43.072  29.138  34.589  1.00  0.00     0.034 A 
BRANCH  26  40
ATOM     40  C   UNL A   1      41.015  27.678  28.918  1.00  0.00     0.023 A 
ATOM     41  C   UNL A   1      42.021  27.926  27.967  1.00  0.00     0.031 A 
ATOM     42  C   UNL A   1      40.160  26.584  28.698  1.00  0.00     0.131 A 
ATOM     43  C   UNL A   1      42.116  27.121  26.820  1.00  0.00     0.055 A 
ATOM     44  C   UNL A   1      40.301  25.746  27.589  1.00  0.00     0.041 A 
ATOM     45  F   UNL A   1      39.168  26.307  29.561  1.00  0.00    -0.206 F 
ATOM     46  C   UNL A   1      41.279  26.019  26.637  1.00  0.00     0.022 A 
BRANCH  43  47
ATOM     47  S   UNL A   1      43.285  27.598  25.517  1.00  0.00     0.124 S 
ATOM     48  O   UNL A   1      42.382  28.031  24.453  1.00  0.00    -0.237 OA
ATOM     49  O   UNL A   1      44.063  28.652  26.159  1.00  0.00    -0.237 OA
ATOM     50  O   UNL A   1      44.016  26.364  25.241  1.00  0.00    -0.744 OA
ENDBRANCH  43  47
ENDBRANCH  26  40
BRANCH  27  51
ATOM     51  C   UNL A   1      39.557  33.449  37.013  1.00  0.00     0.023 A 
ATOM     52  C   UNL A   1      38.973  32.893  38.159  1.00  0.00     0.031 A 
ATOM     53  C   UNL A   1      39.871  34.820  37.032  1.00  0.00     0.131 A 
ATOM     54  C   UNL A   1      38.673  33.714  39.258  1.00  0.00     0.055 A 
ATOM     55  C   UNL A   1      39.636  35.617  38.151  1.00  0.00     0.041 A 
ATOM     56  F   UNL A   1      40.433  35.405  35.962  1.00  0.00    -0.206 F 
ATOM     57  C   UNL A   1      39.016  35.067  39.269  1.00  0.00     0.022 A 
BRANCH  54  58
ATOM     58  S   UNL A   1      37.723  33.009  40.631  1.00  0.00     0.124 S 
ATOM     59  O   UNL A   1      36.356  33.116  40.134  1.00  0.00    -0.237 OA
ATOM     60  O   UNL A   1      38.270  31.659  40.714  1.00  0.00    -0.237 OA
ATOM     61  O   UNL A   1      38.051  33.883  41.755  1.00  0.00    -0.744 OA
ENDBRANCH  54  58
ENDBRANCH  27  51
BRANCH  39  62
ATOM     62  C   UNL A   1      44.254  28.590  35.350  1.00  0.00     0.023 A 
ATOM     63  C   UNL A   1      44.109  27.525  36.256  1.00  0.00     0.031 A 
ATOM     64  C   UNL A   1      45.521  29.180  35.216  1.00  0.00     0.131 A 
ATOM     65  C   UNL A   1      45.194  27.136  37.055  1.00  0.00     0.055 A 
ATOM     66  C   UNL A   1      46.616  28.741  35.963  1.00  0.00     0.041 A 
ATOM     67  F   UNL A   1      45.715  30.202  34.368  1.00  0.00    -0.206 F 
ATOM     68  C   UNL A   1      46.450  27.727  36.902  1.00  0.00     0.022 A 
BRANCH  65  69
ATOM     69  S   UNL A   1      44.905  25.938  38.385  1.00  0.00     0.124 S 
ATOM     70  O   UNL A   1      46.260  25.485  38.684  1.00  0.00    -0.237 OA
ATOM     71  O   UNL A   1      44.266  26.758  39.409  1.00  0.00    -0.237 OA
ATOM     72  O   UNL A   1      44.040  24.937  37.763  1.00  0.00    -0.744 OA
ENDBRANCH  65  69
ENDBRANCH  39  62
ENDBRANCH  13  14
ENDBRANCH   6   8
ENDBRANCH   3   4
ENDBRANCH   2   3
ENDBRANCH   1   2
BRANCH   1  73
ATOM     73  C   UNL A   1      31.805  29.075  26.613  1.00  0.00     0.002 C 
BRANCH  73  74
ATOM     74  C   UNL A   1      31.775  27.685  27.263  1.00  0.00     0.021 C 
BRANCH  74  75
ATOM     75  C   UNL A   1      31.985  26.445  26.391  1.00  0.00     0.116 C 
BRANCH  75  76
ATOM     76  N   UNL A   1      31.263  25.243  26.795  1.00  0.00    -0.352 N 
ATOM     77  C   UNL A   1      31.597  23.911  26.660  1.00  0.00     0.253 C 
ATOM     78  H   UNL A   1      30.398  25.409  27.234  1.00  0.00     0.163 HD
ATOM     79  O   UNL A   1      30.986  23.038  27.266  1.00  0.00    -0.269 OA
BRANCH  77  80
ATOM     80  C   UNL A   1      32.786  23.544  25.901  1.00  0.00     0.071 A 
ATOM     81  C   UNL A   1      33.922  23.357  26.723  1.00  0.00     0.018 A 
ATOM     82  C   UNL A   1      32.890  23.308  24.533  1.00  0.00     0.141 A 
ATOM     83  C   UNL A   1      35.150  23.024  26.178  1.00  0.00     0.021 A 
ATOM     84  N   UNL A   1      34.130  23.005  24.011  1.00  0.00    -0.250 NA
ATOM     85  C   UNL A   1      35.206  22.874  24.815  1.00  0.00     0.112 A 
BRANCH  82  86
ATOM     86  C   UNL A   1      31.843  23.177  23.422  1.00  0.00     0.275 C 
ATOM     87  O   UNL A   1      31.852  22.145  22.732  1.00  0.00    -0.267 OA
ATOM     88  N   UNL A   1      30.720  23.950  23.233  1.00  0.00    -0.321 N 
ATOM     89  H   UNL A   1      29.916  23.419  23.031  1.00  0.00     0.170 HD
BRANCH  88  90
ATOM     90  C   UNL A   1      30.475  25.316  23.267  1.00  0.00     0.042 A 
ATOM     91  C   UNL A   1      31.398  26.149  22.618  1.00  0.00     0.033 A 
ATOM     92  C   UNL A   1      29.375  25.863  23.918  1.00  0.00     0.033 A 
ATOM     93  C   UNL A   1      31.093  27.493  22.399  1.00  0.00     0.088 A 
ATOM     94  C   UNL A   1      29.091  27.219  23.745  1.00  0.00     0.088 A 
ATOM     95  C   UNL A   1      29.898  27.992  22.910  1.00  0.00     0.269 A 
BRANCH  95  96
ATOM     96  N   UNL A   1      29.407  29.289  22.463  1.00  0.00     0.062 N 
ATOM     97  O   UNL A   1      29.781  29.695  21.354  1.00  0.00    -0.258 OA
ATOM     98  O   UNL A   1      28.630  29.888  23.222  1.00  0.00    -0.258 OA
ENDBRANCH  95  96
ENDBRANCH  88  90
ENDBRANCH  82  86
ENDBRANCH  77  80
ENDBRANCH  75  76
ENDBRANCH  74  75
ENDBRANCH  73  74
ENDBRANCH   1  73
TORSDOF 19
ENDMDL
MODEL 3
REMARK VINA RESULT:     -12.5      2.145      8.104
REMARK SMILES O=C(NCCCCCCNC(=O)c1cccnc1C(=O)Nc1ccc([N+](=O)[O-])cc1)c1ccc(-c2c3nc(c(-c4cc(S(=O)(=O)[O-])ccc4F)c4ccc([nH]4)c(-c4cc(S(=O)(=O)[O-])ccc4F)c4nc(c(-c5cc(S(=O)(=O)[O-])ccc5F)c5ccc2[nH]5)C=C4)C=C3)cc1
REMARK SMILES IDX 6 1 5 2 4 3 3 4 1 5 2 6 31 8 32 9 93 10 33 11 92 12 34 13
REMARK SMILES IDX 35 14 36 15 86 16 37 17 91 18 85 19 87 20 38 21 90 22 84 23
REMARK SMILES IDX 83 24 39 26 71 27 51 28 70 29 52 30 55 31 69 32 88 33 53 34
REMARK SMILES IDX 54 35 68 37 89 38 56 39 40 40 41 41 49 42 42 43 48 44 50 45
REMARK SMILES IDX 47 46 43 47 44 48 45 49 46 50 72 51 73 52 81 53 74 54 80 55
REMARK SMILES IDX 82 56 79 57 75 58 76 59 77 60 78 61 57 62 58 63 66 64 59 65
REMARK SMILES IDX 65 66 67 67 64 68 60 69 61 70 62 71 63 72 7 73 8 74 9 75
REMARK SMILES IDX 10 76 11 77 12 79 13 80 14 81 18 82 15 83 17 84 16 85 19 86
REMARK SMILES IDX 20 87 21 88 22 90 23 91 30 92 24 93 29 94 25 95 26 96 27 97
REMARK SMILES IDX 28 98
REMARK H PARENT 3 7 87 25 55 36 10 78 21 89
REMARK Flexibility Score: inf
ROOT
ATOM      1  C   UNL A   1      32.035  30.397  26.005  1.00  0.00     0.002 C 
ENDROOT
BRANCH   1   2
ATOM      2  C   UNL A   1      31.718  31.525  26.979  1.00  0.00     0.021 C 
BRANCH   2   3
ATOM      3  C   UNL A   1      32.923  32.356  27.381  1.00  0.00     0.116 C 
BRANCH   3   4
ATOM      4  N   UNL A   1      32.621  33.760  27.621  1.00  0.00    -0.352 N 
ATOM      5  O   UNL A   1      32.815  35.721  28.752  1.00  0.00    -0.269 OA
ATOM      6  C   UNL A   1      33.200  34.581  28.572  1.00  0.00     0.251 C 
ATOM      7  H   UNL A   1      31.932  34.168  27.047  1.00  0.00     0.163 HD
BRANCH   6   8
ATOM      8  C   UNL A   1      34.291  34.001  29.390  1.00  0.00     0.039 A 
ATOM      9  C   UNL A   1      35.614  34.260  29.034  1.00  0.00     0.014 A 
ATOM     10  C   UNL A   1      33.989  33.103  30.414  1.00  0.00     0.014 A 
ATOM     11  C   UNL A   1      36.626  33.489  29.581  1.00  0.00     0.010 A 
ATOM     12  C   UNL A   1      35.028  32.415  31.051  1.00  0.00     0.010 A 
ATOM     13  C   UNL A   1      36.353  32.580  30.620  1.00  0.00    -0.014 A 
BRANCH  13  14
ATOM     14  C   UNL A   1      37.498  31.902  31.279  1.00  0.00     0.031 A 
ATOM     15  C   UNL A   1      38.284  30.819  30.593  1.00  0.00     0.074 A 
ATOM     16  C   UNL A   1      37.860  32.339  32.503  1.00  0.00     0.049 A 
ATOM     17  N   UNL A   1      39.326  30.159  31.033  1.00  0.00    -0.248 NA
ATOM     18  C   UNL A   1      37.846  30.417  29.248  1.00  0.00     0.031 C 
ATOM     19  C   UNL A   1      37.158  33.384  33.258  1.00  0.00     0.029 A 
ATOM     20  N   UNL A   1      38.912  32.003  33.311  1.00  0.00    -0.354 N 
ATOM     21  C   UNL A   1      39.662  29.254  30.031  1.00  0.00     0.074 A 
ATOM     22  C   UNL A   1      38.693  29.434  28.970  1.00  0.00     0.031 C 
ATOM     23  C   UNL A   1      37.840  33.653  34.378  1.00  0.00     0.029 A 
ATOM     24  C   UNL A   1      38.964  32.734  34.475  1.00  0.00     0.049 A 
ATOM     25  H   UNL A   1      39.568  31.304  33.083  1.00  0.00     0.167 HD
ATOM     26  C   UNL A   1      40.686  28.363  30.007  1.00  0.00     0.034 A 
ATOM     27  C   UNL A   1      39.804  32.658  35.525  1.00  0.00     0.034 A 
ATOM     28  C   UNL A   1      41.638  28.203  31.082  1.00  0.00     0.049 A 
ATOM     29  C   UNL A   1      40.908  31.639  35.476  1.00  0.00     0.074 A 
ATOM     30  C   UNL A   1      42.714  27.333  31.160  1.00  0.00     0.029 A 
ATOM     31  N   UNL A   1      41.633  28.925  32.269  1.00  0.00    -0.354 N 
ATOM     32  N   UNL A   1      41.203  30.787  34.522  1.00  0.00    -0.248 NA
ATOM     33  C   UNL A   1      41.789  31.571  36.646  1.00  0.00     0.031 C 
ATOM     34  C   UNL A   1      43.317  27.485  32.413  1.00  0.00     0.029 A 
ATOM     35  C   UNL A   1      42.668  28.505  33.092  1.00  0.00     0.049 A 
ATOM     36  H   UNL A   1      40.988  29.634  32.494  1.00  0.00     0.167 HD
ATOM     37  C   UNL A   1      42.312  30.084  34.976  1.00  0.00     0.074 A 
ATOM     38  C   UNL A   1      42.657  30.646  36.267  1.00  0.00     0.031 C 
ATOM     39  C   UNL A   1      42.980  29.058  34.388  1.00  0.00     0.034 A 
BRANCH  26  40
ATOM     40  C   UNL A   1      40.806  27.463  28.798  1.00  0.00     0.023 A 
ATOM     41  C   UNL A   1      41.777  27.681  27.805  1.00  0.00     0.031 A 
ATOM     42  C   UNL A   1      39.950  26.358  28.647  1.00  0.00     0.131 A 
ATOM     43  C   UNL A   1      41.838  26.836  26.685  1.00  0.00     0.055 A 
ATOM     44  C   UNL A   1      40.058  25.482  27.564  1.00  0.00     0.041 A 
ATOM     45  F   UNL A   1      38.990  26.108  29.553  1.00  0.00    -0.206 F 
ATOM     46  C   UNL A   1      41.001  25.724  26.569  1.00  0.00     0.022 A 
BRANCH  43  47
ATOM     47  S   UNL A   1      42.959  27.271  25.326  1.00  0.00     0.124 S 
ATOM     48  O   UNL A   1      43.091  25.993  24.631  1.00  0.00    -0.237 OA
ATOM     49  O   UNL A   1      42.213  28.306  24.619  1.00  0.00    -0.237 OA
ATOM     50  O   UNL A   1      44.166  27.729  26.008  1.00  0.00    -0.744 OA
ENDBRANCH  43  47
ENDBRANCH  26  40
BRANCH  27  51
ATOM     51  C   UNL A   1      39.598  33.524  36.720  1.00  0.00     0.023 A 
ATOM     52  C   UNL A   1      39.009  33.022  37.889  1.00  0.00     0.031 A 
ATOM     53  C   UNL A   1      39.953  34.886  36.694  1.00  0.00     0.131 A 
ATOM     54  C   UNL A   1      38.746  33.885  38.963  1.00  0.00     0.055 A 
ATOM     55  C   UNL A   1      39.753  35.724  37.789  1.00  0.00     0.041 A 
ATOM     56  F   UNL A   1      40.521  35.420  35.600  1.00  0.00    -0.206 F 
ATOM     57  C   UNL A   1      39.129  35.227  38.929  1.00  0.00     0.022 A 
BRANCH  54  58
ATOM     58  S   UNL A   1      37.789  33.252  40.367  1.00  0.00     0.124 S 
ATOM     59  O   UNL A   1      37.801  34.393  41.275  1.00  0.00    -0.237 OA
ATOM     60  O   UNL A   1      36.506  32.944  39.743  1.00  0.00    -0.237 OA
ATOM     61  O   UNL A   1      38.560  32.092  40.809  1.00  0.00    -0.744 OA
ENDBRANCH  54  58
ENDBRANCH  27  51
BRANCH  39  62
ATOM     62  C   UNL A   1      44.161  28.509  35.150  1.00  0.00     0.023 A 
ATOM     63  C   UNL A   1      43.993  27.559  36.173  1.00  0.00     0.031 A 
ATOM     64  C   UNL A   1      45.457  28.986  34.894  1.00  0.00     0.131 A 
ATOM     65  C   UNL A   1      45.090  27.179  36.959  1.00  0.00     0.055 A 
ATOM     66  C   UNL A   1      46.557  28.550  35.633  1.00  0.00     0.041 A 
ATOM     67  F   UNL A   1      45.674  29.895  33.931  1.00  0.00    -0.206 F 
ATOM     68  C   UNL A   1      46.373  27.656  36.685  1.00  0.00     0.022 A 
BRANCH  65  69
ATOM     69  S   UNL A   1      44.791  26.153  38.425  1.00  0.00     0.124 S 
ATOM     70  O   UNL A   1      43.403  26.473  38.741  1.00  0.00    -0.237 OA
ATOM     71  O   UNL A   1      45.036  24.807  37.917  1.00  0.00    -0.237 OA
ATOM     72  O   UNL A   1      45.776  26.640  39.390  1.00  0.00    -0.744 OA
ENDBRANCH  65  69
ENDBRANCH  39  62
ENDBRANCH  13  14
ENDBRANCH   6   8
ENDBRANCH   3   4
ENDBRANCH   2   3
ENDBRANCH   1   2
BRANCH   1  73
ATOM     73  C   UNL A   1      33.461  29.845  26.082  1.00  0.00     0.002 C 
BRANCH  73  74
ATOM     74  C   UNL A   1      33.684  28.523  26.830  1.00  0.00     0.021 C 
BRANCH  74  75
ATOM     75  C   UNL A   1      33.924  27.242  26.029  1.00  0.00     0.116 C 
BRANCH  75  76
ATOM     76  N   UNL A   1      33.036  26.121  26.325  1.00  0.00    -0.352 N 
ATOM     77  C   UNL A   1      31.981  25.602  25.604  1.00  0.00     0.253 C 
ATOM     78  H   UNL A   1      33.220  25.663  27.176  1.00  0.00     0.163 HD
ATOM     79  O   UNL A   1      31.494  24.513  25.886  1.00  0.00    -0.269 OA
BRANCH  77  80
ATOM     80  C   UNL A   1      31.531  26.287  24.399  1.00  0.00     0.071 A 
ATOM     81  C   UNL A   1      30.499  27.221  24.654  1.00  0.00     0.018 A 
ATOM     82  C   UNL A   1      32.034  26.167  23.107  1.00  0.00     0.141 A 
ATOM     83  C   UNL A   1      29.930  27.954  23.628  1.00  0.00     0.021 A 
ATOM     84  N   UNL A   1      31.432  26.887  22.097  1.00  0.00    -0.250 NA
ATOM     85  C   UNL A   1      30.421  27.740  22.364  1.00  0.00     0.112 A 
BRANCH  82  86
ATOM     86  C   UNL A   1      33.272  25.463  22.538  1.00  0.00     0.275 C 
ATOM     87  O   UNL A   1      33.928  26.054  21.667  1.00  0.00    -0.267 OA
ATOM     88  N   UNL A   1      33.906  24.350  23.039  1.00  0.00    -0.321 N 
ATOM     89  H   UNL A   1      34.886  24.441  23.060  1.00  0.00     0.170 HD
BRANCH  88  90
ATOM     90  C   UNL A   1      33.464  23.126  23.523  1.00  0.00     0.042 A 
ATOM     91  C   UNL A   1      32.448  22.481  22.803  1.00  0.00     0.033 A 
ATOM     92  C   UNL A   1      33.983  22.546  24.676  1.00  0.00     0.033 A 
ATOM     93  C   UNL A   1      32.130  21.152  23.082  1.00  0.00     0.088 A 
ATOM     94  C   UNL A   1      33.630  21.232  24.990  1.00  0.00     0.088 A 
ATOM     95  C   UNL A   1      32.785  20.521  24.136  1.00  0.00     0.269 A 
BRANCH  95  96
ATOM     96  N   UNL A   1      32.701  19.073  24.277  1.00  0.00     0.062 N 
ATOM     97  O   UNL A   1      33.295  18.379  23.441  1.00  0.00    -0.258 OA
ATOM     98  O   UNL A   1      32.053  18.638  25.242  1.00  0.00    -0.258 OA
ENDBRANCH  95  96
ENDBRANCH  88  90
ENDBRANCH  82  86
ENDBRANCH  77  80
ENDBRANCH  75  76
ENDBRANCH  74  75
ENDBRANCH  73  74
ENDBRANCH   1  73
TORSDOF 19
ENDMDL
