MODEL 1
REMARK VINA RESULT:     -13.2      0.000      0.000
REMARK SMILES Cc1c(CC(=O)NCCCCCCNC(=O)c2ccc(-c3c4nc(c(-c5cc(S(=O)(=O)[O-])ccc5F)c5ccc([nH]5)c(-c5cc(S(=O)(=O)[O-])ccc5F)c5nc(c(-c6cc(S(=O)(=O)[O-])ccc6F)c6ccc3[nH]6)C=C5)C=C4)cc2)cc(-c2ccc(S(C)(=O)=O)cc2)n1-c1cccc(F)c1
REMARK SMILES IDX 10 1 9 2 8 3 7 4 5 5 6 6 4 8 3 9 1 10 2 11 92 12 80 13 81 14
REMARK SMILES IDX 93 15 94 16 99 17 95 18 97 19 96 20 98 21 82 22 83 23 91 24
REMARK SMILES IDX 84 25 90 26 85 27 86 28 87 29 88 30 89 31 11 32 12 33 13 34
REMARK SMILES IDX 14 35 15 36 16 38 17 39 18 40 79 41 19 42 78 43 20 44 21 45
REMARK SMILES IDX 22 46 72 47 23 48 77 49 71 50 73 51 24 52 76 53 70 54 69 55
REMARK SMILES IDX 25 57 57 58 37 59 56 60 38 61 41 62 55 63 74 64 39 65 40 66
REMARK SMILES IDX 54 68 75 69 42 70 26 71 27 72 35 73 28 74 34 75 36 76 33 77
REMARK SMILES IDX 29 78 30 79 31 80 32 81 58 82 59 83 67 84 60 85 66 86 68 87
REMARK SMILES IDX 65 88 61 89 62 90 63 91 64 92 43 93 44 94 52 95 45 96 51 97
REMARK SMILES IDX 53 98 50 99 46 100 47 101 48 102 49 103
REMARK H PARENT 7 7 14 37 73 56 41 67
REMARK Flexibility Score: inf
ROOT
ATOM      1  C   UNL A   1      33.430  29.061  27.349  1.00  0.00     0.002 C 
ENDROOT
BRANCH   1   2
ATOM      2  C   UNL A   1      32.865  27.678  27.002  1.00  0.00     0.021 C 
BRANCH   2   3
ATOM      3  C   UNL A   1      31.546  27.703  26.231  1.00  0.00     0.116 C 
BRANCH   3   4
ATOM      4  N   UNL A   1      30.579  26.774  26.788  1.00  0.00    -0.356 N 
ATOM      5  C   UNL A   1      29.962  25.709  26.194  1.00  0.00     0.224 C 
ATOM      6  O   UNL A   1      29.140  25.067  26.854  1.00  0.00    -0.275 OA
ATOM      7  H   UNL A   1      30.334  26.933  27.728  1.00  0.00     0.163 HD
BRANCH   5   8
ATOM      8  C   UNL A   1      30.335  25.284  24.784  1.00  0.00     0.137 C 
BRANCH   8   9
ATOM      9  C   UNL A   1      31.368  24.206  24.734  1.00  0.00    -0.017 A 
ATOM     10  C   UNL A   1      33.536  25.556  24.327  1.00  0.00     0.065 C 
ATOM     11  C   UNL A   1      32.749  24.316  24.593  1.00  0.00     0.024 A 
ATOM     12  N   UNL A   1      33.299  23.036  24.626  1.00  0.00    -0.313 N 
ATOM     13  C   UNL A   1      31.068  22.829  24.769  1.00  0.00     0.033 A 
ATOM     14  C   UNL A   1      32.250  22.128  24.719  1.00  0.00     0.053 A 
BRANCH  12  15
ATOM     15  C   UNL A   1      34.683  22.697  24.584  1.00  0.00     0.049 A 
ATOM     16  C   UNL A   1      35.372  22.376  25.765  1.00  0.00     0.027 A 
ATOM     17  C   UNL A   1      35.378  22.795  23.375  1.00  0.00     0.065 A 
ATOM     18  C   UNL A   1      36.754  22.169  25.738  1.00  0.00     0.005 A 
ATOM     19  C   UNL A   1      36.754  22.587  23.368  1.00  0.00     0.125 A 
ATOM     20  C   UNL A   1      37.447  22.279  24.535  1.00  0.00     0.039 A 
ATOM     21  F   UNL A   1      37.427  22.708  22.216  1.00  0.00    -0.207 F 
ENDBRANCH  12  15
BRANCH  14  22
ATOM     22  C   UNL A   1      32.387  20.685  24.729  1.00  0.00    -0.001 A 
ATOM     23  C   UNL A   1      32.658  19.983  25.910  1.00  0.00     0.011 A 
ATOM     24  C   UNL A   1      32.310  20.023  23.497  1.00  0.00     0.011 A 
ATOM     25  C   UNL A   1      32.977  18.638  25.837  1.00  0.00     0.021 A 
ATOM     26  C   UNL A   1      32.619  18.684  23.420  1.00  0.00     0.021 A 
ATOM     27  C   UNL A   1      33.000  18.023  24.580  1.00  0.00     0.067 A 
BRANCH  27  28
ATOM     28  S   UNL A   1      33.495  16.345  24.406  1.00  0.00     0.175 S 
ATOM     29  C   UNL A   1      35.029  16.294  25.338  1.00  0.00     0.163 C 
ATOM     30  O   UNL A   1      32.373  15.649  25.029  1.00  0.00    -0.224 OA
ATOM     31  O   UNL A   1      33.815  16.135  23.021  1.00  0.00    -0.224 OA
ENDBRANCH  27  28
ENDBRANCH  14  22
ENDBRANCH   8   9
ENDBRANCH   5   8
ENDBRANCH   3   4
ENDBRANCH   2   3
ENDBRANCH   1   2
BRANCH   1  32
ATOM     32  C   UNL A   1      32.622  30.269  26.857  1.00  0.00     0.002 C 
BRANCH  32  33
ATOM     33  C   UNL A   1      33.054  31.660  27.354  1.00  0.00     0.021 C 
BRANCH  33  34
ATOM     34  C   UNL A   1      34.520  31.842  27.787  1.00  0.00     0.116 C 
BRANCH  34  35
ATOM     35  N   UNL A   1      34.732  31.814  29.213  1.00  0.00    -0.352 N 
ATOM     36  C   UNL A   1      35.879  31.431  29.886  1.00  0.00     0.251 C 
ATOM     37  H   UNL A   1      33.974  32.102  29.772  1.00  0.00     0.163 HD
ATOM     38  O   UNL A   1      35.938  31.652  31.092  1.00  0.00    -0.269 OA
BRANCH  36  39
ATOM     39  C   UNL A   1      37.009  30.719  29.194  1.00  0.00     0.039 A 
ATOM     40  C   UNL A   1      36.793  29.445  28.684  1.00  0.00     0.014 A 
ATOM     41  C   UNL A   1      38.341  31.172  29.259  1.00  0.00     0.014 A 
ATOM     42  C   UNL A   1      37.890  28.659  28.248  1.00  0.00     0.010 A 
ATOM     43  C   UNL A   1      39.456  30.347  28.868  1.00  0.00     0.010 A 
ATOM     44  C   UNL A   1      39.269  29.044  28.382  1.00  0.00    -0.014 A 
BRANCH  44  45
ATOM     45  C   UNL A   1      40.274  27.844  28.495  1.00  0.00     0.031 A 
ATOM     46  C   UNL A   1      41.091  28.199  29.687  1.00  0.00     0.074 A 
ATOM     47  C   UNL A   1      40.804  26.794  27.769  1.00  0.00     0.049 A 
ATOM     48  N   UNL A   1      41.702  29.353  29.725  1.00  0.00    -0.248 NA
ATOM     49  C   UNL A   1      40.998  27.510  30.969  1.00  0.00     0.031 C 
ATOM     50  C   UNL A   1      40.735  26.588  26.328  1.00  0.00     0.029 A 
ATOM     51  N   UNL A   1      41.504  25.617  28.140  1.00  0.00    -0.354 N 
ATOM     52  C   UNL A   1      42.379  29.382  30.916  1.00  0.00     0.074 A 
ATOM     53  C   UNL A   1      41.709  28.359  31.718  1.00  0.00     0.031 C 
ATOM     54  C   UNL A   1      41.050  25.310  25.979  1.00  0.00     0.029 A 
ATOM     55  C   UNL A   1      41.506  24.578  27.148  1.00  0.00     0.049 A 
ATOM     56  H   UNL A   1      41.952  25.520  29.011  1.00  0.00     0.167 HD
ATOM     57  C   UNL A   1      43.725  29.588  30.810  1.00  0.00     0.034 A 
ATOM     58  C   UNL A   1      42.020  23.294  27.156  1.00  0.00     0.034 A 
ATOM     59  C   UNL A   1      44.460  28.351  30.845  1.00  0.00     0.049 A 
ATOM     60  C   UNL A   1      43.319  23.459  27.808  1.00  0.00     0.074 A 
ATOM     61  C   UNL A   1      44.453  27.279  31.710  1.00  0.00     0.029 A 
ATOM     62  N   UNL A   1      45.022  27.914  29.661  1.00  0.00    -0.354 N 
ATOM     63  N   UNL A   1      44.309  24.068  27.229  1.00  0.00    -0.248 NA
ATOM     64  C   UNL A   1      43.572  22.967  29.153  1.00  0.00     0.031 C 
ATOM     65  C   UNL A   1      44.628  26.140  30.895  1.00  0.00     0.029 A 
ATOM     66  C   UNL A   1      45.038  26.533  29.627  1.00  0.00     0.049 A 
ATOM     67  H   UNL A   1      45.361  28.499  28.947  1.00  0.00     0.167 HD
ATOM     68  C   UNL A   1      45.016  24.535  28.294  1.00  0.00     0.074 A 
ATOM     69  C   UNL A   1      44.722  23.607  29.372  1.00  0.00     0.031 C 
ATOM     70  C   UNL A   1      45.258  25.871  28.352  1.00  0.00     0.034 A 
BRANCH  57  71
ATOM     71  C   UNL A   1      44.138  30.773  29.986  1.00  0.00     0.023 A 
ATOM     72  C   UNL A   1      45.095  30.585  28.980  1.00  0.00     0.031 A 
ATOM     73  C   UNL A   1      43.649  32.081  30.190  1.00  0.00     0.131 A 
ATOM     74  C   UNL A   1      45.568  31.686  28.246  1.00  0.00     0.055 A 
ATOM     75  C   UNL A   1      44.152  33.178  29.490  1.00  0.00     0.041 A 
ATOM     76  F   UNL A   1      42.645  32.315  31.050  1.00  0.00    -0.206 F 
ATOM     77  C   UNL A   1      45.123  32.983  28.514  1.00  0.00     0.022 A 
BRANCH  74  78
ATOM     78  S   UNL A   1      46.739  31.387  26.895  1.00  0.00     0.124 S 
ATOM     79  O   UNL A   1      47.221  30.041  27.189  1.00  0.00    -0.237 OA
ATOM     80  O   UNL A   1      45.888  31.506  25.713  1.00  0.00    -0.237 OA
ATOM     81  O   UNL A   1      47.729  32.451  27.050  1.00  0.00    -0.744 OA
ENDBRANCH  74  78
ENDBRANCH  57  71
BRANCH  58  82
ATOM     82  C   UNL A   1      41.906  21.948  26.441  1.00  0.00     0.023 A 
ATOM     83  C   UNL A   1      43.043  21.314  25.834  1.00  0.00     0.031 A 
ATOM     84  C   UNL A   1      40.815  21.100  26.684  1.00  0.00     0.131 A 
ATOM     85  C   UNL A   1      43.085  19.922  25.564  1.00  0.00     0.055 A 
ATOM     86  C   UNL A   1      40.849  19.716  26.393  1.00  0.00     0.041 A 
ATOM     87  F   UNL A   1      39.727  21.559  27.318  1.00  0.00    -0.206 F 
ATOM     88  C   UNL A   1      41.988  19.119  25.854  1.00  0.00     0.022 A 
BRANCH  85  89
ATOM     89  S   UNL A   1      44.641  19.109  25.025  1.00  0.00     0.124 S 
ATOM     90  O   UNL A   1      44.659  17.885  25.815  1.00  0.00    -0.237 OA
ATOM     91  O   UNL A   1      44.440  18.952  23.587  1.00  0.00    -0.237 OA
ATOM     92  O   UNL A   1      45.677  20.082  25.381  1.00  0.00    -0.744 OA
ENDBRANCH  85  89
ENDBRANCH  58  82
BRANCH  70  93
ATOM     93  C   UNL A   1      45.579  26.587  27.038  1.00  0.00     0.023 A 
ATOM     94  C   UNL A   1      46.763  26.444  26.266  1.00  0.00     0.031 A 
ATOM     95  C   UNL A   1      44.651  27.534  26.573  1.00  0.00     0.131 A 
ATOM     96  C   UNL A   1      46.998  27.244  25.127  1.00  0.00     0.055 A 
ATOM     97  C   UNL A   1      44.866  28.307  25.428  1.00  0.00     0.041 A 
ATOM     98  F   UNL A   1      43.503  27.736  27.241  1.00  0.00    -0.206 F 
ATOM     99  C   UNL A   1      46.050  28.177  24.709  1.00  0.00     0.022 A 
BRANCH  96 100
ATOM    100  S   UNL A   1      48.577  27.114  24.216  1.00  0.00     0.124 S 
ATOM    101  O   UNL A   1      48.185  27.318  22.827  1.00  0.00    -0.237 OA
ATOM    102  O   UNL A   1      49.383  28.180  24.807  1.00  0.00    -0.237 OA
ATOM    103  O   UNL A   1      49.039  25.758  24.524  1.00  0.00    -0.744 OA
ENDBRANCH  96 100
ENDBRANCH  70  93
ENDBRANCH  44  45
ENDBRANCH  36  39
ENDBRANCH  34  35
ENDBRANCH  33  34
ENDBRANCH  32  33
ENDBRANCH   1  32
TORSDOF 20
ENDMDL
MODEL 2
REMARK VINA RESULT:     -12.0      2.499      3.524
REMARK SMILES Cc1c(CC(=O)NCCCCCCNC(=O)c2ccc(-c3c4nc(c(-c5cc(S(=O)(=O)[O-])ccc5F)c5ccc([nH]5)c(-c5cc(S(=O)(=O)[O-])ccc5F)c5nc(c(-c6cc(S(=O)(=O)[O-])ccc6F)c6ccc3[nH]6)C=C5)C=C4)cc2)cc(-c2ccc(S(C)(=O)=O)cc2)n1-c1cccc(F)c1
REMARK SMILES IDX 10 1 9 2 8 3 7 4 5 5 6 6 4 8 3 9 1 10 2 11 92 12 80 13 81 14
REMARK SMILES IDX 93 15 94 16 99 17 95 18 97 19 96 20 98 21 82 22 83 23 91 24
REMARK SMILES IDX 84 25 90 26 85 27 86 28 87 29 88 30 89 31 11 32 12 33 13 34
REMARK SMILES IDX 14 35 15 36 16 38 17 39 18 40 79 41 19 42 78 43 20 44 21 45
REMARK SMILES IDX 22 46 72 47 23 48 77 49 71 50 73 51 24 52 76 53 70 54 69 55
REMARK SMILES IDX 25 57 57 58 37 59 56 60 38 61 41 62 55 63 74 64 39 65 40 66
REMARK SMILES IDX 54 68 75 69 42 70 26 71 27 72 35 73 28 74 34 75 36 76 33 77
REMARK SMILES IDX 29 78 30 79 31 80 32 81 58 82 59 83 67 84 60 85 66 86 68 87
REMARK SMILES IDX 65 88 61 89 62 90 63 91 64 92 43 93 44 94 52 95 45 96 51 97
REMARK SMILES IDX 53 98 50 99 46 100 47 101 48 102 49 103
REMARK H PARENT 7 7 14 37 73 56 41 67
REMARK Flexibility Score: inf
ROOT
ATOM      1  C   UNL A   1      33.445  29.570  26.655  1.00  0.00     0.002 C 
ENDROOT
BRANCH   1   2
ATOM      2  C   UNL A   1      33.038  28.151  26.239  1.00  0.00     0.021 C 
BRANCH   2   3
ATOM      3  C   UNL A   1      31.644  28.044  25.621  1.00  0.00     0.116 C 
BRANCH   3   4
ATOM      4  N   UNL A   1      30.787  27.149  26.378  1.00  0.00    -0.356 N 
ATOM      5  C   UNL A   1      30.145  26.014  25.969  1.00  0.00     0.224 C 
ATOM      6  O   UNL A   1      29.433  25.420  26.782  1.00  0.00    -0.275 OA
ATOM      7  H   UNL A   1      30.650  27.394  27.321  1.00  0.00     0.163 HD
BRANCH   5   8
ATOM      8  C   UNL A   1      30.363  25.461  24.571  1.00  0.00     0.137 C 
BRANCH   8   9
ATOM      9  C   UNL A   1      31.396  24.384  24.504  1.00  0.00    -0.017 A 
ATOM     10  C   UNL A   1      33.552  25.733  24.038  1.00  0.00     0.065 C 
ATOM     11  C   UNL A   1      32.773  24.495  24.331  1.00  0.00     0.024 A 
ATOM     12  N   UNL A   1      33.326  23.216  24.359  1.00  0.00    -0.313 N 
ATOM     13  C   UNL A   1      31.098  23.007  24.555  1.00  0.00     0.033 A 
ATOM     14  C   UNL A   1      32.280  22.307  24.482  1.00  0.00     0.053 A 
BRANCH  12  15
ATOM     15  C   UNL A   1      34.709  22.877  24.287  1.00  0.00     0.049 A 
ATOM     16  C   UNL A   1      35.422  23.055  23.090  1.00  0.00     0.027 A 
ATOM     17  C   UNL A   1      35.323  22.261  25.381  1.00  0.00     0.065 A 
ATOM     18  C   UNL A   1      36.741  22.605  22.986  1.00  0.00     0.005 A 
ATOM     19  C   UNL A   1      36.636  21.817  25.257  1.00  0.00     0.125 A 
ATOM     20  C   UNL A   1      37.348  21.980  24.072  1.00  0.00     0.039 A 
ATOM     21  F   UNL A   1      37.219  21.201  26.294  1.00  0.00    -0.207 F 
ENDBRANCH  12  15
BRANCH  14  22
ATOM     22  C   UNL A   1      32.419  20.864  24.499  1.00  0.00    -0.001 A 
ATOM     23  C   UNL A   1      32.624  20.162  25.693  1.00  0.00     0.011 A 
ATOM     24  C   UNL A   1      32.413  20.204  23.264  1.00  0.00     0.011 A 
ATOM     25  C   UNL A   1      32.949  18.817  25.637  1.00  0.00     0.021 A 
ATOM     26  C   UNL A   1      32.728  18.865  23.204  1.00  0.00     0.021 A 
ATOM     27  C   UNL A   1      33.044  18.204  24.384  1.00  0.00     0.067 A 
BRANCH  27  28
ATOM     28  S   UNL A   1      33.552  16.526  24.236  1.00  0.00     0.175 S 
ATOM     29  C   UNL A   1      35.116  16.516  25.118  1.00  0.00     0.163 C 
ATOM     30  O   UNL A   1      32.458  15.836  24.913  1.00  0.00    -0.224 OA
ATOM     31  O   UNL A   1      33.829  16.284  22.847  1.00  0.00    -0.224 OA
ENDBRANCH  27  28
ENDBRANCH  14  22
ENDBRANCH   8   9
ENDBRANCH   5   8
ENDBRANCH   3   4
ENDBRANCH   2   3
ENDBRANCH   1   2
BRANCH   1  32
ATOM     32  C   UNL A   1      32.360  30.649  26.545  1.00  0.00     0.002 C 
BRANCH  32  33
ATOM     33  C   UNL A   1      32.552  31.934  27.372  1.00  0.00     0.021 C 
BRANCH  33  34
ATOM     34  C   UNL A   1      33.961  32.226  27.922  1.00  0.00     0.116 C 
BRANCH  34  35
ATOM     35  N   UNL A   1      34.045  32.273  29.361  1.00  0.00    -0.352 N 
ATOM     36  C   UNL A   1      35.143  31.977  30.149  1.00  0.00     0.251 C 
ATOM     37  H   UNL A   1      33.228  32.548  29.837  1.00  0.00     0.163 HD
ATOM     38  O   UNL A   1      35.083  32.255  31.344  1.00  0.00    -0.269 OA
BRANCH  36  39
ATOM     39  C   UNL A   1      36.361  31.291  29.594  1.00  0.00     0.039 A 
ATOM     40  C   UNL A   1      36.321  29.920  29.372  1.00  0.00     0.014 A 
ATOM     41  C   UNL A   1      37.618  31.920  29.527  1.00  0.00     0.014 A 
ATOM     42  C   UNL A   1      37.515  29.211  29.083  1.00  0.00     0.010 A 
ATOM     43  C   UNL A   1      38.836  31.186  29.290  1.00  0.00     0.010 A 
ATOM     44  C   UNL A   1      38.829  29.796  29.097  1.00  0.00    -0.014 A 
BRANCH  44  45
ATOM     45  C   UNL A   1      39.987  28.793  29.435  1.00  0.00     0.031 A 
ATOM     46  C   UNL A   1      40.256  29.060  30.874  1.00  0.00     0.074 A 
ATOM     47  C   UNL A   1      40.956  28.006  28.841  1.00  0.00     0.049 A 
ATOM     48  N   UNL A   1      40.536  30.277  31.259  1.00  0.00    -0.248 NA
ATOM     49  C   UNL A   1      39.904  28.141  31.950  1.00  0.00     0.031 C 
ATOM     50  C   UNL A   1      41.419  28.060  27.460  1.00  0.00     0.029 A 
ATOM     51  N   UNL A   1      41.743  26.923  29.309  1.00  0.00    -0.354 N 
ATOM     52  C   UNL A   1      40.752  30.205  32.609  1.00  0.00     0.074 A 
ATOM     53  C   UNL A   1      40.109  28.950  32.995  1.00  0.00     0.031 C 
ATOM     54  C   UNL A   1      42.118  26.945  27.111  1.00  0.00     0.029 A 
ATOM     55  C   UNL A   1      42.314  26.101  28.279  1.00  0.00     0.049 A 
ATOM     56  H   UNL A   1      41.886  26.747  30.267  1.00  0.00     0.167 HD
ATOM     57  C   UNL A   1      41.971  30.662  33.024  1.00  0.00     0.034 A 
ATOM     58  C   UNL A   1      43.079  24.949  28.331  1.00  0.00     0.034 A 
ATOM     59  C   UNL A   1      42.917  29.589  33.188  1.00  0.00     0.049 A 
ATOM     60  C   UNL A   1      44.012  25.218  29.425  1.00  0.00     0.074 A 
ATOM     61  C   UNL A   1      42.870  28.392  33.867  1.00  0.00     0.029 A 
ATOM     62  N   UNL A   1      43.926  29.484  32.250  1.00  0.00    -0.354 N 
ATOM     63  N   UNL A   1      44.969  26.089  29.317  1.00  0.00    -0.248 NA
ATOM     64  C   UNL A   1      43.909  24.539  30.707  1.00  0.00     0.031 C 
ATOM     65  C   UNL A   1      43.564  27.471  33.052  1.00  0.00     0.029 A 
ATOM     66  C   UNL A   1      44.269  28.158  32.072  1.00  0.00     0.049 A 
ATOM     67  H   UNL A   1      44.337  30.242  31.776  1.00  0.00     0.167 HD
ATOM     68  C   UNL A   1      45.154  26.468  30.611  1.00  0.00     0.074 A 
ATOM     69  C   UNL A   1      44.740  25.320  31.399  1.00  0.00     0.031 C 
ATOM     70  C   UNL A   1      45.047  27.793  30.900  1.00  0.00     0.034 A 
BRANCH  57  71
ATOM     71  C   UNL A   1      42.349  32.033  32.542  1.00  0.00     0.023 A 
ATOM     72  C   UNL A   1      42.289  33.098  33.450  1.00  0.00     0.031 A 
ATOM     73  C   UNL A   1      42.723  32.322  31.213  1.00  0.00     0.131 A 
ATOM     74  C   UNL A   1      42.553  34.408  33.013  1.00  0.00     0.055 A 
ATOM     75  C   UNL A   1      42.942  33.628  30.773  1.00  0.00     0.041 A 
ATOM     76  F   UNL A   1      42.920  31.337  30.323  1.00  0.00    -0.206 F 
ATOM     77  C   UNL A   1      42.852  34.682  31.676  1.00  0.00     0.022 A 
BRANCH  74  78
ATOM     78  S   UNL A   1      42.553  35.745  34.237  1.00  0.00     0.124 S 
ATOM     79  O   UNL A   1      43.643  35.358  35.127  1.00  0.00    -0.237 OA
ATOM     80  O   UNL A   1      42.803  36.924  33.411  1.00  0.00    -0.237 OA
ATOM     81  O   UNL A   1      41.216  35.680  34.825  1.00  0.00    -0.744 OA
ENDBRANCH  74  78
ENDBRANCH  57  71
BRANCH  58  82
ATOM     82  C   UNL A   1      43.522  23.760  27.480  1.00  0.00     0.023 A 
ATOM     83  C   UNL A   1      42.817  22.508  27.503  1.00  0.00     0.031 A 
ATOM     84  C   UNL A   1      44.359  23.947  26.370  1.00  0.00     0.131 A 
ATOM     85  C   UNL A   1      42.909  21.563  26.449  1.00  0.00     0.055 A 
ATOM     86  C   UNL A   1      44.467  22.995  25.331  1.00  0.00     0.041 A 
ATOM     87  F   UNL A   1      45.007  25.109  26.198  1.00  0.00    -0.206 F 
ATOM     88  C   UNL A   1      43.729  21.812  25.354  1.00  0.00     0.022 A 
BRANCH  85  89
ATOM     89  S   UNL A   1      41.804  20.097  26.394  1.00  0.00     0.124 S 
ATOM     90  O   UNL A   1      42.084  19.432  27.660  1.00  0.00    -0.237 OA
ATOM     91  O   UNL A   1      40.480  20.696  26.252  1.00  0.00    -0.237 OA
ATOM     92  O   UNL A   1      42.261  19.369  25.207  1.00  0.00    -0.744 OA
ENDBRANCH  85  89
ENDBRANCH  58  82
BRANCH  70  93
ATOM     93  C   UNL A   1      45.613  28.784  29.880  1.00  0.00     0.023 A 
ATOM     94  C   UNL A   1      44.865  29.577  28.969  1.00  0.00     0.031 A 
ATOM     95  C   UNL A   1      47.011  28.879  29.778  1.00  0.00     0.131 A 
ATOM     96  C   UNL A   1      45.505  30.374  27.995  1.00  0.00     0.055 A 
ATOM     97  C   UNL A   1      47.648  29.691  28.834  1.00  0.00     0.041 A 
ATOM     98  F   UNL A   1      47.797  28.164  30.600  1.00  0.00    -0.206 F 
ATOM     99  C   UNL A   1      46.896  30.430  27.926  1.00  0.00     0.022 A 
BRANCH  96 100
ATOM    100  S   UNL A   1      44.518  31.299  26.766  1.00  0.00     0.124 S 
ATOM    101  O   UNL A   1      45.499  31.670  25.753  1.00  0.00    -0.237 OA
ATOM    102  O   UNL A   1      43.518  30.321  26.346  1.00  0.00    -0.237 OA
ATOM    103  O   UNL A   1      43.984  32.426  27.534  1.00  0.00    -0.744 OA
ENDBRANCH  96 100
ENDBRANCH  70  93
ENDBRANCH  44  45
ENDBRANCH  36  39
ENDBRANCH  34  35
ENDBRANCH  33  34
ENDBRANCH  32  33
ENDBRANCH   1  32
TORSDOF 20
ENDMDL
MODEL 3
REMARK VINA RESULT:     -11.8      1.545      2.000
REMARK SMILES Cc1c(CC(=O)NCCCCCCNC(=O)c2ccc(-c3c4nc(c(-c5cc(S(=O)(=O)[O-])ccc5F)c5ccc([nH]5)c(-c5cc(S(=O)(=O)[O-])ccc5F)c5nc(c(-c6cc(S(=O)(=O)[O-])ccc6F)c6ccc3[nH]6)C=C5)C=C4)cc2)cc(-c2ccc(S(C)(=O)=O)cc2)n1-c1cccc(F)c1
REMARK SMILES IDX 10 1 9 2 8 3 7 4 5 5 6 6 4 8 3 9 1 10 2 11 92 12 80 13 81 14
REMARK SMILES IDX 93 15 94 16 99 17 95 18 97 19 96 20 98 21 82 22 83 23 91 24
REMARK SMILES IDX 84 25 90 26 85 27 86 28 87 29 88 30 89 31 11 32 12 33 13 34
REMARK SMILES IDX 14 35 15 36 16 38 17 39 18 40 79 41 19 42 78 43 20 44 21 45
REMARK SMILES IDX 22 46 72 47 23 48 77 49 71 50 73 51 24 52 76 53 70 54 69 55
REMARK SMILES IDX 25 57 57 58 37 59 56 60 38 61 41 62 55 63 74 64 39 65 40 66
REMARK SMILES IDX 54 68 75 69 42 70 26 71 27 72 35 73 28 74 34 75 36 76 33 77
REMARK SMILES IDX 29 78 30 79 31 80 32 81 58 82 59 83 67 84 60 85 66 86 68 87
REMARK SMILES IDX 65 88 61 89 62 90 63 91 64 92 43 93 44 94 52 95 45 96 51 97
REMARK SMILES IDX 53 98 50 99 46 100 47 101 48 102 49 103
REMARK H PARENT 7 7 14 37 73 56 41 67
REMARK Flexibility Score: inf
ROOT
ATOM      1  C   UNL A   1      33.776  29.432  27.142  1.00  0.00     0.002 C 
ENDROOT
BRANCH   1   2
ATOM      2  C   UNL A   1      32.886  28.203  27.368  1.00  0.00     0.021 C 
BRANCH   2   3
ATOM      3  C   UNL A   1      31.751  28.042  26.358  1.00  0.00     0.116 C 
BRANCH   3   4
ATOM      4  N   UNL A   1      30.745  27.104  26.823  1.00  0.00    -0.356 N 
ATOM      5  C   UNL A   1      30.147  26.075  26.152  1.00  0.00     0.224 C 
ATOM      6  O   UNL A   1      29.284  25.418  26.740  1.00  0.00    -0.275 OA
ATOM      7  H   UNL A   1      30.453  27.226  27.755  1.00  0.00     0.163 HD
BRANCH   5   8
ATOM      8  C   UNL A   1      30.587  25.706  24.746  1.00  0.00     0.137 C 
BRANCH   8   9
ATOM      9  C   UNL A   1      31.669  24.677  24.705  1.00  0.00    -0.017 A 
ATOM     10  C   UNL A   1      33.778  26.128  24.337  1.00  0.00     0.065 C 
ATOM     11  C   UNL A   1      33.046  24.852  24.585  1.00  0.00     0.024 A 
ATOM     12  N   UNL A   1      33.654  23.599  24.619  1.00  0.00    -0.313 N 
ATOM     13  C   UNL A   1      31.433  23.288  24.729  1.00  0.00     0.033 A 
ATOM     14  C   UNL A   1      32.647  22.642  24.692  1.00  0.00     0.053 A 
BRANCH  12  15
ATOM     15  C   UNL A   1      35.053  23.324  24.595  1.00  0.00     0.049 A 
ATOM     16  C   UNL A   1      35.625  22.646  23.505  1.00  0.00     0.027 A 
ATOM     17  C   UNL A   1      35.833  23.631  25.713  1.00  0.00     0.065 A 
ATOM     18  C   UNL A   1      36.969  22.267  23.542  1.00  0.00     0.005 A 
ATOM     19  C   UNL A   1      37.169  23.243  25.732  1.00  0.00     0.125 A 
ATOM     20  C   UNL A   1      37.742  22.563  24.662  1.00  0.00     0.039 A 
ATOM     21  F   UNL A   1      37.912  23.512  26.814  1.00  0.00    -0.207 F 
ENDBRANCH  12  15
BRANCH  14  22
ATOM     22  C   UNL A   1      32.851  21.207  24.696  1.00  0.00    -0.001 A 
ATOM     23  C   UNL A   1      33.574  20.573  25.714  1.00  0.00     0.011 A 
ATOM     24  C   UNL A   1      32.358  20.485  23.603  1.00  0.00     0.011 A 
ATOM     25  C   UNL A   1      33.911  19.238  25.570  1.00  0.00     0.021 A 
ATOM     26  C   UNL A   1      32.684  19.155  23.459  1.00  0.00     0.021 A 
ATOM     27  C   UNL A   1      33.500  18.565  24.415  1.00  0.00     0.067 A 
BRANCH  27  28
ATOM     28  S   UNL A   1      33.979  16.898  24.123  1.00  0.00     0.175 S 
ATOM     29  C   UNL A   1      32.645  15.971  24.888  1.00  0.00     0.163 C 
ATOM     30  O   UNL A   1      33.999  16.858  22.664  1.00  0.00    -0.224 OA
ATOM     31  O   UNL A   1      35.174  16.657  24.882  1.00  0.00    -0.224 OA
ENDBRANCH  27  28
ENDBRANCH  14  22
ENDBRANCH   8   9
ENDBRANCH   5   8
ENDBRANCH   3   4
ENDBRANCH   2   3
ENDBRANCH   1   2
BRANCH   1  32
ATOM     32  C   UNL A   1      33.075  30.796  27.189  1.00  0.00     0.002 C 
BRANCH  32  33
ATOM     33  C   UNL A   1      33.913  32.008  27.634  1.00  0.00     0.021 C 
BRANCH  33  34
ATOM     34  C   UNL A   1      35.366  31.750  28.074  1.00  0.00     0.116 C 
BRANCH  34  35
ATOM     35  N   UNL A   1      35.727  32.354  29.333  1.00  0.00    -0.352 N 
ATOM     36  C   UNL A   1      36.979  32.383  29.923  1.00  0.00     0.251 C 
ATOM     37  H   UNL A   1      35.001  32.796  29.829  1.00  0.00     0.163 HD
ATOM     38  O   UNL A   1      37.133  33.104  30.905  1.00  0.00    -0.269 OA
BRANCH  36  39
ATOM     39  C   UNL A   1      38.114  31.529  29.428  1.00  0.00     0.039 A 
ATOM     40  C   UNL A   1      37.828  30.332  28.785  1.00  0.00     0.014 A 
ATOM     41  C   UNL A   1      39.451  31.757  29.806  1.00  0.00     0.014 A 
ATOM     42  C   UNL A   1      38.864  29.398  28.526  1.00  0.00     0.010 A 
ATOM     43  C   UNL A   1      40.490  30.780  29.591  1.00  0.00     0.010 A 
ATOM     44  C   UNL A   1      40.222  29.548  28.975  1.00  0.00    -0.014 A 
BRANCH  44  45
ATOM     45  C   UNL A   1      40.987  28.197  29.200  1.00  0.00     0.031 A 
ATOM     46  C   UNL A   1      41.508  28.330  30.588  1.00  0.00     0.074 A 
ATOM     47  C   UNL A   1      41.538  27.129  28.516  1.00  0.00     0.049 A 
ATOM     48  N   UNL A   1      42.242  29.365  30.900  1.00  0.00    -0.248 NA
ATOM     49  C   UNL A   1      40.992  27.577  31.724  1.00  0.00     0.031 C 
ATOM     50  C   UNL A   1      41.818  27.039  27.089  1.00  0.00     0.029 A 
ATOM     51  N   UNL A   1      41.948  25.832  28.917  1.00  0.00    -0.354 N 
ATOM     52  C   UNL A   1      42.583  29.201  32.217  1.00  0.00     0.074 A 
ATOM     53  C   UNL A   1      41.594  28.245  32.713  1.00  0.00     0.031 C 
ATOM     54  C   UNL A   1      42.033  25.755  26.690  1.00  0.00     0.029 A 
ATOM     55  C   UNL A   1      42.064  24.878  27.849  1.00  0.00     0.049 A 
ATOM     56  H   UNL A   1      42.138  25.602  29.855  1.00  0.00     0.167 HD
ATOM     57  C   UNL A   1      43.926  29.195  32.468  1.00  0.00     0.034 A 
ATOM     58  C   UNL A   1      42.377  23.531  27.842  1.00  0.00     0.034 A 
ATOM     59  C   UNL A   1      44.449  27.856  32.547  1.00  0.00     0.049 A 
ATOM     60  C   UNL A   1      43.472  23.438  28.807  1.00  0.00     0.074 A 
ATOM     61  C   UNL A   1      44.070  26.741  33.261  1.00  0.00     0.029 A 
ATOM     62  N   UNL A   1      45.233  27.418  31.497  1.00  0.00    -0.354 N 
ATOM     63  N   UNL A   1      44.653  23.919  28.559  1.00  0.00    -0.248 NA
ATOM     64  C   UNL A   1      43.297  22.818  30.111  1.00  0.00     0.031 C 
ATOM     65  C   UNL A   1      44.292  25.648  32.395  1.00  0.00     0.029 A 
ATOM     66  C   UNL A   1      45.067  26.059  31.317  1.00  0.00     0.049 A 
ATOM     67  H   UNL A   1      45.823  27.991  30.956  1.00  0.00     0.167 HD
ATOM     68  C   UNL A   1      45.117  24.189  29.810  1.00  0.00     0.074 A 
ATOM     69  C   UNL A   1      44.427  23.247  30.674  1.00  0.00     0.031 C 
ATOM     70  C   UNL A   1      45.516  25.462  30.071  1.00  0.00     0.034 A 
BRANCH  57  71
ATOM     71  C   UNL A   1      44.698  30.353  31.905  1.00  0.00     0.023 A 
ATOM     72  C   UNL A   1      45.178  30.258  30.593  1.00  0.00     0.031 A 
ATOM     73  C   UNL A   1      45.007  31.520  32.635  1.00  0.00     0.131 A 
ATOM     74  C   UNL A   1      45.977  31.285  30.062  1.00  0.00     0.055 A 
ATOM     75  C   UNL A   1      45.835  32.518  32.121  1.00  0.00     0.041 A 
ATOM     76  F   UNL A   1      44.478  31.733  33.850  1.00  0.00    -0.206 F 
ATOM     77  C   UNL A   1      46.331  32.400  30.826  1.00  0.00     0.022 A 
BRANCH  74  78
ATOM     78  S   UNL A   1      46.504  31.166  28.332  1.00  0.00     0.124 S 
ATOM     79  O   UNL A   1      46.360  32.541  27.863  1.00  0.00    -0.237 OA
ATOM     80  O   UNL A   1      47.878  30.685  28.456  1.00  0.00    -0.237 OA
ATOM     81  O   UNL A   1      45.568  30.208  27.746  1.00  0.00    -0.744 OA
ENDBRANCH  74  78
ENDBRANCH  57  71
BRANCH  58  82
ATOM     82  C   UNL A   1      42.267  22.275  26.978  1.00  0.00     0.023 A 
ATOM     83  C   UNL A   1      43.329  21.863  26.103  1.00  0.00     0.031 A 
ATOM     84  C   UNL A   1      41.332  21.275  27.285  1.00  0.00     0.131 A 
ATOM     85  C   UNL A   1      43.461  20.529  25.640  1.00  0.00     0.055 A 
ATOM     86  C   UNL A   1      41.452  19.950  26.805  1.00  0.00     0.041 A 
ATOM     87  F   UNL A   1      40.341  21.517  28.155  1.00  0.00    -0.206 F 
ATOM     88  C   UNL A   1      42.524  19.567  26.000  1.00  0.00     0.022 A 
BRANCH  85  89
ATOM     89  S   UNL A   1      44.963  19.985  24.733  1.00  0.00     0.124 S 
ATOM     90  O   UNL A   1      44.735  20.499  23.389  1.00  0.00    -0.237 OA
ATOM     91  O   UNL A   1      46.041  20.609  25.495  1.00  0.00    -0.237 OA
ATOM     92  O   UNL A   1      44.920  18.524  24.845  1.00  0.00    -0.744 OA
ENDBRANCH  85  89
ENDBRANCH  58  82
BRANCH  70  93
ATOM     93  C   UNL A   1      46.264  26.208  28.963  1.00  0.00     0.023 A 
ATOM     94  C   UNL A   1      45.761  26.528  27.673  1.00  0.00     0.031 A 
ATOM     95  C   UNL A   1      47.603  26.556  29.207  1.00  0.00     0.131 A 
ATOM     96  C   UNL A   1      46.584  27.120  26.691  1.00  0.00     0.055 A 
ATOM     97  C   UNL A   1      48.412  27.171  28.246  1.00  0.00     0.041 A 
ATOM     98  F   UNL A   1      48.161  26.291  30.399  1.00  0.00    -0.206 F 
ATOM     99  C   UNL A   1      47.911  27.440  26.977  1.00  0.00     0.022 A 
BRANCH  96 100
ATOM    100  S   UNL A   1      45.942  27.421  25.007  1.00  0.00     0.124 S 
ATOM    101  O   UNL A   1      46.948  26.810  24.147  1.00  0.00    -0.237 OA
ATOM    102  O   UNL A   1      44.642  26.755  25.029  1.00  0.00    -0.237 OA
ATOM    103  O   UNL A   1      45.877  28.882  24.921  1.00  0.00    -0.744 OA
ENDBRANCH  96 100
ENDBRANCH  70  93
ENDBRANCH  44  45
ENDBRANCH  36  39
ENDBRANCH  34  35
ENDBRANCH  33  34
ENDBRANCH  32  33
ENDBRANCH   1  32
TORSDOF 20
ENDMDL
