MODEL 1
REMARK VINA RESULT:     -10.3      0.000      0.000
REMARK SMILES O=C(NCCCCCCNC(=O)c1ccc(-n2cc(CSc3nc4ccccc4c(=O)n3-c3ccccc3)nn2)cc1)c1ccc(-c2c3nc(c(-c4cc(S(=O)(=O)[O-])ccc4F)c4ccc([nH]4)c(-c4cc(S(=O)(=O)[O-])ccc4F)c4nc(c(-c5cc(S(=O)(=O)[O-])ccc5F)c5ccc2[nH]5)C=C4)C=C3)cc1
REMARK SMILES IDX 7 1 6 2 5 3 4 4 3 5 1 6 2 7 43 9 44 10 105 11 45 12 104 13
REMARK SMILES IDX 46 14 47 15 48 16 98 17 49 18 103 19 97 20 99 21 50 22
REMARK SMILES IDX 102 23 96 24 95 25 51 27 83 28 63 29 82 30 64 31 67 32 81 33
REMARK SMILES IDX 100 34 65 35 66 36 80 38 101 39 68 40 52 41 53 42 61 43
REMARK SMILES IDX 54 44 60 45 62 46 59 47 55 48 56 49 57 50 58 51 84 52 85 53
REMARK SMILES IDX 93 54 86 55 92 56 94 57 91 58 87 59 88 60 89 61 90 62 69 63
REMARK SMILES IDX 70 64 78 65 71 66 77 67 79 68 76 69 72 70 73 71 74 72 75 73
REMARK SMILES IDX 8 74 9 75 10 76 11 77 12 79 13 80 14 81 42 82 15 83 41 84
REMARK SMILES IDX 16 85 17 86 18 87 40 88 19 89 39 90 20 91 21 92 22 93 23 94
REMARK SMILES IDX 32 95 24 96 30 97 25 98 29 99 31 100 26 101 28 102 27 103
REMARK SMILES IDX 33 104 34 105 38 106 35 107 37 108 36 109
REMARK H PARENT 3 8 99 26 67 37 10 78
REMARK Flexibility Score: inf
ROOT
ATOM      1  C   UNL A   1      35.447  33.851  34.546  1.00  0.00     0.002 C 
ENDROOT
BRANCH   1   2
ATOM      2  C   UNL A   1      34.357  33.507  33.524  1.00  0.00     0.002 C 
BRANCH   2   3
ATOM      3  C   UNL A   1      34.721  33.731  32.051  1.00  0.00     0.021 C 
BRANCH   3   4
ATOM      4  C   UNL A   1      34.785  32.464  31.200  1.00  0.00     0.116 C 
BRANCH   4   5
ATOM      5  N   UNL A   1      34.880  32.709  29.778  1.00  0.00    -0.352 N 
ATOM      6  O   UNL A   1      35.267  32.513  27.618  1.00  0.00    -0.269 OA
ATOM      7  C   UNL A   1      35.604  32.164  28.754  1.00  0.00     0.251 C 
ATOM      8  H   UNL A   1      34.286  33.435  29.478  1.00  0.00     0.163 HD
BRANCH   7   9
ATOM      9  C   UNL A   1      36.778  31.259  28.910  1.00  0.00     0.039 A 
ATOM     10  C   UNL A   1      36.787  29.878  28.710  1.00  0.00     0.014 A 
ATOM     11  C   UNL A   1      37.965  31.877  29.352  1.00  0.00     0.014 A 
ATOM     12  C   UNL A   1      37.920  29.126  29.027  1.00  0.00     0.010 A 
ATOM     13  C   UNL A   1      39.098  31.133  29.664  1.00  0.00     0.010 A 
ATOM     14  C   UNL A   1      39.062  29.750  29.536  1.00  0.00    -0.014 A 
BRANCH  14  15
ATOM     15  C   UNL A   1      40.267  28.944  29.744  1.00  0.00     0.031 A 
ATOM     16  C   UNL A   1      40.601  28.727  31.182  1.00  0.00     0.074 A 
ATOM     17  C   UNL A   1      40.939  28.310  28.758  1.00  0.00     0.049 A 
ATOM     18  N   UNL A   1      41.654  29.107  31.826  1.00  0.00    -0.248 NA
ATOM     19  C   UNL A   1      39.562  28.141  32.045  1.00  0.00     0.031 C 
ATOM     20  C   UNL A   1      40.573  28.210  27.345  1.00  0.00     0.029 A 
ATOM     21  N   UNL A   1      42.055  27.526  28.836  1.00  0.00    -0.354 N 
ATOM     22  C   UNL A   1      41.517  28.610  33.122  1.00  0.00     0.074 A 
ATOM     23  C   UNL A   1      40.146  28.199  33.241  1.00  0.00     0.031 C 
ATOM     24  C   UNL A   1      41.310  27.239  26.757  1.00  0.00     0.029 A 
ATOM     25  C   UNL A   1      42.286  26.734  27.710  1.00  0.00     0.049 A 
ATOM     26  H   UNL A   1      42.649  27.520  29.621  1.00  0.00     0.167 HD
ATOM     27  C   UNL A   1      42.604  28.371  33.909  1.00  0.00     0.034 A 
ATOM     28  C   UNL A   1      43.170  25.702  27.585  1.00  0.00     0.034 A 
ATOM     29  C   UNL A   1      43.756  29.105  33.432  1.00  0.00     0.049 A 
ATOM     30  C   UNL A   1      44.198  25.886  28.637  1.00  0.00     0.074 A 
ATOM     31  C   UNL A   1      44.032  30.443  33.224  1.00  0.00     0.029 A 
ATOM     32  N   UNL A   1      44.726  28.422  32.730  1.00  0.00    -0.354 N 
ATOM     33  N   UNL A   1      45.033  26.890  28.653  1.00  0.00    -0.248 NA
ATOM     34  C   UNL A   1      43.978  25.244  29.925  1.00  0.00     0.031 C 
ATOM     35  C   UNL A   1      44.788  30.475  32.014  1.00  0.00     0.029 A 
ATOM     36  C   UNL A   1      45.003  29.158  31.606  1.00  0.00     0.049 A 
ATOM     37  H   UNL A   1      45.142  27.567  32.987  1.00  0.00     0.167 HD
ATOM     38  C   UNL A   1      45.095  27.282  29.980  1.00  0.00     0.074 A 
ATOM     39  C   UNL A   1      44.495  26.178  30.729  1.00  0.00     0.031 C 
ATOM     40  C   UNL A   1      45.364  28.576  30.328  1.00  0.00     0.034 A 
BRANCH  27  41
ATOM     41  C   UNL A   1      42.741  27.182  34.846  1.00  0.00     0.023 A 
ATOM     42  C   UNL A   1      43.594  26.142  34.425  1.00  0.00     0.031 A 
ATOM     43  C   UNL A   1      41.882  26.863  35.921  1.00  0.00     0.131 A 
ATOM     44  C   UNL A   1      43.451  24.839  34.928  1.00  0.00     0.055 A 
ATOM     45  C   UNL A   1      41.792  25.578  36.467  1.00  0.00     0.041 A 
ATOM     46  F   UNL A   1      41.024  27.737  36.457  1.00  0.00    -0.206 F 
ATOM     47  C   UNL A   1      42.545  24.544  35.941  1.00  0.00     0.022 A 
BRANCH  44  48
ATOM     48  S   UNL A   1      44.318  23.498  34.074  1.00  0.00     0.124 S 
ATOM     49  O   UNL A   1      43.300  23.055  33.127  1.00  0.00    -0.237 OA
ATOM     50  O   UNL A   1      45.464  24.200  33.505  1.00  0.00    -0.237 OA
ATOM     51  O   UNL A   1      44.630  22.558  35.147  1.00  0.00    -0.744 OA
ENDBRANCH  44  48
ENDBRANCH  27  41
BRANCH  28  52
ATOM     52  C   UNL A   1      42.964  24.410  26.857  1.00  0.00     0.023 A 
ATOM     53  C   UNL A   1      43.910  23.845  25.968  1.00  0.00     0.031 A 
ATOM     54  C   UNL A   1      41.887  23.576  27.237  1.00  0.00     0.131 A 
ATOM     55  C   UNL A   1      43.748  22.514  25.497  1.00  0.00     0.055 A 
ATOM     56  C   UNL A   1      41.733  22.268  26.772  1.00  0.00     0.041 A 
ATOM     57  F   UNL A   1      40.987  23.977  28.148  1.00  0.00    -0.206 F 
ATOM     58  C   UNL A   1      42.667  21.728  25.905  1.00  0.00     0.022 A 
BRANCH  55  59
ATOM     59  S   UNL A   1      44.984  21.742  24.397  1.00  0.00     0.124 S 
ATOM     60  O   UNL A   1      44.399  20.432  24.137  1.00  0.00    -0.237 OA
ATOM     61  O   UNL A   1      45.028  22.668  23.271  1.00  0.00    -0.237 OA
ATOM     62  O   UNL A   1      46.201  21.716  25.211  1.00  0.00    -0.744 OA
ENDBRANCH  55  59
ENDBRANCH  28  52
BRANCH  40  63
ATOM     63  C   UNL A   1      45.881  29.524  29.266  1.00  0.00     0.023 A 
ATOM     64  C   UNL A   1      45.095  30.474  28.572  1.00  0.00     0.031 A 
ATOM     65  C   UNL A   1      47.270  29.546  29.052  1.00  0.00     0.131 A 
ATOM     66  C   UNL A   1      45.712  31.392  27.698  1.00  0.00     0.055 A 
ATOM     67  C   UNL A   1      47.877  30.468  28.202  1.00  0.00     0.041 A 
ATOM     68  F   UNL A   1      48.073  28.688  29.703  1.00  0.00    -0.206 F 
ATOM     69  C   UNL A   1      47.099  31.392  27.518  1.00  0.00     0.022 A 
BRANCH  66  70
ATOM     70  S   UNL A   1      44.722  32.609  26.768  1.00  0.00     0.124 S 
ATOM     71  O   UNL A   1      44.075  31.807  25.736  1.00  0.00    -0.237 OA
ATOM     72  O   UNL A   1      43.844  33.158  27.799  1.00  0.00    -0.237 OA
ATOM     73  O   UNL A   1      45.725  33.551  26.267  1.00  0.00    -0.744 OA
ENDBRANCH  66  70
ENDBRANCH  40  63
ENDBRANCH  14  15
ENDBRANCH   7   9
ENDBRANCH   4   5
ENDBRANCH   3   4
ENDBRANCH   2   3
ENDBRANCH   1   2
BRANCH   1  74
ATOM     74  C   UNL A   1      36.866  33.417  34.170  1.00  0.00     0.021 C 
BRANCH  74  75
ATOM     75  C   UNL A   1      37.057  31.910  34.022  1.00  0.00     0.116 C 
BRANCH  75  76
ATOM     76  N   UNL A   1      37.870  31.347  35.090  1.00  0.00    -0.352 N 
ATOM     77  C   UNL A   1      39.223  31.436  35.287  1.00  0.00     0.251 C 
ATOM     78  H   UNL A   1      37.379  30.829  35.767  1.00  0.00     0.163 HD
ATOM     79  O   UNL A   1      39.783  30.781  36.166  1.00  0.00    -0.269 OA
BRANCH  77  80
ATOM     80  C   UNL A   1      40.028  32.301  34.405  1.00  0.00     0.039 A 
ATOM     81  C   UNL A   1      40.520  33.508  34.915  1.00  0.00     0.016 A 
ATOM     82  C   UNL A   1      40.298  31.919  33.087  1.00  0.00     0.016 A 
ATOM     83  C   UNL A   1      41.371  34.298  34.143  1.00  0.00     0.029 A 
ATOM     84  C   UNL A   1      41.114  32.725  32.296  1.00  0.00     0.029 A 
ATOM     85  C   UNL A   1      41.659  33.904  32.835  1.00  0.00     0.066 A 
BRANCH  85  86
ATOM     86  N   UNL A   1      42.408  34.758  32.008  1.00  0.00    -0.220 N 
ATOM     87  C   UNL A   1      43.109  35.846  32.437  1.00  0.00     0.141 A 
ATOM     88  N   UNL A   1      42.567  34.615  30.676  1.00  0.00    -0.062 NA
ATOM     89  C   UNL A   1      43.687  36.394  31.323  1.00  0.00     0.093 A 
ATOM     90  N   UNL A   1      43.285  35.650  30.238  1.00  0.00    -0.134 NA
BRANCH  89  91
ATOM     91  C   UNL A   1      44.376  37.697  31.187  1.00  0.00     0.138 C 
BRANCH  91  92
ATOM     92  S   UNL A   1      46.093  37.870  30.712  1.00  0.00    -0.081 SA
BRANCH  92  93
ATOM     93  C   UNL A   1      46.428  37.587  29.022  1.00  0.00     0.176 A 
ATOM     94  N   UNL A   1      47.395  36.727  28.867  1.00  0.00    -0.223 NA
ATOM     95  N   UNL A   1      45.795  38.162  27.931  1.00  0.00    -0.255 N 
ATOM     96  C   UNL A   1      47.868  36.476  27.574  1.00  0.00     0.079 A 
ATOM     97  C   UNL A   1      46.656  38.442  26.861  1.00  0.00     0.266 A 
ATOM     98  C   UNL A   1      48.643  35.352  27.290  1.00  0.00     0.029 A 
ATOM     99  C   UNL A   1      47.659  37.409  26.570  1.00  0.00     0.066 A 
ATOM    100  O   UNL A   1      46.656  39.459  26.171  1.00  0.00    -0.268 OA
ATOM    101  C   UNL A   1      49.245  35.209  26.034  1.00  0.00     0.002 A 
ATOM    102  C   UNL A   1      48.297  37.314  25.330  1.00  0.00     0.016 A 
ATOM    103  C   UNL A   1      49.103  36.207  25.067  1.00  0.00     0.001 A 
BRANCH  95 104
ATOM    104  C   UNL A   1      44.395  38.513  27.796  1.00  0.00     0.051 A 
ATOM    105  C   UNL A   1      43.488  37.601  27.213  1.00  0.00     0.027 A 
ATOM    106  C   UNL A   1      43.848  39.736  28.200  1.00  0.00     0.027 A 
ATOM    107  C   UNL A   1      42.198  37.976  26.827  1.00  0.00     0.002 A 
ATOM    108  C   UNL A   1      42.579  40.144  27.757  1.00  0.00     0.002 A 
ATOM    109  C   UNL A   1      41.769  39.276  27.037  1.00  0.00     0.000 A 
ENDBRANCH  95 104
ENDBRANCH  92  93
ENDBRANCH  91  92
ENDBRANCH  89  91
ENDBRANCH  85  86
ENDBRANCH  77  80
ENDBRANCH  75  76
ENDBRANCH  74  75
ENDBRANCH   1  74
TORSDOF 21
ENDMDL
MODEL 2
REMARK VINA RESULT:      -9.8      5.228     11.751
REMARK SMILES O=C(NCCCCCCNC(=O)c1ccc(-n2cc(CSc3nc4ccccc4c(=O)n3-c3ccccc3)nn2)cc1)c1ccc(-c2c3nc(c(-c4cc(S(=O)(=O)[O-])ccc4F)c4ccc([nH]4)c(-c4cc(S(=O)(=O)[O-])ccc4F)c4nc(c(-c5cc(S(=O)(=O)[O-])ccc5F)c5ccc2[nH]5)C=C4)C=C3)cc1
REMARK SMILES IDX 7 1 6 2 5 3 4 4 3 5 1 6 2 7 43 9 44 10 105 11 45 12 104 13
REMARK SMILES IDX 46 14 47 15 48 16 98 17 49 18 103 19 97 20 99 21 50 22
REMARK SMILES IDX 102 23 96 24 95 25 51 27 83 28 63 29 82 30 64 31 67 32 81 33
REMARK SMILES IDX 100 34 65 35 66 36 80 38 101 39 68 40 52 41 53 42 61 43
REMARK SMILES IDX 54 44 60 45 62 46 59 47 55 48 56 49 57 50 58 51 84 52 85 53
REMARK SMILES IDX 93 54 86 55 92 56 94 57 91 58 87 59 88 60 89 61 90 62 69 63
REMARK SMILES IDX 70 64 78 65 71 66 77 67 79 68 76 69 72 70 73 71 74 72 75 73
REMARK SMILES IDX 8 74 9 75 10 76 11 77 12 79 13 80 14 81 42 82 15 83 41 84
REMARK SMILES IDX 16 85 17 86 18 87 40 88 19 89 39 90 20 91 21 92 22 93 23 94
REMARK SMILES IDX 32 95 24 96 30 97 25 98 29 99 31 100 26 101 28 102 27 103
REMARK SMILES IDX 33 104 34 105 38 106 35 107 37 108 36 109
REMARK H PARENT 3 8 99 26 67 37 10 78
REMARK Flexibility Score: inf
ROOT
ATOM      1  C   UNL A   1      47.174  23.974  34.068  1.00  0.00     0.002 C 
ENDROOT
BRANCH   1   2
ATOM      2  C   UNL A   1      48.529  24.113  34.772  1.00  0.00     0.002 C 
BRANCH   2   3
ATOM      3  C   UNL A   1      48.479  24.436  36.271  1.00  0.00     0.021 C 
BRANCH   3   4
ATOM      4  C   UNL A   1      49.067  25.791  36.661  1.00  0.00     0.116 C 
BRANCH   4   5
ATOM      5  N   UNL A   1      48.220  26.577  37.531  1.00  0.00    -0.352 N 
ATOM      6  O   UNL A   1      46.491  27.559  38.479  1.00  0.00    -0.269 OA
ATOM      7  C   UNL A   1      46.960  27.098  37.434  1.00  0.00     0.251 C 
ATOM      8  H   UNL A   1      48.650  26.785  38.392  1.00  0.00     0.163 HD
BRANCH   7   9
ATOM      9  C   UNL A   1      46.163  27.205  36.178  1.00  0.00     0.039 A 
ATOM     10  C   UNL A   1      44.891  26.675  35.960  1.00  0.00     0.014 A 
ATOM     11  C   UNL A   1      46.802  27.868  35.111  1.00  0.00     0.014 A 
ATOM     12  C   UNL A   1      44.312  26.725  34.692  1.00  0.00     0.010 A 
ATOM     13  C   UNL A   1      46.226  27.926  33.845  1.00  0.00     0.010 A 
ATOM     14  C   UNL A   1      44.995  27.320  33.626  1.00  0.00    -0.014 A 
BRANCH  14  15
ATOM     15  C   UNL A   1      44.307  27.458  32.342  1.00  0.00     0.031 A 
ATOM     16  C   UNL A   1      44.507  26.296  31.428  1.00  0.00     0.074 A 
ATOM     17  C   UNL A   1      43.437  28.449  32.046  1.00  0.00     0.049 A 
ATOM     18  N   UNL A   1      45.075  26.278  30.268  1.00  0.00    -0.248 NA
ATOM     19  C   UNL A   1      44.162  24.957  31.936  1.00  0.00     0.031 C 
ATOM     20  C   UNL A   1      42.939  29.499  32.935  1.00  0.00     0.029 A 
ATOM     21  N   UNL A   1      42.732  28.668  30.897  1.00  0.00    -0.354 N 
ATOM     22  C   UNL A   1      44.957  24.970  29.798  1.00  0.00     0.074 A 
ATOM     23  C   UNL A   1      44.565  24.180  30.932  1.00  0.00     0.031 C 
ATOM     24  C   UNL A   1      41.859  30.090  32.373  1.00  0.00     0.029 A 
ATOM     25  C   UNL A   1      41.662  29.554  31.034  1.00  0.00     0.049 A 
ATOM     26  H   UNL A   1      42.958  28.237  30.042  1.00  0.00     0.167 HD
ATOM     27  C   UNL A   1      44.971  24.691  28.464  1.00  0.00     0.034 A 
ATOM     28  C   UNL A   1      40.656  29.790  30.143  1.00  0.00     0.034 A 
ATOM     29  C   UNL A   1      45.568  25.777  27.718  1.00  0.00     0.049 A 
ATOM     30  C   UNL A   1      41.150  29.358  28.813  1.00  0.00     0.074 A 
ATOM     31  C   UNL A   1      46.801  26.402  27.738  1.00  0.00     0.029 A 
ATOM     32  N   UNL A   1      44.738  26.636  27.030  1.00  0.00    -0.354 N 
ATOM     33  N   UNL A   1      42.136  29.945  28.191  1.00  0.00    -0.248 NA
ATOM     34  C   UNL A   1      40.888  27.986  28.402  1.00  0.00     0.031 C 
ATOM     35  C   UNL A   1      46.510  27.786  27.549  1.00  0.00     0.029 A 
ATOM     36  C   UNL A   1      45.137  27.913  27.338  1.00  0.00     0.049 A 
ATOM     37  H   UNL A   1      43.998  26.383  26.432  1.00  0.00     0.167 HD
ATOM     38  C   UNL A   1      42.885  28.911  27.652  1.00  0.00     0.074 A 
ATOM     39  C   UNL A   1      42.020  27.734  27.738  1.00  0.00     0.031 C 
ATOM     40  C   UNL A   1      44.229  29.038  27.447  1.00  0.00     0.034 A 
BRANCH  27  41
ATOM     41  C   UNL A   1      44.094  23.644  27.796  1.00  0.00     0.023 A 
ATOM     42  C   UNL A   1      44.720  22.802  26.855  1.00  0.00     0.031 A 
ATOM     43  C   UNL A   1      42.681  23.629  27.775  1.00  0.00     0.131 A 
ATOM     44  C   UNL A   1      43.978  22.148  25.859  1.00  0.00     0.055 A 
ATOM     45  C   UNL A   1      41.942  22.919  26.823  1.00  0.00     0.041 A 
ATOM     46  F   UNL A   1      41.930  24.351  28.613  1.00  0.00    -0.206 F 
ATOM     47  C   UNL A   1      42.589  22.210  25.828  1.00  0.00     0.022 A 
BRANCH  44  48
ATOM     48  S   UNL A   1      44.881  21.400  24.479  1.00  0.00     0.124 S 
ATOM     49  O   UNL A   1      44.564  22.324  23.394  1.00  0.00    -0.237 OA
ATOM     50  O   UNL A   1      46.254  21.431  24.971  1.00  0.00    -0.237 OA
ATOM     51  O   UNL A   1      44.285  20.071  24.365  1.00  0.00    -0.744 OA
ENDBRANCH  44  48
ENDBRANCH  27  41
BRANCH  28  52
ATOM     52  C   UNL A   1      39.208  30.021  30.445  1.00  0.00     0.023 A 
ATOM     53  C   UNL A   1      38.476  31.144  29.989  1.00  0.00     0.031 A 
ATOM     54  C   UNL A   1      38.451  28.968  31.008  1.00  0.00     0.131 A 
ATOM     55  C   UNL A   1      37.061  31.180  30.117  1.00  0.00     0.055 A 
ATOM     56  C   UNL A   1      37.060  29.008  31.131  1.00  0.00     0.041 A 
ATOM     57  F   UNL A   1      39.033  27.819  31.384  1.00  0.00    -0.206 F 
ATOM     58  C   UNL A   1      36.358  30.112  30.679  1.00  0.00     0.022 A 
BRANCH  55  59
ATOM     59  S   UNL A   1      36.089  32.591  29.485  1.00  0.00     0.124 S 
ATOM     60  O   UNL A   1      34.808  32.417  30.161  1.00  0.00    -0.237 OA
ATOM     61  O   UNL A   1      36.891  33.738  29.896  1.00  0.00    -0.237 OA
ATOM     62  O   UNL A   1      36.052  32.362  28.039  1.00  0.00    -0.744 OA
ENDBRANCH  55  59
ENDBRANCH  28  52
BRANCH  40  63
ATOM     63  C   UNL A   1      44.855  30.414  27.542  1.00  0.00     0.023 A 
ATOM     64  C   UNL A   1      44.778  31.414  26.544  1.00  0.00     0.031 A 
ATOM     65  C   UNL A   1      45.445  30.763  28.770  1.00  0.00     0.131 A 
ATOM     66  C   UNL A   1      45.289  32.702  26.799  1.00  0.00     0.055 A 
ATOM     67  C   UNL A   1      45.931  32.043  29.024  1.00  0.00     0.041 A 
ATOM     68  F   UNL A   1      45.521  29.867  29.768  1.00  0.00    -0.206 F 
ATOM     69  C   UNL A   1      45.859  33.017  28.037  1.00  0.00     0.022 A 
BRANCH  66  70
ATOM     70  S   UNL A   1      45.231  34.002  25.521  1.00  0.00     0.124 S 
ATOM     71  O   UNL A   1      44.733  33.302  24.343  1.00  0.00    -0.237 OA
ATOM     72  O   UNL A   1      44.327  34.987  26.113  1.00  0.00    -0.237 OA
ATOM     73  O   UNL A   1      46.623  34.446  25.423  1.00  0.00    -0.744 OA
ENDBRANCH  66  70
ENDBRANCH  40  63
ENDBRANCH  14  15
ENDBRANCH   7   9
ENDBRANCH   4   5
ENDBRANCH   3   4
ENDBRANCH   2   3
ENDBRANCH   1   2
BRANCH   1  74
ATOM     74  C   UNL A   1      46.075  23.285  34.881  1.00  0.00     0.021 C 
BRANCH  74  75
ATOM     75  C   UNL A   1      45.376  22.132  34.165  1.00  0.00     0.116 C 
BRANCH  75  76
ATOM     76  N   UNL A   1      45.159  20.988  35.038  1.00  0.00    -0.352 N 
ATOM     77  C   UNL A   1      46.060  20.057  35.484  1.00  0.00     0.251 C 
ATOM     78  H   UNL A   1      44.235  20.866  35.352  1.00  0.00     0.163 HD
ATOM     79  O   UNL A   1      45.689  19.062  36.107  1.00  0.00    -0.269 OA
BRANCH  77  80
ATOM     80  C   UNL A   1      47.492  20.230  35.180  1.00  0.00     0.039 A 
ATOM     81  C   UNL A   1      48.346  20.669  36.198  1.00  0.00     0.016 A 
ATOM     82  C   UNL A   1      47.986  19.955  33.901  1.00  0.00     0.016 A 
ATOM     83  C   UNL A   1      49.721  20.742  35.974  1.00  0.00     0.029 A 
ATOM     84  C   UNL A   1      49.353  20.066  33.659  1.00  0.00     0.029 A 
ATOM     85  C   UNL A   1      50.216  20.445  34.703  1.00  0.00     0.066 A 
BRANCH  85  86
ATOM     86  N   UNL A   1      51.581  20.641  34.433  1.00  0.00    -0.220 N 
ATOM     87  C   UNL A   1      52.341  21.652  34.940  1.00  0.00     0.141 A 
ATOM     88  N   UNL A   1      52.346  19.846  33.656  1.00  0.00    -0.062 NA
ATOM     89  C   UNL A   1      53.601  21.479  34.429  1.00  0.00     0.093 A 
ATOM     90  N   UNL A   1      53.562  20.391  33.588  1.00  0.00    -0.134 NA
BRANCH  89  91
ATOM     91  C   UNL A   1      54.754  22.405  34.485  1.00  0.00     0.138 C 
BRANCH  91  92
ATOM     92  S   UNL A   1      54.733  24.062  33.807  1.00  0.00    -0.081 SA
BRANCH  92  93
ATOM     93  C   UNL A   1      53.174  24.847  33.812  1.00  0.00     0.176 A 
ATOM     94  N   UNL A   1      52.497  24.567  32.734  1.00  0.00    -0.223 NA
ATOM     95  N   UNL A   1      52.651  25.674  34.795  1.00  0.00    -0.255 N 
ATOM     96  C   UNL A   1      51.272  25.211  32.525  1.00  0.00     0.079 A 
ATOM     97  C   UNL A   1      51.892  26.739  34.292  1.00  0.00     0.266 A 
ATOM     98  C   UNL A   1      50.350  24.731  31.596  1.00  0.00     0.029 A 
ATOM     99  C   UNL A   1      51.003  26.408  33.170  1.00  0.00     0.066 A 
ATOM    100  O   UNL A   1      51.917  27.903  34.687  1.00  0.00    -0.268 OA
ATOM    101  C   UNL A   1      49.209  25.480  31.282  1.00  0.00     0.002 A 
ATOM    102  C   UNL A   1      49.902  27.198  32.829  1.00  0.00     0.016 A 
ATOM    103  C   UNL A   1      49.005  26.730  31.870  1.00  0.00     0.001 A 
BRANCH  95 104
ATOM    104  C   UNL A   1      52.822  25.570  36.230  1.00  0.00     0.051 A 
ATOM    105  C   UNL A   1      52.329  24.442  36.923  1.00  0.00     0.027 A 
ATOM    106  C   UNL A   1      53.448  26.539  37.021  1.00  0.00     0.027 A 
ATOM    107  C   UNL A   1      52.236  24.405  38.317  1.00  0.00     0.002 A 
ATOM    108  C   UNL A   1      53.299  26.544  38.417  1.00  0.00     0.002 A 
ATOM    109  C   UNL A   1      52.659  25.493  39.063  1.00  0.00     0.000 A 
ENDBRANCH  95 104
ENDBRANCH  92  93
ENDBRANCH  91  92
ENDBRANCH  89  91
ENDBRANCH  85  86
ENDBRANCH  77  80
ENDBRANCH  75  76
ENDBRANCH  74  75
ENDBRANCH   1  74
TORSDOF 21
ENDMDL
MODEL 3
REMARK VINA RESULT:      -9.7      3.298     10.854
REMARK SMILES O=C(NCCCCCCNC(=O)c1ccc(-n2cc(CSc3nc4ccccc4c(=O)n3-c3ccccc3)nn2)cc1)c1ccc(-c2c3nc(c(-c4cc(S(=O)(=O)[O-])ccc4F)c4ccc([nH]4)c(-c4cc(S(=O)(=O)[O-])ccc4F)c4nc(c(-c5cc(S(=O)(=O)[O-])ccc5F)c5ccc2[nH]5)C=C4)C=C3)cc1
REMARK SMILES IDX 7 1 6 2 5 3 4 4 3 5 1 6 2 7 43 9 44 10 105 11 45 12 104 13
REMARK SMILES IDX 46 14 47 15 48 16 98 17 49 18 103 19 97 20 99 21 50 22
REMARK SMILES IDX 102 23 96 24 95 25 51 27 83 28 63 29 82 30 64 31 67 32 81 33
REMARK SMILES IDX 100 34 65 35 66 36 80 38 101 39 68 40 52 41 53 42 61 43
REMARK SMILES IDX 54 44 60 45 62 46 59 47 55 48 56 49 57 50 58 51 84 52 85 53
REMARK SMILES IDX 93 54 86 55 92 56 94 57 91 58 87 59 88 60 89 61 90 62 69 63
REMARK SMILES IDX 70 64 78 65 71 66 77 67 79 68 76 69 72 70 73 71 74 72 75 73
REMARK SMILES IDX 8 74 9 75 10 76 11 77 12 79 13 80 14 81 42 82 15 83 41 84
REMARK SMILES IDX 16 85 17 86 18 87 40 88 19 89 39 90 20 91 21 92 22 93 23 94
REMARK SMILES IDX 32 95 24 96 30 97 25 98 29 99 31 100 26 101 28 102 27 103
REMARK SMILES IDX 33 104 34 105 38 106 35 107 37 108 36 109
REMARK H PARENT 3 8 99 26 67 37 10 78
REMARK Flexibility Score: inf
ROOT
ATOM      1  C   UNL A   1      43.385  42.001  30.366  1.00  0.00     0.002 C 
ENDROOT
BRANCH   1   2
ATOM      2  C   UNL A   1      42.765  42.542  31.659  1.00  0.00     0.002 C 
BRANCH   2   3
ATOM      3  C   UNL A   1      42.420  41.498  32.728  1.00  0.00     0.021 C 
BRANCH   3   4
ATOM      4  C   UNL A   1      43.522  41.230  33.751  1.00  0.00     0.116 C 
BRANCH   4   5
ATOM      5  N   UNL A   1      44.657  40.505  33.225  1.00  0.00    -0.352 N 
ATOM      6  O   UNL A   1      45.942  39.017  32.231  1.00  0.00    -0.269 OA
ATOM      7  C   UNL A   1      44.870  39.220  32.810  1.00  0.00     0.251 C 
ATOM      8  H   UNL A   1      45.462  41.066  33.147  1.00  0.00     0.163 HD
BRANCH   7   9
ATOM      9  C   UNL A   1      43.957  38.068  33.059  1.00  0.00     0.039 A 
ATOM     10  C   UNL A   1      43.084  37.924  34.139  1.00  0.00     0.014 A 
ATOM     11  C   UNL A   1      44.040  37.017  32.124  1.00  0.00     0.014 A 
ATOM     12  C   UNL A   1      42.386  36.732  34.328  1.00  0.00     0.010 A 
ATOM     13  C   UNL A   1      43.341  35.827  32.305  1.00  0.00     0.010 A 
ATOM     14  C   UNL A   1      42.541  35.671  33.430  1.00  0.00    -0.014 A 
BRANCH  14  15
ATOM     15  C   UNL A   1      41.702  34.483  33.597  1.00  0.00     0.031 A 
ATOM     16  C   UNL A   1      40.515  34.456  32.694  1.00  0.00     0.074 A 
ATOM     17  C   UNL A   1      42.029  33.421  34.367  1.00  0.00     0.049 A 
ATOM     18  N   UNL A   1      39.264  34.463  33.014  1.00  0.00    -0.248 NA
ATOM     19  C   UNL A   1      40.754  34.590  31.246  1.00  0.00     0.031 C 
ATOM     20  C   UNL A   1      43.279  33.190  35.092  1.00  0.00     0.029 A 
ATOM     21  N   UNL A   1      41.337  32.264  34.584  1.00  0.00    -0.354 N 
ATOM     22  C   UNL A   1      38.556  34.370  31.816  1.00  0.00     0.074 A 
ATOM     23  C   UNL A   1      39.508  34.642  30.776  1.00  0.00     0.031 C 
ATOM     24  C   UNL A   1      43.347  31.892  35.469  1.00  0.00     0.029 A 
ATOM     25  C   UNL A   1      42.098  31.229  35.131  1.00  0.00     0.049 A 
ATOM     26  H   UNL A   1      40.381  32.166  34.373  1.00  0.00     0.167 HD
ATOM     27  C   UNL A   1      37.295  33.853  31.775  1.00  0.00     0.034 A 
ATOM     28  C   UNL A   1      41.755  29.912  35.244  1.00  0.00     0.034 A 
ATOM     29  C   UNL A   1      36.685  33.881  33.086  1.00  0.00     0.049 A 
ATOM     30  C   UNL A   1      40.275  29.847  35.179  1.00  0.00     0.074 A 
ATOM     31  C   UNL A   1      36.390  34.881  33.994  1.00  0.00     0.029 A 
ATOM     32  N   UNL A   1      36.615  32.707  33.805  1.00  0.00    -0.354 N 
ATOM     33  N   UNL A   1      39.496  30.357  36.095  1.00  0.00    -0.248 NA
ATOM     34  C   UNL A   1      39.657  29.663  33.874  1.00  0.00     0.031 C 
ATOM     35  C   UNL A   1      36.691  34.315  35.269  1.00  0.00     0.029 A 
ATOM     36  C   UNL A   1      37.063  32.984  35.072  1.00  0.00     0.049 A 
ATOM     37  H   UNL A   1      36.303  31.835  33.472  1.00  0.00     0.167 HD
ATOM     38  C   UNL A   1      38.464  30.958  35.392  1.00  0.00     0.074 A 
ATOM     39  C   UNL A   1      38.569  30.422  34.035  1.00  0.00     0.031 C 
ATOM     40  C   UNL A   1      37.799  32.042  35.892  1.00  0.00     0.034 A 
BRANCH  27  41
ATOM     41  C   UNL A   1      36.770  32.958  30.664  1.00  0.00     0.023 A 
ATOM     42  C   UNL A   1      35.894  33.553  29.734  1.00  0.00     0.031 A 
ATOM     43  C   UNL A   1      36.807  31.546  30.641  1.00  0.00     0.131 A 
ATOM     44  C   UNL A   1      34.998  32.778  28.981  1.00  0.00     0.055 A 
ATOM     45  C   UNL A   1      35.960  30.775  29.837  1.00  0.00     0.041 A 
ATOM     46  F   UNL A   1      37.597  30.822  31.441  1.00  0.00    -0.206 F 
ATOM     47  C   UNL A   1      35.016  31.389  29.035  1.00  0.00     0.022 A 
BRANCH  44  48
ATOM     48  S   UNL A   1      33.665  33.632  28.103  1.00  0.00     0.124 S 
ATOM     49  O   UNL A   1      34.420  34.545  27.251  1.00  0.00    -0.237 OA
ATOM     50  O   UNL A   1      32.997  32.524  27.427  1.00  0.00    -0.237 OA
ATOM     51  O   UNL A   1      32.901  34.262  29.177  1.00  0.00    -0.744 OA
ENDBRANCH  44  48
ENDBRANCH  27  41
BRANCH  28  52
ATOM     52  C   UNL A   1      42.638  28.721  35.042  1.00  0.00     0.023 A 
ATOM     53  C   UNL A   1      42.403  27.455  35.631  1.00  0.00     0.031 A 
ATOM     54  C   UNL A   1      43.627  28.766  34.033  1.00  0.00     0.131 A 
ATOM     55  C   UNL A   1      43.145  26.318  35.213  1.00  0.00     0.055 A 
ATOM     56  C   UNL A   1      44.354  27.645  33.625  1.00  0.00     0.041 A 
ATOM     57  F   UNL A   1      43.863  29.893  33.343  1.00  0.00    -0.206 F 
ATOM     58  C   UNL A   1      44.111  26.414  34.208  1.00  0.00     0.022 A 
BRANCH  55  59
ATOM     59  S   UNL A   1      42.821  24.664  35.915  1.00  0.00     0.124 S 
ATOM     60  O   UNL A   1      41.495  24.827  36.503  1.00  0.00    -0.237 OA
ATOM     61  O   UNL A   1      42.910  23.799  34.744  1.00  0.00    -0.237 OA
ATOM     62  O   UNL A   1      43.901  24.485  36.888  1.00  0.00    -0.744 OA
ENDBRANCH  55  59
ENDBRANCH  28  52
BRANCH  40  63
ATOM     63  C   UNL A   1      37.997  32.411  37.347  1.00  0.00     0.023 A 
ATOM     64  C   UNL A   1      37.402  31.746  38.445  1.00  0.00     0.031 A 
ATOM     65  C   UNL A   1      38.947  33.409  37.628  1.00  0.00     0.131 A 
ATOM     66  C   UNL A   1      37.764  32.098  39.760  1.00  0.00     0.055 A 
ATOM     67  C   UNL A   1      39.316  33.741  38.929  1.00  0.00     0.041 A 
ATOM     68  F   UNL A   1      39.569  34.058  36.628  1.00  0.00    -0.206 F 
ATOM     69  C   UNL A   1      38.721  33.089  40.002  1.00  0.00     0.022 A 
BRANCH  66  70
ATOM     70  S   UNL A   1      36.992  31.278  41.195  1.00  0.00     0.124 S 
ATOM     71  O   UNL A   1      37.291  32.177  42.304  1.00  0.00    -0.237 OA
ATOM     72  O   UNL A   1      35.589  31.196  40.796  1.00  0.00    -0.237 OA
ATOM     73  O   UNL A   1      37.677  29.986  41.257  1.00  0.00    -0.744 OA
ENDBRANCH  66  70
ENDBRANCH  40  63
ENDBRANCH  14  15
ENDBRANCH   7   9
ENDBRANCH   4   5
ENDBRANCH   3   4
ENDBRANCH   2   3
ENDBRANCH   1   2
BRANCH   1  74
ATOM     74  C   UNL A   1      43.031  40.552  30.019  1.00  0.00     0.021 C 
BRANCH  74  75
ATOM     75  C   UNL A   1      41.925  40.394  28.979  1.00  0.00     0.116 C 
BRANCH  75  76
ATOM     76  N   UNL A   1      42.386  40.693  27.631  1.00  0.00    -0.352 N 
ATOM     77  C   UNL A   1      43.020  39.876  26.732  1.00  0.00     0.251 C 
ATOM     78  H   UNL A   1      42.218  41.612  27.321  1.00  0.00     0.163 HD
ATOM     79  O   UNL A   1      43.476  40.323  25.679  1.00  0.00    -0.269 OA
BRANCH  77  80
ATOM     80  C   UNL A   1      43.196  38.447  27.049  1.00  0.00     0.039 A 
ATOM     81  C   UNL A   1      42.111  37.581  26.867  1.00  0.00     0.016 A 
ATOM     82  C   UNL A   1      44.423  37.968  27.519  1.00  0.00     0.016 A 
ATOM     83  C   UNL A   1      42.274  36.209  27.057  1.00  0.00     0.029 A 
ATOM     84  C   UNL A   1      44.579  36.604  27.750  1.00  0.00     0.029 A 
ATOM     85  C   UNL A   1      43.506  35.728  27.502  1.00  0.00     0.066 A 
BRANCH  85  86
ATOM     86  N   UNL A   1      43.640  34.366  27.820  1.00  0.00    -0.220 N 
ATOM     87  C   UNL A   1      44.018  33.392  26.944  1.00  0.00     0.141 A 
ATOM     88  N   UNL A   1      43.441  33.825  29.040  1.00  0.00    -0.062 NA
ATOM     89  C   UNL A   1      44.019  32.219  27.652  1.00  0.00     0.093 A 
ATOM     90  N   UNL A   1      43.599  32.505  28.930  1.00  0.00    -0.134 NA
BRANCH  89  91
ATOM     91  C   UNL A   1      44.147  30.835  27.144  1.00  0.00     0.138 C 
BRANCH  91  92
ATOM     92  S   UNL A   1      45.054  29.544  27.991  1.00  0.00    -0.081 SA
BRANCH  92  93
ATOM     93  C   UNL A   1      44.133  28.106  28.355  1.00  0.00     0.176 A 
ATOM     94  N   UNL A   1      44.881  27.040  28.316  1.00  0.00    -0.223 NA
ATOM     95  N   UNL A   1      42.782  28.026  28.657  1.00  0.00    -0.255 N 
ATOM     96  C   UNL A   1      44.274  25.789  28.469  1.00  0.00     0.079 A 
ATOM     97  C   UNL A   1      42.151  26.893  28.127  1.00  0.00     0.266 A 
ATOM     98  C   UNL A   1      45.022  24.652  28.772  1.00  0.00     0.029 A 
ATOM     99  C   UNL A   1      42.919  25.644  28.213  1.00  0.00     0.066 A 
ATOM    100  O   UNL A   1      41.044  26.857  27.594  1.00  0.00    -0.268 OA
ATOM    101  C   UNL A   1      44.421  23.386  28.754  1.00  0.00     0.002 A 
ATOM    102  C   UNL A   1      42.314  24.386  28.132  1.00  0.00     0.016 A 
ATOM    103  C   UNL A   1      43.077  23.250  28.398  1.00  0.00     0.001 A 
BRANCH  95 104
ATOM    104  C   UNL A   1      41.981  28.968  29.413  1.00  0.00     0.051 A 
ATOM    105  C   UNL A   1      40.828  29.544  28.833  1.00  0.00     0.027 A 
ATOM    106  C   UNL A   1      42.272  29.382  30.717  1.00  0.00     0.027 A 
ATOM    107  C   UNL A   1      40.170  30.635  29.408  1.00  0.00     0.002 A 
ATOM    108  C   UNL A   1      41.662  30.519  31.272  1.00  0.00     0.002 A 
ATOM    109  C   UNL A   1      40.636  31.168  30.599  1.00  0.00     0.000 A 
ENDBRANCH  95 104
ENDBRANCH  92  93
ENDBRANCH  91  92
ENDBRANCH  89  91
ENDBRANCH  85  86
ENDBRANCH  77  80
ENDBRANCH  75  76
ENDBRANCH  74  75
ENDBRANCH   1  74
TORSDOF 21
ENDMDL
