MODEL 1
REMARK VINA RESULT:     -11.7      0.000      0.000
REMARK SMILES Cc1cccc(Nc2ccccc2C(=O)NCCCCCCNC(=O)c2ccc(-c3c4nc(c(-c5cc(S(=O)(=O)[O-])ccc5F)c5ccc([nH]5)c(-c5cc(S(=O)(=O)[O-])ccc5F)c5nc(c(-c6cc(S(=O)(=O)[O-])ccc6F)c6ccc3[nH]6)C=C5)C=C4)cc2)c1C
REMARK SMILES IDX 20 1 19 2 18 3 17 4 16 5 14 6 15 7 13 9 8 10 9 11 10 12
REMARK SMILES IDX 12 13 11 14 7 15 6 17 1 18 2 19 3 20 89 21 4 22 90 23 5 24
REMARK SMILES IDX 21 25 22 26 23 27 24 28 25 30 26 31 27 32 88 33 28 34 87 35
REMARK SMILES IDX 29 36 30 37 31 38 81 39 32 40 86 41 80 42 82 43 33 44 85 45
REMARK SMILES IDX 79 46 78 47 34 49 66 50 46 51 65 52 47 53 50 54 64 55 83 56
REMARK SMILES IDX 48 57 49 58 63 60 84 61 51 62 35 63 36 64 44 65 37 66 43 67
REMARK SMILES IDX 45 68 42 69 38 70 39 71 40 72 41 73 67 74 68 75 76 76 69 77
REMARK SMILES IDX 75 78 77 79 74 80 70 81 71 82 72 83 73 84 52 85 53 86 61 87
REMARK SMILES IDX 54 88 60 89 62 90 59 91 55 92 56 93 57 94 58 95
REMARK H PARENT 16 8 7 16 23 29 82 48 50 59
REMARK Flexibility Score: inf
ROOT
ATOM      1  C   UNL A   1      32.025  27.299  26.322  1.00  0.00     0.002 C 
ENDROOT
BRANCH   1   2
ATOM      2  C   UNL A   1      33.526  26.985  26.264  1.00  0.00     0.002 C 
BRANCH   2   3
ATOM      3  C   UNL A   1      34.027  26.127  25.093  1.00  0.00     0.021 C 
BRANCH   3   4
ATOM      4  C   UNL A   1      34.698  24.805  25.454  1.00  0.00     0.116 C 
BRANCH   4   5
ATOM      5  N   UNL A   1      35.545  24.259  24.422  1.00  0.00    -0.352 N 
ATOM      6  C   UNL A   1      35.391  23.127  23.658  1.00  0.00     0.253 C 
ATOM      7  O   UNL A   1      36.214  22.952  22.752  1.00  0.00    -0.269 OA
ATOM      8  H   UNL A   1      36.361  24.778  24.236  1.00  0.00     0.163 HD
BRANCH   6   9
ATOM      9  C   UNL A   1      34.393  22.041  23.928  1.00  0.00     0.063 A 
ATOM     10  C   UNL A   1      33.034  21.976  23.556  1.00  0.00     0.051 A 
ATOM     11  C   UNL A   1      32.277  20.858  23.995  1.00  0.00     0.027 A 
ATOM     12  C   UNL A   1      32.845  19.800  24.703  1.00  0.00     0.002 A 
ATOM     13  C   UNL A   1      34.953  20.943  24.629  1.00  0.00     0.016 A 
ATOM     14  C   UNL A   1      34.195  19.831  25.000  1.00  0.00     0.001 A 
BRANCH  10  15
ATOM     15  N   UNL A   1      32.340  22.826  22.673  1.00  0.00    -0.355 N 
ATOM     16  H   UNL A   1      31.983  22.351  21.888  1.00  0.00     0.167 HD
BRANCH  15  17
ATOM     17  C   UNL A   1      32.042  24.205  22.661  1.00  0.00     0.042 A 
ATOM     18  C   UNL A   1      29.480  26.841  23.735  1.00  0.00     0.044 C 
ATOM     19  C   UNL A   1      30.648  26.164  23.069  1.00  0.00    -0.046 A 
ATOM     20  C   UNL A   1      31.392  26.891  22.129  1.00  0.00     0.004 A 
ATOM     21  C   UNL A   1      31.015  24.832  23.393  1.00  0.00    -0.025 A 
ATOM     22  C   UNL A   1      32.483  26.314  21.498  1.00  0.00     0.002 A 
ATOM     23  C   UNL A   1      30.335  24.155  24.557  1.00  0.00     0.047 C 
ATOM     24  C   UNL A   1      32.795  24.983  21.755  1.00  0.00     0.026 A 
ENDBRANCH  15  17
ENDBRANCH  10  15
ENDBRANCH   6   9
ENDBRANCH   4   5
ENDBRANCH   3   4
ENDBRANCH   2   3
ENDBRANCH   1   2
BRANCH   1  25
ATOM     25  C   UNL A   1      31.569  28.618  25.696  1.00  0.00     0.021 C 
BRANCH  25  26
ATOM     26  C   UNL A   1      32.644  29.679  25.492  1.00  0.00     0.116 C 
BRANCH  26  27
ATOM     27  N   UNL A   1      32.228  30.996  25.937  1.00  0.00    -0.352 N 
ATOM     28  C   UNL A   1      32.738  31.799  26.931  1.00  0.00     0.251 C 
ATOM     29  H   UNL A   1      31.460  31.375  25.451  1.00  0.00     0.163 HD
ATOM     30  O   UNL A   1      32.128  32.816  27.251  1.00  0.00    -0.269 OA
BRANCH  28  31
ATOM     31  C   UNL A   1      33.994  31.438  27.635  1.00  0.00     0.039 A 
ATOM     32  C   UNL A   1      34.948  32.435  27.867  1.00  0.00     0.014 A 
ATOM     33  C   UNL A   1      34.257  30.126  28.036  1.00  0.00     0.014 A 
ATOM     34  C   UNL A   1      36.130  32.131  28.552  1.00  0.00     0.010 A 
ATOM     35  C   UNL A   1      35.397  29.841  28.787  1.00  0.00     0.010 A 
ATOM     36  C   UNL A   1      36.352  30.837  29.048  1.00  0.00    -0.014 A 
BRANCH  36  37
ATOM     37  C   UNL A   1      37.581  30.489  29.812  1.00  0.00     0.031 A 
ATOM     38  C   UNL A   1      38.600  29.561  29.206  1.00  0.00     0.074 A 
ATOM     39  C   UNL A   1      37.743  30.935  31.074  1.00  0.00     0.049 A 
ATOM     40  N   UNL A   1      39.660  29.020  29.750  1.00  0.00    -0.248 NA
ATOM     41  C   UNL A   1      38.371  29.159  27.810  1.00  0.00     0.031 C 
ATOM     42  C   UNL A   1      36.812  31.814  31.785  1.00  0.00     0.029 A 
ATOM     43  N   UNL A   1      38.735  30.694  31.991  1.00  0.00    -0.354 N 
ATOM     44  C   UNL A   1      40.206  28.190  28.776  1.00  0.00     0.074 A 
ATOM     45  C   UNL A   1      39.325  28.260  27.629  1.00  0.00     0.031 C 
ATOM     46  C   UNL A   1      37.282  32.045  33.021  1.00  0.00     0.029 A 
ATOM     47  C   UNL A   1      38.519  31.293  33.211  1.00  0.00     0.049 A 
ATOM     48  H   UNL A   1      39.528  30.145  31.794  1.00  0.00     0.167 HD
ATOM     49  C   UNL A   1      41.344  27.453  28.827  1.00  0.00     0.034 A 
ATOM     50  C   UNL A   1      39.222  31.227  34.360  1.00  0.00     0.034 A 
ATOM     51  C   UNL A   1      42.224  27.419  29.970  1.00  0.00     0.049 A 
ATOM     52  C   UNL A   1      40.479  30.396  34.401  1.00  0.00     0.074 A 
ATOM     53  C   UNL A   1      43.439  26.769  30.104  1.00  0.00     0.029 A 
ATOM     54  N   UNL A   1      41.981  28.056  31.181  1.00  0.00    -0.354 N 
ATOM     55  N   UNL A   1      41.008  29.652  33.456  1.00  0.00    -0.248 NA
ATOM     56  C   UNL A   1      41.239  30.400  35.659  1.00  0.00     0.031 C 
ATOM     57  C   UNL A   1      43.895  26.955  31.414  1.00  0.00     0.029 A 
ATOM     58  C   UNL A   1      43.004  27.787  32.076  1.00  0.00     0.049 A 
ATOM     59  H   UNL A   1      41.195  28.617  31.375  1.00  0.00     0.167 HD
ATOM     60  C   UNL A   1      42.178  29.126  33.996  1.00  0.00     0.074 A 
ATOM     61  C   UNL A   1      42.280  29.641  35.347  1.00  0.00     0.031 C 
ATOM     62  C   UNL A   1      43.090  28.300  33.423  1.00  0.00     0.034 A 
BRANCH  49  63
ATOM     63  C   UNL A   1      41.679  26.604  27.622  1.00  0.00     0.023 A 
ATOM     64  C   UNL A   1      41.357  25.236  27.565  1.00  0.00     0.031 A 
ATOM     65  C   UNL A   1      42.363  27.162  26.527  1.00  0.00     0.131 A 
ATOM     66  C   UNL A   1      41.802  24.455  26.487  1.00  0.00     0.055 A 
ATOM     67  C   UNL A   1      42.724  26.397  25.414  1.00  0.00     0.041 A 
ATOM     68  F   UNL A   1      42.715  28.457  26.528  1.00  0.00    -0.206 F 
ATOM     69  C   UNL A   1      42.459  25.031  25.398  1.00  0.00     0.022 A 
BRANCH  66  70
ATOM     70  S   UNL A   1      41.654  22.652  26.609  1.00  0.00     0.124 S 
ATOM     71  O   UNL A   1      40.205  22.480  26.681  1.00  0.00    -0.237 OA
ATOM     72  O   UNL A   1      42.292  22.199  25.379  1.00  0.00    -0.237 OA
ATOM     73  O   UNL A   1      42.373  22.331  27.841  1.00  0.00    -0.744 OA
ENDBRANCH  66  70
ENDBRANCH  49  63
BRANCH  50  74
ATOM     74  C   UNL A   1      38.744  31.950  35.574  1.00  0.00     0.023 A 
ATOM     75  C   UNL A   1      38.156  31.261  36.644  1.00  0.00     0.031 A 
ATOM     76  C   UNL A   1      38.857  33.349  35.671  1.00  0.00     0.131 A 
ATOM     77  C   UNL A   1      37.668  31.974  37.752  1.00  0.00     0.055 A 
ATOM     78  C   UNL A   1      38.415  34.049  36.795  1.00  0.00     0.041 A 
ATOM     79  F   UNL A   1      39.419  34.055  34.677  1.00  0.00    -0.206 F 
ATOM     80  C   UNL A   1      37.807  33.361  37.840  1.00  0.00     0.022 A 
BRANCH  77  81
ATOM     81  S   UNL A   1      36.788  31.065  39.053  1.00  0.00     0.124 S 
ATOM     82  O   UNL A   1      37.706  31.196  40.178  1.00  0.00    -0.237 OA
ATOM     83  O   UNL A   1      35.539  31.811  39.151  1.00  0.00    -0.237 OA
ATOM     84  O   UNL A   1      36.664  29.717  38.501  1.00  0.00    -0.744 OA
ENDBRANCH  77  81
ENDBRANCH  50  74
BRANCH  62  85
ATOM     85  C   UNL A   1      44.307  27.942  34.239  1.00  0.00     0.023 A 
ATOM     86  C   UNL A   1      44.354  26.786  35.037  1.00  0.00     0.031 A 
ATOM     87  C   UNL A   1      45.445  28.767  34.200  1.00  0.00     0.131 A 
ATOM     88  C   UNL A   1      45.502  26.506  35.792  1.00  0.00     0.055 A 
ATOM     89  C   UNL A   1      46.604  28.456  34.912  1.00  0.00     0.041 A 
ATOM     90  F   UNL A   1      45.453  29.885  33.456  1.00  0.00    -0.206 F 
ATOM     91  C   UNL A   1      46.634  27.324  35.721  1.00  0.00     0.022 A 
BRANCH  88  92
ATOM     92  S   UNL A   1      45.481  25.088  36.924  1.00  0.00     0.124 S 
ATOM     93  O   UNL A   1      44.167  25.220  37.549  1.00  0.00    -0.237 OA
ATOM     94  O   UNL A   1      45.643  23.958  36.014  1.00  0.00    -0.237 OA
ATOM     95  O   UNL A   1      46.616  25.337  37.809  1.00  0.00    -0.744 OA
ENDBRANCH  88  92
ENDBRANCH  62  85
ENDBRANCH  36  37
ENDBRANCH  28  31
ENDBRANCH  26  27
ENDBRANCH  25  26
ENDBRANCH   1  25
TORSDOF 18
ENDMDL
MODEL 2
REMARK VINA RESULT:     -11.4      2.534      7.857
REMARK SMILES Cc1cccc(Nc2ccccc2C(=O)NCCCCCCNC(=O)c2ccc(-c3c4nc(c(-c5cc(S(=O)(=O)[O-])ccc5F)c5ccc([nH]5)c(-c5cc(S(=O)(=O)[O-])ccc5F)c5nc(c(-c6cc(S(=O)(=O)[O-])ccc6F)c6ccc3[nH]6)C=C5)C=C4)cc2)c1C
REMARK SMILES IDX 20 1 19 2 18 3 17 4 16 5 14 6 15 7 13 9 8 10 9 11 10 12
REMARK SMILES IDX 12 13 11 14 7 15 6 17 1 18 2 19 3 20 89 21 4 22 90 23 5 24
REMARK SMILES IDX 21 25 22 26 23 27 24 28 25 30 26 31 27 32 88 33 28 34 87 35
REMARK SMILES IDX 29 36 30 37 31 38 81 39 32 40 86 41 80 42 82 43 33 44 85 45
REMARK SMILES IDX 79 46 78 47 34 49 66 50 46 51 65 52 47 53 50 54 64 55 83 56
REMARK SMILES IDX 48 57 49 58 63 60 84 61 51 62 35 63 36 64 44 65 37 66 43 67
REMARK SMILES IDX 45 68 42 69 38 70 39 71 40 72 41 73 67 74 68 75 76 76 69 77
REMARK SMILES IDX 75 78 77 79 74 80 70 81 71 82 72 83 73 84 52 85 53 86 61 87
REMARK SMILES IDX 54 88 60 89 62 90 59 91 55 92 56 93 57 94 58 95
REMARK H PARENT 16 8 7 16 23 29 82 48 50 59
REMARK Flexibility Score: inf
ROOT
ATOM      1  C   UNL A   1      32.004  27.677  26.667  1.00  0.00     0.002 C 
ENDROOT
BRANCH   1   2
ATOM      2  C   UNL A   1      32.302  26.238  26.225  1.00  0.00     0.002 C 
BRANCH   2   3
ATOM      3  C   UNL A   1      33.731  25.918  25.760  1.00  0.00     0.021 C 
BRANCH   3   4
ATOM      4  C   UNL A   1      34.237  24.505  26.036  1.00  0.00     0.116 C 
BRANCH   4   5
ATOM      5  N   UNL A   1      35.326  24.081  25.189  1.00  0.00    -0.352 N 
ATOM      6  C   UNL A   1      35.351  23.145  24.183  1.00  0.00     0.253 C 
ATOM      7  O   UNL A   1      36.397  23.060  23.530  1.00  0.00    -0.269 OA
ATOM      8  H   UNL A   1      36.184  24.531  25.359  1.00  0.00     0.163 HD
BRANCH   6   9
ATOM      9  C   UNL A   1      34.265  22.146  23.916  1.00  0.00     0.063 A 
ATOM     10  C   UNL A   1      33.086  22.302  23.159  1.00  0.00     0.051 A 
ATOM     11  C   UNL A   1      32.175  21.214  23.113  1.00  0.00     0.027 A 
ATOM     12  C   UNL A   1      32.443  19.986  23.717  1.00  0.00     0.002 A 
ATOM     13  C   UNL A   1      34.526  20.882  24.504  1.00  0.00     0.016 A 
ATOM     14  C   UNL A   1      33.636  19.811  24.396  1.00  0.00     0.001 A 
BRANCH  10  15
ATOM     15  N   UNL A   1      32.741  23.372  22.310  1.00  0.00    -0.355 N 
ATOM     16  H   UNL A   1      32.630  23.095  21.372  1.00  0.00     0.167 HD
BRANCH  15  17
ATOM     17  C   UNL A   1      32.520  24.752  22.502  1.00  0.00     0.042 A 
ATOM     18  C   UNL A   1      29.836  27.414  23.115  1.00  0.00     0.044 C 
ATOM     19  C   UNL A   1      31.147  26.746  22.797  1.00  0.00    -0.046 A 
ATOM     20  C   UNL A   1      32.223  27.549  22.395  1.00  0.00     0.004 A 
ATOM     21  C   UNL A   1      31.311  25.342  22.921  1.00  0.00    -0.025 A 
ATOM     22  C   UNL A   1      33.453  26.980  22.102  1.00  0.00     0.002 A 
ATOM     23  C   UNL A   1      30.208  24.536  23.560  1.00  0.00     0.047 C 
ATOM     24  C   UNL A   1      33.594  25.597  22.146  1.00  0.00     0.026 A 
ENDBRANCH  15  17
ENDBRANCH  10  15
ENDBRANCH   6   9
ENDBRANCH   4   5
ENDBRANCH   3   4
ENDBRANCH   2   3
ENDBRANCH   1   2
BRANCH   1  25
ATOM     25  C   UNL A   1      32.589  28.800  25.808  1.00  0.00     0.021 C 
BRANCH  25  26
ATOM     26  C   UNL A   1      33.902  29.406  26.287  1.00  0.00     0.116 C 
BRANCH  26  27
ATOM     27  N   UNL A   1      33.749  30.761  26.785  1.00  0.00    -0.352 N 
ATOM     28  C   UNL A   1      34.472  31.443  27.736  1.00  0.00     0.251 C 
ATOM     29  H   UNL A   1      33.013  31.272  26.378  1.00  0.00     0.163 HD
ATOM     30  O   UNL A   1      34.068  32.536  28.125  1.00  0.00    -0.269 OA
BRANCH  28  31
ATOM     31  C   UNL A   1      35.710  30.865  28.314  1.00  0.00     0.039 A 
ATOM     32  C   UNL A   1      35.598  29.915  29.335  1.00  0.00     0.014 A 
ATOM     33  C   UNL A   1      36.977  31.272  27.888  1.00  0.00     0.014 A 
ATOM     34  C   UNL A   1      36.747  29.332  29.881  1.00  0.00     0.010 A 
ATOM     35  C   UNL A   1      38.117  30.635  28.376  1.00  0.00     0.010 A 
ATOM     36  C   UNL A   1      38.018  29.662  29.385  1.00  0.00    -0.014 A 
BRANCH  36  37
ATOM     37  C   UNL A   1      39.257  29.034  29.918  1.00  0.00     0.031 A 
ATOM     38  C   UNL A   1      39.956  29.646  31.103  1.00  0.00     0.074 A 
ATOM     39  C   UNL A   1      39.801  27.971  29.292  1.00  0.00     0.049 A 
ATOM     40  N   UNL A   1      41.114  29.346  31.633  1.00  0.00    -0.248 NA
ATOM     41  C   UNL A   1      39.272  30.774  31.754  1.00  0.00     0.031 C 
ATOM     42  C   UNL A   1      39.238  27.306  28.115  1.00  0.00     0.029 A 
ATOM     43  N   UNL A   1      40.958  27.275  29.543  1.00  0.00    -0.354 N 
ATOM     44  C   UNL A   1      41.313  30.267  32.657  1.00  0.00     0.074 A 
ATOM     45  C   UNL A   1      40.180  31.167  32.634  1.00  0.00     0.031 C 
ATOM     46  C   UNL A   1      40.045  26.294  27.753  1.00  0.00     0.029 A 
ATOM     47  C   UNL A   1      41.206  26.269  28.638  1.00  0.00     0.049 A 
ATOM     48  H   UNL A   1      41.554  27.477  30.301  1.00  0.00     0.167 HD
ATOM     49  C   UNL A   1      42.337  30.341  33.545  1.00  0.00     0.034 A 
ATOM     50  C   UNL A   1      42.259  25.435  28.518  1.00  0.00     0.034 A 
ATOM     51  C   UNL A   1      43.444  29.416  33.570  1.00  0.00     0.049 A 
ATOM     52  C   UNL A   1      43.391  25.539  29.508  1.00  0.00     0.074 A 
ATOM     53  C   UNL A   1      44.494  29.352  34.470  1.00  0.00     0.029 A 
ATOM     54  N   UNL A   1      43.650  28.397  32.649  1.00  0.00    -0.354 N 
ATOM     55  N   UNL A   1      43.544  26.386  30.500  1.00  0.00    -0.248 NA
ATOM     56  C   UNL A   1      44.490  24.573  29.368  1.00  0.00     0.031 C 
ATOM     57  C   UNL A   1      45.369  28.343  34.053  1.00  0.00     0.029 A 
ATOM     58  C   UNL A   1      44.826  27.722  32.938  1.00  0.00     0.049 A 
ATOM     59  H   UNL A   1      43.048  28.185  31.899  1.00  0.00     0.167 HD
ATOM     60  C   UNL A   1      44.739  26.033  31.121  1.00  0.00     0.074 A 
ATOM     61  C   UNL A   1      45.264  24.894  30.394  1.00  0.00     0.031 C 
ATOM     62  C   UNL A   1      45.342  26.593  32.200  1.00  0.00     0.034 A 
BRANCH  49  63
ATOM     63  C   UNL A   1      42.314  31.482  34.538  1.00  0.00     0.023 A 
ATOM     64  C   UNL A   1      41.430  31.497  35.631  1.00  0.00     0.031 A 
ATOM     65  C   UNL A   1      43.165  32.589  34.368  1.00  0.00     0.131 A 
ATOM     66  C   UNL A   1      41.348  32.633  36.451  1.00  0.00     0.055 A 
ATOM     67  C   UNL A   1      43.142  33.678  35.243  1.00  0.00     0.041 A 
ATOM     68  F   UNL A   1      44.019  32.643  33.334  1.00  0.00    -0.206 F 
ATOM     69  C   UNL A   1      42.217  33.713  36.282  1.00  0.00     0.022 A 
BRANCH  66  70
ATOM     70  S   UNL A   1      39.979  32.745  37.636  1.00  0.00     0.124 S 
ATOM     71  O   UNL A   1      39.120  31.647  37.198  1.00  0.00    -0.237 OA
ATOM     72  O   UNL A   1      40.653  32.559  38.916  1.00  0.00    -0.237 OA
ATOM     73  O   UNL A   1      39.434  34.082  37.405  1.00  0.00    -0.744 OA
ENDBRANCH  66  70
ENDBRANCH  49  63
BRANCH  50  74
ATOM     74  C   UNL A   1      42.305  24.442  27.406  1.00  0.00     0.023 A 
ATOM     75  C   UNL A   1      41.595  23.235  27.482  1.00  0.00     0.031 A 
ATOM     76  C   UNL A   1      43.077  24.683  26.255  1.00  0.00     0.131 A 
ATOM     77  C   UNL A   1      41.698  22.296  26.442  1.00  0.00     0.055 A 
ATOM     78  C   UNL A   1      43.138  23.768  25.202  1.00  0.00     0.041 A 
ATOM     79  F   UNL A   1      43.771  25.825  26.129  1.00  0.00    -0.206 F 
ATOM     80  C   UNL A   1      42.453  22.560  25.298  1.00  0.00     0.022 A 
BRANCH  77  81
ATOM     81  S   UNL A   1      40.878  20.689  26.637  1.00  0.00     0.124 S 
ATOM     82  O   UNL A   1      41.814  19.795  25.964  1.00  0.00    -0.237 OA
ATOM     83  O   UNL A   1      40.800  20.563  28.089  1.00  0.00    -0.237 OA
ATOM     84  O   UNL A   1      39.597  20.877  25.960  1.00  0.00    -0.744 OA
ENDBRANCH  77  81
ENDBRANCH  50  74
BRANCH  62  85
ATOM     85  C   UNL A   1      46.614  25.951  32.692  1.00  0.00     0.023 A 
ATOM     86  C   UNL A   1      47.866  26.252  32.130  1.00  0.00     0.031 A 
ATOM     87  C   UNL A   1      46.570  25.033  33.758  1.00  0.00     0.131 A 
ATOM     88  C   UNL A   1      49.019  25.613  32.610  1.00  0.00     0.055 A 
ATOM     89  C   UNL A   1      47.726  24.441  34.267  1.00  0.00     0.041 A 
ATOM     90  F   UNL A   1      45.399  24.707  34.330  1.00  0.00    -0.206 F 
ATOM     91  C   UNL A   1      48.959  24.723  33.687  1.00  0.00     0.022 A 
BRANCH  88  92
ATOM     92  S   UNL A   1      50.599  25.911  31.770  1.00  0.00     0.124 S 
ATOM     93  O   UNL A   1      50.348  25.350  30.446  1.00  0.00    -0.237 OA
ATOM     94  O   UNL A   1      50.719  27.365  31.833  1.00  0.00    -0.237 OA
ATOM     95  O   UNL A   1      51.565  25.175  32.583  1.00  0.00    -0.744 OA
ENDBRANCH  88  92
ENDBRANCH  62  85
ENDBRANCH  36  37
ENDBRANCH  28  31
ENDBRANCH  26  27
ENDBRANCH  25  26
ENDBRANCH   1  25
TORSDOF 18
ENDMDL
MODEL 3
REMARK VINA RESULT:     -11.3      1.474      3.003
REMARK SMILES Cc1cccc(Nc2ccccc2C(=O)NCCCCCCNC(=O)c2ccc(-c3c4nc(c(-c5cc(S(=O)(=O)[O-])ccc5F)c5ccc([nH]5)c(-c5cc(S(=O)(=O)[O-])ccc5F)c5nc(c(-c6cc(S(=O)(=O)[O-])ccc6F)c6ccc3[nH]6)C=C5)C=C4)cc2)c1C
REMARK SMILES IDX 20 1 19 2 18 3 17 4 16 5 14 6 15 7 13 9 8 10 9 11 10 12
REMARK SMILES IDX 12 13 11 14 7 15 6 17 1 18 2 19 3 20 89 21 4 22 90 23 5 24
REMARK SMILES IDX 21 25 22 26 23 27 24 28 25 30 26 31 27 32 88 33 28 34 87 35
REMARK SMILES IDX 29 36 30 37 31 38 81 39 32 40 86 41 80 42 82 43 33 44 85 45
REMARK SMILES IDX 79 46 78 47 34 49 66 50 46 51 65 52 47 53 50 54 64 55 83 56
REMARK SMILES IDX 48 57 49 58 63 60 84 61 51 62 35 63 36 64 44 65 37 66 43 67
REMARK SMILES IDX 45 68 42 69 38 70 39 71 40 72 41 73 67 74 68 75 76 76 69 77
REMARK SMILES IDX 75 78 77 79 74 80 70 81 71 82 72 83 73 84 52 85 53 86 61 87
REMARK SMILES IDX 54 88 60 89 62 90 59 91 55 92 56 93 57 94 58 95
REMARK H PARENT 16 8 7 16 23 29 82 48 50 59
REMARK Flexibility Score: inf
ROOT
ATOM      1  C   UNL A   1      32.093  28.102  23.258  1.00  0.00     0.002 C 
ENDROOT
BRANCH   1   2
ATOM      2  C   UNL A   1      30.690  28.254  23.863  1.00  0.00     0.002 C 
BRANCH   2   3
ATOM      3  C   UNL A   1      30.262  27.232  24.926  1.00  0.00     0.021 C 
BRANCH   3   4
ATOM      4  C   UNL A   1      30.277  25.764  24.508  1.00  0.00     0.116 C 
BRANCH   4   5
ATOM      5  N   UNL A   1      29.919  24.837  25.552  1.00  0.00    -0.352 N 
ATOM      6  C   UNL A   1      30.714  24.036  26.336  1.00  0.00     0.253 C 
ATOM      7  O   UNL A   1      30.154  23.418  27.248  1.00  0.00    -0.269 OA
ATOM      8  H   UNL A   1      28.953  24.766  25.732  1.00  0.00     0.163 HD
BRANCH   6   9
ATOM      9  C   UNL A   1      32.166  23.761  26.082  1.00  0.00     0.063 A 
ATOM     10  C   UNL A   1      32.818  22.520  25.928  1.00  0.00     0.051 A 
ATOM     11  C   UNL A   1      34.228  22.525  25.762  1.00  0.00     0.027 A 
ATOM     12  C   UNL A   1      34.967  23.703  25.667  1.00  0.00     0.002 A 
ATOM     13  C   UNL A   1      32.936  24.946  25.961  1.00  0.00     0.016 A 
ATOM     14  C   UNL A   1      34.315  24.920  25.743  1.00  0.00     0.001 A 
BRANCH  10  15
ATOM     15  N   UNL A   1      32.230  21.249  25.780  1.00  0.00    -0.355 N 
ATOM     16  H   UNL A   1      31.423  21.135  26.332  1.00  0.00     0.167 HD
BRANCH  15  17
ATOM     17  C   UNL A   1      32.539  20.101  25.020  1.00  0.00     0.042 A 
ATOM     18  C   UNL A   1      32.155  18.452  21.586  1.00  0.00     0.044 C 
ATOM     19  C   UNL A   1      32.449  18.673  23.045  1.00  0.00    -0.046 A 
ATOM     20  C   UNL A   1      32.832  17.571  23.823  1.00  0.00     0.004 A 
ATOM     21  C   UNL A   1      32.368  19.964  23.629  1.00  0.00    -0.025 A 
ATOM     22  C   UNL A   1      33.123  17.728  25.169  1.00  0.00     0.002 A 
ATOM     23  C   UNL A   1      32.166  21.157  22.727  1.00  0.00     0.047 C 
ATOM     24  C   UNL A   1      32.968  18.977  25.760  1.00  0.00     0.026 A 
ENDBRANCH  15  17
ENDBRANCH  10  15
ENDBRANCH   6   9
ENDBRANCH   4   5
ENDBRANCH   3   4
ENDBRANCH   2   3
ENDBRANCH   1   2
BRANCH   1  25
ATOM     25  C   UNL A   1      33.202  28.971  23.854  1.00  0.00     0.021 C 
BRANCH  25  26
ATOM     26  C   UNL A   1      33.233  29.081  25.373  1.00  0.00     0.116 C 
BRANCH  26  27
ATOM     27  N   UNL A   1      32.722  30.350  25.858  1.00  0.00    -0.352 N 
ATOM     28  C   UNL A   1      33.170  31.156  26.878  1.00  0.00     0.251 C 
ATOM     29  H   UNL A   1      31.930  30.689  25.380  1.00  0.00     0.163 HD
ATOM     30  O   UNL A   1      32.488  32.115  27.228  1.00  0.00    -0.269 OA
BRANCH  28  31
ATOM     31  C   UNL A   1      34.447  30.864  27.577  1.00  0.00     0.039 A 
ATOM     32  C   UNL A   1      35.376  31.897  27.743  1.00  0.00     0.014 A 
ATOM     33  C   UNL A   1      34.754  29.581  28.037  1.00  0.00     0.014 A 
ATOM     34  C   UNL A   1      36.578  31.659  28.420  1.00  0.00     0.010 A 
ATOM     35  C   UNL A   1      35.913  29.364  28.780  1.00  0.00     0.010 A 
ATOM     36  C   UNL A   1      36.844  30.397  28.975  1.00  0.00    -0.014 A 
BRANCH  36  37
ATOM     37  C   UNL A   1      38.095  30.120  29.733  1.00  0.00     0.031 A 
ATOM     38  C   UNL A   1      39.100  29.141  29.186  1.00  0.00     0.074 A 
ATOM     39  C   UNL A   1      38.290  30.679  30.944  1.00  0.00     0.049 A 
ATOM     40  N   UNL A   1      40.175  28.652  29.748  1.00  0.00    -0.248 NA
ATOM     41  C   UNL A   1      38.832  28.613  27.840  1.00  0.00     0.031 C 
ATOM     42  C   UNL A   1      37.377  31.619  31.597  1.00  0.00     0.029 A 
ATOM     43  N   UNL A   1      39.309  30.524  31.852  1.00  0.00    -0.354 N 
ATOM     44  C   UNL A   1      40.696  27.736  28.839  1.00  0.00     0.074 A 
ATOM     45  C   UNL A   1      39.784  27.701  27.714  1.00  0.00     0.031 C 
ATOM     46  C   UNL A   1      37.881  31.962  32.794  1.00  0.00     0.029 A 
ATOM     47  C   UNL A   1      39.125  31.231  33.017  1.00  0.00     0.049 A 
ATOM     48  H   UNL A   1      40.097  29.958  31.684  1.00  0.00     0.167 HD
ATOM     49  C   UNL A   1      41.838  27.008  28.925  1.00  0.00     0.034 A 
ATOM     50  C   UNL A   1      39.860  31.270  34.148  1.00  0.00     0.034 A 
ATOM     51  C   UNL A   1      42.749  27.078  30.041  1.00  0.00     0.049 A 
ATOM     52  C   UNL A   1      41.120  30.446  34.229  1.00  0.00     0.074 A 
ATOM     53  C   UNL A   1      43.969  26.443  30.199  1.00  0.00     0.029 A 
ATOM     54  N   UNL A   1      42.538  27.823  31.195  1.00  0.00    -0.354 N 
ATOM     55  N   UNL A   1      41.623  29.620  33.342  1.00  0.00    -0.248 NA
ATOM     56  C   UNL A   1      41.914  30.565  35.460  1.00  0.00     0.031 C 
ATOM     57  C   UNL A   1      44.460  26.748  31.474  1.00  0.00     0.029 A 
ATOM     58  C   UNL A   1      43.586  27.636  32.083  1.00  0.00     0.049 A 
ATOM     59  H   UNL A   1      41.756  28.399  31.359  1.00  0.00     0.167 HD
ATOM     60  C   UNL A   1      42.810  29.146  33.894  1.00  0.00     0.074 A 
ATOM     61  C   UNL A   1      42.948  29.781  35.189  1.00  0.00     0.031 C 
ATOM     62  C   UNL A   1      43.708  28.270  33.374  1.00  0.00     0.034 A 
BRANCH  49  63
ATOM     63  C   UNL A   1      42.140  26.052  27.793  1.00  0.00     0.023 A 
ATOM     64  C   UNL A   1      41.580  24.764  27.739  1.00  0.00     0.031 A 
ATOM     65  C   UNL A   1      43.033  26.421  26.771  1.00  0.00     0.131 A 
ATOM     66  C   UNL A   1      41.989  23.862  26.745  1.00  0.00     0.055 A 
ATOM     67  C   UNL A   1      43.367  25.549  25.732  1.00  0.00     0.041 A 
ATOM     68  F   UNL A   1      43.616  27.630  26.775  1.00  0.00    -0.206 F 
ATOM     69  C   UNL A   1      42.858  24.253  25.725  1.00  0.00     0.022 A 
BRANCH  66  70
ATOM     70  S   UNL A   1      41.498  22.122  26.902  1.00  0.00     0.124 S 
ATOM     71  O   UNL A   1      42.311  21.689  28.036  1.00  0.00    -0.237 OA
ATOM     72  O   UNL A   1      40.063  22.221  27.144  1.00  0.00    -0.237 OA
ATOM     73  O   UNL A   1      41.877  21.541  25.616  1.00  0.00    -0.744 OA
ENDBRANCH  66  70
ENDBRANCH  49  63
BRANCH  50  74
ATOM     74  C   UNL A   1      39.414  32.101  35.303  1.00  0.00     0.023 A 
ATOM     75  C   UNL A   1      38.702  31.535  36.371  1.00  0.00     0.031 A 
ATOM     76  C   UNL A   1      39.682  33.481  35.345  1.00  0.00     0.131 A 
ATOM     77  C   UNL A   1      38.250  32.352  37.421  1.00  0.00     0.055 A 
ATOM     78  C   UNL A   1      39.273  34.280  36.414  1.00  0.00     0.041 A 
ATOM     79  F   UNL A   1      40.366  34.070  34.351  1.00  0.00    -0.206 F 
ATOM     80  C   UNL A   1      38.543  33.717  37.456  1.00  0.00     0.022 A 
BRANCH  77  81
ATOM     81  S   UNL A   1      37.213  31.613  38.714  1.00  0.00     0.124 S 
ATOM     82  O   UNL A   1      37.030  30.258  38.208  1.00  0.00    -0.237 OA
ATOM     83  O   UNL A   1      38.059  31.750  39.895  1.00  0.00    -0.237 OA
ATOM     84  O   UNL A   1      36.015  32.450  38.708  1.00  0.00    -0.744 OA
ENDBRANCH  77  81
ENDBRANCH  50  74
BRANCH  62  85
ATOM     85  C   UNL A   1      44.948  27.988  34.185  1.00  0.00     0.023 A 
ATOM     86  C   UNL A   1      45.017  26.915  35.089  1.00  0.00     0.031 A 
ATOM     87  C   UNL A   1      46.086  28.801  34.032  1.00  0.00     0.131 A 
ATOM     88  C   UNL A   1      46.187  26.706  35.835  1.00  0.00     0.055 A 
ATOM     89  C   UNL A   1      47.265  28.556  34.737  1.00  0.00     0.041 A 
ATOM     90  F   UNL A   1      46.073  29.841  33.183  1.00  0.00    -0.206 F 
ATOM     91  C   UNL A   1      47.317  27.508  35.651  1.00  0.00     0.022 A 
BRANCH  88  92
ATOM     92  S   UNL A   1      46.197  25.404  37.099  1.00  0.00     0.124 S 
ATOM     93  O   UNL A   1      44.794  25.000  37.128  1.00  0.00    -0.237 OA
ATOM     94  O   UNL A   1      47.129  24.431  36.540  1.00  0.00    -0.237 OA
ATOM     95  O   UNL A   1      46.668  26.093  38.298  1.00  0.00    -0.744 OA
ENDBRANCH  88  92
ENDBRANCH  62  85
ENDBRANCH  36  37
ENDBRANCH  28  31
ENDBRANCH  26  27
ENDBRANCH  25  26
ENDBRANCH   1  25
TORSDOF 18
ENDMDL
