MODEL 1
REMARK VINA RESULT:     -10.8      0.000      0.000
REMARK SMILES O=C(COc1ccc(-c2cc3cc(Br)ccc3oc2=O)cc1)NCCCCCCNC(=O)c1ccc(-c2c3nc(c(-c4cc(S(=O)(=O)[O-])ccc4F)c4ccc([nH]4)c(-c4cc(S(=O)(=O)[O-])ccc4F)c4nc(c(-c5cc(S(=O)(=O)[O-])ccc5F)c5ccc2[nH]5)C=C4)C=C3)cc1
REMARK SMILES IDX 26 1 25 2 24 3 23 4 1 5 2 6 3 8 4 9 5 10 6 11 22 12 7 13
REMARK SMILES IDX 21 14 8 15 9 16 10 17 19 18 11 19 18 20 20 21 12 22 17 23
REMARK SMILES IDX 13 24 16 25 14 26 15 27 27 28 28 29 29 30 30 31 31 32 32 34
REMARK SMILES IDX 33 35 34 36 95 37 35 38 94 39 36 40 37 41 38 42 88 43 39 44
REMARK SMILES IDX 93 45 87 46 89 47 40 48 92 49 86 50 85 51 41 53 73 54 53 55
REMARK SMILES IDX 72 56 54 57 57 58 71 59 90 60 55 61 56 62 70 64 91 65 58 66
REMARK SMILES IDX 42 67 43 68 51 69 44 70 50 71 52 72 49 73 45 74 46 75 47 76
REMARK SMILES IDX 48 77 74 78 75 79 83 80 76 81 82 82 84 83 81 84 77 85 78 86
REMARK SMILES IDX 79 87 80 88 59 89 60 90 68 91 61 92 67 93 69 94 66 95 62 96
REMARK SMILES IDX 63 97 64 98 65 99
REMARK H PARENT 23 7 30 33 89 52 57 63
REMARK Flexibility Score: inf
ROOT
ATOM      1  C   UNL A   1      40.466  21.751  26.788  1.00  0.00     0.002 C 
ENDROOT
BRANCH   1   2
ATOM      2  C   UNL A   1      40.214  23.096  27.478  1.00  0.00     0.021 C 
BRANCH   2   3
ATOM      3  C   UNL A   1      39.284  24.035  26.711  1.00  0.00     0.116 C 
BRANCH   3   4
ATOM      4  N   UNL A   1      37.881  23.757  26.949  1.00  0.00    -0.353 N 
ATOM      5  O   UNL A   1      37.302  23.623  24.733  1.00  0.00    -0.271 OA
ATOM      6  C   UNL A   1      37.000  23.515  25.919  1.00  0.00     0.257 C 
ATOM      7  H   UNL A   1      37.549  23.742  27.875  1.00  0.00     0.163 HD
BRANCH   6   8
ATOM      8  C   UNL A   1      35.589  23.083  26.350  1.00  0.00     0.329 C 
BRANCH   8   9
ATOM      9  O   UNL A   1      34.830  22.230  25.507  1.00  0.00    -0.484 OA
BRANCH   9  10
ATOM     10  C   UNL A   1      33.868  22.789  24.714  1.00  0.00     0.120 A 
ATOM     11  C   UNL A   1      34.180  22.840  23.355  1.00  0.00     0.047 A 
ATOM     12  C   UNL A   1      32.687  23.376  25.153  1.00  0.00     0.047 A 
ATOM     13  C   UNL A   1      33.393  23.586  22.471  1.00  0.00     0.013 A 
ATOM     14  C   UNL A   1      31.896  24.115  24.269  1.00  0.00     0.013 A 
ATOM     15  C   UNL A   1      32.290  24.312  22.939  1.00  0.00    -0.011 A 
BRANCH  15  16
ATOM     16  C   UNL A   1      31.750  25.406  22.069  1.00  0.00     0.068 A 
ATOM     17  C   UNL A   1      31.063  26.490  22.505  1.00  0.00     0.028 A 
ATOM     18  C   UNL A   1      32.808  25.940  21.127  1.00  0.00     0.344 A 
ATOM     19  C   UNL A   1      31.921  27.385  23.315  1.00  0.00     0.019 A 
ATOM     20  O   UNL A   1      33.705  26.814  21.764  1.00  0.00    -0.422 OA
ATOM     21  O   UNL A   1      32.925  25.563  19.969  1.00  0.00    -0.246 OA
ATOM     22  C   UNL A   1      31.469  28.039  24.456  1.00  0.00     0.027 A 
ATOM     23  C   UNL A   1      33.281  27.430  22.967  1.00  0.00     0.138 A 
ATOM     24  C   UNL A   1      32.407  28.653  25.287  1.00  0.00     0.018 A 
ATOM     25  C   UNL A   1      34.219  28.027  23.798  1.00  0.00     0.049 A 
ATOM     26  Br  UNL A   1      31.824  29.483  26.883  1.00  0.00    -0.051 Br
ATOM     27  C   UNL A   1      33.775  28.626  24.979  1.00  0.00     0.019 A 
ENDBRANCH  15  16
ENDBRANCH   9  10
ENDBRANCH   8   9
ENDBRANCH   6   8
ENDBRANCH   3   4
ENDBRANCH   2   3
ENDBRANCH   1   2
BRANCH   1  28
ATOM     28  C   UNL A   1      41.140  20.683  27.655  1.00  0.00     0.002 C 
BRANCH  28  29
ATOM     29  C   UNL A   1      42.193  19.829  26.945  1.00  0.00     0.021 C 
BRANCH  29  30
ATOM     30  C   UNL A   1      42.263  20.014  25.433  1.00  0.00     0.116 C 
BRANCH  30  31
ATOM     31  N   UNL A   1      43.396  19.322  24.839  1.00  0.00    -0.352 N 
ATOM     32  C   UNL A   1      44.640  19.812  24.512  1.00  0.00     0.251 C 
ATOM     33  H   UNL A   1      43.253  18.369  24.644  1.00  0.00     0.163 HD
ATOM     34  O   UNL A   1      45.412  19.127  23.856  1.00  0.00    -0.269 OA
BRANCH  32  35
ATOM     35  C   UNL A   1      45.023  21.180  24.934  1.00  0.00     0.039 A 
ATOM     36  C   UNL A   1      44.909  22.230  24.019  1.00  0.00     0.014 A 
ATOM     37  C   UNL A   1      45.485  21.426  26.230  1.00  0.00     0.014 A 
ATOM     38  C   UNL A   1      45.194  23.537  24.425  1.00  0.00     0.010 A 
ATOM     39  C   UNL A   1      45.696  22.737  26.652  1.00  0.00     0.010 A 
ATOM     40  C   UNL A   1      45.555  23.808  25.755  1.00  0.00    -0.014 A 
BRANCH  40  41
ATOM     41  C   UNL A   1      45.804  25.196  26.229  1.00  0.00     0.031 A 
ATOM     42  C   UNL A   1      44.653  26.039  26.712  1.00  0.00     0.074 A 
ATOM     43  C   UNL A   1      47.046  25.720  26.161  1.00  0.00     0.049 A 
ATOM     44  N   UNL A   1      44.638  27.302  27.054  1.00  0.00    -0.248 NA
ATOM     45  C   UNL A   1      43.340  25.380  26.794  1.00  0.00     0.031 C 
ATOM     46  C   UNL A   1      48.239  25.012  25.691  1.00  0.00     0.029 A 
ATOM     47  N   UNL A   1      47.512  26.975  26.474  1.00  0.00    -0.354 N 
ATOM     48  C   UNL A   1      43.315  27.593  27.372  1.00  0.00     0.074 A 
ATOM     49  C   UNL A   1      42.551  26.388  27.131  1.00  0.00     0.031 C 
ATOM     50  C   UNL A   1      49.298  25.834  25.763  1.00  0.00     0.029 A 
ATOM     51  C   UNL A   1      48.856  27.146  26.229  1.00  0.00     0.049 A 
ATOM     52  H   UNL A   1      46.937  27.686  26.838  1.00  0.00     0.167 HD
ATOM     53  C   UNL A   1      42.791  28.753  27.838  1.00  0.00     0.034 A 
ATOM     54  C   UNL A   1      49.639  28.238  26.346  1.00  0.00     0.034 A 
ATOM     55  C   UNL A   1      43.572  29.940  28.093  1.00  0.00     0.049 A 
ATOM     56  C   UNL A   1      49.021  29.528  26.833  1.00  0.00     0.074 A 
ATOM     57  C   UNL A   1      43.148  31.148  28.619  1.00  0.00     0.029 A 
ATOM     58  N   UNL A   1      44.929  30.072  27.838  1.00  0.00    -0.354 N 
ATOM     59  N   UNL A   1      47.776  29.772  27.171  1.00  0.00    -0.248 NA
ATOM     60  C   UNL A   1      49.915  30.687  26.966  1.00  0.00     0.031 C 
ATOM     61  C   UNL A   1      44.230  32.034  28.607  1.00  0.00     0.029 A 
ATOM     62  C   UNL A   1      45.351  31.351  28.164  1.00  0.00     0.049 A 
ATOM     63  H   UNL A   1      45.508  29.361  27.478  1.00  0.00     0.167 HD
ATOM     64  C   UNL A   1      47.752  31.097  27.601  1.00  0.00     0.074 A 
ATOM     65  C   UNL A   1      49.105  31.596  27.487  1.00  0.00     0.031 C 
ATOM     66  C   UNL A   1      46.707  31.833  28.056  1.00  0.00     0.034 A 
BRANCH  53  67
ATOM     67  C   UNL A   1      41.302  28.808  28.077  1.00  0.00     0.023 A 
ATOM     68  C   UNL A   1      40.748  28.625  29.355  1.00  0.00     0.031 A 
ATOM     69  C   UNL A   1      40.422  29.062  27.009  1.00  0.00     0.131 A 
ATOM     70  C   UNL A   1      39.356  28.642  29.524  1.00  0.00     0.055 A 
ATOM     71  C   UNL A   1      39.043  29.156  27.197  1.00  0.00     0.041 A 
ATOM     72  F   UNL A   1      40.892  29.223  25.761  1.00  0.00    -0.206 F 
ATOM     73  C   UNL A   1      38.501  28.935  28.460  1.00  0.00     0.022 A 
BRANCH  70  74
ATOM     74  S   UNL A   1      38.670  28.159  31.132  1.00  0.00     0.124 S 
ATOM     75  O   UNL A   1      37.437  28.941  31.172  1.00  0.00    -0.237 OA
ATOM     76  O   UNL A   1      38.508  26.717  30.987  1.00  0.00    -0.237 OA
ATOM     77  O   UNL A   1      39.697  28.580  32.083  1.00  0.00    -0.744 OA
ENDBRANCH  70  74
ENDBRANCH  53  67
BRANCH  54  78
ATOM     78  C   UNL A   1      51.086  28.188  25.975  1.00  0.00     0.023 A 
ATOM     79  C   UNL A   1      51.488  28.231  24.630  1.00  0.00     0.031 A 
ATOM     80  C   UNL A   1      52.082  28.013  26.952  1.00  0.00     0.131 A 
ATOM     81  C   UNL A   1      52.836  28.027  24.293  1.00  0.00     0.055 A 
ATOM     82  C   UNL A   1      53.431  27.881  26.616  1.00  0.00     0.041 A 
ATOM     83  F   UNL A   1      51.758  27.964  28.253  1.00  0.00    -0.206 F 
ATOM     84  C   UNL A   1      53.812  27.867  25.278  1.00  0.00     0.022 A 
BRANCH  81  85
ATOM     85  S   UNL A   1      53.272  27.835  22.542  1.00  0.00     0.124 S 
ATOM     86  O   UNL A   1      54.128  26.655  22.579  1.00  0.00    -0.237 OA
ATOM     87  O   UNL A   1      51.963  27.661  21.923  1.00  0.00    -0.237 OA
ATOM     88  O   UNL A   1      53.951  29.090  22.223  1.00  0.00    -0.744 OA
ENDBRANCH  81  85
ENDBRANCH  54  78
BRANCH  66  89
ATOM     89  C   UNL A   1      47.000  33.234  28.539  1.00  0.00     0.023 A 
ATOM     90  C   UNL A   1      46.928  34.349  27.688  1.00  0.00     0.031 A 
ATOM     91  C   UNL A   1      47.348  33.450  29.885  1.00  0.00     0.131 A 
ATOM     92  C   UNL A   1      47.249  35.624  28.179  1.00  0.00     0.055 A 
ATOM     93  C   UNL A   1      47.603  34.728  30.383  1.00  0.00     0.041 A 
ATOM     94  F   UNL A   1      47.435  32.421  30.743  1.00  0.00    -0.206 F 
ATOM     95  C   UNL A   1      47.567  35.823  29.525  1.00  0.00     0.022 A 
BRANCH  92  96
ATOM     96  S   UNL A   1      47.330  37.013  27.014  1.00  0.00     0.124 S 
ATOM     97  O   UNL A   1      48.764  37.278  26.958  1.00  0.00    -0.237 OA
ATOM     98  O   UNL A   1      46.739  36.445  25.808  1.00  0.00    -0.237 OA
ATOM     99  O   UNL A   1      46.532  38.052  27.664  1.00  0.00    -0.744 OA
ENDBRANCH  92  96
ENDBRANCH  66  89
ENDBRANCH  40  41
ENDBRANCH  32  35
ENDBRANCH  30  31
ENDBRANCH  29  30
ENDBRANCH  28  29
ENDBRANCH   1  28
TORSDOF 19
ENDMDL
MODEL 2
REMARK VINA RESULT:     -10.7      7.349     12.983
REMARK SMILES O=C(COc1ccc(-c2cc3cc(Br)ccc3oc2=O)cc1)NCCCCCCNC(=O)c1ccc(-c2c3nc(c(-c4cc(S(=O)(=O)[O-])ccc4F)c4ccc([nH]4)c(-c4cc(S(=O)(=O)[O-])ccc4F)c4nc(c(-c5cc(S(=O)(=O)[O-])ccc5F)c5ccc2[nH]5)C=C4)C=C3)cc1
REMARK SMILES IDX 26 1 25 2 24 3 23 4 1 5 2 6 3 8 4 9 5 10 6 11 22 12 7 13
REMARK SMILES IDX 21 14 8 15 9 16 10 17 19 18 11 19 18 20 20 21 12 22 17 23
REMARK SMILES IDX 13 24 16 25 14 26 15 27 27 28 28 29 29 30 30 31 31 32 32 34
REMARK SMILES IDX 33 35 34 36 95 37 35 38 94 39 36 40 37 41 38 42 88 43 39 44
REMARK SMILES IDX 93 45 87 46 89 47 40 48 92 49 86 50 85 51 41 53 73 54 53 55
REMARK SMILES IDX 72 56 54 57 57 58 71 59 90 60 55 61 56 62 70 64 91 65 58 66
REMARK SMILES IDX 42 67 43 68 51 69 44 70 50 71 52 72 49 73 45 74 46 75 47 76
REMARK SMILES IDX 48 77 74 78 75 79 83 80 76 81 82 82 84 83 81 84 77 85 78 86
REMARK SMILES IDX 79 87 80 88 59 89 60 90 68 91 61 92 67 93 69 94 66 95 62 96
REMARK SMILES IDX 63 97 64 98 65 99
REMARK H PARENT 23 7 30 33 89 52 57 63
REMARK Flexibility Score: inf
ROOT
ATOM      1  C   UNL A   1      34.772  34.628  28.035  1.00  0.00     0.002 C 
ENDROOT
BRANCH   1   2
ATOM      2  C   UNL A   1      35.655  33.904  29.056  1.00  0.00     0.021 C 
BRANCH   2   3
ATOM      3  C   UNL A   1      36.132  32.522  28.612  1.00  0.00     0.116 C 
BRANCH   3   4
ATOM      4  N   UNL A   1      35.097  31.755  27.946  1.00  0.00    -0.353 N 
ATOM      5  O   UNL A   1      36.459  30.005  27.359  1.00  0.00    -0.271 OA
ATOM      6  C   UNL A   1      35.340  30.510  27.411  1.00  0.00     0.257 C 
ATOM      7  H   UNL A   1      34.193  32.138  27.873  1.00  0.00     0.163 HD
BRANCH   6   8
ATOM      8  C   UNL A   1      34.102  29.769  26.883  1.00  0.00     0.329 C 
BRANCH   8   9
ATOM      9  O   UNL A   1      33.664  28.585  27.532  1.00  0.00    -0.484 OA
BRANCH   9  10
ATOM     10  C   UNL A   1      33.089  27.605  26.774  1.00  0.00     0.120 A 
ATOM     11  C   UNL A   1      31.706  27.482  26.918  1.00  0.00     0.047 A 
ATOM     12  C   UNL A   1      33.762  26.691  25.970  1.00  0.00     0.047 A 
ATOM     13  C   UNL A   1      31.028  26.383  26.381  1.00  0.00     0.013 A 
ATOM     14  C   UNL A   1      33.084  25.596  25.427  1.00  0.00     0.013 A 
ATOM     15  C   UNL A   1      31.729  25.374  25.706  1.00  0.00    -0.011 A 
BRANCH  15  16
ATOM     16  C   UNL A   1      31.053  24.048  25.532  1.00  0.00     0.068 A 
ATOM     17  C   UNL A   1      31.571  22.984  24.870  1.00  0.00     0.028 A 
ATOM     18  C   UNL A   1      30.544  23.506  26.849  1.00  0.00     0.344 A 
ATOM     19  C   UNL A   1      32.752  22.433  25.572  1.00  0.00     0.019 A 
ATOM     20  O   UNL A   1      31.567  22.944  27.633  1.00  0.00    -0.422 OA
ATOM     21  O   UNL A   1      29.389  23.643  27.228  1.00  0.00    -0.246 OA
ATOM     22  C   UNL A   1      33.882  21.971  24.905  1.00  0.00     0.027 A 
ATOM     23  C   UNL A   1      32.751  22.536  26.973  1.00  0.00     0.138 A 
ATOM     24  C   UNL A   1      35.033  21.707  25.650  1.00  0.00     0.018 A 
ATOM     25  C   UNL A   1      33.898  22.289  27.715  1.00  0.00     0.049 A 
ATOM     26  Br  UNL A   1      36.603  21.151  24.756  1.00  0.00    -0.051 Br
ATOM     27  C   UNL A   1      35.054  21.889  27.040  1.00  0.00     0.019 A 
ENDBRANCH  15  16
ENDBRANCH   9  10
ENDBRANCH   8   9
ENDBRANCH   6   8
ENDBRANCH   3   4
ENDBRANCH   2   3
ENDBRANCH   1   2
BRANCH   1  28
ATOM     28  C   UNL A   1      33.363  34.986  28.520  1.00  0.00     0.002 C 
BRANCH  28  29
ATOM     29  C   UNL A   1      33.146  36.459  28.877  1.00  0.00     0.021 C 
BRANCH  29  30
ATOM     30  C   UNL A   1      33.525  36.840  30.305  1.00  0.00     0.116 C 
BRANCH  30  31
ATOM     31  N   UNL A   1      32.513  36.445  31.272  1.00  0.00    -0.352 N 
ATOM     32  C   UNL A   1      32.573  35.475  32.248  1.00  0.00     0.251 C 
ATOM     33  H   UNL A   1      31.666  36.942  31.222  1.00  0.00     0.163 HD
ATOM     34  O   UNL A   1      31.562  35.159  32.857  1.00  0.00    -0.269 OA
BRANCH  32  35
ATOM     35  C   UNL A   1      33.862  34.801  32.532  1.00  0.00     0.039 A 
ATOM     36  C   UNL A   1      35.049  35.529  32.412  1.00  0.00     0.014 A 
ATOM     37  C   UNL A   1      33.899  33.460  32.922  1.00  0.00     0.014 A 
ATOM     38  C   UNL A   1      36.267  34.930  32.749  1.00  0.00     0.010 A 
ATOM     39  C   UNL A   1      35.103  32.890  33.327  1.00  0.00     0.010 A 
ATOM     40  C   UNL A   1      36.302  33.617  33.245  1.00  0.00    -0.014 A 
BRANCH  40  41
ATOM     41  C   UNL A   1      37.576  32.976  33.669  1.00  0.00     0.031 A 
ATOM     42  C   UNL A   1      38.153  31.848  32.854  1.00  0.00     0.074 A 
ATOM     43  C   UNL A   1      38.174  33.357  34.817  1.00  0.00     0.049 A 
ATOM     44  N   UNL A   1      39.182  31.082  33.112  1.00  0.00    -0.248 NA
ATOM     45  C   UNL A   1      37.462  31.520  31.596  1.00  0.00     0.031 C 
ATOM     46  C   UNL A   1      37.701  34.423  35.704  1.00  0.00     0.029 A 
ATOM     47  N   UNL A   1      39.303  32.887  35.443  1.00  0.00    -0.354 N 
ATOM     48  C   UNL A   1      39.251  30.172  32.062  1.00  0.00     0.074 A 
ATOM     49  C   UNL A   1      38.128  30.449  31.193  1.00  0.00     0.031 C 
ATOM     50  C   UNL A   1      38.540  34.534  36.746  1.00  0.00     0.029 A 
ATOM     51  C   UNL A   1      39.579  33.514  36.637  1.00  0.00     0.049 A 
ATOM     52  H   UNL A   1      39.862  32.166  35.073  1.00  0.00     0.167 HD
ATOM     53  C   UNL A   1      40.175  29.207  31.837  1.00  0.00     0.034 A 
ATOM     54  C   UNL A   1      40.546  33.282  37.549  1.00  0.00     0.034 A 
ATOM     55  C   UNL A   1      41.302  28.957  32.703  1.00  0.00     0.049 A 
ATOM     56  C   UNL A   1      41.542  32.176  37.290  1.00  0.00     0.074 A 
ATOM     57  C   UNL A   1      42.326  28.042  32.535  1.00  0.00     0.029 A 
ATOM     58  N   UNL A   1      41.550  29.617  33.898  1.00  0.00    -0.354 N 
ATOM     59  N   UNL A   1      41.617  31.355  36.268  1.00  0.00    -0.248 NA
ATOM     60  C   UNL A   1      42.590  31.973  38.299  1.00  0.00     0.031 C 
ATOM     61  C   UNL A   1      43.148  28.094  33.665  1.00  0.00     0.029 A 
ATOM     62  C   UNL A   1      42.692  29.105  34.494  1.00  0.00     0.049 A 
ATOM     63  H   UNL A   1      40.996  30.342  34.270  1.00  0.00     0.167 HD
ATOM     64  C   UNL A   1      42.747  30.571  36.493  1.00  0.00     0.074 A 
ATOM     65  C   UNL A   1      43.326  31.024  37.739  1.00  0.00     0.031 C 
ATOM     66  C   UNL A   1      43.265  29.574  35.733  1.00  0.00     0.034 A 
BRANCH  53  67
ATOM     67  C   UNL A   1      39.996  28.329  30.621  1.00  0.00     0.023 A 
ATOM     68  C   UNL A   1      40.693  28.567  29.425  1.00  0.00     0.031 A 
ATOM     69  C   UNL A   1      39.122  27.228  30.666  1.00  0.00     0.131 A 
ATOM     70  C   UNL A   1      40.464  27.751  28.307  1.00  0.00     0.055 A 
ATOM     71  C   UNL A   1      38.958  26.373  29.576  1.00  0.00     0.041 A 
ATOM     72  F   UNL A   1      38.411  26.964  31.775  1.00  0.00    -0.206 F 
ATOM     73  C   UNL A   1      39.623  26.639  28.382  1.00  0.00     0.022 A 
BRANCH  70  74
ATOM     74  S   UNL A   1      41.189  28.234  26.717  1.00  0.00     0.124 S 
ATOM     75  O   UNL A   1      42.451  28.837  27.141  1.00  0.00    -0.237 OA
ATOM     76  O   UNL A   1      41.295  26.959  26.017  1.00  0.00    -0.237 OA
ATOM     77  O   UNL A   1      40.214  29.171  26.165  1.00  0.00    -0.744 OA
ENDBRANCH  70  74
ENDBRANCH  53  67
BRANCH  54  78
ATOM     78  C   UNL A   1      40.619  34.083  38.809  1.00  0.00     0.023 A 
ATOM     79  C   UNL A   1      39.811  33.766  39.913  1.00  0.00     0.031 A 
ATOM     80  C   UNL A   1      41.436  35.224  38.900  1.00  0.00     0.131 A 
ATOM     81  C   UNL A   1      39.780  34.619  41.028  1.00  0.00     0.055 A 
ATOM     82  C   UNL A   1      41.454  36.030  40.040  1.00  0.00     0.041 A 
ATOM     83  F   UNL A   1      42.230  35.577  37.877  1.00  0.00    -0.206 F 
ATOM     84  C   UNL A   1      40.607  35.741  41.105  1.00  0.00     0.022 A 
BRANCH  81  85
ATOM     85  S   UNL A   1      38.540  34.315  42.317  1.00  0.00     0.124 S 
ATOM     86  O   UNL A   1      38.588  32.862  42.436  1.00  0.00    -0.237 OA
ATOM     87  O   UNL A   1      39.082  35.070  43.441  1.00  0.00    -0.237 OA
ATOM     88  O   UNL A   1      37.310  34.854  41.739  1.00  0.00    -0.744 OA
ENDBRANCH  81  85
ENDBRANCH  54  78
BRANCH  66  89
ATOM     89  C   UNL A   1      44.565  28.955  36.189  1.00  0.00     0.023 A 
ATOM     90  C   UNL A   1      44.607  27.755  36.919  1.00  0.00     0.031 A 
ATOM     91  C   UNL A   1      45.785  29.580  35.874  1.00  0.00     0.131 A 
ATOM     92  C   UNL A   1      45.839  27.244  37.352  1.00  0.00     0.055 A 
ATOM     93  C   UNL A   1      47.012  29.033  36.252  1.00  0.00     0.041 A 
ATOM     94  F   UNL A   1      45.805  30.731  35.183  1.00  0.00    -0.206 F 
ATOM     95  C   UNL A   1      47.043  27.864  37.007  1.00  0.00     0.022 A 
BRANCH  92  96
ATOM     96  S   UNL A   1      45.849  25.798  38.449  1.00  0.00     0.124 S 
ATOM     97  O   UNL A   1      45.409  26.376  39.715  1.00  0.00    -0.237 OA
ATOM     98  O   UNL A   1      44.903  24.902  37.794  1.00  0.00    -0.237 OA
ATOM     99  O   UNL A   1      47.242  25.355  38.420  1.00  0.00    -0.744 OA
ENDBRANCH  92  96
ENDBRANCH  66  89
ENDBRANCH  40  41
ENDBRANCH  32  35
ENDBRANCH  30  31
ENDBRANCH  29  30
ENDBRANCH  28  29
ENDBRANCH   1  28
TORSDOF 19
ENDMDL
MODEL 3
REMARK VINA RESULT:     -10.3      5.183     10.523
REMARK SMILES O=C(COc1ccc(-c2cc3cc(Br)ccc3oc2=O)cc1)NCCCCCCNC(=O)c1ccc(-c2c3nc(c(-c4cc(S(=O)(=O)[O-])ccc4F)c4ccc([nH]4)c(-c4cc(S(=O)(=O)[O-])ccc4F)c4nc(c(-c5cc(S(=O)(=O)[O-])ccc5F)c5ccc2[nH]5)C=C4)C=C3)cc1
REMARK SMILES IDX 26 1 25 2 24 3 23 4 1 5 2 6 3 8 4 9 5 10 6 11 22 12 7 13
REMARK SMILES IDX 21 14 8 15 9 16 10 17 19 18 11 19 18 20 20 21 12 22 17 23
REMARK SMILES IDX 13 24 16 25 14 26 15 27 27 28 28 29 29 30 30 31 31 32 32 34
REMARK SMILES IDX 33 35 34 36 95 37 35 38 94 39 36 40 37 41 38 42 88 43 39 44
REMARK SMILES IDX 93 45 87 46 89 47 40 48 92 49 86 50 85 51 41 53 73 54 53 55
REMARK SMILES IDX 72 56 54 57 57 58 71 59 90 60 55 61 56 62 70 64 91 65 58 66
REMARK SMILES IDX 42 67 43 68 51 69 44 70 50 71 52 72 49 73 45 74 46 75 47 76
REMARK SMILES IDX 48 77 74 78 75 79 83 80 76 81 82 82 84 83 81 84 77 85 78 86
REMARK SMILES IDX 79 87 80 88 59 89 60 90 68 91 61 92 67 93 69 94 66 95 62 96
REMARK SMILES IDX 63 97 64 98 65 99
REMARK H PARENT 23 7 30 33 89 52 57 63
REMARK Flexibility Score: inf
ROOT
ATOM      1  C   UNL A   1      39.245  33.680  32.061  1.00  0.00     0.002 C 
ENDROOT
BRANCH   1   2
ATOM      2  C   UNL A   1      38.739  34.351  30.780  1.00  0.00     0.021 C 
BRANCH   2   3
ATOM      3  C   UNL A   1      37.303  33.993  30.403  1.00  0.00     0.116 C 
BRANCH   3   4
ATOM      4  N   UNL A   1      37.190  32.684  29.789  1.00  0.00    -0.353 N 
ATOM      5  O   UNL A   1      35.962  31.746  31.485  1.00  0.00    -0.271 OA
ATOM      6  C   UNL A   1      36.468  31.665  30.368  1.00  0.00     0.257 C 
ATOM      7  H   UNL A   1      37.646  32.519  28.932  1.00  0.00     0.163 HD
BRANCH   6   8
ATOM      8  C   UNL A   1      36.320  30.397  29.513  1.00  0.00     0.329 C 
BRANCH   8   9
ATOM      9  O   UNL A   1      36.969  29.200  29.915  1.00  0.00    -0.484 OA
BRANCH   9  10
ATOM     10  C   UNL A   1      38.120  28.840  29.273  1.00  0.00     0.120 A 
ATOM     11  C   UNL A   1      39.021  28.105  30.044  1.00  0.00     0.047 A 
ATOM     12  C   UNL A   1      38.489  29.215  27.986  1.00  0.00     0.047 A 
ATOM     13  C   UNL A   1      40.323  27.871  29.589  1.00  0.00     0.013 A 
ATOM     14  C   UNL A   1      39.788  28.975  27.527  1.00  0.00     0.013 A 
ATOM     15  C   UNL A   1      40.750  28.387  28.358  1.00  0.00    -0.011 A 
BRANCH  15  16
ATOM     16  C   UNL A   1      42.226  28.482  28.113  1.00  0.00     0.068 A 
ATOM     17  C   UNL A   1      43.143  27.550  28.469  1.00  0.00     0.028 A 
ATOM     18  C   UNL A   1      42.528  28.827  26.671  1.00  0.00     0.344 A 
ATOM     19  C   UNL A   1      42.968  26.296  27.701  1.00  0.00     0.019 A 
ATOM     20  O   UNL A   1      42.401  27.720  25.813  1.00  0.00    -0.422 OA
ATOM     21  O   UNL A   1      42.751  29.967  26.287  1.00  0.00    -0.246 OA
ATOM     22  C   UNL A   1      43.120  25.035  28.266  1.00  0.00     0.027 A 
ATOM     23  C   UNL A   1      42.483  26.430  26.390  1.00  0.00     0.138 A 
ATOM     24  C   UNL A   1      42.693  23.923  27.538  1.00  0.00     0.018 A 
ATOM     25  C   UNL A   1      42.043  25.328  25.668  1.00  0.00     0.049 A 
ATOM     26  Br  UNL A   1      42.821  22.205  28.316  1.00  0.00    -0.051 Br
ATOM     27  C   UNL A   1      42.133  24.066  26.261  1.00  0.00     0.019 A 
ENDBRANCH  15  16
ENDBRANCH   9  10
ENDBRANCH   8   9
ENDBRANCH   6   8
ENDBRANCH   3   4
ENDBRANCH   2   3
ENDBRANCH   1   2
BRANCH   1  28
ATOM     28  C   UNL A   1      39.671  34.635  33.180  1.00  0.00     0.002 C 
BRANCH  28  29
ATOM     29  C   UNL A   1      38.700  34.741  34.359  1.00  0.00     0.021 C 
BRANCH  29  30
ATOM     30  C   UNL A   1      37.501  33.800  34.294  1.00  0.00     0.116 C 
BRANCH  30  31
ATOM     31  N   UNL A   1      37.382  32.968  35.481  1.00  0.00    -0.352 N 
ATOM     32  C   UNL A   1      38.004  31.775  35.773  1.00  0.00     0.251 C 
ATOM     33  H   UNL A   1      36.770  33.306  36.173  1.00  0.00     0.163 HD
ATOM     34  O   UNL A   1      37.649  31.124  36.746  1.00  0.00    -0.269 OA
BRANCH  32  35
ATOM     35  C   UNL A   1      39.081  31.275  34.888  1.00  0.00     0.039 A 
ATOM     36  C   UNL A   1      38.740  30.518  33.764  1.00  0.00     0.014 A 
ATOM     37  C   UNL A   1      40.422  31.558  35.160  1.00  0.00     0.014 A 
ATOM     38  C   UNL A   1      39.738  30.103  32.877  1.00  0.00     0.010 A 
ATOM     39  C   UNL A   1      41.406  31.208  34.238  1.00  0.00     0.010 A 
ATOM     40  C   UNL A   1      41.076  30.475  33.086  1.00  0.00    -0.014 A 
BRANCH  40  41
ATOM     41  C   UNL A   1      42.150  30.100  32.127  1.00  0.00     0.031 A 
ATOM     42  C   UNL A   1      42.875  28.789  32.291  1.00  0.00     0.074 A 
ATOM     43  C   UNL A   1      42.520  30.961  31.156  1.00  0.00     0.049 A 
ATOM     44  N   UNL A   1      43.912  28.330  31.640  1.00  0.00    -0.248 NA
ATOM     45  C   UNL A   1      42.384  27.890  33.348  1.00  0.00     0.031 C 
ATOM     46  C   UNL A   1      41.909  32.270  30.909  1.00  0.00     0.029 A 
ATOM     47  N   UNL A   1      43.506  30.875  30.204  1.00  0.00    -0.354 N 
ATOM     48  C   UNL A   1      44.210  27.100  32.219  1.00  0.00     0.074 A 
ATOM     49  C   UNL A   1      43.275  26.912  33.308  1.00  0.00     0.031 C 
ATOM     50  C   UNL A   1      42.521  32.852  29.865  1.00  0.00     0.029 A 
ATOM     51  C   UNL A   1      43.605  31.990  29.403  1.00  0.00     0.049 A 
ATOM     52  H   UNL A   1      44.089  30.088  30.104  1.00  0.00     0.167 HD
ATOM     53  C   UNL A   1      45.163  26.205  31.864  1.00  0.00     0.034 A 
ATOM     54  C   UNL A   1      44.480  32.293  28.421  1.00  0.00     0.034 A 
ATOM     55  C   UNL A   1      46.073  26.398  30.761  1.00  0.00     0.049 A 
ATOM     56  C   UNL A   1      45.555  31.291  28.069  1.00  0.00     0.074 A 
ATOM     57  C   UNL A   1      47.037  25.528  30.282  1.00  0.00     0.029 A 
ATOM     58  N   UNL A   1      46.139  27.537  29.971  1.00  0.00    -0.354 N 
ATOM     59  N   UNL A   1      45.793  30.114  28.600  1.00  0.00    -0.248 NA
ATOM     60  C   UNL A   1      46.473  31.653  26.981  1.00  0.00     0.031 C 
ATOM     61  C   UNL A   1      47.737  26.171  29.256  1.00  0.00     0.029 A 
ATOM     62  C   UNL A   1      47.148  27.404  29.030  1.00  0.00     0.049 A 
ATOM     63  H   UNL A   1      45.554  28.324  30.064  1.00  0.00     0.167 HD
ATOM     64  C   UNL A   1      46.856  29.578  27.875  1.00  0.00     0.074 A 
ATOM     65  C   UNL A   1      47.207  30.556  26.868  1.00  0.00     0.031 C 
ATOM     66  C   UNL A   1      47.481  28.384  28.023  1.00  0.00     0.034 A 
BRANCH  53  67
ATOM     67  C   UNL A   1      45.291  24.946  32.688  1.00  0.00     0.023 A 
ATOM     68  C   UNL A   1      46.173  24.860  33.778  1.00  0.00     0.031 A 
ATOM     69  C   UNL A   1      44.507  23.819  32.384  1.00  0.00     0.131 A 
ATOM     70  C   UNL A   1      46.290  23.657  34.490  1.00  0.00     0.055 A 
ATOM     71  C   UNL A   1      44.570  22.651  33.145  1.00  0.00     0.041 A 
ATOM     72  F   UNL A   1      43.662  23.835  31.340  1.00  0.00    -0.206 F 
ATOM     73  C   UNL A   1      45.475  22.561  34.199  1.00  0.00     0.022 A 
BRANCH  70  74
ATOM     74  S   UNL A   1      47.608  23.504  35.726  1.00  0.00     0.124 S 
ATOM     75  O   UNL A   1      47.132  22.377  36.525  1.00  0.00    -0.237 OA
ATOM     76  O   UNL A   1      48.786  23.252  34.904  1.00  0.00    -0.237 OA
ATOM     77  O   UNL A   1      47.588  24.796  36.409  1.00  0.00    -0.744 OA
ENDBRANCH  70  74
ENDBRANCH  53  67
BRANCH  54  78
ATOM     78  C   UNL A   1      44.411  33.605  27.710  1.00  0.00     0.023 A 
ATOM     79  C   UNL A   1      44.789  34.796  28.352  1.00  0.00     0.031 A 
ATOM     80  C   UNL A   1      43.887  33.701  26.408  1.00  0.00     0.131 A 
ATOM     81  C   UNL A   1      44.571  36.032  27.725  1.00  0.00     0.055 A 
ATOM     82  C   UNL A   1      43.738  34.929  25.760  1.00  0.00     0.041 A 
ATOM     83  F   UNL A   1      43.508  32.598  25.744  1.00  0.00    -0.206 F 
ATOM     84  C   UNL A   1      44.062  36.106  26.427  1.00  0.00     0.022 A 
BRANCH  81  85
ATOM     85  S   UNL A   1      44.835  37.549  28.685  1.00  0.00     0.124 S 
ATOM     86  O   UNL A   1      44.305  37.169  29.989  1.00  0.00    -0.237 OA
ATOM     87  O   UNL A   1      46.282  37.711  28.601  1.00  0.00    -0.237 OA
ATOM     88  O   UNL A   1      44.053  38.549  27.960  1.00  0.00    -0.744 OA
ENDBRANCH  81  85
ENDBRANCH  54  78
BRANCH  66  89
ATOM     89  C   UNL A   1      48.558  28.032  27.025  1.00  0.00     0.023 A 
ATOM     90  C   UNL A   1      49.910  28.349  27.240  1.00  0.00     0.031 A 
ATOM     91  C   UNL A   1      48.217  27.357  25.838  1.00  0.00     0.131 A 
ATOM     92  C   UNL A   1      50.864  28.035  26.261  1.00  0.00     0.055 A 
ATOM     93  C   UNL A   1      49.180  26.989  24.898  1.00  0.00     0.041 A 
ATOM     94  F   UNL A   1      46.941  27.032  25.579  1.00  0.00    -0.206 F 
ATOM     95  C   UNL A   1      50.512  27.340  25.101  1.00  0.00     0.022 A 
BRANCH  92  96
ATOM     96  S   UNL A   1      52.567  28.622  26.481  1.00  0.00     0.124 S 
ATOM     97  O   UNL A   1      53.310  27.742  25.585  1.00  0.00    -0.237 OA
ATOM     98  O   UNL A   1      52.472  30.019  26.070  1.00  0.00    -0.237 OA
ATOM     99  O   UNL A   1      52.820  28.414  27.907  1.00  0.00    -0.744 OA
ENDBRANCH  92  96
ENDBRANCH  66  89
ENDBRANCH  40  41
ENDBRANCH  32  35
ENDBRANCH  30  31
ENDBRANCH  29  30
ENDBRANCH  28  29
ENDBRANCH   1  28
TORSDOF 19
ENDMDL
