MODEL 1
REMARK VINA RESULT:     -10.1      0.000      0.000
REMARK SMILES CCN(CCC(=O)NCCCCCCNC(=O)c1ccc(-c2c3nc(c(-c4cc(S(=O)(=O)[O-])ccc4F)c4ccc([nH]4)c(-c4cc(S(=O)(=O)[O-])ccc4F)c4nc(c(-c5cc(S(=O)(=O)[O-])ccc5F)c5ccc2[nH]5)C=C4)C=C3)cc1)C(=O)c1cc(Cl)ccc1F
REMARK SMILES IDX 11 1 10 2 9 3 8 4 6 5 7 6 5 8 4 9 3 10 2 11 1 12 81 13 82 14
REMARK SMILES IDX 83 15 84 16 89 17 85 18 88 19 90 20 86 21 87 22 12 23 13 24
REMARK SMILES IDX 14 25 15 26 16 27 17 29 18 30 19 31 80 32 20 33 79 34 21 35
REMARK SMILES IDX 22 36 23 37 73 38 24 39 78 40 72 41 74 42 25 43 77 44 71 45
REMARK SMILES IDX 70 46 26 48 58 49 38 50 57 51 39 52 42 53 56 54 75 55 40 56
REMARK SMILES IDX 41 57 55 59 76 60 43 61 27 62 28 63 36 64 29 65 35 66 37 67
REMARK SMILES IDX 34 68 30 69 31 70 32 71 33 72 59 73 60 74 68 75 61 76 67 77
REMARK SMILES IDX 69 78 66 79 62 80 63 81 64 82 65 83 44 84 45 85 53 86 46 87
REMARK SMILES IDX 52 88 54 89 51 90 47 91 48 92 49 93 50 94
REMARK H PARENT 8 7 15 28 74 47 42 58
REMARK Flexibility Score: inf
ROOT
ATOM      1  C   UNL A   1      40.579  22.985  26.548  1.00  0.00     0.002 C 
ENDROOT
BRANCH   1   2
ATOM      2  C   UNL A   1      39.369  23.920  26.608  1.00  0.00     0.021 C 
BRANCH   2   3
ATOM      3  C   UNL A   1      38.011  23.300  26.303  1.00  0.00     0.116 C 
BRANCH   3   4
ATOM      4  N   UNL A   1      37.752  23.178  24.879  1.00  0.00    -0.356 N 
ATOM      5  C   UNL A   1      36.816  22.441  24.213  1.00  0.00     0.221 C 
ATOM      6  O   UNL A   1      36.685  22.625  22.999  1.00  0.00    -0.275 OA
ATOM      7  H   UNL A   1      38.347  23.711  24.302  1.00  0.00     0.163 HD
BRANCH   5   8
ATOM      8  C   UNL A   1      35.940  21.437  24.934  1.00  0.00     0.121 C 
BRANCH   8   9
ATOM      9  C   UNL A   1      34.777  22.020  25.760  1.00  0.00     0.129 C 
BRANCH   9  10
ATOM     10  N   UNL A   1      33.476  22.108  25.069  1.00  0.00    -0.338 N 
BRANCH  10  11
ATOM     11  C   UNL A   1      33.279  23.404  24.368  1.00  0.00     0.116 C 
ATOM     12  C   UNL A   1      34.106  24.636  24.710  1.00  0.00     0.027 C 
ENDBRANCH  10  11
BRANCH  10  13
ATOM     13  C   UNL A   1      32.518  21.077  24.950  1.00  0.00     0.256 C 
ATOM     14  O   UNL A   1      31.450  21.166  25.569  1.00  0.00    -0.269 OA
BRANCH  13  15
ATOM     15  C   UNL A   1      32.648  19.776  24.192  1.00  0.00     0.077 A 
ATOM     16  C   UNL A   1      33.369  18.751  24.858  1.00  0.00     0.037 A 
ATOM     17  C   UNL A   1      32.277  19.489  22.880  1.00  0.00     0.136 A 
ATOM     18  C   UNL A   1      33.676  17.533  24.242  1.00  0.00     0.042 A 
ATOM     19  C   UNL A   1      32.555  18.259  22.267  1.00  0.00     0.041 A 
ATOM     20  F   UNL A   1      31.678  20.372  22.093  1.00  0.00    -0.206 F 
ATOM     21  Cl  UNL A   1      34.601  16.352  25.083  1.00  0.00    -0.084 Cl
ATOM     22  C   UNL A   1      33.261  17.277  22.944  1.00  0.00     0.023 A 
ENDBRANCH  13  15
ENDBRANCH  10  13
ENDBRANCH   9  10
ENDBRANCH   8   9
ENDBRANCH   5   8
ENDBRANCH   3   4
ENDBRANCH   2   3
ENDBRANCH   1   2
BRANCH   1  23
ATOM     23  C   UNL A   1      40.337  21.548  27.016  1.00  0.00     0.002 C 
BRANCH  23  24
ATOM     24  C   UNL A   1      40.830  20.442  26.079  1.00  0.00     0.021 C 
BRANCH  24  25
ATOM     25  C   UNL A   1      42.091  19.703  26.529  1.00  0.00     0.116 C 
BRANCH  25  26
ATOM     26  N   UNL A   1      43.042  19.522  25.447  1.00  0.00    -0.352 N 
ATOM     27  C   UNL A   1      43.888  20.419  24.842  1.00  0.00     0.251 C 
ATOM     28  H   UNL A   1      43.087  18.606  25.089  1.00  0.00     0.163 HD
ATOM     29  O   UNL A   1      44.450  20.089  23.799  1.00  0.00    -0.269 OA
BRANCH  27  30
ATOM     30  C   UNL A   1      44.114  21.773  25.402  1.00  0.00     0.039 A 
ATOM     31  C   UNL A   1      43.784  22.882  24.617  1.00  0.00     0.014 A 
ATOM     32  C   UNL A   1      44.707  21.972  26.653  1.00  0.00     0.014 A 
ATOM     33  C   UNL A   1      43.995  24.177  25.102  1.00  0.00     0.010 A 
ATOM     34  C   UNL A   1      44.852  23.265  27.166  1.00  0.00     0.010 A 
ATOM     35  C   UNL A   1      44.507  24.383  26.394  1.00  0.00    -0.014 A 
BRANCH  35  36
ATOM     36  C   UNL A   1      44.681  25.764  26.924  1.00  0.00     0.031 A 
ATOM     37  C   UNL A   1      46.023  26.447  26.876  1.00  0.00     0.074 A 
ATOM     38  C   UNL A   1      43.628  26.401  27.474  1.00  0.00     0.049 A 
ATOM     39  N   UNL A   1      46.349  27.659  27.248  1.00  0.00    -0.248 NA
ATOM     40  C   UNL A   1      47.150  25.652  26.368  1.00  0.00     0.031 C 
ATOM     41  C   UNL A   1      42.288  25.830  27.635  1.00  0.00     0.029 A 
ATOM     42  N   UNL A   1      43.512  27.667  27.993  1.00  0.00    -0.354 N 
ATOM     43  C   UNL A   1      47.719  27.771  27.030  1.00  0.00     0.074 A 
ATOM     44  C   UNL A   1      48.168  26.480  26.551  1.00  0.00     0.031 C 
ATOM     45  C   UNL A   1      41.477  26.757  28.170  1.00  0.00     0.029 A 
ATOM     46  C   UNL A   1      42.241  27.975  28.421  1.00  0.00     0.049 A 
ATOM     47  H   UNL A   1      44.268  28.295  28.053  1.00  0.00     0.167 HD
ATOM     48  C   UNL A   1      48.524  28.853  27.192  1.00  0.00     0.034 A 
ATOM     49  C   UNL A   1      41.742  29.113  28.942  1.00  0.00     0.034 A 
ATOM     50  C   UNL A   1      48.060  30.140  27.657  1.00  0.00     0.049 A 
ATOM     51  C   UNL A   1      42.649  30.307  29.101  1.00  0.00     0.074 A 
ATOM     52  C   UNL A   1      48.772  31.320  27.785  1.00  0.00     0.029 A 
ATOM     53  N   UNL A   1      46.765  30.415  28.080  1.00  0.00    -0.354 N 
ATOM     54  N   UNL A   1      43.926  30.420  28.816  1.00  0.00    -0.248 NA
ATOM     55  C   UNL A   1      42.039  31.531  29.633  1.00  0.00     0.031 C 
ATOM     56  C   UNL A   1      47.929  32.288  28.346  1.00  0.00     0.029 A 
ATOM     57  C   UNL A   1      46.668  31.734  28.499  1.00  0.00     0.049 A 
ATOM     58  H   UNL A   1      46.024  29.767  28.081  1.00  0.00     0.167 HD
ATOM     59  C   UNL A   1      44.261  31.740  29.102  1.00  0.00     0.074 A 
ATOM     60  C   UNL A   1      43.050  32.384  29.570  1.00  0.00     0.031 C 
ATOM     61  C   UNL A   1      45.460  32.365  28.978  1.00  0.00     0.034 A 
BRANCH  48  62
ATOM     62  C   UNL A   1      49.995  28.675  26.889  1.00  0.00     0.023 A 
ATOM     63  C   UNL A   1      50.520  28.904  25.605  1.00  0.00     0.031 A 
ATOM     64  C   UNL A   1      50.880  28.237  27.890  1.00  0.00     0.131 A 
ATOM     65  C   UNL A   1      51.866  28.612  25.335  1.00  0.00     0.055 A 
ATOM     66  C   UNL A   1      52.238  28.030  27.636  1.00  0.00     0.041 A 
ATOM     67  F   UNL A   1      50.438  27.986  29.133  1.00  0.00    -0.206 F 
ATOM     68  C   UNL A   1      52.735  28.200  26.347  1.00  0.00     0.022 A 
BRANCH  65  69
ATOM     69  S   UNL A   1      52.426  28.627  23.609  1.00  0.00     0.124 S 
ATOM     70  O   UNL A   1      52.740  27.217  23.389  1.00  0.00    -0.237 OA
ATOM     71  O   UNL A   1      51.257  29.140  22.903  1.00  0.00    -0.237 OA
ATOM     72  O   UNL A   1      53.584  29.517  23.632  1.00  0.00    -0.744 OA
ENDBRANCH  65  69
ENDBRANCH  48  62
BRANCH  49  73
ATOM     73  C   UNL A   1      40.305  29.196  29.326  1.00  0.00     0.023 A 
ATOM     74  C   UNL A   1      39.909  29.062  30.666  1.00  0.00     0.031 A 
ATOM     75  C   UNL A   1      39.306  29.380  28.355  1.00  0.00     0.131 A 
ATOM     76  C   UNL A   1      38.545  29.076  30.996  1.00  0.00     0.055 A 
ATOM     77  C   UNL A   1      37.953  29.438  28.695  1.00  0.00     0.041 A 
ATOM     78  F   UNL A   1      39.634  29.523  27.062  1.00  0.00    -0.206 F 
ATOM     79  C   UNL A   1      37.566  29.275  30.021  1.00  0.00     0.022 A 
BRANCH  76  80
ATOM     80  S   UNL A   1      38.065  28.766  32.718  1.00  0.00     0.124 S 
ATOM     81  O   UNL A   1      36.733  29.357  32.767  1.00  0.00    -0.237 OA
ATOM     82  O   UNL A   1      38.126  27.310  32.791  1.00  0.00    -0.237 OA
ATOM     83  O   UNL A   1      39.089  29.469  33.488  1.00  0.00    -0.744 OA
ENDBRANCH  76  80
ENDBRANCH  49  73
BRANCH  61  84
ATOM     84  C   UNL A   1      45.499  33.837  29.313  1.00  0.00     0.023 A 
ATOM     85  C   UNL A   1      45.272  34.826  28.339  1.00  0.00     0.031 A 
ATOM     86  C   UNL A   1      45.801  34.255  30.621  1.00  0.00     0.131 A 
ATOM     87  C   UNL A   1      45.413  36.182  28.673  1.00  0.00     0.055 A 
ATOM     88  C   UNL A   1      45.881  35.607  30.961  1.00  0.00     0.041 A 
ATOM     89  F   UNL A   1      46.029  33.355  31.590  1.00  0.00    -0.206 F 
ATOM     90  C   UNL A   1      45.702  36.579  29.981  1.00  0.00     0.022 A 
BRANCH  87  91
ATOM     91  S   UNL A   1      45.319  37.420  27.350  1.00  0.00     0.124 S 
ATOM     92  O   UNL A   1      46.229  36.868  26.351  1.00  0.00    -0.237 OA
ATOM     93  O   UNL A   1      43.902  37.398  27.002  1.00  0.00    -0.237 OA
ATOM     94  O   UNL A   1      45.779  38.648  27.995  1.00  0.00    -0.744 OA
ENDBRANCH  87  91
ENDBRANCH  61  84
ENDBRANCH  35  36
ENDBRANCH  27  30
ENDBRANCH  25  26
ENDBRANCH  24  25
ENDBRANCH  23  24
ENDBRANCH   1  23
TORSDOF 21
ENDMDL
MODEL 2
REMARK VINA RESULT:      -9.8      4.049      7.262
REMARK SMILES CCN(CCC(=O)NCCCCCCNC(=O)c1ccc(-c2c3nc(c(-c4cc(S(=O)(=O)[O-])ccc4F)c4ccc([nH]4)c(-c4cc(S(=O)(=O)[O-])ccc4F)c4nc(c(-c5cc(S(=O)(=O)[O-])ccc5F)c5ccc2[nH]5)C=C4)C=C3)cc1)C(=O)c1cc(Cl)ccc1F
REMARK SMILES IDX 11 1 10 2 9 3 8 4 6 5 7 6 5 8 4 9 3 10 2 11 1 12 81 13 82 14
REMARK SMILES IDX 83 15 84 16 89 17 85 18 88 19 90 20 86 21 87 22 12 23 13 24
REMARK SMILES IDX 14 25 15 26 16 27 17 29 18 30 19 31 80 32 20 33 79 34 21 35
REMARK SMILES IDX 22 36 23 37 73 38 24 39 78 40 72 41 74 42 25 43 77 44 71 45
REMARK SMILES IDX 70 46 26 48 58 49 38 50 57 51 39 52 42 53 56 54 75 55 40 56
REMARK SMILES IDX 41 57 55 59 76 60 43 61 27 62 28 63 36 64 29 65 35 66 37 67
REMARK SMILES IDX 34 68 30 69 31 70 32 71 33 72 59 73 60 74 68 75 61 76 67 77
REMARK SMILES IDX 69 78 66 79 62 80 63 81 64 82 65 83 44 84 45 85 53 86 46 87
REMARK SMILES IDX 52 88 54 89 51 90 47 91 48 92 49 93 50 94
REMARK H PARENT 8 7 15 28 74 47 42 58
REMARK Flexibility Score: inf
ROOT
ATOM      1  C   UNL A   1      42.644  18.569  27.256  1.00  0.00     0.002 C 
ENDROOT
BRANCH   1   2
ATOM      2  C   UNL A   1      43.774  18.080  26.348  1.00  0.00     0.021 C 
BRANCH   2   3
ATOM      3  C   UNL A   1      43.891  18.748  24.983  1.00  0.00     0.116 C 
BRANCH   3   4
ATOM      4  N   UNL A   1      45.268  18.954  24.570  1.00  0.00    -0.356 N 
ATOM      5  C   UNL A   1      46.083  20.038  24.726  1.00  0.00     0.221 C 
ATOM      6  O   UNL A   1      47.276  19.918  24.430  1.00  0.00    -0.275 OA
ATOM      7  H   UNL A   1      45.679  18.191  24.102  1.00  0.00     0.163 HD
BRANCH   5   8
ATOM      8  C   UNL A   1      45.557  21.352  25.265  1.00  0.00     0.121 C 
BRANCH   8   9
ATOM      9  C   UNL A   1      45.585  22.546  24.290  1.00  0.00     0.129 C 
BRANCH   9  10
ATOM     10  N   UNL A   1      46.196  23.785  24.805  1.00  0.00    -0.338 N 
BRANCH  10  11
ATOM     11  C   UNL A   1      47.514  24.083  24.183  1.00  0.00     0.116 C 
ATOM     12  C   UNL A   1      48.002  25.512  23.985  1.00  0.00     0.027 C 
ENDBRANCH  10  11
BRANCH  10  13
ATOM     13  C   UNL A   1      45.609  24.699  25.708  1.00  0.00     0.256 C 
ATOM     14  O   UNL A   1      45.159  25.769  25.283  1.00  0.00    -0.269 OA
BRANCH  13  15
ATOM     15  C   UNL A   1      45.514  24.581  27.212  1.00  0.00     0.077 A 
ATOM     16  C   UNL A   1      44.334  23.964  27.703  1.00  0.00     0.037 A 
ATOM     17  C   UNL A   1      46.358  25.113  28.185  1.00  0.00     0.136 A 
ATOM     18  C   UNL A   1      44.045  23.887  29.070  1.00  0.00     0.042 A 
ATOM     19  C   UNL A   1      46.089  25.012  29.557  1.00  0.00     0.041 A 
ATOM     20  F   UNL A   1      47.453  25.798  27.889  1.00  0.00    -0.206 F 
ATOM     21  Cl  UNL A   1      42.571  23.176  29.599  1.00  0.00    -0.084 Cl
ATOM     22  C   UNL A   1      44.928  24.403  30.005  1.00  0.00     0.023 A 
ENDBRANCH  13  15
ENDBRANCH  10  13
ENDBRANCH   9  10
ENDBRANCH   8   9
ENDBRANCH   5   8
ENDBRANCH   3   4
ENDBRANCH   2   3
ENDBRANCH   1   2
BRANCH   1  23
ATOM     23  C   UNL A   1      41.582  19.445  26.589  1.00  0.00     0.002 C 
BRANCH  23  24
ATOM     24  C   UNL A   1      41.344  20.818  27.225  1.00  0.00     0.021 C 
BRANCH  24  25
ATOM     25  C   UNL A   1      41.107  21.970  26.247  1.00  0.00     0.116 C 
BRANCH  25  26
ATOM     26  N   UNL A   1      39.701  22.156  25.942  1.00  0.00    -0.352 N 
ATOM     27  C   UNL A   1      38.839  23.169  26.285  1.00  0.00     0.251 C 
ATOM     28  H   UNL A   1      39.299  21.439  25.401  1.00  0.00     0.163 HD
ATOM     29  O   UNL A   1      37.634  23.009  26.096  1.00  0.00    -0.269 OA
BRANCH  27  30
ATOM     30  C   UNL A   1      39.325  24.430  26.897  1.00  0.00     0.039 A 
ATOM     31  C   UNL A   1      39.962  25.366  26.076  1.00  0.00     0.014 A 
ATOM     32  C   UNL A   1      39.226  24.677  28.270  1.00  0.00     0.014 A 
ATOM     33  C   UNL A   1      40.448  26.561  26.617  1.00  0.00     0.010 A 
ATOM     34  C   UNL A   1      39.648  25.902  28.797  1.00  0.00     0.010 A 
ATOM     35  C   UNL A   1      40.272  26.854  27.979  1.00  0.00    -0.014 A 
BRANCH  35  36
ATOM     36  C   UNL A   1      40.745  28.152  28.537  1.00  0.00     0.031 A 
ATOM     37  C   UNL A   1      42.216  28.429  28.707  1.00  0.00     0.074 A 
ATOM     38  C   UNL A   1      39.844  29.080  28.915  1.00  0.00     0.049 A 
ATOM     39  N   UNL A   1      42.810  29.516  29.133  1.00  0.00    -0.248 NA
ATOM     40  C   UNL A   1      43.137  27.331  28.382  1.00  0.00     0.031 C 
ATOM     41  C   UNL A   1      38.389  28.915  28.857  1.00  0.00     0.029 A 
ATOM     42  N   UNL A   1      40.012  30.348  29.416  1.00  0.00    -0.354 N 
ATOM     43  C   UNL A   1      44.173  29.231  29.137  1.00  0.00     0.074 A 
ATOM     44  C   UNL A   1      44.307  27.847  28.729  1.00  0.00     0.031 C 
ATOM     45  C   UNL A   1      37.801  30.052  29.260  1.00  0.00     0.029 A 
ATOM     46  C   UNL A   1      38.830  31.017  29.636  1.00  0.00     0.049 A 
ATOM     47  H   UNL A   1      40.896  30.741  29.599  1.00  0.00     0.167 HD
ATOM     48  C   UNL A   1      45.216  30.049  29.432  1.00  0.00     0.034 A 
ATOM     49  C   UNL A   1      38.599  32.269  30.077  1.00  0.00     0.034 A 
ATOM     50  C   UNL A   1      45.069  31.432  29.823  1.00  0.00     0.049 A 
ATOM     51  C   UNL A   1      39.771  33.166  30.385  1.00  0.00     0.074 A 
ATOM     52  C   UNL A   1      46.057  32.369  30.070  1.00  0.00     0.029 A 
ATOM     53  N   UNL A   1      43.856  32.076  30.035  1.00  0.00    -0.354 N 
ATOM     54  N   UNL A   1      41.055  32.906  30.308  1.00  0.00    -0.248 NA
ATOM     55  C   UNL A   1      39.457  34.533  30.818  1.00  0.00     0.031 C 
ATOM     56  C   UNL A   1      45.446  33.557  30.493  1.00  0.00     0.029 A 
ATOM     57  C   UNL A   1      44.072  33.385  30.440  1.00  0.00     0.049 A 
ATOM     58  H   UNL A   1      42.970  31.662  29.914  1.00  0.00     0.167 HD
ATOM     59  C   UNL A   1      41.702  34.089  30.650  1.00  0.00     0.074 A 
ATOM     60  C   UNL A   1      40.666  35.065  30.922  1.00  0.00     0.031 C 
ATOM     61  C   UNL A   1      43.033  34.348  30.723  1.00  0.00     0.034 A 
BRANCH  48  62
ATOM     62  C   UNL A   1      46.605  29.454  29.367  1.00  0.00     0.023 A 
ATOM     63  C   UNL A   1      47.433  29.626  28.244  1.00  0.00     0.031 A 
ATOM     64  C   UNL A   1      47.096  28.675  30.429  1.00  0.00     0.131 A 
ATOM     65  C   UNL A   1      48.666  28.960  28.172  1.00  0.00     0.055 A 
ATOM     66  C   UNL A   1      48.360  28.082  30.387  1.00  0.00     0.041 A 
ATOM     67  F   UNL A   1      46.347  28.459  31.523  1.00  0.00    -0.206 F 
ATOM     68  C   UNL A   1      49.146  28.208  29.246  1.00  0.00     0.022 A 
BRANCH  65  69
ATOM     69  S   UNL A   1      49.559  28.959  26.592  1.00  0.00     0.124 S 
ATOM     70  O   UNL A   1      50.625  27.995  26.857  1.00  0.00    -0.237 OA
ATOM     71  O   UNL A   1      48.532  28.533  25.649  1.00  0.00    -0.237 OA
ATOM     72  O   UNL A   1      50.005  30.343  26.450  1.00  0.00    -0.744 OA
ENDBRANCH  65  69
ENDBRANCH  48  62
BRANCH  49  73
ATOM     73  C   UNL A   1      37.203  32.767  30.226  1.00  0.00     0.023 A 
ATOM     74  C   UNL A   1      36.655  33.000  31.497  1.00  0.00     0.031 A 
ATOM     75  C   UNL A   1      36.388  32.987  29.102  1.00  0.00     0.131 A 
ATOM     76  C   UNL A   1      35.315  33.404  31.616  1.00  0.00     0.055 A 
ATOM     77  C   UNL A   1      35.071  33.432  29.226  1.00  0.00     0.041 A 
ATOM     78  F   UNL A   1      36.870  32.786  27.865  1.00  0.00    -0.206 F 
ATOM     79  C   UNL A   1      34.524  33.632  30.489  1.00  0.00     0.022 A 
BRANCH  76  80
ATOM     80  S   UNL A   1      34.602  33.566  33.277  1.00  0.00     0.124 S 
ATOM     81  O   UNL A   1      35.476  32.703  34.062  1.00  0.00    -0.237 OA
ATOM     82  O   UNL A   1      34.726  34.999  33.520  1.00  0.00    -0.237 OA
ATOM     83  O   UNL A   1      33.234  33.081  33.107  1.00  0.00    -0.744 OA
ENDBRANCH  76  80
ENDBRANCH  49  73
BRANCH  61  84
ATOM     84  C   UNL A   1      43.435  35.763  31.067  1.00  0.00     0.023 A 
ATOM     85  C   UNL A   1      43.656  36.734  30.074  1.00  0.00     0.031 A 
ATOM     86  C   UNL A   1      43.631  36.134  32.409  1.00  0.00     0.131 A 
ATOM     87  C   UNL A   1      44.121  38.009  30.434  1.00  0.00     0.055 A 
ATOM     88  C   UNL A   1      44.036  37.421  32.765  1.00  0.00     0.041 A 
ATOM     89  F   UNL A   1      43.437  35.246  33.398  1.00  0.00    -0.206 F 
ATOM     90  C   UNL A   1      44.299  38.362  31.774  1.00  0.00     0.022 A 
BRANCH  87  91
ATOM     91  S   UNL A   1      44.594  39.166  29.120  1.00  0.00     0.124 S 
ATOM     92  O   UNL A   1      44.766  38.276  27.976  1.00  0.00    -0.237 OA
ATOM     93  O   UNL A   1      43.442  40.061  29.063  1.00  0.00    -0.237 OA
ATOM     94  O   UNL A   1      45.825  39.774  29.623  1.00  0.00    -0.744 OA
ENDBRANCH  87  91
ENDBRANCH  61  84
ENDBRANCH  35  36
ENDBRANCH  27  30
ENDBRANCH  25  26
ENDBRANCH  24  25
ENDBRANCH  23  24
ENDBRANCH   1  23
TORSDOF 21
ENDMDL
MODEL 3
REMARK VINA RESULT:      -9.8      1.673      2.703
REMARK SMILES CCN(CCC(=O)NCCCCCCNC(=O)c1ccc(-c2c3nc(c(-c4cc(S(=O)(=O)[O-])ccc4F)c4ccc([nH]4)c(-c4cc(S(=O)(=O)[O-])ccc4F)c4nc(c(-c5cc(S(=O)(=O)[O-])ccc5F)c5ccc2[nH]5)C=C4)C=C3)cc1)C(=O)c1cc(Cl)ccc1F
REMARK SMILES IDX 11 1 10 2 9 3 8 4 6 5 7 6 5 8 4 9 3 10 2 11 1 12 81 13 82 14
REMARK SMILES IDX 83 15 84 16 89 17 85 18 88 19 90 20 86 21 87 22 12 23 13 24
REMARK SMILES IDX 14 25 15 26 16 27 17 29 18 30 19 31 80 32 20 33 79 34 21 35
REMARK SMILES IDX 22 36 23 37 73 38 24 39 78 40 72 41 74 42 25 43 77 44 71 45
REMARK SMILES IDX 70 46 26 48 58 49 38 50 57 51 39 52 42 53 56 54 75 55 40 56
REMARK SMILES IDX 41 57 55 59 76 60 43 61 27 62 28 63 36 64 29 65 35 66 37 67
REMARK SMILES IDX 34 68 30 69 31 70 32 71 33 72 59 73 60 74 68 75 61 76 67 77
REMARK SMILES IDX 69 78 66 79 62 80 63 81 64 82 65 83 44 84 45 85 53 86 46 87
REMARK SMILES IDX 52 88 54 89 51 90 47 91 48 92 49 93 50 94
REMARK H PARENT 8 7 15 28 74 47 42 58
REMARK Flexibility Score: inf
ROOT
ATOM      1  C   UNL A   1      40.296  23.117  26.528  1.00  0.00     0.002 C 
ENDROOT
BRANCH   1   2
ATOM      2  C   UNL A   1      39.123  24.099  26.554  1.00  0.00     0.021 C 
BRANCH   2   3
ATOM      3  C   UNL A   1      37.773  23.562  26.094  1.00  0.00     0.116 C 
BRANCH   3   4
ATOM      4  N   UNL A   1      37.667  23.461  24.649  1.00  0.00    -0.356 N 
ATOM      5  C   UNL A   1      36.738  22.829  23.875  1.00  0.00     0.221 C 
ATOM      6  O   UNL A   1      36.768  23.019  22.655  1.00  0.00    -0.275 OA
ATOM      7  H   UNL A   1      38.379  23.921  24.147  1.00  0.00     0.163 HD
BRANCH   5   8
ATOM      8  C   UNL A   1      35.679  21.932  24.484  1.00  0.00     0.121 C 
BRANCH   8   9
ATOM      9  C   UNL A   1      34.337  22.606  24.832  1.00  0.00     0.129 C 
BRANCH   9  10
ATOM     10  N   UNL A   1      33.411  22.820  23.705  1.00  0.00    -0.338 N 
BRANCH  10  11
ATOM     11  C   UNL A   1      32.319  21.811  23.653  1.00  0.00     0.116 C 
ATOM     12  C   UNL A   1      32.218  20.686  24.675  1.00  0.00     0.027 C 
ENDBRANCH  10  11
BRANCH  10  13
ATOM     13  C   UNL A   1      33.428  23.901  22.796  1.00  0.00     0.256 C 
ATOM     14  O   UNL A   1      33.822  23.715  21.639  1.00  0.00    -0.269 OA
BRANCH  13  15
ATOM     15  C   UNL A   1      33.084  25.347  23.073  1.00  0.00     0.077 A 
ATOM     16  C   UNL A   1      33.656  25.895  24.250  1.00  0.00     0.037 A 
ATOM     17  C   UNL A   1      32.181  26.172  22.408  1.00  0.00     0.136 A 
ATOM     18  C   UNL A   1      33.341  27.180  24.705  1.00  0.00     0.042 A 
ATOM     19  C   UNL A   1      31.883  27.472  22.841  1.00  0.00     0.041 A 
ATOM     20  F   UNL A   1      31.494  25.777  21.345  1.00  0.00    -0.206 F 
ATOM     21  Cl  UNL A   1      34.025  27.768  26.169  1.00  0.00    -0.084 Cl
ATOM     22  C   UNL A   1      32.458  27.980  23.995  1.00  0.00     0.023 A 
ENDBRANCH  13  15
ENDBRANCH  10  13
ENDBRANCH   9  10
ENDBRANCH   8   9
ENDBRANCH   5   8
ENDBRANCH   3   4
ENDBRANCH   2   3
ENDBRANCH   1   2
BRANCH   1  23
ATOM     23  C   UNL A   1      39.958  21.663  26.862  1.00  0.00     0.002 C 
BRANCH  23  24
ATOM     24  C   UNL A   1      40.545  20.602  25.926  1.00  0.00     0.021 C 
BRANCH  24  25
ATOM     25  C   UNL A   1      41.706  19.784  26.496  1.00  0.00     0.116 C 
BRANCH  25  26
ATOM     26  N   UNL A   1      42.738  19.529  25.509  1.00  0.00    -0.352 N 
ATOM     27  C   UNL A   1      43.679  20.367  24.964  1.00  0.00     0.251 C 
ATOM     28  H   UNL A   1      42.770  18.602  25.177  1.00  0.00     0.163 HD
ATOM     29  O   UNL A   1      44.316  19.983  23.983  1.00  0.00    -0.269 OA
BRANCH  27  30
ATOM     30  C   UNL A   1      43.923  21.724  25.511  1.00  0.00     0.039 A 
ATOM     31  C   UNL A   1      43.684  22.827  24.686  1.00  0.00     0.014 A 
ATOM     32  C   UNL A   1      44.443  21.927  26.794  1.00  0.00     0.014 A 
ATOM     33  C   UNL A   1      43.914  24.124  25.160  1.00  0.00     0.010 A 
ATOM     34  C   UNL A   1      44.606  23.223  27.291  1.00  0.00     0.010 A 
ATOM     35  C   UNL A   1      44.353  24.337  26.478  1.00  0.00    -0.014 A 
BRANCH  35  36
ATOM     36  C   UNL A   1      44.546  25.722  26.992  1.00  0.00     0.031 A 
ATOM     37  C   UNL A   1      45.900  26.381  26.945  1.00  0.00     0.074 A 
ATOM     38  C   UNL A   1      43.500  26.383  27.526  1.00  0.00     0.049 A 
ATOM     39  N   UNL A   1      46.243  27.593  27.305  1.00  0.00    -0.248 NA
ATOM     40  C   UNL A   1      47.016  25.562  26.455  1.00  0.00     0.031 C 
ATOM     41  C   UNL A   1      42.150  25.837  27.684  1.00  0.00     0.029 A 
ATOM     42  N   UNL A   1      43.402  27.657  28.029  1.00  0.00    -0.354 N 
ATOM     43  C   UNL A   1      47.617  27.679  27.096  1.00  0.00     0.074 A 
ATOM     44  C   UNL A   1      48.048  26.374  26.636  1.00  0.00     0.031 C 
ATOM     45  C   UNL A   1      41.351  26.784  28.201  1.00  0.00     0.029 A 
ATOM     46  C   UNL A   1      42.133  27.993  28.442  1.00  0.00     0.049 A 
ATOM     47  H   UNL A   1      44.168  28.274  28.087  1.00  0.00     0.167 HD
ATOM     48  C   UNL A   1      48.439  28.749  27.251  1.00  0.00     0.034 A 
ATOM     49  C   UNL A   1      41.650  29.145  28.947  1.00  0.00     0.034 A 
ATOM     50  C   UNL A   1      47.993  30.049  27.696  1.00  0.00     0.049 A 
ATOM     51  C   UNL A   1      42.576  30.325  29.097  1.00  0.00     0.074 A 
ATOM     52  C   UNL A   1      48.725  31.218  27.815  1.00  0.00     0.029 A 
ATOM     53  N   UNL A   1      46.701  30.351  28.106  1.00  0.00    -0.354 N 
ATOM     54  N   UNL A   1      43.856  30.413  28.821  1.00  0.00    -0.248 NA
ATOM     55  C   UNL A   1      41.982  31.566  29.610  1.00  0.00     0.031 C 
ATOM     56  C   UNL A   1      47.894  32.207  28.358  1.00  0.00     0.029 A 
ATOM     57  C   UNL A   1      46.623  31.677  28.508  1.00  0.00     0.049 A 
ATOM     58  H   UNL A   1      45.948  29.716  28.109  1.00  0.00     0.167 HD
ATOM     59  C   UNL A   1      44.212  31.730  29.092  1.00  0.00     0.074 A 
ATOM     60  C   UNL A   1      43.009  32.401  29.543  1.00  0.00     0.031 C 
ATOM     61  C   UNL A   1      45.422  32.334  28.970  1.00  0.00     0.034 A 
BRANCH  48  62
ATOM     62  C   UNL A   1      49.909  28.542  26.961  1.00  0.00     0.023 A 
ATOM     63  C   UNL A   1      50.456  28.791  25.690  1.00  0.00     0.031 A 
ATOM     64  C   UNL A   1      50.770  28.057  27.961  1.00  0.00     0.131 A 
ATOM     65  C   UNL A   1      51.797  28.473  25.428  1.00  0.00     0.055 A 
ATOM     66  C   UNL A   1      52.126  27.823  27.717  1.00  0.00     0.041 A 
ATOM     67  F   UNL A   1      50.306  27.785  29.191  1.00  0.00    -0.206 F 
ATOM     68  C   UNL A   1      52.643  28.013  26.439  1.00  0.00     0.022 A 
BRANCH  65  69
ATOM     69  S   UNL A   1      52.379  28.519  23.710  1.00  0.00     0.124 S 
ATOM     70  O   UNL A   1      52.726  27.118  23.479  1.00  0.00    -0.237 OA
ATOM     71  O   UNL A   1      51.210  29.015  22.994  1.00  0.00    -0.237 OA
ATOM     72  O   UNL A   1      53.518  29.433  23.758  1.00  0.00    -0.744 OA
ENDBRANCH  65  69
ENDBRANCH  48  62
BRANCH  49  73
ATOM     73  C   UNL A   1      40.212  29.257  29.319  1.00  0.00     0.023 A 
ATOM     74  C   UNL A   1      39.810  29.210  30.662  1.00  0.00     0.031 A 
ATOM     75  C   UNL A   1      39.217  29.382  28.334  1.00  0.00     0.131 A 
ATOM     76  C   UNL A   1      38.445  29.250  30.986  1.00  0.00     0.055 A 
ATOM     77  C   UNL A   1      37.863  29.466  28.664  1.00  0.00     0.041 A 
ATOM     78  F   UNL A   1      39.550  29.441  27.035  1.00  0.00    -0.206 F 
ATOM     79  C   UNL A   1      37.470  29.389  29.996  1.00  0.00     0.022 A 
BRANCH  76  80
ATOM     80  S   UNL A   1      37.957  29.051  32.722  1.00  0.00     0.124 S 
ATOM     81  O   UNL A   1      36.653  29.704  32.742  1.00  0.00    -0.237 OA
ATOM     82  O   UNL A   1      37.952  27.600  32.870  1.00  0.00    -0.237 OA
ATOM     83  O   UNL A   1      39.014  29.747  33.452  1.00  0.00    -0.744 OA
ENDBRANCH  76  80
ENDBRANCH  49  73
BRANCH  61  84
ATOM     84  C   UNL A   1      45.484  33.809  29.286  1.00  0.00     0.023 A 
ATOM     85  C   UNL A   1      45.272  34.790  28.301  1.00  0.00     0.031 A 
ATOM     86  C   UNL A   1      45.791  34.239  30.589  1.00  0.00     0.131 A 
ATOM     87  C   UNL A   1      45.434  36.148  28.618  1.00  0.00     0.055 A 
ATOM     88  C   UNL A   1      45.892  35.593  30.914  1.00  0.00     0.041 A 
ATOM     89  F   UNL A   1      46.005  33.346  31.570  1.00  0.00    -0.206 F 
ATOM     90  C   UNL A   1      45.728  36.555  29.922  1.00  0.00     0.022 A 
BRANCH  87  91
ATOM     91  S   UNL A   1      45.360  37.370  27.280  1.00  0.00     0.124 S 
ATOM     92  O   UNL A   1      46.275  36.801  26.296  1.00  0.00    -0.237 OA
ATOM     93  O   UNL A   1      43.946  37.353  26.920  1.00  0.00    -0.237 OA
ATOM     94  O   UNL A   1      45.822  38.603  27.915  1.00  0.00    -0.744 OA
ENDBRANCH  87  91
ENDBRANCH  61  84
ENDBRANCH  35  36
ENDBRANCH  27  30
ENDBRANCH  25  26
ENDBRANCH  24  25
ENDBRANCH  23  24
ENDBRANCH   1  23
TORSDOF 21
ENDMDL
