MODEL 1
REMARK VINA RESULT:     -11.3      0.000      0.000
REMARK SMILES Cc1noc(C[N@H+]2CCC[C@@H](c3ccc(C(=O)NCCCCCCNC(=O)c4ccc(-c5c6nc(c(-c7cc(S(=O)(=O)[O-])ccc7F)c7ccc([nH]7)c(-c7cc(S(=O)(=O)[O-])ccc7F)c7nc(c(-c8cc(S(=O)(=O)[O-])ccc8F)c8ccc5[nH]8)C=C7)C=C6)cc4)cc3)C2)n1
REMARK SMILES IDX 21 1 20 2 19 3 18 4 16 5 17 6 15 8 12 9 13 10 92 11 14 12
REMARK SMILES IDX 91 13 11 14 7 15 8 16 93 17 9 19 10 20 6 21 5 22 1 23 2 24
REMARK SMILES IDX 3 25 94 26 4 27 22 28 23 29 24 30 25 31 26 32 27 34 28 35
REMARK SMILES IDX 29 36 90 37 30 38 89 39 31 40 32 41 33 42 83 43 34 44 88 45
REMARK SMILES IDX 82 46 84 47 35 48 87 49 81 50 80 51 36 53 68 54 48 55 67 56
REMARK SMILES IDX 49 57 52 58 66 59 85 60 50 61 51 62 65 64 86 65 53 66 37 67
REMARK SMILES IDX 38 68 46 69 39 70 45 71 47 72 44 73 40 74 41 75 42 76 43 77
REMARK SMILES IDX 69 78 70 79 78 80 71 81 77 82 79 83 76 84 72 85 73 86 74 87
REMARK SMILES IDX 75 88 54 89 55 90 63 91 56 92 62 93 64 94 61 95 57 96 58 97
REMARK SMILES IDX 59 98 60 99
REMARK H PARENT 18 7 7 18 25 33 84 52 52 63
REMARK Flexibility Score: inf
ROOT
ATOM      1  C   UNL A   1      35.808  32.451  27.833  1.00  0.00     0.002 C 
ENDROOT
BRANCH   1   2
ATOM      2  C   UNL A   1      35.441  31.098  28.454  1.00  0.00     0.021 C 
BRANCH   2   3
ATOM      3  C   UNL A   1      34.451  30.304  27.600  1.00  0.00     0.116 C 
BRANCH   3   4
ATOM      4  N   UNL A   1      33.307  31.137  27.291  1.00  0.00    -0.352 N 
ATOM      5  C   UNL A   1      32.126  30.863  26.657  1.00  0.00     0.251 C 
ATOM      6  O   UNL A   1      31.335  31.791  26.485  1.00  0.00    -0.269 OA
ATOM      7  H   UNL A   1      33.396  32.070  27.589  1.00  0.00     0.163 HD
BRANCH   5   8
ATOM      8  C   UNL A   1      31.731  29.487  26.249  1.00  0.00     0.039 A 
ATOM      9  C   UNL A   1      31.171  26.779  25.665  1.00  0.00    -0.039 A 
ATOM     10  C   UNL A   1      31.353  27.208  26.989  1.00  0.00     0.005 A 
ATOM     11  C   UNL A   1      31.190  27.740  24.648  1.00  0.00     0.005 A 
ATOM     12  C   UNL A   1      31.646  28.541  27.275  1.00  0.00     0.014 A 
ATOM     13  C   UNL A   1      31.434  29.086  24.944  1.00  0.00     0.014 A 
BRANCH   9  14
ATOM     14  C   UNL A   1      30.923  25.316  25.325  1.00  0.00     0.074 C 
ATOM     15  N   UNL A   1      31.804  23.374  23.946  1.00  0.00    -0.327 N 
ATOM     16  C   UNL A   1      31.989  22.594  25.177  1.00  0.00     0.262 C 
ATOM     17  C   UNL A   1      31.869  24.824  24.206  1.00  0.00     0.270 C 
ATOM     18  H   UNL A   1      30.868  23.164  23.597  1.00  0.00     0.348 HD
ATOM     19  C   UNL A   1      30.960  22.977  26.240  1.00  0.00     0.062 C 
ATOM     20  C   UNL A   1      31.060  24.457  26.587  1.00  0.00     0.020 C 
BRANCH  15  21
ATOM     21  C   UNL A   1      32.784  22.976  22.895  1.00  0.00     0.364 C 
BRANCH  21  22
ATOM     22  C   UNL A   1      34.215  22.929  23.341  1.00  0.00     0.281 A 
ATOM     23  C   UNL A   1      37.179  21.484  24.518  1.00  0.00     0.093 C 
ATOM     24  C   UNL A   1      36.124  22.346  23.953  1.00  0.00     0.169 A 
ATOM     25  N   UNL A   1      36.375  23.351  23.106  1.00  0.00    -0.063 NA
ATOM     26  N   UNL A   1      34.799  22.091  24.172  1.00  0.00    -0.191 NA
ATOM     27  O   UNL A   1      35.096  23.748  22.695  1.00  0.00    -0.333 OA
ENDBRANCH  21  22
ENDBRANCH  15  21
ENDBRANCH   9  14
ENDBRANCH   5   8
ENDBRANCH   3   4
ENDBRANCH   2   3
ENDBRANCH   1   2
BRANCH   1  28
ATOM     28  C   UNL A   1      35.816  33.621  28.824  1.00  0.00     0.002 C 
BRANCH  28  29
ATOM     29  C   UNL A   1      34.715  34.659  28.590  1.00  0.00     0.021 C 
BRANCH  29  30
ATOM     30  C   UNL A   1      33.369  34.271  29.188  1.00  0.00     0.116 C 
BRANCH  30  31
ATOM     31  N   UNL A   1      32.941  35.235  30.190  1.00  0.00    -0.352 N 
ATOM     32  C   UNL A   1      33.301  35.323  31.511  1.00  0.00     0.251 C 
ATOM     33  H   UNL A   1      32.305  35.919  29.876  1.00  0.00     0.163 HD
ATOM     34  O   UNL A   1      32.641  36.008  32.283  1.00  0.00    -0.269 OA
BRANCH  32  35
ATOM     35  C   UNL A   1      34.482  34.574  31.990  1.00  0.00     0.039 A 
ATOM     36  C   UNL A   1      34.338  33.235  32.359  1.00  0.00     0.014 A 
ATOM     37  C   UNL A   1      35.731  35.200  32.071  1.00  0.00     0.014 A 
ATOM     38  C   UNL A   1      35.461  32.508  32.761  1.00  0.00     0.010 A 
ATOM     39  C   UNL A   1      36.857  34.453  32.395  1.00  0.00     0.010 A 
ATOM     40  C   UNL A   1      36.734  33.102  32.751  1.00  0.00    -0.014 A 
BRANCH  40  41
ATOM     41  C   UNL A   1      37.947  32.332  33.125  1.00  0.00     0.031 A 
ATOM     42  C   UNL A   1      38.655  32.628  34.419  1.00  0.00     0.074 A 
ATOM     43  C   UNL A   1      38.442  31.411  32.275  1.00  0.00     0.049 A 
ATOM     44  N   UNL A   1      39.767  32.125  34.890  1.00  0.00    -0.248 NA
ATOM     45  C   UNL A   1      38.044  33.649  35.283  1.00  0.00     0.031 C 
ATOM     46  C   UNL A   1      37.858  31.057  30.979  1.00  0.00     0.029 A 
ATOM     47  N   UNL A   1      39.548  30.606  32.369  1.00  0.00    -0.354 N 
ATOM     48  C   UNL A   1      39.992  32.771  36.101  1.00  0.00     0.074 A 
ATOM     49  C   UNL A   1      38.941  33.755  36.249  1.00  0.00     0.031 C 
ATOM     50  C   UNL A   1      38.591  30.083  30.418  1.00  0.00     0.029 A 
ATOM     51  C   UNL A   1      39.726  29.780  31.284  1.00  0.00     0.049 A 
ATOM     52  H   UNL A   1      40.159  30.618  33.142  1.00  0.00     0.167 HD
ATOM     53  C   UNL A   1      40.967  32.544  37.017  1.00  0.00     0.034 A 
ATOM     54  C   UNL A   1      40.699  28.887  31.013  1.00  0.00     0.034 A 
ATOM     55  C   UNL A   1      42.006  31.558  36.847  1.00  0.00     0.049 A 
ATOM     56  C   UNL A   1      41.809  28.696  32.016  1.00  0.00     0.074 A 
ATOM     57  C   UNL A   1      43.024  31.218  37.722  1.00  0.00     0.029 A 
ATOM     58  N   UNL A   1      42.170  30.758  35.723  1.00  0.00    -0.354 N 
ATOM     59  N   UNL A   1      41.987  29.287  33.176  1.00  0.00    -0.248 NA
ATOM     60  C   UNL A   1      42.843  27.713  31.676  1.00  0.00     0.031 C 
ATOM     61  C   UNL A   1      43.843  30.271  37.098  1.00  0.00     0.029 A 
ATOM     62  C   UNL A   1      43.290  29.952  35.868  1.00  0.00     0.049 A 
ATOM     63  H   UNL A   1      41.577  30.761  34.937  1.00  0.00     0.167 HD
ATOM     64  C   UNL A   1      43.134  28.716  33.719  1.00  0.00     0.074 A 
ATOM     65  C   UNL A   1      43.597  27.728  32.766  1.00  0.00     0.031 C 
ATOM     66  C   UNL A   1      43.746  28.978  34.903  1.00  0.00     0.034 A 
BRANCH  53  67
ATOM     67  C   UNL A   1      40.959  33.401  38.261  1.00  0.00     0.023 A 
ATOM     68  C   UNL A   1      40.214  33.040  39.399  1.00  0.00     0.031 A 
ATOM     69  C   UNL A   1      41.665  34.616  38.300  1.00  0.00     0.131 A 
ATOM     70  C   UNL A   1      40.116  33.924  40.483  1.00  0.00     0.055 A 
ATOM     71  C   UNL A   1      41.640  35.447  39.423  1.00  0.00     0.041 A 
ATOM     72  F   UNL A   1      42.377  35.029  37.240  1.00  0.00    -0.206 F 
ATOM     73  C   UNL A   1      40.847  35.113  40.516  1.00  0.00     0.022 A 
BRANCH  70  74
ATOM     74  S   UNL A   1      38.884  33.577  41.769  1.00  0.00     0.124 S 
ATOM     75  O   UNL A   1      37.659  34.070  41.144  1.00  0.00    -0.237 OA
ATOM     76  O   UNL A   1      38.987  32.130  41.923  1.00  0.00    -0.237 OA
ATOM     77  O   UNL A   1      39.351  34.362  42.911  1.00  0.00    -0.744 OA
ENDBRANCH  70  74
ENDBRANCH  53  67
BRANCH  54  78
ATOM     78  C   UNL A   1      40.676  28.105  29.744  1.00  0.00     0.023 A 
ATOM     79  C   UNL A   1      41.587  28.382  28.713  1.00  0.00     0.031 A 
ATOM     80  C   UNL A   1      39.717  27.100  29.523  1.00  0.00     0.131 A 
ATOM     81  C   UNL A   1      41.492  27.698  27.491  1.00  0.00     0.055 A 
ATOM     82  C   UNL A   1      39.663  26.382  28.327  1.00  0.00     0.041 A 
ATOM     83  F   UNL A   1      38.823  26.793  30.477  1.00  0.00    -0.206 F 
ATOM     84  C   UNL A   1      40.546  26.690  27.296  1.00  0.00     0.022 A 
BRANCH  81  85
ATOM     85  S   UNL A   1      42.567  28.212  26.124  1.00  0.00     0.124 S 
ATOM     86  O   UNL A   1      43.861  27.697  26.554  1.00  0.00    -0.237 OA
ATOM     87  O   UNL A   1      41.952  27.538  24.986  1.00  0.00    -0.237 OA
ATOM     88  O   UNL A   1      42.442  29.668  26.124  1.00  0.00    -0.744 OA
ENDBRANCH  81  85
ENDBRANCH  54  78
BRANCH  66  89
ATOM     89  C   UNL A   1      44.956  28.143  35.252  1.00  0.00     0.023 A 
ATOM     90  C   UNL A   1      44.839  26.897  35.892  1.00  0.00     0.031 A 
ATOM     91  C   UNL A   1      46.247  28.610  34.945  1.00  0.00     0.131 A 
ATOM     92  C   UNL A   1      45.994  26.187  36.255  1.00  0.00     0.055 A 
ATOM     93  C   UNL A   1      47.389  27.867  35.250  1.00  0.00     0.041 A 
ATOM     94  F   UNL A   1      46.419  29.795  34.339  1.00  0.00    -0.206 F 
ATOM     95  C   UNL A   1      47.267  26.655  35.921  1.00  0.00     0.022 A 
BRANCH  92  96
ATOM     96  S   UNL A   1      45.814  24.685  37.258  1.00  0.00     0.124 S 
ATOM     97  O   UNL A   1      45.474  25.234  38.567  1.00  0.00    -0.237 OA
ATOM     98  O   UNL A   1      44.744  23.975  36.568  1.00  0.00    -0.237 OA
ATOM     99  O   UNL A   1      47.131  24.056  37.173  1.00  0.00    -0.744 OA
ENDBRANCH  92  96
ENDBRANCH  66  89
ENDBRANCH  40  41
ENDBRANCH  32  35
ENDBRANCH  30  31
ENDBRANCH  29  30
ENDBRANCH  28  29
ENDBRANCH   1  28
TORSDOF 19
ENDMDL
MODEL 2
REMARK VINA RESULT:     -11.0      6.160     10.118
REMARK SMILES Cc1noc(C[N@H+]2CCC[C@@H](c3ccc(C(=O)NCCCCCCNC(=O)c4ccc(-c5c6nc(c(-c7cc(S(=O)(=O)[O-])ccc7F)c7ccc([nH]7)c(-c7cc(S(=O)(=O)[O-])ccc7F)c7nc(c(-c8cc(S(=O)(=O)[O-])ccc8F)c8ccc5[nH]8)C=C7)C=C6)cc4)cc3)C2)n1
REMARK SMILES IDX 21 1 20 2 19 3 18 4 16 5 17 6 15 8 12 9 13 10 92 11 14 12
REMARK SMILES IDX 91 13 11 14 7 15 8 16 93 17 9 19 10 20 6 21 5 22 1 23 2 24
REMARK SMILES IDX 3 25 94 26 4 27 22 28 23 29 24 30 25 31 26 32 27 34 28 35
REMARK SMILES IDX 29 36 90 37 30 38 89 39 31 40 32 41 33 42 83 43 34 44 88 45
REMARK SMILES IDX 82 46 84 47 35 48 87 49 81 50 80 51 36 53 68 54 48 55 67 56
REMARK SMILES IDX 49 57 52 58 66 59 85 60 50 61 51 62 65 64 86 65 53 66 37 67
REMARK SMILES IDX 38 68 46 69 39 70 45 71 47 72 44 73 40 74 41 75 42 76 43 77
REMARK SMILES IDX 69 78 70 79 78 80 71 81 77 82 79 83 76 84 72 85 73 86 74 87
REMARK SMILES IDX 75 88 54 89 55 90 63 91 56 92 62 93 64 94 61 95 57 96 58 97
REMARK SMILES IDX 59 98 60 99
REMARK H PARENT 18 7 7 18 25 33 84 52 52 63
REMARK Flexibility Score: inf
ROOT
ATOM      1  C   UNL A   1      43.697  37.139  27.020  1.00  0.00     0.002 C 
ENDROOT
BRANCH   1   2
ATOM      2  C   UNL A   1      42.719  35.989  26.753  1.00  0.00     0.021 C 
BRANCH   2   3
ATOM      3  C   UNL A   1      43.129  34.690  27.450  1.00  0.00     0.116 C 
BRANCH   3   4
ATOM      4  N   UNL A   1      43.333  34.945  28.861  1.00  0.00    -0.352 N 
ATOM      5  C   UNL A   1      42.507  34.797  29.942  1.00  0.00     0.251 C 
ATOM      6  O   UNL A   1      42.934  35.142  31.044  1.00  0.00    -0.269 OA
ATOM      7  H   UNL A   1      44.228  35.288  29.083  1.00  0.00     0.163 HD
BRANCH   5   8
ATOM      8  C   UNL A   1      41.163  34.165  29.848  1.00  0.00     0.039 A 
ATOM      9  C   UNL A   1      38.503  33.216  29.749  1.00  0.00    -0.039 A 
ATOM     10  C   UNL A   1      38.834  34.486  29.251  1.00  0.00     0.005 A 
ATOM     11  C   UNL A   1      39.536  32.398  30.218  1.00  0.00     0.005 A 
ATOM     12  C   UNL A   1      40.144  34.960  29.316  1.00  0.00     0.014 A 
ATOM     13  C   UNL A   1      40.857  32.858  30.235  1.00  0.00     0.014 A 
BRANCH   9  14
ATOM     14  C   UNL A   1      37.068  32.709  29.754  1.00  0.00     0.074 C 
ATOM     15  N   UNL A   1      34.664  33.412  29.335  1.00  0.00    -0.327 N 
ATOM     16  C   UNL A   1      34.551  32.381  28.295  1.00  0.00     0.262 C 
ATOM     17  C   UNL A   1      36.059  33.855  29.514  1.00  0.00     0.270 C 
ATOM     18  H   UNL A   1      34.359  32.987  30.211  1.00  0.00     0.348 HD
ATOM     19  C   UNL A   1      35.442  31.178  28.604  1.00  0.00     0.062 C 
ATOM     20  C   UNL A   1      36.903  31.595  28.714  1.00  0.00     0.020 C 
BRANCH  15  21
ATOM     21  C   UNL A   1      33.768  34.571  29.054  1.00  0.00     0.364 C 
BRANCH  21  22
ATOM     22  C   UNL A   1      33.427  35.417  30.245  1.00  0.00     0.281 A 
ATOM     23  C   UNL A   1      33.885  36.903  33.382  1.00  0.00     0.093 C 
ATOM     24  C   UNL A   1      33.449  36.493  32.035  1.00  0.00     0.169 A 
ATOM     25  N   UNL A   1      32.759  37.293  31.212  1.00  0.00    -0.063 NA
ATOM     26  N   UNL A   1      33.829  35.296  31.493  1.00  0.00    -0.191 NA
ATOM     27  O   UNL A   1      32.739  36.574  30.011  1.00  0.00    -0.333 OA
ENDBRANCH  21  22
ENDBRANCH  15  21
ENDBRANCH   9  14
ENDBRANCH   5   8
ENDBRANCH   3   4
ENDBRANCH   2   3
ENDBRANCH   1   2
BRANCH   1  28
ATOM     28  C   UNL A   1      43.032  38.437  27.495  1.00  0.00     0.002 C 
BRANCH  28  29
ATOM     29  C   UNL A   1      43.753  39.133  28.652  1.00  0.00     0.021 C 
BRANCH  29  30
ATOM     30  C   UNL A   1      44.435  38.172  29.617  1.00  0.00     0.116 C 
BRANCH  30  31
ATOM     31  N   UNL A   1      45.530  38.821  30.321  1.00  0.00    -0.352 N 
ATOM     32  C   UNL A   1      45.673  39.054  31.665  1.00  0.00     0.251 C 
ATOM     33  H   UNL A   1      46.271  39.137  29.754  1.00  0.00     0.163 HD
ATOM     34  O   UNL A   1      46.508  39.857  32.064  1.00  0.00    -0.269 OA
BRANCH  32  35
ATOM     35  C   UNL A   1      44.803  38.336  32.620  1.00  0.00     0.039 A 
ATOM     36  C   UNL A   1      45.151  37.046  33.027  1.00  0.00     0.014 A 
ATOM     37  C   UNL A   1      43.642  38.943  33.112  1.00  0.00     0.014 A 
ATOM     38  C   UNL A   1      44.362  36.386  33.970  1.00  0.00     0.010 A 
ATOM     39  C   UNL A   1      42.903  38.314  34.107  1.00  0.00     0.010 A 
ATOM     40  C   UNL A   1      43.249  37.026  34.541  1.00  0.00    -0.014 A 
BRANCH  40  41
ATOM     41  C   UNL A   1      42.426  36.361  35.583  1.00  0.00     0.031 A 
ATOM     42  C   UNL A   1      42.731  36.588  37.039  1.00  0.00     0.074 A 
ATOM     43  C   UNL A   1      41.447  35.510  35.218  1.00  0.00     0.049 A 
ATOM     44  N   UNL A   1      42.184  36.045  38.095  1.00  0.00    -0.248 NA
ATOM     45  C   UNL A   1      43.818  37.532  37.342  1.00  0.00     0.031 C 
ATOM     46  C   UNL A   1      41.078  35.189  33.838  1.00  0.00     0.029 A 
ATOM     47  N   UNL A   1      40.585  34.758  35.974  1.00  0.00    -0.354 N 
ATOM     48  C   UNL A   1      42.863  36.574  39.187  1.00  0.00     0.074 A 
ATOM     49  C   UNL A   1      43.910  37.421  38.657  1.00  0.00     0.031 C 
ATOM     50  C   UNL A   1      40.043  34.335  33.848  1.00  0.00     0.029 A 
ATOM     51  C   UNL A   1      39.709  34.004  35.229  1.00  0.00     0.049 A 
ATOM     52  H   UNL A   1      40.592  34.758  36.959  1.00  0.00     0.167 HD
ATOM     53  C   UNL A   1      42.615  36.395  40.510  1.00  0.00     0.034 A 
ATOM     54  C   UNL A   1      38.753  33.136  35.616  1.00  0.00     0.034 A 
ATOM     55  C   UNL A   1      41.566  35.544  41.016  1.00  0.00     0.049 A 
ATOM     56  C   UNL A   1      38.538  32.902  37.090  1.00  0.00     0.074 A 
ATOM     57  C   UNL A   1      41.203  35.313  42.332  1.00  0.00     0.029 A 
ATOM     58  N   UNL A   1      40.716  34.774  40.232  1.00  0.00    -0.354 N 
ATOM     59  N   UNL A   1      39.161  33.441  38.113  1.00  0.00    -0.248 NA
ATOM     60  C   UNL A   1      37.485  31.950  37.460  1.00  0.00     0.031 C 
ATOM     61  C   UNL A   1      40.188  34.350  42.346  1.00  0.00     0.029 A 
ATOM     62  C   UNL A   1      39.854  34.043  41.037  1.00  0.00     0.049 A 
ATOM     63  H   UNL A   1      40.723  34.751  39.248  1.00  0.00     0.167 HD
ATOM     64  C   UNL A   1      38.548  32.918  39.248  1.00  0.00     0.074 A 
ATOM     65  C   UNL A   1      37.500  32.034  38.782  1.00  0.00     0.031 C 
ATOM     66  C   UNL A   1      38.819  33.155  40.557  1.00  0.00     0.034 A 
BRANCH  53  67
ATOM     67  C   UNL A   1      43.519  37.113  41.485  1.00  0.00     0.023 A 
ATOM     68  C   UNL A   1      43.255  38.432  41.898  1.00  0.00     0.031 A 
ATOM     69  C   UNL A   1      44.682  36.494  41.976  1.00  0.00     0.131 A 
ATOM     70  C   UNL A   1      44.185  39.117  42.693  1.00  0.00     0.055 A 
ATOM     71  C   UNL A   1      45.556  37.151  42.845  1.00  0.00     0.041 A 
ATOM     72  F   UNL A   1      45.002  35.245  41.603  1.00  0.00    -0.206 F 
ATOM     73  C   UNL A   1      45.320  38.478  43.194  1.00  0.00     0.022 A 
BRANCH  70  74
ATOM     74  S   UNL A   1      43.977  40.906  42.915  1.00  0.00     0.124 S 
ATOM     75  O   UNL A   1      45.345  41.386  42.740  1.00  0.00    -0.237 OA
ATOM     76  O   UNL A   1      43.037  41.248  41.853  1.00  0.00    -0.237 OA
ATOM     77  O   UNL A   1      43.453  41.023  44.275  1.00  0.00    -0.744 OA
ENDBRANCH  70  74
ENDBRANCH  53  67
BRANCH  54  78
ATOM     78  C   UNL A   1      37.925  32.422  34.602  1.00  0.00     0.023 A 
ATOM     79  C   UNL A   1      38.330  31.178  34.091  1.00  0.00     0.031 A 
ATOM     80  C   UNL A   1      36.741  32.987  34.096  1.00  0.00     0.131 A 
ATOM     81  C   UNL A   1      37.587  30.564  33.071  1.00  0.00     0.055 A 
ATOM     82  C   UNL A   1      35.974  32.345  33.123  1.00  0.00     0.041 A 
ATOM     83  F   UNL A   1      36.307  34.174  34.552  1.00  0.00    -0.206 F 
ATOM     84  C   UNL A   1      36.404  31.132  32.594  1.00  0.00     0.022 A 
BRANCH  81  85
ATOM     85  S   UNL A   1      38.242  29.054  32.311  1.00  0.00     0.124 S 
ATOM     86  O   UNL A   1      37.786  29.194  30.933  1.00  0.00    -0.237 OA
ATOM     87  O   UNL A   1      39.677  29.202  32.532  1.00  0.00    -0.237 OA
ATOM     88  O   UNL A   1      37.604  27.984  33.076  1.00  0.00    -0.744 OA
ENDBRANCH  81  85
ENDBRANCH  54  78
BRANCH  66  89
ATOM     89  C   UNL A   1      37.931  32.482  41.577  1.00  0.00     0.023 A 
ATOM     90  C   UNL A   1      36.642  32.960  41.871  1.00  0.00     0.031 A 
ATOM     91  C   UNL A   1      38.389  31.348  42.272  1.00  0.00     0.131 A 
ATOM     92  C   UNL A   1      35.879  32.341  42.872  1.00  0.00     0.055 A 
ATOM     93  C   UNL A   1      37.598  30.697  43.220  1.00  0.00     0.041 A 
ATOM     94  F   UNL A   1      39.613  30.850  42.037  1.00  0.00    -0.206 F 
ATOM     95  C   UNL A   1      36.340  31.201  43.535  1.00  0.00     0.022 A 
BRANCH  92  96
ATOM     96  S   UNL A   1      34.308  33.103  43.368  1.00  0.00     0.124 S 
ATOM     97  O   UNL A   1      34.721  34.465  43.693  1.00  0.00    -0.237 OA
ATOM     98  O   UNL A   1      33.496  32.955  42.165  1.00  0.00    -0.237 OA
ATOM     99  O   UNL A   1      33.879  32.296  44.508  1.00  0.00    -0.744 OA
ENDBRANCH  92  96
ENDBRANCH  66  89
ENDBRANCH  40  41
ENDBRANCH  32  35
ENDBRANCH  30  31
ENDBRANCH  29  30
ENDBRANCH  28  29
ENDBRANCH   1  28
TORSDOF 19
ENDMDL
MODEL 3
REMARK VINA RESULT:     -10.9      5.460      9.385
REMARK SMILES Cc1noc(C[N@H+]2CCC[C@@H](c3ccc(C(=O)NCCCCCCNC(=O)c4ccc(-c5c6nc(c(-c7cc(S(=O)(=O)[O-])ccc7F)c7ccc([nH]7)c(-c7cc(S(=O)(=O)[O-])ccc7F)c7nc(c(-c8cc(S(=O)(=O)[O-])ccc8F)c8ccc5[nH]8)C=C7)C=C6)cc4)cc3)C2)n1
REMARK SMILES IDX 21 1 20 2 19 3 18 4 16 5 17 6 15 8 12 9 13 10 92 11 14 12
REMARK SMILES IDX 91 13 11 14 7 15 8 16 93 17 9 19 10 20 6 21 5 22 1 23 2 24
REMARK SMILES IDX 3 25 94 26 4 27 22 28 23 29 24 30 25 31 26 32 27 34 28 35
REMARK SMILES IDX 29 36 90 37 30 38 89 39 31 40 32 41 33 42 83 43 34 44 88 45
REMARK SMILES IDX 82 46 84 47 35 48 87 49 81 50 80 51 36 53 68 54 48 55 67 56
REMARK SMILES IDX 49 57 52 58 66 59 85 60 50 61 51 62 65 64 86 65 53 66 37 67
REMARK SMILES IDX 38 68 46 69 39 70 45 71 47 72 44 73 40 74 41 75 42 76 43 77
REMARK SMILES IDX 69 78 70 79 78 80 71 81 77 82 79 83 76 84 72 85 73 86 74 87
REMARK SMILES IDX 75 88 54 89 55 90 63 91 56 92 62 93 64 94 61 95 57 96 58 97
REMARK SMILES IDX 59 98 60 99
REMARK H PARENT 18 7 7 18 25 33 84 52 52 63
REMARK Flexibility Score: inf
ROOT
ATOM      1  C   UNL A   1      38.489  33.215  31.800  1.00  0.00     0.002 C 
ENDROOT
BRANCH   1   2
ATOM      2  C   UNL A   1      38.098  33.532  30.352  1.00  0.00     0.021 C 
BRANCH   2   3
ATOM      3  C   UNL A   1      38.034  32.285  29.470  1.00  0.00     0.116 C 
BRANCH   3   4
ATOM      4  N   UNL A   1      37.235  31.271  30.126  1.00  0.00    -0.352 N 
ATOM      5  C   UNL A   1      37.322  29.905  30.134  1.00  0.00     0.251 C 
ATOM      6  O   UNL A   1      36.464  29.277  30.753  1.00  0.00    -0.269 OA
ATOM      7  H   UNL A   1      36.493  31.629  30.664  1.00  0.00     0.163 HD
BRANCH   5   8
ATOM      8  C   UNL A   1      38.449  29.167  29.501  1.00  0.00     0.039 A 
ATOM      9  C   UNL A   1      40.743  27.835  28.526  1.00  0.00    -0.039 A 
ATOM     10  C   UNL A   1      40.376  27.744  29.878  1.00  0.00     0.005 A 
ATOM     11  C   UNL A   1      39.899  28.533  27.656  1.00  0.00     0.005 A 
ATOM     12  C   UNL A   1      39.254  28.415  30.361  1.00  0.00     0.014 A 
ATOM     13  C   UNL A   1      38.745  29.163  28.135  1.00  0.00     0.014 A 
BRANCH   9  14
ATOM     14  C   UNL A   1      42.005  27.171  27.994  1.00  0.00     0.074 C 
ATOM     15  N   UNL A   1      42.837  25.282  26.514  1.00  0.00    -0.327 N 
ATOM     16  C   UNL A   1      43.531  26.261  25.667  1.00  0.00     0.262 C 
ATOM     17  C   UNL A   1      41.679  25.884  27.204  1.00  0.00     0.270 C 
ATOM     18  H   UNL A   1      43.500  24.980  27.228  1.00  0.00     0.348 HD
ATOM     19  C   UNL A   1      43.984  27.476  26.477  1.00  0.00     0.062 C 
ATOM     20  C   UNL A   1      42.797  28.166  27.136  1.00  0.00     0.020 C 
BRANCH  15  21
ATOM     21  C   UNL A   1      42.426  24.080  25.734  1.00  0.00     0.364 C 
BRANCH  21  22
ATOM     22  C   UNL A   1      43.556  23.264  25.178  1.00  0.00     0.281 A 
ATOM     23  C   UNL A   1      46.094  20.852  25.174  1.00  0.00     0.093 C 
ATOM     24  C   UNL A   1      45.070  21.863  24.852  1.00  0.00     0.169 A 
ATOM     25  N   UNL A   1      44.492  21.964  23.649  1.00  0.00    -0.063 NA
ATOM     26  N   UNL A   1      44.560  22.694  25.811  1.00  0.00    -0.191 NA
ATOM     27  O   UNL A   1      43.477  22.905  23.862  1.00  0.00    -0.333 OA
ENDBRANCH  21  22
ENDBRANCH  15  21
ENDBRANCH   9  14
ENDBRANCH   5   8
ENDBRANCH   3   4
ENDBRANCH   2   3
ENDBRANCH   1   2
BRANCH   1  28
ATOM     28  C   UNL A   1      38.810  34.449  32.653  1.00  0.00     0.002 C 
BRANCH  28  29
ATOM     29  C   UNL A   1      37.959  34.584  33.919  1.00  0.00     0.021 C 
BRANCH  29  30
ATOM     30  C   UNL A   1      36.962  33.448  34.112  1.00  0.00     0.116 C 
BRANCH  30  31
ATOM     31  N   UNL A   1      37.093  32.851  35.433  1.00  0.00    -0.352 N 
ATOM     32  C   UNL A   1      37.880  31.799  35.828  1.00  0.00     0.251 C 
ATOM     33  H   UNL A   1      36.542  33.259  36.139  1.00  0.00     0.163 HD
ATOM     34  O   UNL A   1      37.665  31.240  36.897  1.00  0.00    -0.269 OA
BRANCH  32  35
ATOM     35  C   UNL A   1      38.975  31.343  34.947  1.00  0.00     0.039 A 
ATOM     36  C   UNL A   1      38.699  30.422  33.934  1.00  0.00     0.014 A 
ATOM     37  C   UNL A   1      40.275  31.830  35.126  1.00  0.00     0.014 A 
ATOM     38  C   UNL A   1      39.719  30.030  33.065  1.00  0.00     0.010 A 
ATOM     39  C   UNL A   1      41.268  31.497  34.212  1.00  0.00     0.010 A 
ATOM     40  C   UNL A   1      41.003  30.588  33.177  1.00  0.00    -0.014 A 
BRANCH  40  41
ATOM     41  C   UNL A   1      42.088  30.223  32.231  1.00  0.00     0.031 A 
ATOM     42  C   UNL A   1      42.832  28.927  32.406  1.00  0.00     0.074 A 
ATOM     43  C   UNL A   1      42.441  31.082  31.255  1.00  0.00     0.049 A 
ATOM     44  N   UNL A   1      43.856  28.462  31.738  1.00  0.00    -0.248 NA
ATOM     45  C   UNL A   1      42.379  28.052  33.497  1.00  0.00     0.031 C 
ATOM     46  C   UNL A   1      41.811  32.381  31.005  1.00  0.00     0.029 A 
ATOM     47  N   UNL A   1      43.415  30.997  30.293  1.00  0.00    -0.354 N 
ATOM     48  C   UNL A   1      44.174  27.245  32.331  1.00  0.00     0.074 A 
ATOM     49  C   UNL A   1      43.281  27.086  33.459  1.00  0.00     0.031 C 
ATOM     50  C   UNL A   1      42.391  32.952  29.938  1.00  0.00     0.029 A 
ATOM     51  C   UNL A   1      43.468  32.090  29.460  1.00  0.00     0.049 A 
ATOM     52  H   UNL A   1      44.020  30.225  30.206  1.00  0.00     0.167 HD
ATOM     53  C   UNL A   1      45.104  26.332  31.952  1.00  0.00     0.034 A 
ATOM     54  C   UNL A   1      44.297  32.371  28.436  1.00  0.00     0.034 A 
ATOM     55  C   UNL A   1      45.985  26.512  30.824  1.00  0.00     0.049 A 
ATOM     56  C   UNL A   1      45.365  31.371  28.071  1.00  0.00     0.074 A 
ATOM     57  C   UNL A   1      46.940  25.642  30.328  1.00  0.00     0.029 A 
ATOM     58  N   UNL A   1      46.028  27.644  30.020  1.00  0.00    -0.354 N 
ATOM     59  N   UNL A   1      45.629  30.206  28.618  1.00  0.00    -0.248 NA
ATOM     60  C   UNL A   1      46.242  31.721  26.948  1.00  0.00     0.031 C 
ATOM     61  C   UNL A   1      47.609  26.276  29.276  1.00  0.00     0.029 A 
ATOM     62  C   UNL A   1      47.016  27.508  29.055  1.00  0.00     0.049 A 
ATOM     63  H   UNL A   1      45.442  28.430  30.119  1.00  0.00     0.167 HD
ATOM     64  C   UNL A   1      46.678  29.669  27.877  1.00  0.00     0.074 A 
ATOM     65  C   UNL A   1      46.989  30.632  26.841  1.00  0.00     0.031 C 
ATOM     66  C   UNL A   1      47.322  28.484  28.033  1.00  0.00     0.034 A 
BRANCH  53  67
ATOM     67  C   UNL A   1      45.223  25.079  32.789  1.00  0.00     0.023 A 
ATOM     68  C   UNL A   1      46.079  25.018  33.904  1.00  0.00     0.031 A 
ATOM     69  C   UNL A   1      44.509  23.917  32.447  1.00  0.00     0.131 A 
ATOM     70  C   UNL A   1      46.271  23.800  34.574  1.00  0.00     0.055 A 
ATOM     71  C   UNL A   1      44.634  22.734  33.179  1.00  0.00     0.041 A 
ATOM     72  F   UNL A   1      43.692  23.904  31.382  1.00  0.00    -0.206 F 
ATOM     73  C   UNL A   1      45.533  22.665  34.238  1.00  0.00     0.022 A 
BRANCH  70  74
ATOM     74  S   UNL A   1      47.627  23.682  35.774  1.00  0.00     0.124 S 
ATOM     75  O   UNL A   1      48.786  23.536  34.896  1.00  0.00    -0.237 OA
ATOM     76  O   UNL A   1      47.524  24.948  36.492  1.00  0.00    -0.237 OA
ATOM     77  O   UNL A   1      47.292  22.492  36.553  1.00  0.00    -0.744 OA
ENDBRANCH  70  74
ENDBRANCH  53  67
BRANCH  54  78
ATOM     78  C   UNL A   1      44.158  33.647  27.678  1.00  0.00     0.023 A 
ATOM     79  C   UNL A   1      44.414  34.882  28.297  1.00  0.00     0.031 A 
ATOM     80  C   UNL A   1      43.727  33.659  26.339  1.00  0.00     0.131 A 
ATOM     81  C   UNL A   1      44.190  36.077  27.596  1.00  0.00     0.055 A 
ATOM     82  C   UNL A   1      43.561  34.849  25.628  1.00  0.00     0.041 A 
ATOM     83  F   UNL A   1      43.470  32.507  25.698  1.00  0.00    -0.206 F 
ATOM     84  C   UNL A   1      43.779  36.068  26.261  1.00  0.00     0.022 A 
BRANCH  81  85
ATOM     85  S   UNL A   1      44.354  37.647  28.487  1.00  0.00     0.124 S 
ATOM     86  O   UNL A   1      43.697  37.341  29.752  1.00  0.00    -0.237 OA
ATOM     87  O   UNL A   1      45.803  37.815  28.538  1.00  0.00    -0.237 OA
ATOM     88  O   UNL A   1      43.649  38.599  27.630  1.00  0.00    -0.744 OA
ENDBRANCH  81  85
ENDBRANCH  54  78
BRANCH  66  89
ATOM     89  C   UNL A   1      48.393  28.144  27.024  1.00  0.00     0.023 A 
ATOM     90  C   UNL A   1      48.083  27.821  25.691  1.00  0.00     0.031 A 
ATOM     91  C   UNL A   1      49.746  28.134  27.408  1.00  0.00     0.131 A 
ATOM     92  C   UNL A   1      49.107  27.449  24.806  1.00  0.00     0.055 A 
ATOM     93  C   UNL A   1      50.765  27.828  26.505  1.00  0.00     0.041 A 
ATOM     94  F   UNL A   1      50.101  28.429  28.669  1.00  0.00    -0.206 F 
ATOM     95  C   UNL A   1      50.447  27.468  25.199  1.00  0.00     0.022 A 
BRANCH  92  96
ATOM     96  S   UNL A   1      48.655  26.844  23.156  1.00  0.00     0.124 S 
ATOM     97  O   UNL A   1      49.943  26.848  22.468  1.00  0.00    -0.237 OA
ATOM     98  O   UNL A   1      48.094  25.530  23.448  1.00  0.00    -0.237 OA
ATOM     99  O   UNL A   1      47.694  27.836  22.678  1.00  0.00    -0.744 OA
ENDBRANCH  92  96
ENDBRANCH  66  89
ENDBRANCH  40  41
ENDBRANCH  32  35
ENDBRANCH  30  31
ENDBRANCH  29  30
ENDBRANCH  28  29
ENDBRANCH   1  28
TORSDOF 19
ENDMDL
