MODEL 1
REMARK VINA RESULT:     -12.8      0.000      0.000
REMARK SMILES O=C(NCCCCCCNC(=O)[C@@H]1CN(C(=O)[C@H]2CC=CCC2)c2ccccc2O1)c1ccc(-c2c3nc(c(-c4cc(S(=O)(=O)[O-])ccc4F)c4ccc([nH]4)c(-c4cc(S(=O)(=O)[O-])ccc4F)c4nc(c(-c5cc(S(=O)(=O)[O-])ccc5F)c5ccc2[nH]5)C=C4)C=C3)cc1
REMARK SMILES IDX 6 1 5 2 4 3 3 4 1 5 2 6 31 8 32 9 93 10 33 11 92 12 34 13
REMARK SMILES IDX 35 14 36 15 86 16 37 17 91 18 85 19 87 20 38 21 90 22 84 23
REMARK SMILES IDX 83 24 39 26 71 27 51 28 70 29 52 30 55 31 69 32 88 33 53 34
REMARK SMILES IDX 54 35 68 37 89 38 56 39 40 40 41 41 49 42 42 43 48 44 50 45
REMARK SMILES IDX 47 46 43 47 44 48 45 49 46 50 72 51 73 52 81 53 74 54 80 55
REMARK SMILES IDX 82 56 79 57 75 58 76 59 77 60 78 61 57 62 58 63 66 64 59 65
REMARK SMILES IDX 65 66 67 67 64 68 60 69 61 70 62 71 63 72 7 73 8 74 9 75
REMARK SMILES IDX 10 76 11 77 12 79 13 80 14 81 30 82 15 83 29 84 24 85 28 86
REMARK SMILES IDX 25 87 27 88 26 89 16 90 17 91 18 92 19 93 23 94 20 95 22 96
REMARK SMILES IDX 21 97
REMARK H PARENT 3 7 87 25 55 36 10 78
REMARK Flexibility Score: inf
ROOT
ATOM      1  C   UNL A   1      34.411  22.146  27.471  1.00  0.00     0.002 C 
ENDROOT
BRANCH   1   2
ATOM      2  C   UNL A   1      34.908  21.665  26.101  1.00  0.00     0.021 C 
BRANCH   2   3
ATOM      3  C   UNL A   1      36.313  22.126  25.721  1.00  0.00     0.116 C 
BRANCH   3   4
ATOM      4  N   UNL A   1      37.286  21.046  25.809  1.00  0.00    -0.352 N 
ATOM      5  O   UNL A   1      39.321  20.084  25.792  1.00  0.00    -0.269 OA
ATOM      6  C   UNL A   1      38.652  21.094  25.981  1.00  0.00     0.251 C 
ATOM      7  H   UNL A   1      36.909  20.141  25.735  1.00  0.00     0.163 HD
BRANCH   6   8
ATOM      8  C   UNL A   1      39.317  22.357  26.384  1.00  0.00     0.039 A 
ATOM      9  C   UNL A   1      40.524  22.334  27.081  1.00  0.00     0.014 A 
ATOM     10  C   UNL A   1      38.757  23.584  26.013  1.00  0.00     0.014 A 
ATOM     11  C   UNL A   1      41.084  23.520  27.540  1.00  0.00     0.010 A 
ATOM     12  C   UNL A   1      39.381  24.784  26.384  1.00  0.00     0.010 A 
ATOM     13  C   UNL A   1      40.541  24.763  27.174  1.00  0.00    -0.014 A 
BRANCH  13  14
ATOM     14  C   UNL A   1      41.268  26.003  27.567  1.00  0.00     0.031 A 
ATOM     15  C   UNL A   1      42.655  26.300  27.065  1.00  0.00     0.074 A 
ATOM     16  C   UNL A   1      40.624  26.903  28.338  1.00  0.00     0.049 A 
ATOM     17  N   UNL A   1      43.386  27.371  27.253  1.00  0.00    -0.248 NA
ATOM     18  C   UNL A   1      43.311  25.264  26.256  1.00  0.00     0.031 C 
ATOM     19  C   UNL A   1      39.283  26.713  28.904  1.00  0.00     0.029 A 
ATOM     20  N   UNL A   1      40.980  28.160  28.755  1.00  0.00    -0.354 N 
ATOM     21  C   UNL A   1      44.584  27.144  26.584  1.00  0.00     0.074 A 
ATOM     22  C   UNL A   1      44.498  25.808  26.026  1.00  0.00     0.031 C 
ATOM     23  C   UNL A   1      38.908  27.833  29.535  1.00  0.00     0.029 A 
ATOM     24  C   UNL A   1      40.005  28.792  29.495  1.00  0.00     0.049 A 
ATOM     25  H   UNL A   1      41.849  28.571  28.546  1.00  0.00     0.167 HD
ATOM     26  C   UNL A   1      45.645  27.976  26.434  1.00  0.00     0.034 A 
ATOM     27  C   UNL A   1      39.997  29.998  30.094  1.00  0.00     0.034 A 
ATOM     28  C   UNL A   1      45.720  29.299  27.012  1.00  0.00     0.049 A 
ATOM     29  C   UNL A   1      41.207  30.882  29.949  1.00  0.00     0.074 A 
ATOM     30  C   UNL A   1      46.748  30.224  26.920  1.00  0.00     0.029 A 
ATOM     31  N   UNL A   1      44.734  29.889  27.794  1.00  0.00    -0.354 N 
ATOM     32  N   UNL A   1      42.320  30.655  29.290  1.00  0.00    -0.248 NA
ATOM     33  C   UNL A   1      41.154  32.186  30.616  1.00  0.00     0.031 C 
ATOM     34  C   UNL A   1      46.415  31.337  27.700  1.00  0.00     0.029 A 
ATOM     35  C   UNL A   1      45.142  31.149  28.212  1.00  0.00     0.049 A 
ATOM     36  H   UNL A   1      43.871  29.473  28.020  1.00  0.00     0.167 HD
ATOM     37  C   UNL A   1      43.094  31.799  29.456  1.00  0.00     0.074 A 
ATOM     38  C   UNL A   1      42.301  32.725  30.236  1.00  0.00     0.031 C 
ATOM     39  C   UNL A   1      44.351  32.057  29.010  1.00  0.00     0.034 A 
BRANCH  26  40
ATOM     40  C   UNL A   1      46.825  27.470  25.637  1.00  0.00     0.023 A 
ATOM     41  C   UNL A   1      47.060  27.896  24.318  1.00  0.00     0.031 A 
ATOM     42  C   UNL A   1      47.735  26.558  26.203  1.00  0.00     0.131 A 
ATOM     43  C   UNL A   1      48.139  27.370  23.591  1.00  0.00     0.055 A 
ATOM     44  C   UNL A   1      48.850  26.095  25.500  1.00  0.00     0.041 A 
ATOM     45  F   UNL A   1      47.554  26.098  27.451  1.00  0.00    -0.206 F 
ATOM     46  C   UNL A   1      49.051  26.492  24.181  1.00  0.00     0.022 A 
BRANCH  43  47
ATOM     47  S   UNL A   1      48.263  27.754  21.822  1.00  0.00     0.124 S 
ATOM     48  O   UNL A   1      49.408  28.662  21.795  1.00  0.00    -0.237 OA
ATOM     49  O   UNL A   1      48.477  26.441  21.226  1.00  0.00    -0.237 OA
ATOM     50  O   UNL A   1      46.976  28.377  21.514  1.00  0.00    -0.744 OA
ENDBRANCH  43  47
ENDBRANCH  26  40
BRANCH  27  51
ATOM     51  C   UNL A   1      38.831  30.421  30.924  1.00  0.00     0.023 A 
ATOM     52  C   UNL A   1      37.745  31.111  30.365  1.00  0.00     0.031 A 
ATOM     53  C   UNL A   1      38.815  30.185  32.312  1.00  0.00     0.131 A 
ATOM     54  C   UNL A   1      36.720  31.593  31.196  1.00  0.00     0.055 A 
ATOM     55  C   UNL A   1      37.760  30.602  33.122  1.00  0.00     0.041 A 
ATOM     56  F   UNL A   1      39.828  29.531  32.902  1.00  0.00    -0.206 F 
ATOM     57  C   UNL A   1      36.712  31.327  32.567  1.00  0.00     0.022 A 
BRANCH  54  58
ATOM     58  S   UNL A   1      35.459  32.678  30.475  1.00  0.00     0.124 S 
ATOM     59  O   UNL A   1      36.141  33.967  30.473  1.00  0.00    -0.237 OA
ATOM     60  O   UNL A   1      35.242  32.064  29.169  1.00  0.00    -0.237 OA
ATOM     61  O   UNL A   1      34.340  32.565  31.408  1.00  0.00    -0.744 OA
ENDBRANCH  54  58
ENDBRANCH  27  51
BRANCH  39  62
ATOM     62  C   UNL A   1      44.920  33.417  29.343  1.00  0.00     0.023 A 
ATOM     63  C   UNL A   1      44.694  34.533  28.516  1.00  0.00     0.031 A 
ATOM     64  C   UNL A   1      45.744  33.588  30.470  1.00  0.00     0.131 A 
ATOM     65  C   UNL A   1      45.351  35.743  28.780  1.00  0.00     0.055 A 
ATOM     66  C   UNL A   1      46.333  34.817  30.769  1.00  0.00     0.041 A 
ATOM     67  F   UNL A   1      45.999  32.559  31.293  1.00  0.00    -0.206 F 
ATOM     68  C   UNL A   1      46.155  35.898  29.911  1.00  0.00     0.022 A 
BRANCH  65  69
ATOM     69  S   UNL A   1      45.249  37.072  27.548  1.00  0.00     0.124 S 
ATOM     70  O   UNL A   1      43.909  36.877  27.004  1.00  0.00    -0.237 OA
ATOM     71  O   UNL A   1      45.438  38.267  28.364  1.00  0.00    -0.237 OA
ATOM     72  O   UNL A   1      46.343  36.770  26.628  1.00  0.00    -0.744 OA
ENDBRANCH  65  69
ENDBRANCH  39  62
ENDBRANCH  13  14
ENDBRANCH   6   8
ENDBRANCH   3   4
ENDBRANCH   2   3
ENDBRANCH   1   2
BRANCH   1  73
ATOM     73  C   UNL A   1      32.912  22.458  27.569  1.00  0.00     0.002 C 
BRANCH  73  74
ATOM     74  C   UNL A   1      32.443  23.581  26.647  1.00  0.00     0.021 C 
BRANCH  74  75
ATOM     75  C   UNL A   1      31.613  23.154  25.442  1.00  0.00     0.116 C 
BRANCH  75  76
ATOM     76  N   UNL A   1      31.895  24.016  24.314  1.00  0.00    -0.353 N 
ATOM     77  C   UNL A   1      31.183  25.066  23.805  1.00  0.00     0.262 C 
ATOM     78  H   UNL A   1      32.733  23.814  23.838  1.00  0.00     0.163 HD
ATOM     79  O   UNL A   1      31.649  25.590  22.788  1.00  0.00    -0.271 OA
BRANCH  77  80
ATOM     80  C   UNL A   1      29.946  25.642  24.545  1.00  0.00     0.281 C 
ATOM     81  C   UNL A   1      29.074  26.661  23.808  1.00  0.00     0.181 C 
ATOM     82  O   UNL A   1      30.294  26.170  25.832  1.00  0.00    -0.477 OA
ATOM     83  N   UNL A   1      29.711  27.964  23.626  1.00  0.00    -0.304 N 
ATOM     84  C   UNL A   1      30.843  27.430  25.752  1.00  0.00     0.144 A 
ATOM     85  C   UNL A   1      30.620  28.323  24.684  1.00  0.00     0.086 A 
ATOM     86  C   UNL A   1      31.652  27.784  26.837  1.00  0.00     0.049 A 
ATOM     87  C   UNL A   1      31.252  29.573  24.743  1.00  0.00     0.030 A 
ATOM     88  C   UNL A   1      32.277  29.025  26.868  1.00  0.00     0.004 A 
ATOM     89  C   UNL A   1      32.079  29.918  25.819  1.00  0.00     0.002 A 
BRANCH  83  90
ATOM     90  C   UNL A   1      29.550  28.742  22.484  1.00  0.00     0.230 C 
ATOM     91  O   UNL A   1      30.457  28.845  21.647  1.00  0.00    -0.274 OA
BRANCH  90  92
ATOM     92  C   UNL A   1      28.255  29.551  22.211  1.00  0.00     0.083 C 
ATOM     93  C   UNL A   1      27.433  29.985  23.424  1.00  0.00     0.040 C 
ATOM     94  C   UNL A   1      28.338  30.641  21.139  1.00  0.00     0.018 C 
ATOM     95  C   UNL A   1      27.609  31.421  23.820  1.00  0.00    -0.030 C 
ATOM     96  C   UNL A   1      28.692  32.037  21.650  1.00  0.00     0.028 C 
ATOM     97  C   UNL A   1      28.191  32.333  23.031  1.00  0.00    -0.031 C 
ENDBRANCH  90  92
ENDBRANCH  83  90
ENDBRANCH  77  80
ENDBRANCH  75  76
ENDBRANCH  74  75
ENDBRANCH  73  74
ENDBRANCH   1  73
TORSDOF 18
ENDMDL
MODEL 2
REMARK VINA RESULT:     -12.7      5.019     10.663
REMARK SMILES O=C(NCCCCCCNC(=O)[C@@H]1CN(C(=O)[C@H]2CC=CCC2)c2ccccc2O1)c1ccc(-c2c3nc(c(-c4cc(S(=O)(=O)[O-])ccc4F)c4ccc([nH]4)c(-c4cc(S(=O)(=O)[O-])ccc4F)c4nc(c(-c5cc(S(=O)(=O)[O-])ccc5F)c5ccc2[nH]5)C=C4)C=C3)cc1
REMARK SMILES IDX 6 1 5 2 4 3 3 4 1 5 2 6 31 8 32 9 93 10 33 11 92 12 34 13
REMARK SMILES IDX 35 14 36 15 86 16 37 17 91 18 85 19 87 20 38 21 90 22 84 23
REMARK SMILES IDX 83 24 39 26 71 27 51 28 70 29 52 30 55 31 69 32 88 33 53 34
REMARK SMILES IDX 54 35 68 37 89 38 56 39 40 40 41 41 49 42 42 43 48 44 50 45
REMARK SMILES IDX 47 46 43 47 44 48 45 49 46 50 72 51 73 52 81 53 74 54 80 55
REMARK SMILES IDX 82 56 79 57 75 58 76 59 77 60 78 61 57 62 58 63 66 64 59 65
REMARK SMILES IDX 65 66 67 67 64 68 60 69 61 70 62 71 63 72 7 73 8 74 9 75
REMARK SMILES IDX 10 76 11 77 12 79 13 80 14 81 30 82 15 83 29 84 24 85 28 86
REMARK SMILES IDX 25 87 27 88 26 89 16 90 17 91 18 92 19 93 23 94 20 95 22 96
REMARK SMILES IDX 21 97
REMARK H PARENT 3 7 87 25 55 36 10 78
REMARK Flexibility Score: inf
ROOT
ATOM      1  C   UNL A   1      31.148  28.407  24.695  1.00  0.00     0.002 C 
ENDROOT
BRANCH   1   2
ATOM      2  C   UNL A   1      32.617  28.523  24.264  1.00  0.00     0.021 C 
BRANCH   2   3
ATOM      3  C   UNL A   1      33.535  29.218  25.266  1.00  0.00     0.116 C 
BRANCH   3   4
ATOM      4  N   UNL A   1      32.969  30.467  25.755  1.00  0.00    -0.352 N 
ATOM      5  O   UNL A   1      32.532  32.106  27.235  1.00  0.00    -0.269 OA
ATOM      6  C   UNL A   1      33.285  31.209  26.872  1.00  0.00     0.251 C 
ATOM      7  H   UNL A   1      32.247  30.840  25.201  1.00  0.00     0.163 HD
BRANCH   6   8
ATOM      8  C   UNL A   1      34.523  30.925  27.639  1.00  0.00     0.039 A 
ATOM      9  C   UNL A   1      34.721  29.680  28.233  1.00  0.00     0.014 A 
ATOM     10  C   UNL A   1      35.525  31.898  27.721  1.00  0.00     0.014 A 
ATOM     11  C   UNL A   1      35.837  29.462  29.033  1.00  0.00     0.010 A 
ATOM     12  C   UNL A   1      36.701  31.638  28.439  1.00  0.00     0.010 A 
ATOM     13  C   UNL A   1      36.857  30.423  29.124  1.00  0.00    -0.014 A 
BRANCH  13  14
ATOM     14  C   UNL A   1      38.098  30.076  29.872  1.00  0.00     0.031 A 
ATOM     15  C   UNL A   1      38.360  30.601  31.258  1.00  0.00     0.074 A 
ATOM     16  C   UNL A   1      38.965  29.213  29.304  1.00  0.00     0.049 A 
ATOM     17  N   UNL A   1      39.353  30.326  32.067  1.00  0.00    -0.248 NA
ATOM     18  C   UNL A   1      37.392  31.561  31.805  1.00  0.00     0.031 C 
ATOM     19  C   UNL A   1      38.828  28.656  27.953  1.00  0.00     0.029 A 
ATOM     20  N   UNL A   1      40.108  28.625  29.785  1.00  0.00    -0.354 N 
ATOM     21  C   UNL A   1      39.131  31.072  33.220  1.00  0.00     0.074 A 
ATOM     22  C   UNL A   1      37.931  31.850  32.982  1.00  0.00     0.031 C 
ATOM     23  C   UNL A   1      39.804  27.764  27.742  1.00  0.00     0.029 A 
ATOM     24  C   UNL A   1      40.687  27.742  28.902  1.00  0.00     0.049 A 
ATOM     25  H   UNL A   1      40.478  28.817  30.677  1.00  0.00     0.167 HD
ATOM     26  C   UNL A   1      39.848  31.092  34.372  1.00  0.00     0.034 A 
ATOM     27  C   UNL A   1      41.814  27.011  28.999  1.00  0.00     0.034 A 
ATOM     28  C   UNL A   1      41.053  30.321  34.585  1.00  0.00     0.049 A 
ATOM     29  C   UNL A   1      42.614  27.087  30.272  1.00  0.00     0.074 A 
ATOM     30  C   UNL A   1      41.854  30.267  35.714  1.00  0.00     0.029 A 
ATOM     31  N   UNL A   1      41.637  29.473  33.652  1.00  0.00    -0.354 N 
ATOM     32  N   UNL A   1      42.370  27.782  31.359  1.00  0.00    -0.248 NA
ATOM     33  C   UNL A   1      43.832  26.273  30.335  1.00  0.00     0.031 C 
ATOM     34  C   UNL A   1      42.953  29.446  35.440  1.00  0.00     0.029 A 
ATOM     35  C   UNL A   1      42.799  28.916  34.170  1.00  0.00     0.049 A 
ATOM     36  H   UNL A   1      41.278  29.293  32.752  1.00  0.00     0.167 HD
ATOM     37  C   UNL A   1      43.402  27.475  32.240  1.00  0.00     0.074 A 
ATOM     38  C   UNL A   1      44.240  26.502  31.573  1.00  0.00     0.031 C 
ATOM     39  C   UNL A   1      43.640  27.962  33.486  1.00  0.00     0.034 A 
BRANCH  26  40
ATOM     40  C   UNL A   1      39.366  31.997  35.482  1.00  0.00     0.023 A 
ATOM     41  C   UNL A   1      39.771  33.341  35.564  1.00  0.00     0.031 A 
ATOM     42  C   UNL A   1      38.482  31.516  36.465  1.00  0.00     0.131 A 
ATOM     43  C   UNL A   1      39.340  34.140  36.635  1.00  0.00     0.055 A 
ATOM     44  C   UNL A   1      37.996  32.338  37.486  1.00  0.00     0.041 A 
ATOM     45  F   UNL A   1      38.074  30.237  36.452  1.00  0.00    -0.206 F 
ATOM     46  C   UNL A   1      38.434  33.656  37.582  1.00  0.00     0.022 A 
BRANCH  43  47
ATOM     47  S   UNL A   1      40.077  35.785  36.841  1.00  0.00     0.124 S 
ATOM     48  O   UNL A   1      39.657  36.454  35.610  1.00  0.00    -0.237 OA
ATOM     49  O   UNL A   1      39.451  36.261  38.069  1.00  0.00    -0.237 OA
ATOM     50  O   UNL A   1      41.510  35.511  36.936  1.00  0.00    -0.744 OA
ENDBRANCH  43  47
ENDBRANCH  26  40
BRANCH  27  51
ATOM     51  C   UNL A   1      42.279  26.183  27.847  1.00  0.00     0.023 A 
ATOM     52  C   UNL A   1      41.843  24.861  27.671  1.00  0.00     0.031 A 
ATOM     53  C   UNL A   1      43.216  26.694  26.930  1.00  0.00     0.131 A 
ATOM     54  C   UNL A   1      42.389  24.077  26.642  1.00  0.00     0.055 A 
ATOM     55  C   UNL A   1      43.701  25.934  25.866  1.00  0.00     0.041 A 
ATOM     56  F   UNL A   1      43.670  27.952  27.050  1.00  0.00    -0.206 F 
ATOM     57  C   UNL A   1      43.301  24.610  25.728  1.00  0.00     0.022 A 
BRANCH  54  58
ATOM     58  S   UNL A   1      41.981  22.310  26.589  1.00  0.00     0.124 S 
ATOM     59  O   UNL A   1      42.549  21.836  27.845  1.00  0.00    -0.237 OA
ATOM     60  O   UNL A   1      40.524  22.340  26.514  1.00  0.00    -0.237 OA
ATOM     61  O   UNL A   1      42.656  21.842  25.381  1.00  0.00    -0.744 OA
ENDBRANCH  54  58
ENDBRANCH  27  51
BRANCH  39  62
ATOM     62  C   UNL A   1      44.850  27.411  34.206  1.00  0.00     0.023 A 
ATOM     63  C   UNL A   1      44.769  26.255  35.004  1.00  0.00     0.031 A 
ATOM     64  C   UNL A   1      46.084  28.081  34.139  1.00  0.00     0.131 A 
ATOM     65  C   UNL A   1      45.875  25.854  35.767  1.00  0.00     0.055 A 
ATOM     66  C   UNL A   1      47.203  27.631  34.842  1.00  0.00     0.041 A 
ATOM     67  F   UNL A   1      46.221  29.191  33.398  1.00  0.00    -0.206 F 
ATOM     68  C   UNL A   1      47.097  26.523  35.678  1.00  0.00     0.022 A 
BRANCH  65  69
ATOM     69  S   UNL A   1      45.653  24.525  36.984  1.00  0.00     0.124 S 
ATOM     70  O   UNL A   1      46.817  24.707  37.845  1.00  0.00    -0.237 OA
ATOM     71  O   UNL A   1      44.362  24.859  37.577  1.00  0.00    -0.237 OA
ATOM     72  O   UNL A   1      45.666  23.311  36.170  1.00  0.00    -0.744 OA
ENDBRANCH  65  69
ENDBRANCH  39  62
ENDBRANCH  13  14
ENDBRANCH   6   8
ENDBRANCH   3   4
ENDBRANCH   2   3
ENDBRANCH   1   2
BRANCH   1  73
ATOM     73  C   UNL A   1      30.185  27.840  23.645  1.00  0.00     0.002 C 
BRANCH  73  74
ATOM     74  C   UNL A   1      29.590  26.481  24.007  1.00  0.00     0.021 C 
BRANCH  74  75
ATOM     75  C   UNL A   1      30.380  25.262  23.546  1.00  0.00     0.116 C 
BRANCH  75  76
ATOM     76  N   UNL A   1      31.224  24.783  24.619  1.00  0.00    -0.353 N 
ATOM     77  C   UNL A   1      32.069  23.709  24.666  1.00  0.00     0.262 C 
ATOM     78  H   UNL A   1      31.182  25.313  25.448  1.00  0.00     0.163 HD
ATOM     79  O   UNL A   1      32.628  23.511  25.750  1.00  0.00    -0.271 OA
BRANCH  77  80
ATOM     80  C   UNL A   1      32.403  22.884  23.395  1.00  0.00     0.281 C 
ATOM     81  C   UNL A   1      32.204  21.368  23.446  1.00  0.00     0.181 C 
ATOM     82  O   UNL A   1      33.723  23.165  22.909  1.00  0.00    -0.477 OA
ATOM     83  N   UNL A   1      33.174  20.670  24.288  1.00  0.00    -0.304 N 
ATOM     84  C   UNL A   1      34.697  22.491  23.612  1.00  0.00     0.144 A 
ATOM     85  C   UNL A   1      34.471  21.297  24.328  1.00  0.00     0.086 A 
ATOM     86  C   UNL A   1      35.965  23.078  23.559  1.00  0.00     0.049 A 
ATOM     87  C   UNL A   1      35.563  20.729  24.998  1.00  0.00     0.030 A 
ATOM     88  C   UNL A   1      37.031  22.502  24.242  1.00  0.00     0.004 A 
ATOM     89  C   UNL A   1      36.828  21.329  24.963  1.00  0.00     0.002 A 
BRANCH  83  90
ATOM     90  C   UNL A   1      32.855  19.568  25.075  1.00  0.00     0.230 C 
ATOM     91  O   UNL A   1      32.894  19.632  26.311  1.00  0.00    -0.274 OA
BRANCH  90  92
ATOM     92  C   UNL A   1      32.472  18.197  24.459  1.00  0.00     0.083 C 
ATOM     93  C   UNL A   1      33.029  17.871  23.075  1.00  0.00     0.040 C 
ATOM     94  C   UNL A   1      32.497  16.990  25.401  1.00  0.00     0.018 C 
ATOM     95  C   UNL A   1      34.206  16.941  23.076  1.00  0.00    -0.030 C 
ATOM     96  C   UNL A   1      33.814  16.217  25.439  1.00  0.00     0.028 C 
ATOM     97  C   UNL A   1      34.566  16.216  24.143  1.00  0.00    -0.031 C 
ENDBRANCH  90  92
ENDBRANCH  83  90
ENDBRANCH  77  80
ENDBRANCH  75  76
ENDBRANCH  74  75
ENDBRANCH  73  74
ENDBRANCH   1  73
TORSDOF 18
ENDMDL
MODEL 3
REMARK VINA RESULT:     -12.5      2.578      3.165
REMARK SMILES O=C(NCCCCCCNC(=O)[C@@H]1CN(C(=O)[C@H]2CC=CCC2)c2ccccc2O1)c1ccc(-c2c3nc(c(-c4cc(S(=O)(=O)[O-])ccc4F)c4ccc([nH]4)c(-c4cc(S(=O)(=O)[O-])ccc4F)c4nc(c(-c5cc(S(=O)(=O)[O-])ccc5F)c5ccc2[nH]5)C=C4)C=C3)cc1
REMARK SMILES IDX 6 1 5 2 4 3 3 4 1 5 2 6 31 8 32 9 93 10 33 11 92 12 34 13
REMARK SMILES IDX 35 14 36 15 86 16 37 17 91 18 85 19 87 20 38 21 90 22 84 23
REMARK SMILES IDX 83 24 39 26 71 27 51 28 70 29 52 30 55 31 69 32 88 33 53 34
REMARK SMILES IDX 54 35 68 37 89 38 56 39 40 40 41 41 49 42 42 43 48 44 50 45
REMARK SMILES IDX 47 46 43 47 44 48 45 49 46 50 72 51 73 52 81 53 74 54 80 55
REMARK SMILES IDX 82 56 79 57 75 58 76 59 77 60 78 61 57 62 58 63 66 64 59 65
REMARK SMILES IDX 65 66 67 67 64 68 60 69 61 70 62 71 63 72 7 73 8 74 9 75
REMARK SMILES IDX 10 76 11 77 12 79 13 80 14 81 30 82 15 83 29 84 24 85 28 86
REMARK SMILES IDX 25 87 27 88 26 89 16 90 17 91 18 92 19 93 23 94 20 95 22 96
REMARK SMILES IDX 21 97
REMARK H PARENT 3 7 87 25 55 36 10 78
REMARK Flexibility Score: inf
ROOT
ATOM      1  C   UNL A   1      34.722  22.855  27.023  1.00  0.00     0.002 C 
ENDROOT
BRANCH   1   2
ATOM      2  C   UNL A   1      35.278  23.066  25.609  1.00  0.00     0.021 C 
BRANCH   2   3
ATOM      3  C   UNL A   1      36.696  23.625  25.544  1.00  0.00     0.116 C 
BRANCH   3   4
ATOM      4  N   UNL A   1      37.697  22.623  25.882  1.00  0.00    -0.352 N 
ATOM      5  O   UNL A   1      39.744  21.814  26.354  1.00  0.00    -0.269 OA
ATOM      6  C   UNL A   1      38.981  22.775  26.357  1.00  0.00     0.251 C 
ATOM      7  H   UNL A   1      37.411  21.691  25.751  1.00  0.00     0.163 HD
BRANCH   6   8
ATOM      8  C   UNL A   1      39.447  24.089  26.863  1.00  0.00     0.039 A 
ATOM      9  C   UNL A   1      39.353  24.403  28.218  1.00  0.00     0.014 A 
ATOM     10  C   UNL A   1      40.037  25.000  25.981  1.00  0.00     0.014 A 
ATOM     11  C   UNL A   1      39.699  25.674  28.661  1.00  0.00     0.010 A 
ATOM     12  C   UNL A   1      40.486  26.243  26.450  1.00  0.00     0.010 A 
ATOM     13  C   UNL A   1      40.299  26.602  27.794  1.00  0.00    -0.014 A 
BRANCH  13  14
ATOM     14  C   UNL A   1      40.788  27.892  28.357  1.00  0.00     0.031 A 
ATOM     15  C   UNL A   1      42.246  28.263  28.336  1.00  0.00     0.074 A 
ATOM     16  C   UNL A   1      39.877  28.767  28.832  1.00  0.00     0.049 A 
ATOM     17  N   UNL A   1      42.816  29.380  28.714  1.00  0.00    -0.248 NA
ATOM     18  C   UNL A   1      43.187  27.252  27.834  1.00  0.00     0.031 C 
ATOM     19  C   UNL A   1      38.436  28.507  28.925  1.00  0.00     0.029 A 
ATOM     20  N   UNL A   1      40.008  30.052  29.294  1.00  0.00    -0.354 N 
ATOM     21  C   UNL A   1      44.179  29.213  28.493  1.00  0.00     0.074 A 
ATOM     22  C   UNL A   1      44.353  27.864  27.993  1.00  0.00     0.031 C 
ATOM     23  C   UNL A   1      37.814  29.615  29.349  1.00  0.00     0.029 A 
ATOM     24  C   UNL A   1      38.811  30.638  29.639  1.00  0.00     0.049 A 
ATOM     25  H   UNL A   1      40.875  30.511  29.371  1.00  0.00     0.167 HD
ATOM     26  C   UNL A   1      45.185  30.106  28.674  1.00  0.00     0.034 A 
ATOM     27  C   UNL A   1      38.541  31.853  30.152  1.00  0.00     0.034 A 
ATOM     28  C   UNL A   1      44.994  31.443  29.190  1.00  0.00     0.049 A 
ATOM     29  C   UNL A   1      39.682  32.807  30.384  1.00  0.00     0.074 A 
ATOM     30  C   UNL A   1      45.945  32.426  29.410  1.00  0.00     0.029 A 
ATOM     31  N   UNL A   1      43.774  31.987  29.574  1.00  0.00    -0.354 N 
ATOM     32  N   UNL A   1      40.962  32.635  30.145  1.00  0.00    -0.248 NA
ATOM     33  C   UNL A   1      39.343  34.119  30.943  1.00  0.00     0.031 C 
ATOM     34  C   UNL A   1      45.313  33.533  29.988  1.00  0.00     0.029 A 
ATOM     35  C   UNL A   1      43.953  33.278  30.052  1.00  0.00     0.049 A 
ATOM     36  H   UNL A   1      42.907  31.523  29.515  1.00  0.00     0.167 HD
ATOM     37  C   UNL A   1      41.577  33.827  30.514  1.00  0.00     0.074 A 
ATOM     38  C   UNL A   1      40.522  34.719  30.946  1.00  0.00     0.031 C 
ATOM     39  C   UNL A   1      42.896  34.152  30.504  1.00  0.00     0.034 A 
BRANCH  26  40
ATOM     40  C   UNL A   1      46.588  29.656  28.338  1.00  0.00     0.023 A 
ATOM     41  C   UNL A   1      47.415  29.044  29.296  1.00  0.00     0.031 A 
ATOM     42  C   UNL A   1      47.105  29.832  27.041  1.00  0.00     0.131 A 
ATOM     43  C   UNL A   1      48.729  28.682  28.961  1.00  0.00     0.055 A 
ATOM     44  C   UNL A   1      48.388  29.400  26.693  1.00  0.00     0.041 A 
ATOM     45  F   UNL A   1      46.372  30.428  26.087  1.00  0.00    -0.206 F 
ATOM     46  C   UNL A   1      49.213  28.831  27.660  1.00  0.00     0.022 A 
BRANCH  43  47
ATOM     47  S   UNL A   1      49.839  28.124  30.284  1.00  0.00     0.124 S 
ATOM     48  O   UNL A   1      51.089  28.790  29.923  1.00  0.00    -0.237 OA
ATOM     49  O   UNL A   1      49.176  28.622  31.484  1.00  0.00    -0.237 OA
ATOM     50  O   UNL A   1      49.850  26.670  30.134  1.00  0.00    -0.744 OA
ENDBRANCH  43  47
ENDBRANCH  26  40
BRANCH  27  51
ATOM     51  C   UNL A   1      37.143  32.221  30.527  1.00  0.00     0.023 A 
ATOM     52  C   UNL A   1      36.260  32.786  29.596  1.00  0.00     0.031 A 
ATOM     53  C   UNL A   1      36.690  32.060  31.850  1.00  0.00     0.131 A 
ATOM     54  C   UNL A   1      34.992  33.225  30.013  1.00  0.00     0.055 A 
ATOM     55  C   UNL A   1      35.404  32.431  32.243  1.00  0.00     0.041 A 
ATOM     56  F   UNL A   1      37.493  31.527  32.784  1.00  0.00    -0.206 F 
ATOM     57  C   UNL A   1      34.552  33.034  31.325  1.00  0.00     0.022 A 
BRANCH  54  58
ATOM     58  S   UNL A   1      33.970  34.159  28.842  1.00  0.00     0.124 S 
ATOM     59  O   UNL A   1      33.483  33.103  27.963  1.00  0.00    -0.237 OA
ATOM     60  O   UNL A   1      32.980  34.768  29.723  1.00  0.00    -0.237 OA
ATOM     61  O   UNL A   1      34.918  35.090  28.233  1.00  0.00    -0.744 OA
ENDBRANCH  54  58
ENDBRANCH  27  51
BRANCH  39  62
ATOM     62  C   UNL A   1      43.250  35.551  30.953  1.00  0.00     0.023 A 
ATOM     63  C   UNL A   1      43.443  36.595  30.029  1.00  0.00     0.031 A 
ATOM     64  C   UNL A   1      43.451  35.832  32.316  1.00  0.00     0.131 A 
ATOM     65  C   UNL A   1      43.907  37.843  30.470  1.00  0.00     0.055 A 
ATOM     66  C   UNL A   1      43.839  37.099  32.756  1.00  0.00     0.041 A 
ATOM     67  F   UNL A   1      43.286  34.876  33.243  1.00  0.00    -0.206 F 
ATOM     68  C   UNL A   1      44.088  38.107  31.829  1.00  0.00     0.022 A 
BRANCH  65  69
ATOM     69  S   UNL A   1      44.400  39.073  29.231  1.00  0.00     0.124 S 
ATOM     70  O   UNL A   1      45.684  38.546  28.779  1.00  0.00    -0.237 OA
ATOM     71  O   UNL A   1      43.306  39.000  28.268  1.00  0.00    -0.237 OA
ATOM     72  O   UNL A   1      44.473  40.317  29.994  1.00  0.00    -0.744 OA
ENDBRANCH  65  69
ENDBRANCH  39  62
ENDBRANCH  13  14
ENDBRANCH   6   8
ENDBRANCH   3   4
ENDBRANCH   2   3
ENDBRANCH   1   2
BRANCH   1  73
ATOM     73  C   UNL A   1      33.381  22.114  27.113  1.00  0.00     0.002 C 
BRANCH  73  74
ATOM     74  C   UNL A   1      32.156  23.023  27.037  1.00  0.00     0.021 C 
BRANCH  74  75
ATOM     75  C   UNL A   1      31.313  22.902  25.773  1.00  0.00     0.116 C 
BRANCH  75  76
ATOM     76  N   UNL A   1      31.798  23.819  24.764  1.00  0.00    -0.353 N 
ATOM     77  C   UNL A   1      31.246  24.973  24.281  1.00  0.00     0.262 C 
ATOM     78  H   UNL A   1      32.661  23.573  24.360  1.00  0.00     0.163 HD
ATOM     79  O   UNL A   1      31.868  25.528  23.370  1.00  0.00    -0.271 OA
BRANCH  77  80
ATOM     80  C   UNL A   1      29.992  25.609  24.939  1.00  0.00     0.281 C 
ATOM     81  C   UNL A   1      29.149  26.573  24.102  1.00  0.00     0.181 C 
ATOM     82  O   UNL A   1      30.306  26.232  26.192  1.00  0.00    -0.477 OA
ATOM     83  N   UNL A   1      29.799  27.856  23.840  1.00  0.00    -0.304 N 
ATOM     84  C   UNL A   1      30.866  27.480  26.033  1.00  0.00     0.144 A 
ATOM     85  C   UNL A   1      30.680  28.291  24.894  1.00  0.00     0.086 A 
ATOM     86  C   UNL A   1      31.646  27.911  27.112  1.00  0.00     0.049 A 
ATOM     87  C   UNL A   1      31.319  29.538  24.877  1.00  0.00     0.030 A 
ATOM     88  C   UNL A   1      32.279  29.148  27.066  1.00  0.00     0.004 A 
ATOM     89  C   UNL A   1      32.117  29.960  25.947  1.00  0.00     0.002 A 
BRANCH  83  90
ATOM     90  C   UNL A   1      29.677  28.546  22.639  1.00  0.00     0.230 C 
ATOM     91  O   UNL A   1      30.605  28.573  21.819  1.00  0.00    -0.274 OA
BRANCH  90  92
ATOM     92  C   UNL A   1      28.400  29.348  22.273  1.00  0.00     0.083 C 
ATOM     93  C   UNL A   1      27.495  29.784  23.423  1.00  0.00     0.040 C 
ATOM     94  C   UNL A   1      28.553  30.432  21.203  1.00  0.00     0.018 C 
ATOM     95  C   UNL A   1      27.638  31.223  23.823  1.00  0.00    -0.030 C 
ATOM     96  C   UNL A   1      28.865  31.833  21.729  1.00  0.00     0.028 C 
ATOM     97  C   UNL A   1      28.269  32.134  23.071  1.00  0.00    -0.031 C 
ENDBRANCH  90  92
ENDBRANCH  83  90
ENDBRANCH  77  80
ENDBRANCH  75  76
ENDBRANCH  74  75
ENDBRANCH  73  74
ENDBRANCH   1  73
TORSDOF 18
ENDMDL
