MODEL 1
REMARK VINA RESULT:      -9.7      0.000      0.000
REMARK SMILES CSc1ccc(Cl)c(C(=O)N[C@@H](CO)C(=O)NCCCCCCNC(=O)c2ccc(-c3c4nc(c(-c5cc(S(=O)(=O)[O-])ccc5F)c5ccc([nH]5)c(-c5cc(S(=O)(=O)[O-])ccc5F)c5nc(c(-c6cc(S(=O)(=O)[O-])ccc6F)c6ccc3[nH]6)C=C5)C=C4)cc2)c1
REMARK SMILES IDX 20 1 19 2 18 3 17 4 15 5 16 6 12 8 11 9 9 10 10 11 8 13 3 14
REMARK SMILES IDX 4 15 90 16 5 17 6 18 7 19 2 20 1 21 13 22 14 23 21 25 22 26
REMARK SMILES IDX 23 27 24 28 25 29 26 31 27 32 28 33 89 34 29 35 88 36 30 37
REMARK SMILES IDX 31 38 32 39 82 40 33 41 87 42 81 43 83 44 34 45 86 46 80 47
REMARK SMILES IDX 79 48 35 50 67 51 47 52 66 53 48 54 51 55 65 56 84 57 49 58
REMARK SMILES IDX 50 59 64 61 85 62 52 63 36 64 37 65 45 66 38 67 44 68 46 69
REMARK SMILES IDX 43 70 39 71 40 72 41 73 42 74 68 75 69 76 77 77 70 78 76 79
REMARK SMILES IDX 78 80 75 81 71 82 72 83 73 84 74 85 53 86 54 87 62 88 55 89
REMARK SMILES IDX 61 90 63 91 60 92 56 93 57 94 58 95 59 96
REMARK H PARENT 17 7 11 12 14 24 24 30 83 49 51 60
REMARK Flexibility Score: inf
ROOT
ATOM      1  C   UNL A   1      36.518  22.389  23.778  1.00  0.00     0.002 C 
ENDROOT
BRANCH   1   2
ATOM      2  C   UNL A   1      35.673  23.620  24.126  1.00  0.00     0.021 C 
BRANCH   2   3
ATOM      3  C   UNL A   1      34.728  23.428  25.308  1.00  0.00     0.116 C 
BRANCH   3   4
ATOM      4  N   UNL A   1      33.815  22.337  25.053  1.00  0.00    -0.354 N 
ATOM      5  C   UNL A   1      32.489  22.216  25.276  1.00  0.00     0.244 C 
ATOM      6  O   UNL A   1      31.983  21.118  25.010  1.00  0.00    -0.273 OA
ATOM      7  H   UNL A   1      34.232  21.545  24.645  1.00  0.00     0.163 HD
BRANCH   5   8
ATOM      8  C   UNL A   1      31.599  23.362  25.788  1.00  0.00     0.197 C 
BRANCH   8   9
ATOM      9  N   UNL A   1      30.607  23.903  24.869  1.00  0.00    -0.338 N 
ATOM     10  C   UNL A   1      30.606  24.930  23.960  1.00  0.00     0.253 C 
ATOM     11  O   UNL A   1      29.507  25.099  23.413  1.00  0.00    -0.269 OA
ATOM     12  H   UNL A   1      29.747  23.427  24.909  1.00  0.00     0.164 HD
BRANCH  10  13
ATOM     13  C   UNL A   1      31.757  25.796  23.496  1.00  0.00     0.059 A 
ATOM     14  C   UNL A   1      32.888  27.950  24.043  1.00  0.00     0.008 A 
ATOM     15  C   UNL A   1      33.708  27.791  22.933  1.00  0.00     0.016 A 
ATOM     16  C   UNL A   1      31.898  26.984  24.277  1.00  0.00     0.030 A 
ATOM     17  C   UNL A   1      33.616  26.641  22.160  1.00  0.00     0.022 A 
ATOM     18  C   UNL A   1      32.715  25.612  22.488  1.00  0.00     0.053 A 
ATOM     19  Cl  UNL A   1      33.145  24.135  21.708  1.00  0.00    -0.083 Cl
BRANCH  14  20
ATOM     20  S   UNL A   1      33.253  29.358  25.082  1.00  0.00    -0.130 SA
ATOM     21  C   UNL A   1      31.794  29.507  26.141  1.00  0.00     0.091 C 
ENDBRANCH  14  20
ENDBRANCH  10  13
ENDBRANCH   8   9
BRANCH   8  22
ATOM     22  C   UNL A   1      30.989  23.073  27.175  1.00  0.00     0.191 C 
BRANCH  22  23
ATOM     23  O   UNL A   1      31.816  22.278  28.025  1.00  0.00    -0.394 OA
ATOM     24  H   UNL A   1      32.547  22.819  28.363  1.00  0.00     0.210 HD
ENDBRANCH  22  23
ENDBRANCH   8  22
ENDBRANCH   5   8
ENDBRANCH   3   4
ENDBRANCH   2   3
ENDBRANCH   1   2
BRANCH   1  25
ATOM     25  C   UNL A   1      37.774  22.198  24.631  1.00  0.00     0.002 C 
BRANCH  25  26
ATOM     26  C   UNL A   1      38.100  20.746  24.986  1.00  0.00     0.021 C 
BRANCH  26  27
ATOM     27  C   UNL A   1      38.934  20.574  26.251  1.00  0.00     0.116 C 
BRANCH  27  28
ATOM     28  N   UNL A   1      39.912  19.507  26.117  1.00  0.00    -0.352 N 
ATOM     29  C   UNL A   1      41.279  19.593  26.083  1.00  0.00     0.251 C 
ATOM     30  H   UNL A   1      39.541  18.598  26.041  1.00  0.00     0.163 HD
ATOM     31  O   UNL A   1      41.949  18.616  25.756  1.00  0.00    -0.269 OA
BRANCH  29  32
ATOM     32  C   UNL A   1      41.933  20.877  26.412  1.00  0.00     0.039 A 
ATOM     33  C   UNL A   1      42.185  21.788  25.387  1.00  0.00     0.014 A 
ATOM     34  C   UNL A   1      42.263  21.189  27.735  1.00  0.00     0.014 A 
ATOM     35  C   UNL A   1      42.699  23.047  25.697  1.00  0.00     0.010 A 
ATOM     36  C   UNL A   1      42.706  22.470  28.051  1.00  0.00     0.010 A 
ATOM     37  C   UNL A   1      42.919  23.414  27.035  1.00  0.00    -0.014 A 
BRANCH  37  38
ATOM     38  C   UNL A   1      43.330  24.797  27.390  1.00  0.00     0.031 A 
ATOM     39  C   UNL A   1      42.341  25.752  27.996  1.00  0.00     0.074 A 
ATOM     40  C   UNL A   1      44.580  25.207  27.097  1.00  0.00     0.049 A 
ATOM     41  N   UNL A   1      42.496  27.013  28.309  1.00  0.00    -0.248 NA
ATOM     42  C   UNL A   1      40.994  25.227  28.264  1.00  0.00     0.031 C 
ATOM     43  C   UNL A   1      45.613  24.379  26.468  1.00  0.00     0.029 A 
ATOM     44  N   UNL A   1      45.196  26.420  27.277  1.00  0.00    -0.354 N 
ATOM     45  C   UNL A   1      41.265  27.436  28.800  1.00  0.00     0.074 A 
ATOM     46  C   UNL A   1      40.362  26.310  28.690  1.00  0.00     0.031 C 
ATOM     47  C   UNL A   1      46.735  25.101  26.335  1.00  0.00     0.029 A 
ATOM     48  C   UNL A   1      46.491  26.457  26.813  1.00  0.00     0.049 A 
ATOM     49  H   UNL A   1      44.753  27.192  27.698  1.00  0.00     0.167 HD
ATOM     50  C   UNL A   1      40.930  28.648  29.310  1.00  0.00     0.034 A 
ATOM     51  C   UNL A   1      47.375  27.473  26.754  1.00  0.00     0.034 A 
ATOM     52  C   UNL A   1      41.850  29.757  29.409  1.00  0.00     0.049 A 
ATOM     53  C   UNL A   1      46.965  28.822  27.286  1.00  0.00     0.074 A 
ATOM     54  C   UNL A   1      41.637  31.002  29.974  1.00  0.00     0.029 A 
ATOM     55  N   UNL A   1      43.148  29.764  28.913  1.00  0.00    -0.354 N 
ATOM     56  N   UNL A   1      45.819  29.187  27.816  1.00  0.00    -0.248 NA
ATOM     57  C   UNL A   1      47.966  29.893  27.220  1.00  0.00     0.031 C 
ATOM     58  C   UNL A   1      42.770  31.789  29.741  1.00  0.00     0.029 A 
ATOM     59  C   UNL A   1      43.727  31.009  29.112  1.00  0.00     0.049 A 
ATOM     60  H   UNL A   1      43.592  28.998  28.484  1.00  0.00     0.167 HD
ATOM     61  C   UNL A   1      45.970  30.526  28.162  1.00  0.00     0.074 A 
ATOM     62  C   UNL A   1      47.325  30.896  27.803  1.00  0.00     0.031 C 
ATOM     63  C   UNL A   1      45.071  31.374  28.725  1.00  0.00     0.034 A 
BRANCH  50  64
ATOM     64  C   UNL A   1      39.502  28.844  29.763  1.00  0.00     0.023 A 
ATOM     65  C   UNL A   1      38.484  29.217  28.869  1.00  0.00     0.031 A 
ATOM     66  C   UNL A   1      39.156  28.672  31.115  1.00  0.00     0.131 A 
ATOM     67  C   UNL A   1      37.190  29.477  29.347  1.00  0.00     0.055 A 
ATOM     68  C   UNL A   1      37.848  28.849  31.571  1.00  0.00     0.041 A 
ATOM     69  F   UNL A   1      40.088  28.339  32.022  1.00  0.00    -0.206 F 
ATOM     70  C   UNL A   1      36.859  29.269  30.687  1.00  0.00     0.022 A 
BRANCH  67  71
ATOM     71  S   UNL A   1      35.986  30.234  28.221  1.00  0.00     0.124 S 
ATOM     72  O   UNL A   1      36.718  30.226  26.957  1.00  0.00    -0.237 OA
ATOM     73  O   UNL A   1      34.854  29.321  28.310  1.00  0.00    -0.237 OA
ATOM     74  O   UNL A   1      35.767  31.560  28.796  1.00  0.00    -0.744 OA
ENDBRANCH  67  71
ENDBRANCH  50  64
BRANCH  51  75
ATOM     75  C   UNL A   1      48.718  27.266  26.139  1.00  0.00     0.023 A 
ATOM     76  C   UNL A   1      48.945  27.530  24.780  1.00  0.00     0.031 A 
ATOM     77  C   UNL A   1      49.791  26.767  26.902  1.00  0.00     0.131 A 
ATOM     78  C   UNL A   1      50.201  27.257  24.215  1.00  0.00     0.055 A 
ATOM     79  C   UNL A   1      51.054  26.552  26.348  1.00  0.00     0.041 A 
ATOM     80  F   UNL A   1      49.629  26.498  28.207  1.00  0.00    -0.206 F 
ATOM     81  C   UNL A   1      51.261  26.785  24.993  1.00  0.00     0.022 A 
BRANCH  78  82
ATOM     82  S   UNL A   1      50.407  27.444  22.423  1.00  0.00     0.124 S 
ATOM     83  O   UNL A   1      51.682  26.774  22.199  1.00  0.00    -0.237 OA
ATOM     84  O   UNL A   1      49.224  26.762  21.909  1.00  0.00    -0.237 OA
ATOM     85  O   UNL A   1      50.419  28.893  22.232  1.00  0.00    -0.744 OA
ENDBRANCH  78  82
ENDBRANCH  51  75
BRANCH  63  86
ATOM     86  C   UNL A   1      45.540  32.782  29.006  1.00  0.00     0.023 A 
ATOM     87  C   UNL A   1      45.309  33.830  28.098  1.00  0.00     0.031 A 
ATOM     88  C   UNL A   1      46.231  33.078  30.193  1.00  0.00     0.131 A 
ATOM     89  C   UNL A   1      45.813  35.112  28.367  1.00  0.00     0.055 A 
ATOM     90  C   UNL A   1      46.671  34.368  30.488  1.00  0.00     0.041 A 
ATOM     91  F   UNL A   1      46.486  32.114  31.094  1.00  0.00    -0.206 F 
ATOM     92  C   UNL A   1      46.474  35.392  29.566  1.00  0.00     0.022 A 
BRANCH  89  93
ATOM     93  S   UNL A   1      45.675  36.389  27.086  1.00  0.00     0.124 S 
ATOM     94  O   UNL A   1      46.632  35.921  26.088  1.00  0.00    -0.237 OA
ATOM     95  O   UNL A   1      44.268  36.303  26.709  1.00  0.00    -0.237 OA
ATOM     96  O   UNL A   1      46.056  37.616  27.783  1.00  0.00    -0.744 OA
ENDBRANCH  89  93
ENDBRANCH  63  86
ENDBRANCH  37  38
ENDBRANCH  29  32
ENDBRANCH  27  28
ENDBRANCH  26  27
ENDBRANCH  25  26
ENDBRANCH   1  25
TORSDOF 21
ENDMDL
MODEL 2
REMARK VINA RESULT:      -9.7      1.571      7.667
REMARK SMILES CSc1ccc(Cl)c(C(=O)N[C@@H](CO)C(=O)NCCCCCCNC(=O)c2ccc(-c3c4nc(c(-c5cc(S(=O)(=O)[O-])ccc5F)c5ccc([nH]5)c(-c5cc(S(=O)(=O)[O-])ccc5F)c5nc(c(-c6cc(S(=O)(=O)[O-])ccc6F)c6ccc3[nH]6)C=C5)C=C4)cc2)c1
REMARK SMILES IDX 20 1 19 2 18 3 17 4 15 5 16 6 12 8 11 9 9 10 10 11 8 13 3 14
REMARK SMILES IDX 4 15 90 16 5 17 6 18 7 19 2 20 1 21 13 22 14 23 21 25 22 26
REMARK SMILES IDX 23 27 24 28 25 29 26 31 27 32 28 33 89 34 29 35 88 36 30 37
REMARK SMILES IDX 31 38 32 39 82 40 33 41 87 42 81 43 83 44 34 45 86 46 80 47
REMARK SMILES IDX 79 48 35 50 67 51 47 52 66 53 48 54 51 55 65 56 84 57 49 58
REMARK SMILES IDX 50 59 64 61 85 62 52 63 36 64 37 65 45 66 38 67 44 68 46 69
REMARK SMILES IDX 43 70 39 71 40 72 41 73 42 74 68 75 69 76 77 77 70 78 76 79
REMARK SMILES IDX 78 80 75 81 71 82 72 83 73 84 74 85 53 86 54 87 62 88 55 89
REMARK SMILES IDX 61 90 63 91 60 92 56 93 57 94 58 95 59 96
REMARK H PARENT 17 7 11 12 14 24 24 30 83 49 51 60
REMARK Flexibility Score: inf
ROOT
ATOM      1  C   UNL A   1      36.659  22.313  23.792  1.00  0.00     0.002 C 
ENDROOT
BRANCH   1   2
ATOM      2  C   UNL A   1      35.536  23.353  23.889  1.00  0.00     0.021 C 
BRANCH   2   3
ATOM      3  C   UNL A   1      34.269  22.855  24.577  1.00  0.00     0.116 C 
BRANCH   3   4
ATOM      4  N   UNL A   1      33.477  22.062  23.665  1.00  0.00    -0.354 N 
ATOM      5  C   UNL A   1      32.262  22.281  23.120  1.00  0.00     0.244 C 
ATOM      6  O   UNL A   1      31.803  21.374  22.413  1.00  0.00    -0.273 OA
ATOM      7  H   UNL A   1      33.897  21.214  23.394  1.00  0.00     0.163 HD
BRANCH   5   8
ATOM      8  C   UNL A   1      31.468  23.588  23.294  1.00  0.00     0.197 C 
BRANCH   8   9
ATOM      9  N   UNL A   1      30.866  23.838  24.597  1.00  0.00    -0.338 N 
ATOM     10  C   UNL A   1      30.577  24.970  25.314  1.00  0.00     0.253 C 
ATOM     11  O   UNL A   1      30.109  24.733  26.436  1.00  0.00    -0.269 OA
ATOM     12  H   UNL A   1      30.609  23.012  25.066  1.00  0.00     0.164 HD
BRANCH  10  13
ATOM     13  C   UNL A   1      30.673  26.420  24.891  1.00  0.00     0.059 A 
ATOM     14  C   UNL A   1      29.432  28.122  23.556  1.00  0.00     0.008 A 
ATOM     15  C   UNL A   1      30.469  29.024  23.758  1.00  0.00     0.016 A 
ATOM     16  C   UNL A   1      29.572  26.827  24.077  1.00  0.00     0.030 A 
ATOM     17  C   UNL A   1      31.547  28.674  24.560  1.00  0.00     0.022 A 
ATOM     18  C   UNL A   1      31.609  27.421  25.195  1.00  0.00     0.053 A 
ATOM     19  Cl  UNL A   1      32.746  27.432  26.491  1.00  0.00    -0.083 Cl
BRANCH  14  20
ATOM     20  S   UNL A   1      28.002  28.764  22.696  1.00  0.00    -0.130 SA
ATOM     21  C   UNL A   1      27.841  30.453  23.324  1.00  0.00     0.091 C 
ENDBRANCH  14  20
ENDBRANCH  10  13
ENDBRANCH   8   9
BRANCH   8  22
ATOM     22  C   UNL A   1      32.229  24.824  22.774  1.00  0.00     0.191 C 
BRANCH  22  23
ATOM     23  O   UNL A   1      32.327  24.897  21.352  1.00  0.00    -0.394 OA
ATOM     24  H   UNL A   1      32.353  25.827  21.077  1.00  0.00     0.210 HD
ENDBRANCH  22  23
ENDBRANCH   8  22
ENDBRANCH   5   8
ENDBRANCH   3   4
ENDBRANCH   2   3
ENDBRANCH   1   2
BRANCH   1  25
ATOM     25  C   UNL A   1      36.694  21.282  24.923  1.00  0.00     0.002 C 
BRANCH  25  26
ATOM     26  C   UNL A   1      37.933  20.386  24.941  1.00  0.00     0.021 C 
BRANCH  26  27
ATOM     27  C   UNL A   1      39.031  20.839  25.897  1.00  0.00     0.116 C 
BRANCH  27  28
ATOM     28  N   UNL A   1      40.034  19.807  26.104  1.00  0.00    -0.352 N 
ATOM     29  C   UNL A   1      41.374  19.948  26.353  1.00  0.00     0.251 C 
ATOM     30  H   UNL A   1      39.704  18.881  26.060  1.00  0.00     0.163 HD
ATOM     31  O   UNL A   1      42.116  18.970  26.296  1.00  0.00    -0.269 OA
BRANCH  29  32
ATOM     32  C   UNL A   1      41.918  21.287  26.658  1.00  0.00     0.039 A 
ATOM     33  C   UNL A   1      42.242  22.140  25.603  1.00  0.00     0.014 A 
ATOM     34  C   UNL A   1      42.072  21.708  27.984  1.00  0.00     0.014 A 
ATOM     35  C   UNL A   1      42.651  23.446  25.876  1.00  0.00     0.010 A 
ATOM     36  C   UNL A   1      42.409  23.032  28.251  1.00  0.00     0.010 A 
ATOM     37  C   UNL A   1      42.692  23.916  27.200  1.00  0.00    -0.014 A 
BRANCH  37  38
ATOM     38  C   UNL A   1      42.987  25.341  27.495  1.00  0.00     0.031 A 
ATOM     39  C   UNL A   1      44.380  25.880  27.333  1.00  0.00     0.074 A 
ATOM     40  C   UNL A   1      42.004  26.129  27.976  1.00  0.00     0.049 A 
ATOM     41  N   UNL A   1      44.841  27.074  27.605  1.00  0.00    -0.248 NA
ATOM     42  C   UNL A   1      45.393  24.946  26.822  1.00  0.00     0.031 C 
ATOM     43  C   UNL A   1      40.622  25.702  28.215  1.00  0.00     0.029 A 
ATOM     44  N   UNL A   1      42.013  27.446  28.362  1.00  0.00    -0.354 N 
ATOM     45  C   UNL A   1      46.199  27.033  27.308  1.00  0.00     0.074 A 
ATOM     46  C   UNL A   1      46.494  25.679  26.888  1.00  0.00     0.031 C 
ATOM     47  C   UNL A   1      39.916  26.742  28.685  1.00  0.00     0.029 A 
ATOM     48  C   UNL A   1      40.801  27.891  28.836  1.00  0.00     0.049 A 
ATOM     49  H   UNL A   1      42.811  28.019  28.305  1.00  0.00     0.167 HD
ATOM     50  C   UNL A   1      47.107  28.039  27.366  1.00  0.00     0.034 A 
ATOM     51  C   UNL A   1      40.445  29.082  29.359  1.00  0.00     0.034 A 
ATOM     52  C   UNL A   1      46.788  29.382  27.788  1.00  0.00     0.049 A 
ATOM     53  C   UNL A   1      41.483  30.170  29.454  1.00  0.00     0.074 A 
ATOM     54  C   UNL A   1      47.612  30.494  27.815  1.00  0.00     0.029 A 
ATOM     55  N   UNL A   1      45.554  29.793  28.279  1.00  0.00    -0.354 N 
ATOM     56  N   UNL A   1      42.747  30.138  29.100  1.00  0.00    -0.248 NA
ATOM     57  C   UNL A   1      41.046  31.456  30.012  1.00  0.00     0.031 C 
ATOM     58  C   UNL A   1      46.907  31.549  28.403  1.00  0.00     0.029 A 
ATOM     59  C   UNL A   1      45.612  31.126  28.660  1.00  0.00     0.049 A 
ATOM     60  H   UNL A   1      44.756  29.221  28.346  1.00  0.00     0.167 HD
ATOM     61  C   UNL A   1      43.251  31.406  29.376  1.00  0.00     0.074 A 
ATOM     62  C   UNL A   1      42.148  32.184  29.903  1.00  0.00     0.031 C 
ATOM     63  C   UNL A   1      44.511  31.884  29.209  1.00  0.00     0.034 A 
BRANCH  50  64
ATOM     64  C   UNL A   1      48.536  27.712  26.998  1.00  0.00     0.023 A 
ATOM     65  C   UNL A   1      49.020  27.866  25.687  1.00  0.00     0.031 A 
ATOM     66  C   UNL A   1      49.425  27.224  27.972  1.00  0.00     0.131 A 
ATOM     67  C   UNL A   1      50.327  27.465  25.370  1.00  0.00     0.055 A 
ATOM     68  C   UNL A   1      50.752  26.908  27.668  1.00  0.00     0.041 A 
ATOM     69  F   UNL A   1      49.017  27.034  29.237  1.00  0.00    -0.206 F 
ATOM     70  C   UNL A   1      51.205  27.013  26.357  1.00  0.00     0.022 A 
BRANCH  67  71
ATOM     71  S   UNL A   1      50.814  27.403  23.624  1.00  0.00     0.124 S 
ATOM     72  O   UNL A   1      50.961  28.821  23.308  1.00  0.00    -0.237 OA
ATOM     73  O   UNL A   1      52.047  26.627  23.668  1.00  0.00    -0.237 OA
ATOM     74  O   UNL A   1      49.682  26.743  22.976  1.00  0.00    -0.744 OA
ENDBRANCH  67  71
ENDBRANCH  50  64
BRANCH  51  75
ATOM     75  C   UNL A   1      39.058  29.297  29.866  1.00  0.00     0.023 A 
ATOM     76  C   UNL A   1      38.121  30.038  29.129  1.00  0.00     0.031 A 
ATOM     77  C   UNL A   1      38.660  28.788  31.116  1.00  0.00     0.131 A 
ATOM     78  C   UNL A   1      36.847  30.283  29.667  1.00  0.00     0.055 A 
ATOM     79  C   UNL A   1      37.374  28.985  31.619  1.00  0.00     0.041 A 
ATOM     80  F   UNL A   1      39.517  28.072  31.862  1.00  0.00    -0.206 F 
ATOM     81  C   UNL A   1      36.462  29.747  30.898  1.00  0.00     0.022 A 
BRANCH  78  82
ATOM     82  S   UNL A   1      35.724  31.388  28.768  1.00  0.00     0.124 S 
ATOM     83  O   UNL A   1      35.160  30.489  27.769  1.00  0.00    -0.237 OA
ATOM     84  O   UNL A   1      34.818  31.824  29.825  1.00  0.00    -0.237 OA
ATOM     85  O   UNL A   1      36.613  32.425  28.246  1.00  0.00    -0.744 OA
ENDBRANCH  78  82
ENDBRANCH  51  75
BRANCH  63  86
ATOM     86  C   UNL A   1      44.752  33.327  29.585  1.00  0.00     0.023 A 
ATOM     87  C   UNL A   1      44.489  34.376  28.686  1.00  0.00     0.031 A 
ATOM     88  C   UNL A   1      45.257  33.656  30.855  1.00  0.00     0.131 A 
ATOM     89  C   UNL A   1      44.784  35.699  29.051  1.00  0.00     0.055 A 
ATOM     90  C   UNL A   1      45.484  34.979  31.237  1.00  0.00     0.041 A 
ATOM     91  F   UNL A   1      45.533  32.694  31.751  1.00  0.00    -0.206 F 
ATOM     92  C   UNL A   1      45.260  36.009  30.328  1.00  0.00     0.022 A 
BRANCH  89  93
ATOM     93  S   UNL A   1      44.624  37.003  27.800  1.00  0.00     0.124 S 
ATOM     94  O   UNL A   1      45.962  37.026  27.216  1.00  0.00    -0.237 OA
ATOM     95  O   UNL A   1      43.564  36.486  26.942  1.00  0.00    -0.237 OA
ATOM     96  O   UNL A   1      44.268  38.185  28.582  1.00  0.00    -0.744 OA
ENDBRANCH  89  93
ENDBRANCH  63  86
ENDBRANCH  37  38
ENDBRANCH  29  32
ENDBRANCH  27  28
ENDBRANCH  26  27
ENDBRANCH  25  26
ENDBRANCH   1  25
TORSDOF 21
ENDMDL
MODEL 3
REMARK VINA RESULT:      -9.6      2.166      7.945
REMARK SMILES CSc1ccc(Cl)c(C(=O)N[C@@H](CO)C(=O)NCCCCCCNC(=O)c2ccc(-c3c4nc(c(-c5cc(S(=O)(=O)[O-])ccc5F)c5ccc([nH]5)c(-c5cc(S(=O)(=O)[O-])ccc5F)c5nc(c(-c6cc(S(=O)(=O)[O-])ccc6F)c6ccc3[nH]6)C=C5)C=C4)cc2)c1
REMARK SMILES IDX 20 1 19 2 18 3 17 4 15 5 16 6 12 8 11 9 9 10 10 11 8 13 3 14
REMARK SMILES IDX 4 15 90 16 5 17 6 18 7 19 2 20 1 21 13 22 14 23 21 25 22 26
REMARK SMILES IDX 23 27 24 28 25 29 26 31 27 32 28 33 89 34 29 35 88 36 30 37
REMARK SMILES IDX 31 38 32 39 82 40 33 41 87 42 81 43 83 44 34 45 86 46 80 47
REMARK SMILES IDX 79 48 35 50 67 51 47 52 66 53 48 54 51 55 65 56 84 57 49 58
REMARK SMILES IDX 50 59 64 61 85 62 52 63 36 64 37 65 45 66 38 67 44 68 46 69
REMARK SMILES IDX 43 70 39 71 40 72 41 73 42 74 68 75 69 76 77 77 70 78 76 79
REMARK SMILES IDX 78 80 75 81 71 82 72 83 73 84 74 85 53 86 54 87 62 88 55 89
REMARK SMILES IDX 61 90 63 91 60 92 56 93 57 94 58 95 59 96
REMARK H PARENT 17 7 11 12 14 24 24 30 83 49 51 60
REMARK Flexibility Score: inf
ROOT
ATOM      1  C   UNL A   1      39.758  23.040  27.190  1.00  0.00     0.002 C 
ENDROOT
BRANCH   1   2
ATOM      2  C   UNL A   1      38.747  22.516  26.162  1.00  0.00     0.021 C 
BRANCH   2   3
ATOM      3  C   UNL A   1      37.618  23.487  25.831  1.00  0.00     0.116 C 
BRANCH   3   4
ATOM      4  N   UNL A   1      37.308  23.438  24.420  1.00  0.00    -0.354 N 
ATOM      5  C   UNL A   1      36.273  22.881  23.756  1.00  0.00     0.244 C 
ATOM      6  O   UNL A   1      36.313  22.946  22.520  1.00  0.00    -0.273 OA
ATOM      7  H   UNL A   1      37.965  23.891  23.844  1.00  0.00     0.163 HD
BRANCH   5   8
ATOM      8  C   UNL A   1      35.062  22.230  24.448  1.00  0.00     0.197 C 
BRANCH   8   9
ATOM      9  N   UNL A   1      33.836  22.102  23.672  1.00  0.00    -0.338 N 
ATOM     10  C   UNL A   1      32.625  22.744  23.687  1.00  0.00     0.253 C 
ATOM     11  O   UNL A   1      31.811  22.274  22.879  1.00  0.00    -0.269 OA
ATOM     12  H   UNL A   1      33.888  21.398  22.986  1.00  0.00     0.164 HD
BRANCH  10  13
ATOM     13  C   UNL A   1      32.200  23.965  24.474  1.00  0.00     0.059 A 
ATOM     14  C   UNL A   1      31.287  26.260  24.123  1.00  0.00     0.008 A 
ATOM     15  C   UNL A   1      31.400  26.503  25.486  1.00  0.00     0.016 A 
ATOM     16  C   UNL A   1      31.733  25.023  23.634  1.00  0.00     0.030 A 
ATOM     17  C   UNL A   1      31.829  25.494  26.339  1.00  0.00     0.022 A 
ATOM     18  C   UNL A   1      32.139  24.211  25.854  1.00  0.00     0.053 A 
ATOM     19  Cl  UNL A   1      32.147  23.048  27.127  1.00  0.00    -0.083 Cl
BRANCH  14  20
ATOM     20  S   UNL A   1      30.513  27.555  23.165  1.00  0.00    -0.130 SA
ATOM     21  C   UNL A   1      31.831  28.775  22.940  1.00  0.00     0.091 C 
ENDBRANCH  14  20
ENDBRANCH  10  13
ENDBRANCH   8   9
BRANCH   8  22
ATOM     22  C   UNL A   1      35.420  20.914  25.166  1.00  0.00     0.191 C 
BRANCH  22  23
ATOM     23  O   UNL A   1      34.322  20.293  25.834  1.00  0.00    -0.394 OA
ATOM     24  H   UNL A   1      34.089  20.809  26.622  1.00  0.00     0.210 HD
ENDBRANCH  22  23
ENDBRANCH   8  22
ENDBRANCH   5   8
ENDBRANCH   3   4
ENDBRANCH   2   3
ENDBRANCH   1   2
BRANCH   1  25
ATOM     25  C   UNL A   1      41.068  22.253  27.275  1.00  0.00     0.002 C 
BRANCH  25  26
ATOM     26  C   UNL A   1      41.056  20.899  26.565  1.00  0.00     0.021 C 
BRANCH  26  27
ATOM     27  C   UNL A   1      42.137  19.929  27.030  1.00  0.00     0.116 C 
BRANCH  27  28
ATOM     28  N   UNL A   1      42.892  19.380  25.916  1.00  0.00    -0.352 N 
ATOM     29  C   UNL A   1      43.740  20.024  25.052  1.00  0.00     0.251 C 
ATOM     30  H   UNL A   1      42.780  18.415  25.761  1.00  0.00     0.163 HD
ATOM     31  O   UNL A   1      44.135  19.452  24.038  1.00  0.00    -0.269 OA
BRANCH  29  32
ATOM     32  C   UNL A   1      44.145  21.416  25.336  1.00  0.00     0.039 A 
ATOM     33  C   UNL A   1      43.742  22.427  24.465  1.00  0.00     0.014 A 
ATOM     34  C   UNL A   1      44.891  21.720  26.480  1.00  0.00     0.014 A 
ATOM     35  C   UNL A   1      44.022  23.757  24.778  1.00  0.00     0.010 A 
ATOM     36  C   UNL A   1      45.105  23.051  26.829  1.00  0.00     0.010 A 
ATOM     37  C   UNL A   1      44.664  24.082  25.986  1.00  0.00    -0.014 A 
BRANCH  37  38
ATOM     38  C   UNL A   1      44.841  25.498  26.399  1.00  0.00     0.031 A 
ATOM     39  C   UNL A   1      46.201  26.134  26.372  1.00  0.00     0.074 A 
ATOM     40  C   UNL A   1      43.778  26.184  26.865  1.00  0.00     0.049 A 
ATOM     41  N   UNL A   1      46.562  27.332  26.758  1.00  0.00    -0.248 NA
ATOM     42  C   UNL A   1      47.307  25.307  25.868  1.00  0.00     0.031 C 
ATOM     43  C   UNL A   1      42.416  25.653  26.977  1.00  0.00     0.029 A 
ATOM     44  N   UNL A   1      43.672  27.467  27.341  1.00  0.00    -0.354 N 
ATOM     45  C   UNL A   1      47.935  27.400  26.554  1.00  0.00     0.074 A 
ATOM     46  C   UNL A   1      48.349  26.102  26.062  1.00  0.00     0.031 C 
ATOM     47  C   UNL A   1      41.612  26.608  27.468  1.00  0.00     0.029 A 
ATOM     48  C   UNL A   1      42.404  27.797  27.761  1.00  0.00     0.049 A 
ATOM     49  H   UNL A   1      44.431  28.092  27.380  1.00  0.00     0.167 HD
ATOM     50  C   UNL A   1      48.767  28.454  26.745  1.00  0.00     0.034 A 
ATOM     51  C   UNL A   1      41.935  28.921  28.340  1.00  0.00     0.034 A 
ATOM     52  C   UNL A   1      48.330  29.739  27.237  1.00  0.00     0.049 A 
ATOM     53  C   UNL A   1      42.887  30.063  28.582  1.00  0.00     0.074 A 
ATOM     54  C   UNL A   1      49.072  30.896  27.398  1.00  0.00     0.029 A 
ATOM     55  N   UNL A   1      47.042  30.034  27.668  1.00  0.00    -0.354 N 
ATOM     56  N   UNL A   1      44.171  30.137  28.315  1.00  0.00    -0.248 NA
ATOM     57  C   UNL A   1      42.328  31.273  29.197  1.00  0.00     0.031 C 
ATOM     58  C   UNL A   1      48.260  31.858  28.007  1.00  0.00     0.029 A 
ATOM     59  C   UNL A   1      46.984  31.335  28.144  1.00  0.00     0.049 A 
ATOM     60  H   UNL A   1      46.282  29.409  27.640  1.00  0.00     0.167 HD
ATOM     61  C   UNL A   1      44.568  31.411  28.713  1.00  0.00     0.074 A 
ATOM     62  C   UNL A   1      43.382  32.075  29.215  1.00  0.00     0.031 C 
ATOM     63  C   UNL A   1      45.801  31.979  28.668  1.00  0.00     0.034 A 
BRANCH  50  64
ATOM     64  C   UNL A   1      50.236  28.247  26.455  1.00  0.00     0.023 A 
ATOM     65  C   UNL A   1      50.742  28.252  25.144  1.00  0.00     0.031 A 
ATOM     66  C   UNL A   1      51.142  28.026  27.507  1.00  0.00     0.131 A 
ATOM     67  C   UNL A   1      52.097  27.966  24.913  1.00  0.00     0.055 A 
ATOM     68  C   UNL A   1      52.505  27.827  27.277  1.00  0.00     0.041 A 
ATOM     69  F   UNL A   1      50.716  27.987  28.780  1.00  0.00    -0.206 F 
ATOM     70  C   UNL A   1      52.987  27.780  25.973  1.00  0.00     0.022 A 
BRANCH  67  71
ATOM     71  S   UNL A   1      52.646  27.691  23.207  1.00  0.00     0.124 S 
ATOM     72  O   UNL A   1      53.225  28.990  22.871  1.00  0.00    -0.237 OA
ATOM     73  O   UNL A   1      53.589  26.590  23.353  1.00  0.00    -0.237 OA
ATOM     74  O   UNL A   1      51.410  27.367  22.497  1.00  0.00    -0.744 OA
ENDBRANCH  67  71
ENDBRANCH  50  64
BRANCH  51  75
ATOM     75  C   UNL A   1      40.506  29.009  28.763  1.00  0.00     0.023 A 
ATOM     76  C   UNL A   1      40.137  28.883  30.111  1.00  0.00     0.031 A 
ATOM     77  C   UNL A   1      39.483  29.188  27.813  1.00  0.00     0.131 A 
ATOM     78  C   UNL A   1      38.779  28.897  30.467  1.00  0.00     0.055 A 
ATOM     79  C   UNL A   1      38.139  29.260  28.180  1.00  0.00     0.041 A 
ATOM     80  F   UNL A   1      39.781  29.314  26.510  1.00  0.00    -0.206 F 
ATOM     81  C   UNL A   1      37.779  29.102  29.513  1.00  0.00     0.022 A 
BRANCH  78  82
ATOM     82  S   UNL A   1      38.330  28.558  32.191  1.00  0.00     0.124 S 
ATOM     83  O   UNL A   1      39.322  29.344  32.916  1.00  0.00    -0.237 OA
ATOM     84  O   UNL A   1      36.957  29.046  32.249  1.00  0.00    -0.237 OA
ATOM     85  O   UNL A   1      38.479  27.108  32.302  1.00  0.00    -0.744 OA
ENDBRANCH  78  82
ENDBRANCH  51  75
BRANCH  63  86
ATOM     86  C   UNL A   1      45.918  33.403  29.159  1.00  0.00     0.023 A 
ATOM     87  C   UNL A   1      45.630  34.496  28.324  1.00  0.00     0.031 A 
ATOM     88  C   UNL A   1      46.328  33.668  30.477  1.00  0.00     0.131 A 
ATOM     89  C   UNL A   1      45.809  35.805  28.799  1.00  0.00     0.055 A 
ATOM     90  C   UNL A   1      46.439  34.970  30.965  1.00  0.00     0.041 A 
ATOM     91  F   UNL A   1      46.623  32.662  31.317  1.00  0.00    -0.206 F 
ATOM     92  C   UNL A   1      46.192  36.048  30.120  1.00  0.00     0.022 A 
BRANCH  89  93
ATOM     93  S   UNL A   1      45.625  37.186  27.636  1.00  0.00     0.124 S 
ATOM     94  O   UNL A   1      44.431  36.797  26.892  1.00  0.00    -0.237 OA
ATOM     95  O   UNL A   1      45.475  38.329  28.530  1.00  0.00    -0.237 OA
ATOM     96  O   UNL A   1      46.870  37.156  26.871  1.00  0.00    -0.744 OA
ENDBRANCH  89  93
ENDBRANCH  63  86
ENDBRANCH  37  38
ENDBRANCH  29  32
ENDBRANCH  27  28
ENDBRANCH  26  27
ENDBRANCH  25  26
ENDBRANCH   1  25
TORSDOF 21
ENDMDL
