MODEL 1
REMARK VINA RESULT:     -10.8      0.000      0.000
REMARK SMILES CC[C@@H]1CC[C@](O)([C@H](F)C(=O)NCCCCCCNC(=O)c2ccc(-c3c4nc(c(-c5cc(S(=O)(=O)[O-])ccc5F)c5ccc([nH]5)c(-c5cc(S(=O)(=O)[O-])ccc5F)c5nc(c(-c6cc(S(=O)(=O)[O-])ccc6F)c6ccc3[nH]6)C=C5)C=C4)cc2)C1
REMARK SMILES IDX 16 1 15 2 14 3 13 4 12 5 10 6 11 7 8 9 9 10 6 11 3 12 4 13
REMARK SMILES IDX 85 14 5 15 2 16 1 17 7 18 17 20 18 21 19 22 20 23 21 25
REMARK SMILES IDX 22 26 23 27 84 28 24 29 83 30 25 31 26 32 27 33 77 34 28 35
REMARK SMILES IDX 82 36 76 37 78 38 29 39 81 40 75 41 74 42 30 44 62 45 42 46
REMARK SMILES IDX 61 47 43 48 46 49 60 50 79 51 44 52 45 53 59 55 80 56 47 57
REMARK SMILES IDX 31 58 32 59 40 60 33 61 39 62 41 63 38 64 34 65 35 66 36 67
REMARK SMILES IDX 37 68 63 69 64 70 72 71 65 72 71 73 73 74 70 75 66 76 67 77
REMARK SMILES IDX 68 78 69 79 48 80 49 81 57 82 50 83 56 84 58 85 55 86 51 87
REMARK SMILES IDX 52 88 53 89 54 90
REMARK H PARENT 12 8 7 19 19 24 78 43 46 54
REMARK Flexibility Score: inf
ROOT
ATOM      1  C   UNL A   1      34.878  23.396  24.159  1.00  0.00     0.002 C 
ENDROOT
BRANCH   1   2
ATOM      2  C   UNL A   1      34.088  22.102  23.944  1.00  0.00     0.002 C 
BRANCH   2   3
ATOM      3  C   UNL A   1      32.877  22.203  23.016  1.00  0.00     0.021 C 
BRANCH   3   4
ATOM      4  C   UNL A   1      32.392  23.614  22.716  1.00  0.00     0.116 C 
BRANCH   4   5
ATOM      5  N   UNL A   1      32.705  24.081  21.388  1.00  0.00    -0.353 N 
ATOM      6  C   UNL A   1      32.622  25.351  20.896  1.00  0.00     0.257 C 
ATOM      7  O   UNL A   1      33.019  25.532  19.738  1.00  0.00    -0.272 OA
ATOM      8  H   UNL A   1      33.020  23.394  20.756  1.00  0.00     0.163 HD
BRANCH   6   9
ATOM      9  C   UNL A   1      32.006  26.499  21.704  1.00  0.00     0.286 C 
ATOM     10  F   UNL A   1      31.044  26.055  22.573  1.00  0.00    -0.234 F 
BRANCH   9  11
ATOM     11  C   UNL A   1      32.967  27.460  22.447  1.00  0.00     0.105 C 
ATOM     12  C   UNL A   1      33.922  28.054  24.647  1.00  0.00    -0.008 C 
ATOM     13  C   UNL A   1      33.069  29.216  24.132  1.00  0.00     0.007 C 
ATOM     14  C   UNL A   1      33.634  26.877  23.700  1.00  0.00     0.042 C 
ATOM     15  C   UNL A   1      32.176  28.635  23.042  1.00  0.00     0.039 C 
BRANCH  12  16
ATOM     16  C   UNL A   1      33.627  27.701  26.113  1.00  0.00     0.000 C 
ATOM     17  C   UNL A   1      32.780  26.441  26.253  1.00  0.00     0.004 C 
ENDBRANCH  12  16
BRANCH  11  18
ATOM     18  O   UNL A   1      33.961  27.975  21.559  1.00  0.00    -0.386 OA
ATOM     19  H   UNL A   1      33.784  28.913  21.384  1.00  0.00     0.211 HD
ENDBRANCH  11  18
ENDBRANCH   9  11
ENDBRANCH   6   9
ENDBRANCH   4   5
ENDBRANCH   3   4
ENDBRANCH   2   3
ENDBRANCH   1   2
BRANCH   1  20
ATOM     20  C   UNL A   1      36.375  23.230  24.431  1.00  0.00     0.021 C 
BRANCH  20  21
ATOM     21  C   UNL A   1      36.764  23.049  25.896  1.00  0.00     0.116 C 
BRANCH  21  22
ATOM     22  N   UNL A   1      37.934  22.204  26.064  1.00  0.00    -0.352 N 
ATOM     23  C   UNL A   1      39.218  22.540  26.408  1.00  0.00     0.251 C 
ATOM     24  H   UNL A   1      37.781  21.244  25.908  1.00  0.00     0.163 HD
ATOM     25  O   UNL A   1      40.104  21.689  26.338  1.00  0.00    -0.269 OA
BRANCH  23  26
ATOM     26  C   UNL A   1      39.547  23.921  26.828  1.00  0.00     0.039 A 
ATOM     27  C   UNL A   1      39.355  24.277  28.164  1.00  0.00     0.014 A 
ATOM     28  C   UNL A   1      40.031  24.864  25.917  1.00  0.00     0.014 A 
ATOM     29  C   UNL A   1      39.704  25.557  28.598  1.00  0.00     0.010 A 
ATOM     30  C   UNL A   1      40.452  26.115  26.367  1.00  0.00     0.010 A 
ATOM     31  C   UNL A   1      40.293  26.476  27.714  1.00  0.00    -0.014 A 
BRANCH  31  32
ATOM     32  C   UNL A   1      40.757  27.805  28.194  1.00  0.00     0.031 A 
ATOM     33  C   UNL A   1      42.227  28.113  28.290  1.00  0.00     0.074 A 
ATOM     34  C   UNL A   1      39.851  28.716  28.595  1.00  0.00     0.049 A 
ATOM     35  N   UNL A   1      42.818  29.202  28.713  1.00  0.00    -0.248 NA
ATOM     36  C   UNL A   1      43.151  27.042  27.892  1.00  0.00     0.031 C 
ATOM     37  C   UNL A   1      38.400  28.511  28.607  1.00  0.00     0.029 A 
ATOM     38  N   UNL A   1      40.007  29.991  29.078  1.00  0.00    -0.354 N 
ATOM     39  C   UNL A   1      44.184  28.945  28.641  1.00  0.00     0.074 A 
ATOM     40  C   UNL A   1      44.325  27.573  28.200  1.00  0.00     0.031 C 
ATOM     41  C   UNL A   1      37.802  29.626  29.052  1.00  0.00     0.029 A 
ATOM     42  C   UNL A   1      38.821  30.609  29.403  1.00  0.00     0.049 A 
ATOM     43  H   UNL A   1      40.886  30.424  29.183  1.00  0.00     0.167 HD
ATOM     44  C   UNL A   1      45.221  29.782  28.897  1.00  0.00     0.034 A 
ATOM     45  C   UNL A   1      38.580  31.821  29.940  1.00  0.00     0.034 A 
ATOM     46  C   UNL A   1      45.056  31.149  29.338  1.00  0.00     0.049 A 
ATOM     47  C   UNL A   1      39.742  32.733  30.229  1.00  0.00     0.074 A 
ATOM     48  C   UNL A   1      46.028  32.109  29.553  1.00  0.00     0.029 A 
ATOM     49  N   UNL A   1      43.839  31.744  29.653  1.00  0.00    -0.354 N 
ATOM     50  N   UNL A   1      41.027  32.507  30.075  1.00  0.00    -0.248 NA
ATOM     51  C   UNL A   1      39.421  34.068  30.747  1.00  0.00     0.031 C 
ATOM     52  C   UNL A   1      45.412  33.250  30.082  1.00  0.00     0.029 A 
ATOM     53  C   UNL A   1      44.043  33.040  30.107  1.00  0.00     0.049 A 
ATOM     54  H   UNL A   1      42.960  31.309  29.566  1.00  0.00     0.167 HD
ATOM     55  C   UNL A   1      41.669  33.680  30.463  1.00  0.00     0.074 A 
ATOM     56  C   UNL A   1      40.625  34.616  30.832  1.00  0.00     0.031 C 
ATOM     57  C   UNL A   1      42.998  33.958  30.507  1.00  0.00     0.034 A 
BRANCH  44  58
ATOM     58  C   UNL A   1      46.619  29.222  28.745  1.00  0.00     0.023 A 
ATOM     59  C   UNL A   1      47.243  29.112  27.488  1.00  0.00     0.031 A 
ATOM     60  C   UNL A   1      47.322  28.744  29.865  1.00  0.00     0.131 A 
ATOM     61  C   UNL A   1      48.474  28.448  27.370  1.00  0.00     0.055 A 
ATOM     62  C   UNL A   1      48.592  28.172  29.752  1.00  0.00     0.041 A 
ATOM     63  F   UNL A   1      46.777  28.801  31.091  1.00  0.00    -0.206 F 
ATOM     64  C   UNL A   1      49.166  28.001  28.497  1.00  0.00     0.022 A 
BRANCH  61  65
ATOM     65  S   UNL A   1      49.061  28.008  25.710  1.00  0.00     0.124 S 
ATOM     66  O   UNL A   1      47.863  28.232  24.904  1.00  0.00    -0.237 OA
ATOM     67  O   UNL A   1      50.156  28.948  25.503  1.00  0.00    -0.237 OA
ATOM     68  O   UNL A   1      49.456  26.607  25.846  1.00  0.00    -0.744 OA
ENDBRANCH  61  65
ENDBRANCH  44  58
BRANCH  45  69
ATOM     69  C   UNL A   1      37.180  32.225  30.260  1.00  0.00     0.023 A 
ATOM     70  C   UNL A   1      36.280  32.616  29.256  1.00  0.00     0.031 A 
ATOM     71  C   UNL A   1      36.725  32.226  31.592  1.00  0.00     0.131 A 
ATOM     72  C   UNL A   1      34.980  33.019  29.603  1.00  0.00     0.055 A 
ATOM     73  C   UNL A   1      35.416  32.578  31.926  1.00  0.00     0.041 A 
ATOM     74  F   UNL A   1      37.544  31.856  32.589  1.00  0.00    -0.206 F 
ATOM     75  C   UNL A   1      34.538  32.986  30.928  1.00  0.00     0.022 A 
BRANCH  72  76
ATOM     76  S   UNL A   1      33.884  33.648  28.301  1.00  0.00     0.124 S 
ATOM     77  O   UNL A   1      34.802  34.453  27.503  1.00  0.00    -0.237 OA
ATOM     78  O   UNL A   1      33.409  32.415  27.683  1.00  0.00    -0.237 OA
ATOM     79  O   UNL A   1      32.874  34.401  29.041  1.00  0.00    -0.744 OA
ENDBRANCH  72  76
ENDBRANCH  45  69
BRANCH  57  80
ATOM     80  C   UNL A   1      43.391  35.348  30.954  1.00  0.00     0.023 A 
ATOM     81  C   UNL A   1      43.542  35.674  32.314  1.00  0.00     0.031 A 
ATOM     82  C   UNL A   1      43.595  36.367  30.007  1.00  0.00     0.131 A 
ATOM     83  C   UNL A   1      43.816  36.997  32.690  1.00  0.00     0.055 A 
ATOM     84  C   UNL A   1      43.940  37.666  30.384  1.00  0.00     0.041 A 
ATOM     85  F   UNL A   1      43.459  36.120  28.694  1.00  0.00    -0.206 F 
ATOM     86  C   UNL A   1      44.037  37.991  31.733  1.00  0.00     0.022 A 
BRANCH  83  87
ATOM     87  S   UNL A   1      43.761  37.430  34.451  1.00  0.00     0.124 S 
ATOM     88  O   UNL A   1      44.037  36.145  35.086  1.00  0.00    -0.237 OA
ATOM     89  O   UNL A   1      44.813  38.435  34.560  1.00  0.00    -0.237 OA
ATOM     90  O   UNL A   1      42.402  37.934  34.638  1.00  0.00    -0.744 OA
ENDBRANCH  83  87
ENDBRANCH  57  80
ENDBRANCH  31  32
ENDBRANCH  23  26
ENDBRANCH  21  22
ENDBRANCH  20  21
ENDBRANCH   1  20
TORSDOF 19
ENDMDL
MODEL 2
REMARK VINA RESULT:     -10.7      4.793      9.610
REMARK SMILES CC[C@@H]1CC[C@](O)([C@H](F)C(=O)NCCCCCCNC(=O)c2ccc(-c3c4nc(c(-c5cc(S(=O)(=O)[O-])ccc5F)c5ccc([nH]5)c(-c5cc(S(=O)(=O)[O-])ccc5F)c5nc(c(-c6cc(S(=O)(=O)[O-])ccc6F)c6ccc3[nH]6)C=C5)C=C4)cc2)C1
REMARK SMILES IDX 16 1 15 2 14 3 13 4 12 5 10 6 11 7 8 9 9 10 6 11 3 12 4 13
REMARK SMILES IDX 85 14 5 15 2 16 1 17 7 18 17 20 18 21 19 22 20 23 21 25
REMARK SMILES IDX 22 26 23 27 84 28 24 29 83 30 25 31 26 32 27 33 77 34 28 35
REMARK SMILES IDX 82 36 76 37 78 38 29 39 81 40 75 41 74 42 30 44 62 45 42 46
REMARK SMILES IDX 61 47 43 48 46 49 60 50 79 51 44 52 45 53 59 55 80 56 47 57
REMARK SMILES IDX 31 58 32 59 40 60 33 61 39 62 41 63 38 64 34 65 35 66 36 67
REMARK SMILES IDX 37 68 63 69 64 70 72 71 65 72 71 73 73 74 70 75 66 76 67 77
REMARK SMILES IDX 68 78 69 79 48 80 49 81 57 82 50 83 56 84 58 85 55 86 51 87
REMARK SMILES IDX 52 88 53 89 54 90
REMARK H PARENT 12 8 7 19 19 24 78 43 46 54
REMARK Flexibility Score: inf
ROOT
ATOM      1  C   UNL A   1      34.018  28.849  25.545  1.00  0.00     0.002 C 
ENDROOT
BRANCH   1   2
ATOM      2  C   UNL A   1      33.932  27.578  26.394  1.00  0.00     0.002 C 
BRANCH   2   3
ATOM      3  C   UNL A   1      33.670  26.279  25.632  1.00  0.00     0.021 C 
BRANCH   3   4
ATOM      4  C   UNL A   1      33.138  26.441  24.216  1.00  0.00     0.116 C 
BRANCH   4   5
ATOM      5  N   UNL A   1      32.165  25.450  23.829  1.00  0.00    -0.353 N 
ATOM      6  C   UNL A   1      30.813  25.591  23.712  1.00  0.00     0.257 C 
ATOM      7  O   UNL A   1      30.180  24.617  23.287  1.00  0.00    -0.272 OA
ATOM      8  H   UNL A   1      32.523  24.556  23.622  1.00  0.00     0.163 HD
BRANCH   6   9
ATOM      9  C   UNL A   1      30.088  26.872  24.145  1.00  0.00     0.286 C 
ATOM     10  F   UNL A   1      30.634  27.411  25.280  1.00  0.00    -0.234 F 
BRANCH   9  11
ATOM     11  C   UNL A   1      29.891  27.986  23.088  1.00  0.00     0.105 C 
ATOM     12  C   UNL A   1      29.406  30.386  22.754  1.00  0.00    -0.008 C 
ATOM     13  C   UNL A   1      28.266  29.550  22.167  1.00  0.00     0.007 C 
ATOM     14  C   UNL A   1      30.279  29.398  23.547  1.00  0.00     0.042 C 
ATOM     15  C   UNL A   1      28.395  28.164  22.787  1.00  0.00     0.039 C 
BRANCH  12  16
ATOM     16  C   UNL A   1      28.907  31.545  23.629  1.00  0.00     0.000 C 
ATOM     17  C   UNL A   1      27.401  31.501  23.858  1.00  0.00     0.004 C 
ENDBRANCH  12  16
BRANCH  11  18
ATOM     18  O   UNL A   1      30.571  27.663  21.872  1.00  0.00    -0.386 OA
ATOM     19  H   UNL A   1      30.116  26.926  21.434  1.00  0.00     0.211 HD
ENDBRANCH  11  18
ENDBRANCH   9  11
ENDBRANCH   6   9
ENDBRANCH   4   5
ENDBRANCH   3   4
ENDBRANCH   2   3
ENDBRANCH   1   2
BRANCH   1  20
ATOM     20  C   UNL A   1      32.883  29.859  25.731  1.00  0.00     0.021 C 
BRANCH  20  21
ATOM     21  C   UNL A   1      32.724  30.420  27.141  1.00  0.00     0.116 C 
BRANCH  21  22
ATOM     22  N   UNL A   1      32.910  31.860  27.195  1.00  0.00    -0.352 N 
ATOM     23  C   UNL A   1      33.928  32.594  27.748  1.00  0.00     0.251 C 
ATOM     24  H   UNL A   1      32.197  32.389  26.769  1.00  0.00     0.163 HD
ATOM     25  O   UNL A   1      33.815  33.816  27.830  1.00  0.00    -0.269 OA
BRANCH  23  26
ATOM     26  C   UNL A   1      35.139  31.924  28.274  1.00  0.00     0.039 A 
ATOM     27  C   UNL A   1      36.335  32.643  28.319  1.00  0.00     0.014 A 
ATOM     28  C   UNL A   1      35.106  30.596  28.711  1.00  0.00     0.014 A 
ATOM     29  C   UNL A   1      37.480  32.052  28.857  1.00  0.00     0.010 A 
ATOM     30  C   UNL A   1      36.228  30.035  29.317  1.00  0.00     0.010 A 
ATOM     31  C   UNL A   1      37.429  30.757  29.397  1.00  0.00    -0.014 A 
BRANCH  31  32
ATOM     32  C   UNL A   1      38.620  30.161  30.060  1.00  0.00     0.031 A 
ATOM     33  C   UNL A   1      39.027  30.600  31.440  1.00  0.00     0.074 A 
ATOM     34  C   UNL A   1      39.367  29.261  29.392  1.00  0.00     0.049 A 
ATOM     35  N   UNL A   1      40.049  30.216  32.163  1.00  0.00    -0.248 NA
ATOM     36  C   UNL A   1      38.195  31.631  32.075  1.00  0.00     0.031 C 
ATOM     37  C   UNL A   1      39.107  28.803  28.025  1.00  0.00     0.029 A 
ATOM     38  N   UNL A   1      40.497  28.576  29.761  1.00  0.00    -0.354 N 
ATOM     39  C   UNL A   1      39.990  30.966  33.334  1.00  0.00     0.074 A 
ATOM     40  C   UNL A   1      38.871  31.873  33.188  1.00  0.00     0.031 C 
ATOM     41  C   UNL A   1      40.038  27.899  27.680  1.00  0.00     0.029 A 
ATOM     42  C   UNL A   1      40.986  27.746  28.778  1.00  0.00     0.049 A 
ATOM     43  H   UNL A   1      40.919  28.670  30.646  1.00  0.00     0.167 HD
ATOM     44  C   UNL A   1      40.781  30.887  34.434  1.00  0.00     0.034 A 
ATOM     45  C   UNL A   1      42.083  26.964  28.754  1.00  0.00     0.034 A 
ATOM     46  C   UNL A   1      41.894  29.974  34.556  1.00  0.00     0.049 A 
ATOM     47  C   UNL A   1      42.957  26.898  29.978  1.00  0.00     0.074 A 
ATOM     48  C   UNL A   1      42.714  29.754  35.648  1.00  0.00     0.029 A 
ATOM     49  N   UNL A   1      42.359  29.143  33.542  1.00  0.00    -0.354 N 
ATOM     50  N   UNL A   1      42.839  27.550  31.113  1.00  0.00    -0.248 NA
ATOM     51  C   UNL A   1      44.099  25.979  29.926  1.00  0.00     0.031 C 
ATOM     52  C   UNL A   1      43.724  28.863  35.269  1.00  0.00     0.029 A 
ATOM     53  C   UNL A   1      43.483  28.448  33.969  1.00  0.00     0.049 A 
ATOM     54  H   UNL A   1      41.950  29.059  32.651  1.00  0.00     0.167 HD
ATOM     55  C   UNL A   1      43.885  27.106  31.917  1.00  0.00     0.074 A 
ATOM     56  C   UNL A   1      44.604  26.113  31.144  1.00  0.00     0.031 C 
ATOM     57  C   UNL A   1      44.217  27.484  33.179  1.00  0.00     0.034 A 
BRANCH  44  58
ATOM     58  C   UNL A   1      40.488  31.845  35.569  1.00  0.00     0.023 A 
ATOM     59  C   UNL A   1      39.404  31.651  36.445  1.00  0.00     0.031 A 
ATOM     60  C   UNL A   1      41.272  32.999  35.749  1.00  0.00     0.131 A 
ATOM     61  C   UNL A   1      39.074  32.639  37.386  1.00  0.00     0.055 A 
ATOM     62  C   UNL A   1      40.996  33.931  36.752  1.00  0.00     0.041 A 
ATOM     63  F   UNL A   1      42.309  33.256  34.935  1.00  0.00    -0.206 F 
ATOM     64  C   UNL A   1      39.879  33.766  37.564  1.00  0.00     0.022 A 
BRANCH  61  65
ATOM     65  S   UNL A   1      37.475  32.521  38.236  1.00  0.00     0.124 S 
ATOM     66  O   UNL A   1      36.595  33.229  37.309  1.00  0.00    -0.237 OA
ATOM     67  O   UNL A   1      37.275  31.081  38.335  1.00  0.00    -0.237 OA
ATOM     68  O   UNL A   1      37.710  33.210  39.504  1.00  0.00    -0.744 OA
ENDBRANCH  61  65
ENDBRANCH  44  58
BRANCH  45  69
ATOM     69  C   UNL A   1      42.425  26.204  27.517  1.00  0.00     0.023 A 
ATOM     70  C   UNL A   1      42.118  24.842  27.382  1.00  0.00     0.031 A 
ATOM     71  C   UNL A   1      43.076  26.844  26.444  1.00  0.00     0.131 A 
ATOM     72  C   UNL A   1      42.485  24.156  26.212  1.00  0.00     0.055 A 
ATOM     73  C   UNL A   1      43.392  26.170  25.264  1.00  0.00     0.041 A 
ATOM     74  F   UNL A   1      43.388  28.147  26.520  1.00  0.00    -0.206 F 
ATOM     75  C   UNL A   1      43.104  24.814  25.148  1.00  0.00     0.022 A 
BRANCH  72  76
ATOM     76  S   UNL A   1      42.196  22.367  26.123  1.00  0.00     0.124 S 
ATOM     77  O   UNL A   1      42.780  21.908  27.378  1.00  0.00    -0.237 OA
ATOM     78  O   UNL A   1      40.742  22.299  26.029  1.00  0.00    -0.237 OA
ATOM     79  O   UNL A   1      42.916  21.967  24.916  1.00  0.00    -0.744 OA
ENDBRANCH  72  76
ENDBRANCH  45  69
BRANCH  57  80
ATOM     80  C   UNL A   1      45.407  26.794  33.807  1.00  0.00     0.023 A 
ATOM     81  C   UNL A   1      45.285  25.556  34.464  1.00  0.00     0.031 A 
ATOM     82  C   UNL A   1      46.678  27.396  33.771  1.00  0.00     0.131 A 
ATOM     83  C   UNL A   1      46.394  24.996  35.115  1.00  0.00     0.055 A 
ATOM     84  C   UNL A   1      47.794  26.797  34.357  1.00  0.00     0.041 A 
ATOM     85  F   UNL A   1      46.858  28.581  33.165  1.00  0.00    -0.206 F 
ATOM     86  C   UNL A   1      47.653  25.598  35.048  1.00  0.00     0.022 A 
BRANCH  83  87
ATOM     87  S   UNL A   1      46.144  23.530  36.155  1.00  0.00     0.124 S 
ATOM     88  O   UNL A   1      46.730  23.955  37.421  1.00  0.00    -0.237 OA
ATOM     89  O   UNL A   1      44.692  23.382  36.141  1.00  0.00    -0.237 OA
ATOM     90  O   UNL A   1      46.880  22.481  35.451  1.00  0.00    -0.744 OA
ENDBRANCH  83  87
ENDBRANCH  57  80
ENDBRANCH  31  32
ENDBRANCH  23  26
ENDBRANCH  21  22
ENDBRANCH  20  21
ENDBRANCH   1  20
TORSDOF 19
ENDMDL
MODEL 3
REMARK VINA RESULT:     -10.6      4.184      9.644
REMARK SMILES CC[C@@H]1CC[C@](O)([C@H](F)C(=O)NCCCCCCNC(=O)c2ccc(-c3c4nc(c(-c5cc(S(=O)(=O)[O-])ccc5F)c5ccc([nH]5)c(-c5cc(S(=O)(=O)[O-])ccc5F)c5nc(c(-c6cc(S(=O)(=O)[O-])ccc6F)c6ccc3[nH]6)C=C5)C=C4)cc2)C1
REMARK SMILES IDX 16 1 15 2 14 3 13 4 12 5 10 6 11 7 8 9 9 10 6 11 3 12 4 13
REMARK SMILES IDX 85 14 5 15 2 16 1 17 7 18 17 20 18 21 19 22 20 23 21 25
REMARK SMILES IDX 22 26 23 27 84 28 24 29 83 30 25 31 26 32 27 33 77 34 28 35
REMARK SMILES IDX 82 36 76 37 78 38 29 39 81 40 75 41 74 42 30 44 62 45 42 46
REMARK SMILES IDX 61 47 43 48 46 49 60 50 79 51 44 52 45 53 59 55 80 56 47 57
REMARK SMILES IDX 31 58 32 59 40 60 33 61 39 62 41 63 38 64 34 65 35 66 36 67
REMARK SMILES IDX 37 68 63 69 64 70 72 71 65 72 71 73 73 74 70 75 66 76 67 77
REMARK SMILES IDX 68 78 69 79 48 80 49 81 57 82 50 83 56 84 58 85 55 86 51 87
REMARK SMILES IDX 52 88 53 89 54 90
REMARK H PARENT 12 8 7 19 19 24 78 43 46 54
REMARK Flexibility Score: inf
ROOT
ATOM      1  C   UNL A   1      31.543  28.914  25.562  1.00  0.00     0.002 C 
ENDROOT
BRANCH   1   2
ATOM      2  C   UNL A   1      31.409  27.911  26.710  1.00  0.00     0.002 C 
BRANCH   2   3
ATOM      3  C   UNL A   1      31.813  26.471  26.392  1.00  0.00     0.021 C 
BRANCH   3   4
ATOM      4  C   UNL A   1      30.768  25.639  25.664  1.00  0.00     0.116 C 
BRANCH   4   5
ATOM      5  N   UNL A   1      29.986  24.783  26.522  1.00  0.00    -0.353 N 
ATOM      6  C   UNL A   1      30.181  23.463  26.805  1.00  0.00     0.257 C 
ATOM      7  O   UNL A   1      29.422  22.948  27.636  1.00  0.00    -0.272 OA
ATOM      8  H   UNL A   1      29.212  25.208  26.960  1.00  0.00     0.163 HD
BRANCH   6   9
ATOM      9  C   UNL A   1      31.245  22.624  26.087  1.00  0.00     0.286 C 
ATOM     10  F   UNL A   1      31.416  23.020  24.786  1.00  0.00    -0.234 F 
BRANCH   9  11
ATOM     11  C   UNL A   1      32.629  22.473  26.766  1.00  0.00     0.105 C 
ATOM     12  C   UNL A   1      35.031  23.025  26.594  1.00  0.00    -0.008 C 
ATOM     13  C   UNL A   1      34.849  21.507  26.498  1.00  0.00     0.007 C 
ATOM     14  C   UNL A   1      33.615  23.618  26.502  1.00  0.00     0.042 C 
ATOM     15  C   UNL A   1      33.380  21.278  26.160  1.00  0.00     0.039 C 
BRANCH  12  16
ATOM     16  C   UNL A   1      35.962  23.583  25.507  1.00  0.00     0.000 C 
ATOM     17  C   UNL A   1      35.234  23.861  24.197  1.00  0.00     0.004 C 
ENDBRANCH  12  16
BRANCH  11  18
ATOM     18  O   UNL A   1      32.487  22.264  28.173  1.00  0.00    -0.386 OA
ATOM     19  H   UNL A   1      32.036  23.027  28.570  1.00  0.00     0.211 HD
ENDBRANCH  11  18
ENDBRANCH   9  11
ENDBRANCH   6   9
ENDBRANCH   4   5
ENDBRANCH   3   4
ENDBRANCH   2   3
ENDBRANCH   1   2
BRANCH   1  20
ATOM     20  C   UNL A   1      32.882  29.649  25.465  1.00  0.00     0.021 C 
BRANCH  20  21
ATOM     21  C   UNL A   1      33.695  29.714  26.755  1.00  0.00     0.116 C 
BRANCH  21  22
ATOM     22  N   UNL A   1      33.667  31.031  27.369  1.00  0.00    -0.352 N 
ATOM     23  C   UNL A   1      34.515  31.588  28.291  1.00  0.00     0.251 C 
ATOM     24  H   UNL A   1      32.926  31.610  27.078  1.00  0.00     0.163 HD
ATOM     25  O   UNL A   1      34.221  32.665  28.808  1.00  0.00    -0.269 OA
BRANCH  23  26
ATOM     26  C   UNL A   1      35.758  30.889  28.689  1.00  0.00     0.039 A 
ATOM     27  C   UNL A   1      36.962  31.275  28.097  1.00  0.00     0.014 A 
ATOM     28  C   UNL A   1      35.743  29.854  29.630  1.00  0.00     0.014 A 
ATOM     29  C   UNL A   1      38.156  30.667  28.490  1.00  0.00     0.010 A 
ATOM     30  C   UNL A   1      36.943  29.303  30.077  1.00  0.00     0.010 A 
ATOM     31  C   UNL A   1      38.164  29.703  29.512  1.00  0.00    -0.014 A 
BRANCH  31  32
ATOM     32  C   UNL A   1      39.443  29.125  30.003  1.00  0.00     0.031 A 
ATOM     33  C   UNL A   1      40.176  29.757  31.155  1.00  0.00     0.074 A 
ATOM     34  C   UNL A   1      39.971  28.059  29.372  1.00  0.00     0.049 A 
ATOM     35  N   UNL A   1      41.316  29.413  31.700  1.00  0.00    -0.248 NA
ATOM     36  C   UNL A   1      39.564  30.954  31.747  1.00  0.00     0.031 C 
ATOM     37  C   UNL A   1      39.384  27.396  28.205  1.00  0.00     0.029 A 
ATOM     38  N   UNL A   1      41.120  27.348  29.612  1.00  0.00    -0.354 N 
ATOM     39  C   UNL A   1      41.563  30.356  32.693  1.00  0.00     0.074 A 
ATOM     40  C   UNL A   1      40.487  31.322  32.623  1.00  0.00     0.031 C 
ATOM     41  C   UNL A   1      40.165  26.365  27.846  1.00  0.00     0.029 A 
ATOM     42  C   UNL A   1      41.330  26.319  28.723  1.00  0.00     0.049 A 
ATOM     43  H   UNL A   1      41.738  27.555  30.352  1.00  0.00     0.167 HD
ATOM     44  C   UNL A   1      42.579  30.397  33.591  1.00  0.00     0.034 A 
ATOM     45  C   UNL A   1      42.352  25.448  28.611  1.00  0.00     0.034 A 
ATOM     46  C   UNL A   1      43.643  29.421  33.641  1.00  0.00     0.049 A 
ATOM     47  C   UNL A   1      43.477  25.515  29.609  1.00  0.00     0.074 A 
ATOM     48  C   UNL A   1      44.679  29.320  34.553  1.00  0.00     0.029 A 
ATOM     49  N   UNL A   1      43.823  28.389  32.727  1.00  0.00    -0.354 N 
ATOM     50  N   UNL A   1      43.654  26.362  30.598  1.00  0.00    -0.248 NA
ATOM     51  C   UNL A   1      44.530  24.501  29.487  1.00  0.00     0.031 C 
ATOM     52  C   UNL A   1      45.531  28.288  34.141  1.00  0.00     0.029 A 
ATOM     53  C   UNL A   1      44.978  27.679  33.025  1.00  0.00     0.049 A 
ATOM     54  H   UNL A   1      43.217  28.190  31.977  1.00  0.00     0.167 HD
ATOM     55  C   UNL A   1      44.833  25.971  31.227  1.00  0.00     0.074 A 
ATOM     56  C   UNL A   1      45.306  24.797  30.520  1.00  0.00     0.031 C 
ATOM     57  C   UNL A   1      45.463  26.529  32.293  1.00  0.00     0.034 A 
BRANCH  44  58
ATOM     58  C   UNL A   1      42.602  31.560  34.560  1.00  0.00     0.023 A 
ATOM     59  C   UNL A   1      41.818  31.569  35.729  1.00  0.00     0.031 A 
ATOM     60  C   UNL A   1      43.379  32.701  34.288  1.00  0.00     0.131 A 
ATOM     61  C   UNL A   1      41.749  32.727  36.520  1.00  0.00     0.055 A 
ATOM     62  C   UNL A   1      43.380  33.813  35.133  1.00  0.00     0.041 A 
ATOM     63  F   UNL A   1      44.134  32.766  33.180  1.00  0.00    -0.206 F 
ATOM     64  C   UNL A   1      42.546  33.839  36.246  1.00  0.00     0.022 A 
BRANCH  61  65
ATOM     65  S   UNL A   1      40.462  32.823  37.797  1.00  0.00     0.124 S 
ATOM     66  O   UNL A   1      40.151  34.251  37.795  1.00  0.00    -0.237 OA
ATOM     67  O   UNL A   1      39.427  31.942  37.270  1.00  0.00    -0.237 OA
ATOM     68  O   UNL A   1      41.139  32.345  39.001  1.00  0.00    -0.744 OA
ENDBRANCH  61  65
ENDBRANCH  44  58
BRANCH  45  69
ATOM     69  C   UNL A   1      42.364  24.457  27.496  1.00  0.00     0.023 A 
ATOM     70  C   UNL A   1      41.710  23.220  27.604  1.00  0.00     0.031 A 
ATOM     71  C   UNL A   1      43.042  24.743  26.296  1.00  0.00     0.131 A 
ATOM     72  C   UNL A   1      41.772  22.303  26.542  1.00  0.00     0.055 A 
ATOM     73  C   UNL A   1      43.057  23.849  25.225  1.00  0.00     0.041 A 
ATOM     74  F   UNL A   1      43.679  25.914  26.139  1.00  0.00    -0.206 F 
ATOM     75  C   UNL A   1      42.426  22.616  25.349  1.00  0.00     0.022 A 
BRANCH  72  76
ATOM     76  S   UNL A   1      41.033  20.661  26.763  1.00  0.00     0.124 S 
ATOM     77  O   UNL A   1      42.081  19.791  26.241  1.00  0.00    -0.237 OA
ATOM     78  O   UNL A   1      40.821  20.615  28.206  1.00  0.00    -0.237 OA
ATOM     79  O   UNL A   1      39.816  20.725  25.958  1.00  0.00    -0.744 OA
ENDBRANCH  72  76
ENDBRANCH  45  69
BRANCH  57  80
ATOM     80  C   UNL A   1      46.729  25.853  32.769  1.00  0.00     0.023 A 
ATOM     81  C   UNL A   1      47.965  26.062  32.130  1.00  0.00     0.031 A 
ATOM     82  C   UNL A   1      46.696  24.970  33.863  1.00  0.00     0.131 A 
ATOM     83  C   UNL A   1      49.098  25.344  32.544  1.00  0.00     0.055 A 
ATOM     84  C   UNL A   1      47.841  24.314  34.316  1.00  0.00     0.041 A 
ATOM     85  F   UNL A   1      45.544  24.724  34.510  1.00  0.00    -0.206 F 
ATOM     86  C   UNL A   1      49.048  24.487  33.647  1.00  0.00     0.022 A 
BRANCH  83  87
ATOM     87  S   UNL A   1      50.609  25.452  31.546  1.00  0.00     0.124 S 
ATOM     88  O   UNL A   1      50.071  25.615  30.200  1.00  0.00    -0.237 OA
ATOM     89  O   UNL A   1      51.275  26.620  32.113  1.00  0.00    -0.237 OA
ATOM     90  O   UNL A   1      51.277  24.176  31.797  1.00  0.00    -0.744 OA
ENDBRANCH  83  87
ENDBRANCH  57  80
ENDBRANCH  31  32
ENDBRANCH  23  26
ENDBRANCH  21  22
ENDBRANCH  20  21
ENDBRANCH   1  20
TORSDOF 19
ENDMDL
