MODEL 1
REMARK VINA RESULT:     -10.8      0.000      0.000
REMARK SMILES CC[NH2+][C@]1(C(=O)NCCCCCCNC(=O)c2ccc(-c3c4nc(c(-c5cc(S(=O)(=O)[O-])ccc5F)c5ccc([nH]5)c(-c5cc(S(=O)(=O)[O-])ccc5F)c5nc(c(-c6cc(S(=O)(=O)[O-])ccc6F)c6ccc3[nH]6)C=C5)C=C4)cc2)CC[C@@H]([N@@H+]2CCO[C@@H](CC)C2)C1
REMARK SMILES IDX 11 1 10 2 9 3 8 4 7 5 5 6 6 7 4 9 80 10 91 11 81 12 82 13
REMARK SMILES IDX 3 14 2 17 1 18 83 19 84 20 90 21 85 23 87 24 86 25 88 26
REMARK SMILES IDX 89 27 12 28 13 29 14 30 15 31 16 33 17 34 18 35 79 36 19 37
REMARK SMILES IDX 78 38 20 39 21 40 22 41 72 42 23 43 77 44 71 45 73 46 24 47
REMARK SMILES IDX 76 48 70 49 69 50 25 52 57 53 37 54 56 55 38 56 41 57 55 58
REMARK SMILES IDX 74 59 39 60 40 61 54 63 75 64 42 65 26 66 27 67 35 68 28 69
REMARK SMILES IDX 34 70 36 71 33 72 29 73 30 74 31 75 32 76 58 77 59 78 67 79
REMARK SMILES IDX 60 80 66 81 68 82 65 83 61 84 62 85 63 86 64 87 43 88 44 89
REMARK SMILES IDX 52 90 45 91 51 92 53 93 50 94 46 95 47 96 48 97 49 98
REMARK H PARENT 7 8 3 15 3 16 83 22 14 32 73 51 41 62
REMARK Flexibility Score: inf
ROOT
ATOM      1  C   UNL A   1      36.509  20.789  24.768  1.00  0.00     0.002 C 
ENDROOT
BRANCH   1   2
ATOM      2  C   UNL A   1      36.965  22.209  24.425  1.00  0.00     0.002 C 
BRANCH   2   3
ATOM      3  C   UNL A   1      36.354  22.788  23.146  1.00  0.00     0.021 C 
BRANCH   3   4
ATOM      4  C   UNL A   1      35.001  23.467  23.350  1.00  0.00     0.116 C 
BRANCH   4   5
ATOM      5  N   UNL A   1      35.002  24.324  24.522  1.00  0.00    -0.351 N 
ATOM      6  C   UNL A   1      34.000  25.099  25.035  1.00  0.00     0.281 C 
ATOM      7  O   UNL A   1      34.289  25.839  25.980  1.00  0.00    -0.268 OA
ATOM      8  H   UNL A   1      35.851  24.351  25.021  1.00  0.00     0.163 HD
BRANCH   6   9
ATOM      9  C   UNL A   1      32.548  25.000  24.467  1.00  0.00     0.181 C 
ATOM     10  C   UNL A   1      31.653  25.892  25.358  1.00  0.00     0.085 C 
ATOM     11  C   UNL A   1      32.389  25.668  23.081  1.00  0.00     0.144 C 
ATOM     12  C   UNL A   1      30.491  26.318  24.485  1.00  0.00     0.072 C 
ATOM     13  C   UNL A   1      31.088  26.489  23.083  1.00  0.00     0.191 C 
BRANCH   9  14
ATOM     14  N   UNL A   1      32.082  23.589  24.405  1.00  0.00    -0.334 N 
ATOM     15  H   UNL A   1      31.144  23.575  24.004  1.00  0.00     0.347 HD
ATOM     16  H   UNL A   1      32.752  23.073  23.834  1.00  0.00     0.347 HD
BRANCH  14  17
ATOM     17  C   UNL A   1      32.037  22.935  25.720  1.00  0.00     0.257 C 
ATOM     18  C   UNL A   1      30.601  22.610  26.096  1.00  0.00     0.071 C 
ENDBRANCH  14  17
ENDBRANCH   9  14
BRANCH  13  19
ATOM     19  N   UNL A   1      31.148  27.875  22.600  1.00  0.00    -0.328 N 
ATOM     20  C   UNL A   1      31.975  28.775  23.426  1.00  0.00     0.291 C 
ATOM     21  C   UNL A   1      29.881  28.544  22.254  1.00  0.00     0.294 C 
ATOM     22  H   UNL A   1      31.612  27.711  21.707  1.00  0.00     0.348 HD
ATOM     23  C   UNL A   1      31.232  29.535  24.541  1.00  0.00     0.222 C 
ATOM     24  C   UNL A   1      29.154  29.205  23.445  1.00  0.00     0.173 C 
ATOM     25  O   UNL A   1      30.029  30.159  24.076  1.00  0.00    -0.367 OA
BRANCH  24  26
ATOM     26  C   UNL A   1      27.876  29.944  23.034  1.00  0.00     0.034 C 
ATOM     27  C   UNL A   1      27.833  31.392  23.500  1.00  0.00     0.007 C 
ENDBRANCH  24  26
ENDBRANCH  13  19
ENDBRANCH   6   9
ENDBRANCH   4   5
ENDBRANCH   3   4
ENDBRANCH   2   3
ENDBRANCH   1   2
BRANCH   1  28
ATOM     28  C   UNL A   1      37.642  19.784  24.992  1.00  0.00     0.021 C 
BRANCH  28  29
ATOM     29  C   UNL A   1      38.908  20.381  25.599  1.00  0.00     0.116 C 
BRANCH  29  30
ATOM     30  N   UNL A   1      39.910  19.364  25.866  1.00  0.00    -0.352 N 
ATOM     31  C   UNL A   1      41.247  19.514  26.134  1.00  0.00     0.251 C 
ATOM     32  H   UNL A   1      39.584  18.435  25.855  1.00  0.00     0.163 HD
ATOM     33  O   UNL A   1      41.988  18.531  26.104  1.00  0.00    -0.269 OA
BRANCH  31  34
ATOM     34  C   UNL A   1      41.795  20.853  26.431  1.00  0.00     0.039 A 
ATOM     35  C   UNL A   1      42.117  21.704  25.372  1.00  0.00     0.014 A 
ATOM     36  C   UNL A   1      41.993  21.270  27.752  1.00  0.00     0.014 A 
ATOM     37  C   UNL A   1      42.582  22.993  25.639  1.00  0.00     0.010 A 
ATOM     38  C   UNL A   1      42.382  22.581  28.015  1.00  0.00     0.010 A 
ATOM     39  C   UNL A   1      42.686  23.456  26.961  1.00  0.00    -0.014 A 
BRANCH  39  40
ATOM     40  C   UNL A   1      43.104  24.852  27.255  1.00  0.00     0.031 A 
ATOM     41  C   UNL A   1      42.147  25.808  27.912  1.00  0.00     0.074 A 
ATOM     42  C   UNL A   1      44.328  25.272  26.876  1.00  0.00     0.049 A 
ATOM     43  N   UNL A   1      42.308  27.075  28.199  1.00  0.00    -0.248 NA
ATOM     44  C   UNL A   1      40.822  25.277  28.266  1.00  0.00     0.031 C 
ATOM     45  C   UNL A   1      45.325  24.450  26.188  1.00  0.00     0.029 A 
ATOM     46  N   UNL A   1      44.940  26.494  27.006  1.00  0.00    -0.354 N 
ATOM     47  C   UNL A   1      41.103  27.496  28.753  1.00  0.00     0.074 A 
ATOM     48  C   UNL A   1      40.203  26.364  28.702  1.00  0.00     0.031 C 
ATOM     49  C   UNL A   1      46.430  25.182  25.977  1.00  0.00     0.029 A 
ATOM     50  C   UNL A   1      46.205  26.539  26.467  1.00  0.00     0.049 A 
ATOM     51  H   UNL A   1      44.514  27.266  27.443  1.00  0.00     0.167 HD
ATOM     52  C   UNL A   1      40.787  28.709  29.272  1.00  0.00     0.034 A 
ATOM     53  C   UNL A   1      47.080  27.558  26.360  1.00  0.00     0.034 A 
ATOM     54  C   UNL A   1      41.703  29.823  29.319  1.00  0.00     0.049 A 
ATOM     55  C   UNL A   1      46.699  28.904  26.925  1.00  0.00     0.074 A 
ATOM     56  C   UNL A   1      41.512  31.072  29.886  1.00  0.00     0.029 A 
ATOM     57  N   UNL A   1      42.977  29.832  28.763  1.00  0.00    -0.354 N 
ATOM     58  N   UNL A   1      45.581  29.266  27.510  1.00  0.00    -0.248 NA
ATOM     59  C   UNL A   1      47.702  29.971  26.827  1.00  0.00     0.031 C 
ATOM     60  C   UNL A   1      42.631  31.860  29.598  1.00  0.00     0.029 A 
ATOM     61  C   UNL A   1      43.564  31.078  28.933  1.00  0.00     0.049 A 
ATOM     62  H   UNL A   1      43.402  29.066  28.313  1.00  0.00     0.167 HD
ATOM     63  C   UNL A   1      45.758  30.599  27.874  1.00  0.00     0.074 A 
ATOM     64  C   UNL A   1      47.096  30.966  27.459  1.00  0.00     0.031 C 
ATOM     65  C   UNL A   1      44.893  31.441  28.498  1.00  0.00     0.034 A 
BRANCH  52  66
ATOM     66  C   UNL A   1      39.380  28.898  29.796  1.00  0.00     0.023 A 
ATOM     67  C   UNL A   1      38.353  29.427  28.995  1.00  0.00     0.031 A 
ATOM     68  C   UNL A   1      39.068  28.569  31.128  1.00  0.00     0.131 A 
ATOM     69  C   UNL A   1      37.092  29.691  29.554  1.00  0.00     0.055 A 
ATOM     70  C   UNL A   1      37.787  28.749  31.652  1.00  0.00     0.041 A 
ATOM     71  F   UNL A   1      40.010  28.080  31.950  1.00  0.00    -0.206 F 
ATOM     72  C   UNL A   1      36.794  29.330  30.870  1.00  0.00     0.022 A 
BRANCH  69  73
ATOM     73  S   UNL A   1      35.903  30.661  28.587  1.00  0.00     0.124 S 
ATOM     74  O   UNL A   1      35.249  31.450  29.629  1.00  0.00    -0.237 OA
ATOM     75  O   UNL A   1      36.767  31.399  27.674  1.00  0.00    -0.237 OA
ATOM     76  O   UNL A   1      35.057  29.644  27.964  1.00  0.00    -0.744 OA
ENDBRANCH  69  73
ENDBRANCH  52  66
BRANCH  53  77
ATOM     77  C   UNL A   1      48.389  27.358  25.672  1.00  0.00     0.023 A 
ATOM     78  C   UNL A   1      48.521  27.546  24.287  1.00  0.00     0.031 A 
ATOM     79  C   UNL A   1      49.524  26.945  26.392  1.00  0.00     0.131 A 
ATOM     80  C   UNL A   1      49.749  27.279  23.660  1.00  0.00     0.055 A 
ATOM     81  C   UNL A   1      50.758  26.737  25.773  1.00  0.00     0.041 A 
ATOM     82  F   UNL A   1      49.455  26.754  27.720  1.00  0.00    -0.206 F 
ATOM     83  C   UNL A   1      50.872  26.892  24.396  1.00  0.00     0.022 A 
BRANCH  80  84
ATOM     84  S   UNL A   1      49.838  27.363  21.850  1.00  0.00     0.124 S 
ATOM     85  O   UNL A   1      49.746  28.800  21.615  1.00  0.00    -0.237 OA
ATOM     86  O   UNL A   1      51.135  26.751  21.582  1.00  0.00    -0.237 OA
ATOM     87  O   UNL A   1      48.682  26.583  21.416  1.00  0.00    -0.744 OA
ENDBRANCH  80  84
ENDBRANCH  53  77
BRANCH  65  88
ATOM     88  C   UNL A   1      45.391  32.835  28.804  1.00  0.00     0.023 A 
ATOM     89  C   UNL A   1      46.071  33.135  29.998  1.00  0.00     0.031 A 
ATOM     90  C   UNL A   1      45.173  33.880  27.889  1.00  0.00     0.131 A 
ATOM     91  C   UNL A   1      46.451  34.458  30.273  1.00  0.00     0.055 A 
ATOM     92  C   UNL A   1      45.615  35.180  28.137  1.00  0.00     0.041 A 
ATOM     93  F   UNL A   1      44.525  33.655  26.735  1.00  0.00    -0.206 F 
ATOM     94  C   UNL A   1      46.246  35.478  29.340  1.00  0.00     0.022 A 
BRANCH  91  95
ATOM     95  S   UNL A   1      47.122  34.849  31.912  1.00  0.00     0.124 S 
ATOM     96  O   UNL A   1      47.553  36.233  31.740  1.00  0.00    -0.237 OA
ATOM     97  O   UNL A   1      45.966  34.645  32.780  1.00  0.00    -0.237 OA
ATOM     98  O   UNL A   1      48.202  33.879  32.081  1.00  0.00    -0.744 OA
ENDBRANCH  91  95
ENDBRANCH  65  88
ENDBRANCH  39  40
ENDBRANCH  31  34
ENDBRANCH  29  30
ENDBRANCH  28  29
ENDBRANCH   1  28
TORSDOF 20
ENDMDL
MODEL 2
REMARK VINA RESULT:     -10.7      1.764      2.258
REMARK SMILES CC[NH2+][C@]1(C(=O)NCCCCCCNC(=O)c2ccc(-c3c4nc(c(-c5cc(S(=O)(=O)[O-])ccc5F)c5ccc([nH]5)c(-c5cc(S(=O)(=O)[O-])ccc5F)c5nc(c(-c6cc(S(=O)(=O)[O-])ccc6F)c6ccc3[nH]6)C=C5)C=C4)cc2)CC[C@@H]([N@@H+]2CCO[C@@H](CC)C2)C1
REMARK SMILES IDX 11 1 10 2 9 3 8 4 7 5 5 6 6 7 4 9 80 10 91 11 81 12 82 13
REMARK SMILES IDX 3 14 2 17 1 18 83 19 84 20 90 21 85 23 87 24 86 25 88 26
REMARK SMILES IDX 89 27 12 28 13 29 14 30 15 31 16 33 17 34 18 35 79 36 19 37
REMARK SMILES IDX 78 38 20 39 21 40 22 41 72 42 23 43 77 44 71 45 73 46 24 47
REMARK SMILES IDX 76 48 70 49 69 50 25 52 57 53 37 54 56 55 38 56 41 57 55 58
REMARK SMILES IDX 74 59 39 60 40 61 54 63 75 64 42 65 26 66 27 67 35 68 28 69
REMARK SMILES IDX 34 70 36 71 33 72 29 73 30 74 31 75 32 76 58 77 59 78 67 79
REMARK SMILES IDX 60 80 66 81 68 82 65 83 61 84 62 85 63 86 64 87 43 88 44 89
REMARK SMILES IDX 52 90 45 91 51 92 53 93 50 94 46 95 47 96 48 97 49 98
REMARK H PARENT 7 8 3 15 3 16 83 22 14 32 73 51 41 62
REMARK Flexibility Score: inf
ROOT
ATOM      1  C   UNL A   1      36.772  20.144  24.990  1.00  0.00     0.002 C 
ENDROOT
BRANCH   1   2
ATOM      2  C   UNL A   1      36.502  21.549  25.534  1.00  0.00     0.002 C 
BRANCH   2   3
ATOM      3  C   UNL A   1      35.288  21.655  26.461  1.00  0.00     0.021 C 
BRANCH   3   4
ATOM      4  C   UNL A   1      34.769  23.078  26.652  1.00  0.00     0.116 C 
BRANCH   4   5
ATOM      5  N   UNL A   1      33.420  23.089  27.190  1.00  0.00    -0.351 N 
ATOM      6  C   UNL A   1      32.240  23.401  26.573  1.00  0.00     0.281 C 
ATOM      7  O   UNL A   1      31.232  23.455  27.284  1.00  0.00    -0.268 OA
ATOM      8  H   UNL A   1      33.343  22.834  28.137  1.00  0.00     0.163 HD
BRANCH   6   9
ATOM      9  C   UNL A   1      32.184  23.627  25.028  1.00  0.00     0.181 C 
ATOM     10  C   UNL A   1      30.690  23.659  24.631  1.00  0.00     0.085 C 
ATOM     11  C   UNL A   1      32.660  25.036  24.602  1.00  0.00     0.144 C 
ATOM     12  C   UNL A   1      30.614  24.495  23.370  1.00  0.00     0.072 C 
ATOM     13  C   UNL A   1      31.681  25.581  23.547  1.00  0.00     0.191 C 
BRANCH   9  14
ATOM     14  N   UNL A   1      32.959  22.590  24.297  1.00  0.00    -0.334 N 
ATOM     15  H   UNL A   1      33.125  22.919  23.346  1.00  0.00     0.347 HD
ATOM     16  H   UNL A   1      33.828  22.442  24.811  1.00  0.00     0.347 HD
BRANCH  14  17
ATOM     17  C   UNL A   1      32.269  21.293  24.229  1.00  0.00     0.257 C 
ATOM     18  C   UNL A   1      32.167  20.829  22.785  1.00  0.00     0.071 C 
ENDBRANCH  14  17
ENDBRANCH   9  14
BRANCH  13  19
ATOM     19  N   UNL A   1      31.156  26.940  23.733  1.00  0.00    -0.328 N 
ATOM     20  C   UNL A   1      31.544  27.896  22.679  1.00  0.00     0.291 C 
ATOM     21  C   UNL A   1      31.316  27.570  25.056  1.00  0.00     0.294 C 
ATOM     22  H   UNL A   1      30.160  26.736  23.658  1.00  0.00     0.348 HD
ATOM     23  C   UNL A   1      32.830  28.702  22.944  1.00  0.00     0.222 C 
ATOM     24  C   UNL A   1      32.669  28.282  25.273  1.00  0.00     0.173 C 
ATOM     25  O   UNL A   1      32.857  29.282  24.254  1.00  0.00    -0.367 OA
BRANCH  24  26
ATOM     26  C   UNL A   1      32.772  28.978  26.635  1.00  0.00     0.034 C 
ATOM     27  C   UNL A   1      31.624  28.645  27.577  1.00  0.00     0.007 C 
ENDBRANCH  24  26
ENDBRANCH  13  19
ENDBRANCH   6   9
ENDBRANCH   4   5
ENDBRANCH   3   4
ENDBRANCH   2   3
ENDBRANCH   1   2
BRANCH   1  28
ATOM     28  C   UNL A   1      38.252  19.796  24.810  1.00  0.00     0.021 C 
BRANCH  28  29
ATOM     29  C   UNL A   1      39.149  20.224  25.967  1.00  0.00     0.116 C 
BRANCH  29  30
ATOM     30  N   UNL A   1      40.305  19.353  26.105  1.00  0.00    -0.352 N 
ATOM     31  C   UNL A   1      41.629  19.685  26.232  1.00  0.00     0.251 C 
ATOM     32  H   UNL A   1      40.109  18.389  26.108  1.00  0.00     0.163 HD
ATOM     33  O   UNL A   1      42.490  18.816  26.104  1.00  0.00    -0.269 OA
BRANCH  31  34
ATOM     34  C   UNL A   1      42.017  21.086  26.499  1.00  0.00     0.039 A 
ATOM     35  C   UNL A   1      42.145  21.513  27.821  1.00  0.00     0.014 A 
ATOM     36  C   UNL A   1      42.253  21.978  25.447  1.00  0.00     0.014 A 
ATOM     37  C   UNL A   1      42.565  22.818  28.088  1.00  0.00     0.010 A 
ATOM     38  C   UNL A   1      42.746  23.252  25.715  1.00  0.00     0.010 A 
ATOM     39  C   UNL A   1      42.904  23.688  27.039  1.00  0.00    -0.014 A 
BRANCH  39  40
ATOM     40  C   UNL A   1      43.428  25.052  27.312  1.00  0.00     0.031 A 
ATOM     41  C   UNL A   1      42.520  26.118  27.861  1.00  0.00     0.074 A 
ATOM     42  C   UNL A   1      44.710  25.343  27.012  1.00  0.00     0.049 A 
ATOM     43  N   UNL A   1      42.778  27.376  28.113  1.00  0.00    -0.248 NA
ATOM     44  C   UNL A   1      41.130  25.724  28.134  1.00  0.00     0.031 C 
ATOM     45  C   UNL A   1      45.673  24.405  26.430  1.00  0.00     0.029 A 
ATOM     46  N   UNL A   1      45.422  26.509  27.142  1.00  0.00    -0.354 N 
ATOM     47  C   UNL A   1      41.581  27.927  28.560  1.00  0.00     0.074 A 
ATOM     48  C   UNL A   1      40.585  26.880  28.483  1.00  0.00     0.031 C 
ATOM     49  C   UNL A   1      46.853  25.025  26.277  1.00  0.00     0.029 A 
ATOM     50  C   UNL A   1      46.722  26.416  26.698  1.00  0.00     0.049 A 
ATOM     51  H   UNL A   1      45.040  27.334  27.518  1.00  0.00     0.167 HD
ATOM     52  C   UNL A   1      41.343  29.185  29.009  1.00  0.00     0.034 A 
ATOM     53  C   UNL A   1      47.693  27.347  26.621  1.00  0.00     0.034 A 
ATOM     54  C   UNL A   1      42.353  30.213  29.085  1.00  0.00     0.049 A 
ATOM     55  C   UNL A   1      47.400  28.745  27.107  1.00  0.00     0.074 A 
ATOM     56  C   UNL A   1      42.240  31.497  29.590  1.00  0.00     0.029 A 
ATOM     57  N   UNL A   1      43.659  30.083  28.626  1.00  0.00    -0.354 N 
ATOM     58  N   UNL A   1      46.281  29.231  27.592  1.00  0.00    -0.248 NA
ATOM     59  C   UNL A   1      48.501  29.712  27.046  1.00  0.00     0.031 C 
ATOM     60  C   UNL A   1      43.444  32.168  29.358  1.00  0.00     0.029 A 
ATOM     61  C   UNL A   1      44.345  31.277  28.794  1.00  0.00     0.049 A 
ATOM     62  H   UNL A   1      44.041  29.263  28.237  1.00  0.00     0.167 HD
ATOM     63  C   UNL A   1      46.555  30.557  27.920  1.00  0.00     0.074 A 
ATOM     64  C   UNL A   1      47.948  30.783  27.594  1.00  0.00     0.031 C 
ATOM     65  C   UNL A   1      45.731  31.499  28.447  1.00  0.00     0.034 A 
BRANCH  52  66
ATOM     66  C   UNL A   1      39.926  29.523  29.419  1.00  0.00     0.023 A 
ATOM     67  C   UNL A   1      39.555  29.666  30.767  1.00  0.00     0.031 A 
ATOM     68  C   UNL A   1      38.923  29.676  28.445  1.00  0.00     0.131 A 
ATOM     69  C   UNL A   1      38.208  29.867  31.107  1.00  0.00     0.055 A 
ATOM     70  C   UNL A   1      37.601  29.967  28.785  1.00  0.00     0.041 A 
ATOM     71  F   UNL A   1      39.207  29.530  27.141  1.00  0.00    -0.206 F 
ATOM     72  C   UNL A   1      37.232  30.047  30.125  1.00  0.00     0.022 A 
BRANCH  69  73
ATOM     73  S   UNL A   1      37.726  29.727  32.851  1.00  0.00     0.124 S 
ATOM     74  O   UNL A   1      38.950  30.144  33.531  1.00  0.00    -0.237 OA
ATOM     75  O   UNL A   1      36.599  30.648  32.941  1.00  0.00    -0.237 OA
ATOM     76  O   UNL A   1      37.390  28.312  33.001  1.00  0.00    -0.744 OA
ENDBRANCH  69  73
ENDBRANCH  52  66
BRANCH  53  77
ATOM     77  C   UNL A   1      49.023  27.000  26.040  1.00  0.00     0.023 A 
ATOM     78  C   UNL A   1      49.381  27.404  24.745  1.00  0.00     0.031 A 
ATOM     79  C   UNL A   1      49.947  26.230  26.770  1.00  0.00     0.131 A 
ATOM     80  C   UNL A   1      50.612  27.000  24.202  1.00  0.00     0.055 A 
ATOM     81  C   UNL A   1      51.193  25.879  26.247  1.00  0.00     0.041 A 
ATOM     82  F   UNL A   1      49.657  25.820  28.015  1.00  0.00    -0.206 F 
ATOM     83  C   UNL A   1      51.526  26.254  24.950  1.00  0.00     0.022 A 
BRANCH  80  84
ATOM     84  S   UNL A   1      50.968  27.391  22.467  1.00  0.00     0.124 S 
ATOM     85  O   UNL A   1      50.898  28.848  22.471  1.00  0.00    -0.237 OA
ATOM     86  O   UNL A   1      52.295  26.812  22.292  1.00  0.00    -0.237 OA
ATOM     87  O   UNL A   1      49.895  26.716  21.738  1.00  0.00    -0.744 OA
ENDBRANCH  80  84
ENDBRANCH  53  77
BRANCH  65  88
ATOM     88  C   UNL A   1      46.333  32.854  28.739  1.00  0.00     0.023 A 
ATOM     89  C   UNL A   1      46.923  33.153  29.980  1.00  0.00     0.031 A 
ATOM     90  C   UNL A   1      46.307  33.865  27.762  1.00  0.00     0.131 A 
ATOM     91  C   UNL A   1      47.405  34.447  30.232  1.00  0.00     0.055 A 
ATOM     92  C   UNL A   1      46.851  35.129  27.993  1.00  0.00     0.041 A 
ATOM     93  F   UNL A   1      45.752  33.640  26.559  1.00  0.00    -0.206 F 
ATOM     94  C   UNL A   1      47.392  35.431  29.239  1.00  0.00     0.022 A 
BRANCH  91  95
ATOM     95  S   UNL A   1      47.953  34.861  31.911  1.00  0.00     0.124 S 
ATOM     96  O   UNL A   1      46.952  35.839  32.324  1.00  0.00    -0.237 OA
ATOM     97  O   UNL A   1      47.896  33.568  32.586  1.00  0.00    -0.237 OA
ATOM     98  O   UNL A   1      49.298  35.397  31.710  1.00  0.00    -0.744 OA
ENDBRANCH  91  95
ENDBRANCH  65  88
ENDBRANCH  39  40
ENDBRANCH  31  34
ENDBRANCH  29  30
ENDBRANCH  28  29
ENDBRANCH   1  28
TORSDOF 20
ENDMDL
MODEL 3
REMARK VINA RESULT:     -10.6      1.433      2.295
REMARK SMILES CC[NH2+][C@]1(C(=O)NCCCCCCNC(=O)c2ccc(-c3c4nc(c(-c5cc(S(=O)(=O)[O-])ccc5F)c5ccc([nH]5)c(-c5cc(S(=O)(=O)[O-])ccc5F)c5nc(c(-c6cc(S(=O)(=O)[O-])ccc6F)c6ccc3[nH]6)C=C5)C=C4)cc2)CC[C@@H]([N@@H+]2CCO[C@@H](CC)C2)C1
REMARK SMILES IDX 11 1 10 2 9 3 8 4 7 5 5 6 6 7 4 9 80 10 91 11 81 12 82 13
REMARK SMILES IDX 3 14 2 17 1 18 83 19 84 20 90 21 85 23 87 24 86 25 88 26
REMARK SMILES IDX 89 27 12 28 13 29 14 30 15 31 16 33 17 34 18 35 79 36 19 37
REMARK SMILES IDX 78 38 20 39 21 40 22 41 72 42 23 43 77 44 71 45 73 46 24 47
REMARK SMILES IDX 76 48 70 49 69 50 25 52 57 53 37 54 56 55 38 56 41 57 55 58
REMARK SMILES IDX 74 59 39 60 40 61 54 63 75 64 42 65 26 66 27 67 35 68 28 69
REMARK SMILES IDX 34 70 36 71 33 72 29 73 30 74 31 75 32 76 58 77 59 78 67 79
REMARK SMILES IDX 60 80 66 81 68 82 65 83 61 84 62 85 63 86 64 87 43 88 44 89
REMARK SMILES IDX 52 90 45 91 51 92 53 93 50 94 46 95 47 96 48 97 49 98
REMARK H PARENT 7 8 3 15 3 16 83 22 14 32 73 51 41 62
REMARK Flexibility Score: inf
ROOT
ATOM      1  C   UNL A   1      36.780  19.958  24.817  1.00  0.00     0.002 C 
ENDROOT
BRANCH   1   2
ATOM      2  C   UNL A   1      36.824  21.466  25.071  1.00  0.00     0.002 C 
BRANCH   2   3
ATOM      3  C   UNL A   1      36.365  22.329  23.892  1.00  0.00     0.021 C 
BRANCH   3   4
ATOM      4  C   UNL A   1      35.072  23.100  24.146  1.00  0.00     0.116 C 
BRANCH   4   5
ATOM      5  N   UNL A   1      34.011  22.678  23.247  1.00  0.00    -0.351 N 
ATOM      6  C   UNL A   1      32.785  22.148  23.536  1.00  0.00     0.281 C 
ATOM      7  O   UNL A   1      32.105  21.753  22.585  1.00  0.00    -0.268 OA
ATOM      8  H   UNL A   1      34.204  22.792  22.289  1.00  0.00     0.163 HD
BRANCH   6   9
ATOM      9  C   UNL A   1      32.267  22.098  25.009  1.00  0.00     0.181 C 
ATOM     10  C   UNL A   1      33.352  22.758  25.892  1.00  0.00     0.085 C 
ATOM     11  C   UNL A   1      31.047  23.018  25.257  1.00  0.00     0.144 C 
ATOM     12  C   UNL A   1      32.627  23.295  27.108  1.00  0.00     0.072 C 
ATOM     13  C   UNL A   1      31.264  23.764  26.585  1.00  0.00     0.191 C 
BRANCH   9  14
ATOM     14  N   UNL A   1      31.944  20.708  25.427  1.00  0.00    -0.334 N 
ATOM     15  H   UNL A   1      31.667  20.720  26.409  1.00  0.00     0.347 HD
ATOM     16  H   UNL A   1      31.194  20.376  24.820  1.00  0.00     0.347 HD
BRANCH  14  17
ATOM     17  C   UNL A   1      33.073  19.780  25.271  1.00  0.00     0.257 C 
ATOM     18  C   UNL A   1      32.655  18.581  24.435  1.00  0.00     0.071 C 
ENDBRANCH  14  17
ENDBRANCH   9  14
BRANCH  13  19
ATOM     19  N   UNL A   1      31.063  25.219  26.598  1.00  0.00    -0.328 N 
ATOM     20  C   UNL A   1      29.905  25.684  25.812  1.00  0.00     0.291 C 
ATOM     21  C   UNL A   1      32.227  26.081  26.323  1.00  0.00     0.294 C 
ATOM     22  H   UNL A   1      30.872  25.344  27.591  1.00  0.00     0.348 HD
ATOM     23  C   UNL A   1      30.195  26.059  24.346  1.00  0.00     0.222 C 
ATOM     24  C   UNL A   1      32.502  26.336  24.825  1.00  0.00     0.173 C 
ATOM     25  O   UNL A   1      31.336  26.916  24.212  1.00  0.00    -0.367 OA
BRANCH  24  26
ATOM     26  C   UNL A   1      33.679  27.287  24.583  1.00  0.00     0.034 C 
ATOM     27  C   UNL A   1      33.665  28.514  25.483  1.00  0.00     0.007 C 
ENDBRANCH  24  26
ENDBRANCH  13  19
ENDBRANCH   6   9
ENDBRANCH   4   5
ENDBRANCH   3   4
ENDBRANCH   2   3
ENDBRANCH   1   2
BRANCH   1  28
ATOM     28  C   UNL A   1      38.121  19.236  24.987  1.00  0.00     0.021 C 
BRANCH  28  29
ATOM     29  C   UNL A   1      39.176  20.031  25.748  1.00  0.00     0.116 C 
BRANCH  29  30
ATOM     30  N   UNL A   1      40.326  19.211  26.091  1.00  0.00    -0.352 N 
ATOM     31  C   UNL A   1      41.600  19.599  26.418  1.00  0.00     0.251 C 
ATOM     32  H   UNL A   1      40.168  18.240  26.090  1.00  0.00     0.163 HD
ATOM     33  O   UNL A   1      42.502  18.763  26.452  1.00  0.00    -0.269 OA
BRANCH  31  34
ATOM     34  C   UNL A   1      41.889  21.020  26.705  1.00  0.00     0.039 A 
ATOM     35  C   UNL A   1      42.196  21.398  28.013  1.00  0.00     0.014 A 
ATOM     36  C   UNL A   1      41.855  21.978  25.686  1.00  0.00     0.014 A 
ATOM     37  C   UNL A   1      42.526  22.726  28.288  1.00  0.00     0.010 A 
ATOM     38  C   UNL A   1      42.260  23.285  25.949  1.00  0.00     0.010 A 
ATOM     39  C   UNL A   1      42.596  23.674  27.254  1.00  0.00    -0.014 A 
BRANCH  39  40
ATOM     40  C   UNL A   1      43.023  25.073  27.522  1.00  0.00     0.031 A 
ATOM     41  C   UNL A   1      42.064  26.054  28.137  1.00  0.00     0.074 A 
ATOM     42  C   UNL A   1      44.259  25.471  27.159  1.00  0.00     0.049 A 
ATOM     43  N   UNL A   1      42.233  27.326  28.397  1.00  0.00    -0.248 NA
ATOM     44  C   UNL A   1      40.727  25.546  28.477  1.00  0.00     0.031 C 
ATOM     45  C   UNL A   1      45.261  24.622  26.511  1.00  0.00     0.029 A 
ATOM     46  N   UNL A   1      44.881  26.689  27.272  1.00  0.00    -0.354 N 
ATOM     47  C   UNL A   1      41.022  27.773  28.916  1.00  0.00     0.074 A 
ATOM     48  C   UNL A   1      40.111  26.649  28.874  1.00  0.00     0.031 C 
ATOM     49  C   UNL A   1      46.378  25.337  26.305  1.00  0.00     0.029 A 
ATOM     50  C   UNL A   1      46.158  26.707  26.758  1.00  0.00     0.049 A 
ATOM     51  H   UNL A   1      44.456  27.475  27.681  1.00  0.00     0.167 HD
ATOM     52  C   UNL A   1      40.708  29.001  29.400  1.00  0.00     0.034 A 
ATOM     53  C   UNL A   1      47.046  27.715  26.645  1.00  0.00     0.034 A 
ATOM     54  C   UNL A   1      41.635  30.106  29.439  1.00  0.00     0.049 A 
ATOM     55  C   UNL A   1      46.668  29.078  27.169  1.00  0.00     0.074 A 
ATOM     56  C   UNL A   1      41.447  31.370  29.972  1.00  0.00     0.029 A 
ATOM     57  N   UNL A   1      42.920  30.089  28.909  1.00  0.00    -0.354 N 
ATOM     58  N   UNL A   1      45.542  29.466  27.722  1.00  0.00    -0.248 NA
ATOM     59  C   UNL A   1      47.684  30.132  27.066  1.00  0.00     0.031 C 
ATOM     60  C   UNL A   1      42.580  32.139  29.687  1.00  0.00     0.029 A 
ATOM     61  C   UNL A   1      43.517  31.332  29.061  1.00  0.00     0.049 A 
ATOM     62  H   UNL A   1      43.346  29.308  28.486  1.00  0.00     0.167 HD
ATOM     63  C   UNL A   1      45.727  30.805  28.058  1.00  0.00     0.074 A 
ATOM     64  C   UNL A   1      47.077  31.148  27.661  1.00  0.00     0.031 C 
ATOM     65  C   UNL A   1      44.859  31.671  28.644  1.00  0.00     0.034 A 
BRANCH  52  66
ATOM     66  C   UNL A   1      39.293  29.217  29.890  1.00  0.00     0.023 A 
ATOM     67  C   UNL A   1      38.339  29.911  29.126  1.00  0.00     0.031 A 
ATOM     68  C   UNL A   1      38.901  28.745  31.156  1.00  0.00     0.131 A 
ATOM     69  C   UNL A   1      37.073  30.186  29.667  1.00  0.00     0.055 A 
ATOM     70  C   UNL A   1      37.611  28.944  31.651  1.00  0.00     0.041 A 
ATOM     71  F   UNL A   1      39.772  28.095  31.944  1.00  0.00    -0.206 F 
ATOM     72  C   UNL A   1      36.692  29.684  30.913  1.00  0.00     0.022 A 
BRANCH  69  73
ATOM     73  S   UNL A   1      35.991  31.349  28.788  1.00  0.00     0.124 S 
ATOM     74  O   UNL A   1      35.463  30.508  27.716  1.00  0.00    -0.237 OA
ATOM     75  O   UNL A   1      35.041  31.738  29.823  1.00  0.00    -0.237 OA
ATOM     76  O   UNL A   1      36.906  32.403  28.350  1.00  0.00    -0.744 OA
ENDBRANCH  69  73
ENDBRANCH  52  66
BRANCH  53  77
ATOM     77  C   UNL A   1      48.366  27.485  25.988  1.00  0.00     0.023 A 
ATOM     78  C   UNL A   1      48.519  27.597  24.597  1.00  0.00     0.031 A 
ATOM     79  C   UNL A   1      49.492  27.118  26.747  1.00  0.00     0.131 A 
ATOM     80  C   UNL A   1      49.757  27.304  24.004  1.00  0.00     0.055 A 
ATOM     81  C   UNL A   1      50.736  26.883  26.158  1.00  0.00     0.041 A 
ATOM     82  F   UNL A   1      49.403  26.999  28.082  1.00  0.00    -0.206 F 
ATOM     83  C   UNL A   1      50.871  26.963  24.776  1.00  0.00     0.022 A 
BRANCH  80  84
ATOM     84  S   UNL A   1      49.873  27.290  22.194  1.00  0.00     0.124 S 
ATOM     85  O   UNL A   1      48.794  26.378  21.834  1.00  0.00    -0.237 OA
ATOM     86  O   UNL A   1      49.662  28.696  21.866  1.00  0.00    -0.237 OA
ATOM     87  O   UNL A   1      51.223  26.790  21.943  1.00  0.00    -0.744 OA
ENDBRANCH  80  84
ENDBRANCH  53  77
BRANCH  65  88
ATOM     88  C   UNL A   1      45.366  33.066  28.927  1.00  0.00     0.023 A 
ATOM     89  C   UNL A   1      45.998  33.395  30.140  1.00  0.00     0.031 A 
ATOM     90  C   UNL A   1      45.204  34.084  27.970  1.00  0.00     0.131 A 
ATOM     91  C   UNL A   1      46.387  34.721  30.388  1.00  0.00     0.055 A 
ATOM     92  C   UNL A   1      45.657  35.385  28.195  1.00  0.00     0.041 A 
ATOM     93  F   UNL A   1      44.604  33.831  26.796  1.00  0.00    -0.206 F 
ATOM     94  C   UNL A   1      46.240  35.713  29.415  1.00  0.00     0.022 A 
BRANCH  91  95
ATOM     95  S   UNL A   1      46.993  35.155  32.041  1.00  0.00     0.124 S 
ATOM     96  O   UNL A   1      46.455  34.070  32.856  1.00  0.00    -0.237 OA
ATOM     97  O   UNL A   1      48.440  35.154  31.854  1.00  0.00    -0.237 OA
ATOM     98  O   UNL A   1      46.401  36.468  32.289  1.00  0.00    -0.744 OA
ENDBRANCH  91  95
ENDBRANCH  65  88
ENDBRANCH  39  40
ENDBRANCH  31  34
ENDBRANCH  29  30
ENDBRANCH  28  29
ENDBRANCH   1  28
TORSDOF 20
ENDMDL
