MODEL 1
REMARK VINA RESULT:     -10.8      0.000      0.000
REMARK SMILES COc1cc(/C=C2/SC(=S)N(c3ccc(C)cc3C)C2=O)ccc1O[C@@H](C)C(=O)NCCCCCCNC(=O)c1ccc(-c2c3nc(c(-c4cc(S(=O)(=O)[O-])ccc4F)c4ccc([nH]4)c(-c4cc(S(=O)(=O)[O-])ccc4F)c4nc(c(-c5cc(S(=O)(=O)[O-])ccc5F)c5ccc2[nH]5)C=C4)C=C3)cc1
REMARK SMILES IDX 33 1 32 2 31 3 30 4 28 5 29 6 26 8 27 9 25 10 24 11 3 12
REMARK SMILES IDX 4 13 5 14 23 15 22 16 2 17 1 18 6 19 7 20 8 21 20 22 9 23
REMARK SMILES IDX 11 24 21 25 10 26 12 27 13 28 18 29 14 30 17 31 19 32 15 33
REMARK SMILES IDX 16 34 34 35 35 36 36 37 37 38 38 39 39 41 40 42 41 43 102 44
REMARK SMILES IDX 42 45 101 46 43 47 44 48 45 49 95 50 46 51 100 52 94 53
REMARK SMILES IDX 96 54 47 55 99 56 93 57 92 58 48 60 80 61 60 62 79 63 61 64
REMARK SMILES IDX 64 65 78 66 97 67 62 68 63 69 77 71 98 72 65 73 49 74 50 75
REMARK SMILES IDX 58 76 51 77 57 78 59 79 56 80 52 81 53 82 54 83 55 84 81 85
REMARK SMILES IDX 82 86 90 87 83 88 89 89 91 90 88 91 84 92 85 93 86 94 87 95
REMARK SMILES IDX 66 96 67 97 75 98 68 99 74 100 76 101 73 102 69 103 70 104
REMARK SMILES IDX 71 105 72 106
REMARK H PARENT 30 7 37 40 96 59 64 70
REMARK Flexibility Score: inf
ROOT
ATOM      1  C   UNL A   1      37.424  22.551  25.113  1.00  0.00     0.002 C 
ENDROOT
BRANCH   1   2
ATOM      2  C   UNL A   1      36.305  21.735  24.455  1.00  0.00     0.021 C 
BRANCH   2   3
ATOM      3  C   UNL A   1      35.357  21.005  25.408  1.00  0.00     0.116 C 
BRANCH   3   4
ATOM      4  N   UNL A   1      35.216  19.594  25.141  1.00  0.00    -0.353 N 
ATOM      5  C   UNL A   1      34.287  18.850  24.496  1.00  0.00     0.260 C 
ATOM      6  O   UNL A   1      34.704  17.718  24.182  1.00  0.00    -0.271 OA
ATOM      7  H   UNL A   1      35.954  19.056  25.508  1.00  0.00     0.163 HD
BRANCH   5   8
ATOM      8  C   UNL A   1      32.780  19.211  24.107  1.00  0.00     0.259 C 
ATOM      9  C   UNL A   1      32.459  18.417  22.818  1.00  0.00     0.064 C 
BRANCH   8  10
ATOM     10  O   UNL A   1      31.881  20.291  23.992  1.00  0.00    -0.477 OA
BRANCH  10  11
ATOM     11  C   UNL A   1      32.209  21.494  24.499  1.00  0.00     0.162 A 
ATOM     12  C   UNL A   1      32.716  22.496  23.666  1.00  0.00     0.161 A 
ATOM     13  C   UNL A   1      33.062  23.742  24.201  1.00  0.00     0.058 A 
ATOM     14  C   UNL A   1      32.826  24.007  25.559  1.00  0.00    -0.020 A 
ATOM     15  C   UNL A   1      31.837  21.800  25.800  1.00  0.00     0.051 A 
ATOM     16  C   UNL A   1      32.098  23.071  26.305  1.00  0.00     0.012 A 
BRANCH  12  17
ATOM     17  O   UNL A   1      32.771  22.314  22.308  1.00  0.00    -0.493 OA
ATOM     18  C   UNL A   1      33.353  23.405  21.605  1.00  0.00     0.278 C 
ENDBRANCH  12  17
BRANCH  14  19
ATOM     19  C   UNL A   1      33.287  25.260  26.178  1.00  0.00     0.029 C 
ATOM     20  C   UNL A   1      32.830  26.500  25.911  1.00  0.00     0.081 C 
ATOM     21  S   UNL A   1      33.491  27.903  26.666  1.00  0.00    -0.054 SA
ATOM     22  C   UNL A   1      31.734  26.925  24.979  1.00  0.00     0.270 C 
ATOM     23  C   UNL A   1      32.280  28.977  25.973  1.00  0.00     0.152 C 
ATOM     24  N   UNL A   1      31.602  28.306  24.974  1.00  0.00    -0.261 N 
ATOM     25  O   UNL A   1      31.044  26.143  24.336  1.00  0.00    -0.268 OA
ATOM     26  S   UNL A   1      31.990  30.501  26.592  1.00  0.00    -0.051 S 
BRANCH  24  27
ATOM     27  C   UNL A   1      30.789  28.930  23.980  1.00  0.00     0.054 A 
ATOM     28  C   UNL A   1      29.422  29.137  24.239  1.00  0.00     0.027 A 
ATOM     29  C   UNL A   1      31.285  29.215  22.689  1.00  0.00    -0.027 A 
ATOM     30  C   UNL A   1      28.561  29.630  23.255  1.00  0.00     0.005 A 
ATOM     31  C   UNL A   1      30.406  29.738  21.717  1.00  0.00     0.009 A 
ATOM     32  C   UNL A   1      32.691  28.927  22.232  1.00  0.00     0.046 C 
ATOM     33  C   UNL A   1      29.047  29.930  21.985  1.00  0.00    -0.051 A 
ATOM     34  C   UNL A   1      28.113  30.414  20.915  1.00  0.00     0.044 C 
ENDBRANCH  24  27
ENDBRANCH  14  19
ENDBRANCH  10  11
ENDBRANCH   8  10
ENDBRANCH   5   8
ENDBRANCH   3   4
ENDBRANCH   2   3
ENDBRANCH   1   2
BRANCH   1  35
ATOM     35  C   UNL A   1      38.610  21.765  25.691  1.00  0.00     0.002 C 
BRANCH  35  36
ATOM     36  C   UNL A   1      39.691  22.571  26.420  1.00  0.00     0.021 C 
BRANCH  36  37
ATOM     37  C   UNL A   1      40.997  21.834  26.721  1.00  0.00     0.116 C 
BRANCH  37  38
ATOM     38  N   UNL A   1      41.987  21.971  25.663  1.00  0.00    -0.352 N 
ATOM     39  C   UNL A   1      42.734  23.048  25.242  1.00  0.00     0.251 C 
ATOM     40  H   UNL A   1      42.151  21.143  25.156  1.00  0.00     0.163 HD
ATOM     41  O   UNL A   1      43.391  22.934  24.208  1.00  0.00    -0.269 OA
BRANCH  39  42
ATOM     42  C   UNL A   1      42.755  24.334  25.984  1.00  0.00     0.039 A 
ATOM     43  C   UNL A   1      43.089  24.341  27.341  1.00  0.00     0.014 A 
ATOM     44  C   UNL A   1      42.386  25.533  25.378  1.00  0.00     0.014 A 
ATOM     45  C   UNL A   1      43.131  25.549  28.053  1.00  0.00     0.010 A 
ATOM     46  C   UNL A   1      42.495  26.747  26.062  1.00  0.00     0.010 A 
ATOM     47  C   UNL A   1      42.878  26.772  27.409  1.00  0.00    -0.014 A 
BRANCH  47  48
ATOM     48  C   UNL A   1      43.048  28.075  28.116  1.00  0.00     0.031 A 
ATOM     49  C   UNL A   1      41.861  28.825  28.666  1.00  0.00     0.074 A 
ATOM     50  C   UNL A   1      44.278  28.621  28.208  1.00  0.00     0.049 A 
ATOM     51  N   UNL A   1      41.823  29.990  29.262  1.00  0.00    -0.248 NA
ATOM     52  C   UNL A   1      40.544  28.192  28.504  1.00  0.00     0.031 C 
ATOM     53  C   UNL A   1      45.506  28.025  27.675  1.00  0.00     0.029 A 
ATOM     54  N   UNL A   1      44.704  29.799  28.772  1.00  0.00    -0.354 N 
ATOM     55  C   UNL A   1      40.483  30.231  29.552  1.00  0.00     0.074 A 
ATOM     56  C   UNL A   1      39.737  29.118  29.002  1.00  0.00     0.031 C 
ATOM     57  C   UNL A   1      46.546  28.824  27.962  1.00  0.00     0.029 A 
ATOM     58  C   UNL A   1      46.059  30.011  28.657  1.00  0.00     0.049 A 
ATOM     59  H   UNL A   1      44.096  30.432  29.217  1.00  0.00     0.167 HD
ATOM     60  C   UNL A   1      39.928  31.266  30.233  1.00  0.00     0.034 A 
ATOM     61  C   UNL A   1      46.826  31.047  29.057  1.00  0.00     0.034 A 
ATOM     62  C   UNL A   1      40.679  32.373  30.780  1.00  0.00     0.049 A 
ATOM     63  C   UNL A   1      46.181  32.205  29.774  1.00  0.00     0.074 A 
ATOM     64  C   UNL A   1      40.218  33.446  31.524  1.00  0.00     0.029 A 
ATOM     65  N   UNL A   1      42.049  32.555  30.636  1.00  0.00    -0.354 N 
ATOM     66  N   UNL A   1      44.918  32.385  30.084  1.00  0.00    -0.248 NA
ATOM     67  C   UNL A   1      47.067  33.295  30.205  1.00  0.00     0.031 C 
ATOM     68  C   UNL A   1      41.293  34.306  31.776  1.00  0.00     0.029 A 
ATOM     69  C   UNL A   1      42.441  33.736  31.251  1.00  0.00     0.049 A 
ATOM     70  H   UNL A   1      42.654  31.937  30.166  1.00  0.00     0.167 HD
ATOM     71  C   UNL A   1      44.869  33.591  30.779  1.00  0.00     0.074 A 
ATOM     72  C   UNL A   1      46.226  34.088  30.852  1.00  0.00     0.031 C 
ATOM     73  C   UNL A   1      43.796  34.227  31.313  1.00  0.00     0.034 A 
BRANCH  60  74
ATOM     74  C   UNL A   1      38.429  31.253  30.420  1.00  0.00     0.023 A 
ATOM     75  C   UNL A   1      37.581  32.008  29.589  1.00  0.00     0.031 A 
ATOM     76  C   UNL A   1      37.837  30.483  31.436  1.00  0.00     0.131 A 
ATOM     77  C   UNL A   1      36.200  32.032  29.833  1.00  0.00     0.055 A 
ATOM     78  C   UNL A   1      36.452  30.450  31.624  1.00  0.00     0.041 A 
ATOM     79  F   UNL A   1      38.593  29.754  32.271  1.00  0.00    -0.206 F 
ATOM     80  C   UNL A   1      35.626  31.239  30.829  1.00  0.00     0.022 A 
BRANCH  77  81
ATOM     81  S   UNL A   1      35.180  33.216  28.913  1.00  0.00     0.124 S 
ATOM     82  O   UNL A   1      34.920  32.482  27.677  1.00  0.00    -0.237 OA
ATOM     83  O   UNL A   1      34.036  33.401  29.800  1.00  0.00    -0.237 OA
ATOM     84  O   UNL A   1      36.052  34.380  28.768  1.00  0.00    -0.744 OA
ENDBRANCH  77  81
ENDBRANCH  60  74
BRANCH  61  85
ATOM     85  C   UNL A   1      48.293  31.051  28.785  1.00  0.00     0.023 A 
ATOM     86  C   UNL A   1      48.833  31.843  27.760  1.00  0.00     0.031 A 
ATOM     87  C   UNL A   1      49.168  30.219  29.507  1.00  0.00     0.131 A 
ATOM     88  C   UNL A   1      50.197  31.746  27.445  1.00  0.00     0.055 A 
ATOM     89  C   UNL A   1      50.534  30.169  29.228  1.00  0.00     0.041 A 
ATOM     90  F   UNL A   1      48.704  29.445  30.501  1.00  0.00    -0.206 F 
ATOM     91  C   UNL A   1      51.054  30.925  28.181  1.00  0.00     0.022 A 
BRANCH  88  92
ATOM     92  S   UNL A   1      50.815  32.635  25.990  1.00  0.00     0.124 S 
ATOM     93  O   UNL A   1      49.619  33.336  25.540  1.00  0.00    -0.237 OA
ATOM     94  O   UNL A   1      51.868  33.464  26.568  1.00  0.00    -0.237 OA
ATOM     95  O   UNL A   1      51.279  31.564  25.111  1.00  0.00    -0.744 OA
ENDBRANCH  88  92
ENDBRANCH  61  85
BRANCH  73  96
ATOM     96  C   UNL A   1      44.064  35.508  32.067  1.00  0.00     0.023 A 
ATOM     97  C   UNL A   1      43.921  36.768  31.462  1.00  0.00     0.031 A 
ATOM     98  C   UNL A   1      44.483  35.461  33.409  1.00  0.00     0.131 A 
ATOM     99  C   UNL A   1      44.246  37.930  32.180  1.00  0.00     0.055 A 
ATOM    100  C   UNL A   1      44.751  36.623  34.136  1.00  0.00     0.041 A 
ATOM    101  F   UNL A   1      44.637  34.284  34.036  1.00  0.00    -0.206 F 
ATOM    102  C   UNL A   1      44.645  37.865  33.518  1.00  0.00     0.022 A 
BRANCH  99 103
ATOM    103  S   UNL A   1      44.216  39.525  31.318  1.00  0.00     0.124 S 
ATOM    104  O   UNL A   1      45.555  40.040  31.584  1.00  0.00    -0.237 OA
ATOM    105  O   UNL A   1      43.947  39.131  29.938  1.00  0.00    -0.237 OA
ATOM    106  O   UNL A   1      43.129  40.250  31.975  1.00  0.00    -0.744 OA
ENDBRANCH  99 103
ENDBRANCH  73  96
ENDBRANCH  47  48
ENDBRANCH  39  42
ENDBRANCH  37  38
ENDBRANCH  36  37
ENDBRANCH  35  36
ENDBRANCH   1  35
TORSDOF 21
ENDMDL
MODEL 2
REMARK VINA RESULT:     -10.3      2.290      7.550
REMARK SMILES COc1cc(/C=C2/SC(=S)N(c3ccc(C)cc3C)C2=O)ccc1O[C@@H](C)C(=O)NCCCCCCNC(=O)c1ccc(-c2c3nc(c(-c4cc(S(=O)(=O)[O-])ccc4F)c4ccc([nH]4)c(-c4cc(S(=O)(=O)[O-])ccc4F)c4nc(c(-c5cc(S(=O)(=O)[O-])ccc5F)c5ccc2[nH]5)C=C4)C=C3)cc1
REMARK SMILES IDX 33 1 32 2 31 3 30 4 28 5 29 6 26 8 27 9 25 10 24 11 3 12
REMARK SMILES IDX 4 13 5 14 23 15 22 16 2 17 1 18 6 19 7 20 8 21 20 22 9 23
REMARK SMILES IDX 11 24 21 25 10 26 12 27 13 28 18 29 14 30 17 31 19 32 15 33
REMARK SMILES IDX 16 34 34 35 35 36 36 37 37 38 38 39 39 41 40 42 41 43 102 44
REMARK SMILES IDX 42 45 101 46 43 47 44 48 45 49 95 50 46 51 100 52 94 53
REMARK SMILES IDX 96 54 47 55 99 56 93 57 92 58 48 60 80 61 60 62 79 63 61 64
REMARK SMILES IDX 64 65 78 66 97 67 62 68 63 69 77 71 98 72 65 73 49 74 50 75
REMARK SMILES IDX 58 76 51 77 57 78 59 79 56 80 52 81 53 82 54 83 55 84 81 85
REMARK SMILES IDX 82 86 90 87 83 88 89 89 91 90 88 91 84 92 85 93 86 94 87 95
REMARK SMILES IDX 66 96 67 97 75 98 68 99 74 100 76 101 73 102 69 103 70 104
REMARK SMILES IDX 71 105 72 106
REMARK H PARENT 30 7 37 40 96 59 64 70
REMARK Flexibility Score: inf
ROOT
ATOM      1  C   UNL A   1      37.683  22.144  25.454  1.00  0.00     0.002 C 
ENDROOT
BRANCH   1   2
ATOM      2  C   UNL A   1      36.374  21.801  24.732  1.00  0.00     0.021 C 
BRANCH   2   3
ATOM      3  C   UNL A   1      35.364  20.976  25.530  1.00  0.00     0.116 C 
BRANCH   3   4
ATOM      4  N   UNL A   1      35.335  19.575  25.185  1.00  0.00    -0.353 N 
ATOM      5  C   UNL A   1      34.467  18.797  24.496  1.00  0.00     0.260 C 
ATOM      6  O   UNL A   1      34.972  17.721  24.121  1.00  0.00    -0.271 OA
ATOM      7  H   UNL A   1      36.114  19.078  25.522  1.00  0.00     0.163 HD
BRANCH   5   8
ATOM      8  C   UNL A   1      32.935  19.058  24.126  1.00  0.00     0.259 C 
ATOM      9  C   UNL A   1      32.616  18.145  22.917  1.00  0.00     0.064 C 
BRANCH   8  10
ATOM     10  O   UNL A   1      31.985  20.084  23.948  1.00  0.00    -0.477 OA
BRANCH  10  11
ATOM     11  C   UNL A   1      32.245  21.325  24.401  1.00  0.00     0.162 A 
ATOM     12  C   UNL A   1      32.671  22.323  23.517  1.00  0.00     0.161 A 
ATOM     13  C   UNL A   1      32.947  23.608  23.996  1.00  0.00     0.058 A 
ATOM     14  C   UNL A   1      32.721  23.914  25.346  1.00  0.00    -0.020 A 
ATOM     15  C   UNL A   1      31.879  21.660  25.697  1.00  0.00     0.051 A 
ATOM     16  C   UNL A   1      32.069  22.965  26.145  1.00  0.00     0.012 A 
BRANCH  12  17
ATOM     17  O   UNL A   1      32.710  22.089  22.167  1.00  0.00    -0.493 OA
ATOM     18  C   UNL A   1      33.360  23.115  21.426  1.00  0.00     0.278 C 
ENDBRANCH  12  17
BRANCH  14  19
ATOM     19  C   UNL A   1      33.113  25.217  25.906  1.00  0.00     0.029 C 
ATOM     20  C   UNL A   1      32.595  26.417  25.577  1.00  0.00     0.081 C 
ATOM     21  S   UNL A   1      33.179  27.888  26.264  1.00  0.00    -0.054 SA
ATOM     22  C   UNL A   1      31.484  26.739  24.621  1.00  0.00     0.270 C 
ATOM     23  C   UNL A   1      31.918  28.862  25.516  1.00  0.00     0.152 C 
ATOM     24  N   UNL A   1      31.281  28.110  24.548  1.00  0.00    -0.261 N 
ATOM     25  O   UNL A   1      30.839  25.892  24.015  1.00  0.00    -0.268 OA
ATOM     26  S   UNL A   1      31.547  30.398  26.059  1.00  0.00    -0.051 S 
BRANCH  24  27
ATOM     27  C   UNL A   1      30.444  28.643  23.522  1.00  0.00     0.054 A 
ATOM     28  C   UNL A   1      30.942  29.658  22.685  1.00  0.00     0.027 A 
ATOM     29  C   UNL A   1      29.083  28.281  23.413  1.00  0.00    -0.027 A 
ATOM     30  C   UNL A   1      30.124  30.295  21.749  1.00  0.00     0.005 A 
ATOM     31  C   UNL A   1      28.280  28.916  22.444  1.00  0.00     0.009 A 
ATOM     32  C   UNL A   1      28.385  27.305  24.324  1.00  0.00     0.046 C 
ATOM     33  C   UNL A   1      28.785  29.931  21.624  1.00  0.00    -0.051 A 
ATOM     34  C   UNL A   1      27.896  30.649  20.652  1.00  0.00     0.044 C 
ENDBRANCH  24  27
ENDBRANCH  14  19
ENDBRANCH  10  11
ENDBRANCH   8  10
ENDBRANCH   5   8
ENDBRANCH   3   4
ENDBRANCH   2   3
ENDBRANCH   1   2
BRANCH   1  35
ATOM     35  C   UNL A   1      38.690  21.002  25.648  1.00  0.00     0.002 C 
BRANCH  35  36
ATOM     36  C   UNL A   1      40.069  21.375  26.201  1.00  0.00     0.021 C 
BRANCH  36  37
ATOM     37  C   UNL A   1      40.849  20.254  26.890  1.00  0.00     0.116 C 
BRANCH  37  38
ATOM     38  N   UNL A   1      41.967  19.766  26.097  1.00  0.00    -0.352 N 
ATOM     39  C   UNL A   1      43.088  20.398  25.608  1.00  0.00     0.251 C 
ATOM     40  H   UNL A   1      41.912  18.809  25.869  1.00  0.00     0.163 HD
ATOM     41  O   UNL A   1      43.809  19.784  24.822  1.00  0.00    -0.269 OA
BRANCH  39  42
ATOM     42  C   UNL A   1      43.439  21.791  25.986  1.00  0.00     0.039 A 
ATOM     43  C   UNL A   1      43.397  22.798  25.019  1.00  0.00     0.014 A 
ATOM     44  C   UNL A   1      43.871  22.111  27.271  1.00  0.00     0.014 A 
ATOM     45  C   UNL A   1      43.707  24.123  25.364  1.00  0.00     0.010 A 
ATOM     46  C   UNL A   1      44.113  23.439  27.637  1.00  0.00     0.010 A 
ATOM     47  C   UNL A   1      44.026  24.465  26.689  1.00  0.00    -0.014 A 
BRANCH  47  48
ATOM     48  C   UNL A   1      44.227  25.885  27.100  1.00  0.00     0.031 A 
ATOM     49  C   UNL A   1      45.596  26.517  27.075  1.00  0.00     0.074 A 
ATOM     50  C   UNL A   1      43.176  26.595  27.561  1.00  0.00     0.049 A 
ATOM     51  N   UNL A   1      45.958  27.720  27.446  1.00  0.00    -0.248 NA
ATOM     52  C   UNL A   1      46.704  25.680  26.594  1.00  0.00     0.031 C 
ATOM     53  C   UNL A   1      41.807  26.089  27.685  1.00  0.00     0.029 A 
ATOM     54  N   UNL A   1      43.091  27.886  28.021  1.00  0.00    -0.354 N 
ATOM     55  C   UNL A   1      47.332  27.790  27.239  1.00  0.00     0.074 A 
ATOM     56  C   UNL A   1      47.745  26.480  26.774  1.00  0.00     0.031 C 
ATOM     57  C   UNL A   1      41.016  27.065  28.157  1.00  0.00     0.029 A 
ATOM     58  C   UNL A   1      41.824  28.252  28.416  1.00  0.00     0.049 A 
ATOM     59  H   UNL A   1      43.864  28.494  28.062  1.00  0.00     0.167 HD
ATOM     60  C   UNL A   1      48.168  28.848  27.394  1.00  0.00     0.034 A 
ATOM     61  C   UNL A   1      41.363  29.407  28.937  1.00  0.00     0.034 A 
ATOM     62  C   UNL A   1      47.749  30.151  27.857  1.00  0.00     0.049 A 
ATOM     63  C   UNL A   1      42.318  30.556  29.141  1.00  0.00     0.074 A 
ATOM     64  C   UNL A   1      48.509  31.300  28.006  1.00  0.00     0.029 A 
ATOM     65  N   UNL A   1      46.459  30.479  28.254  1.00  0.00    -0.354 N 
ATOM     66  N   UNL A   1      43.605  30.614  28.886  1.00  0.00    -0.248 NA
ATOM     67  C   UNL A   1      41.757  31.796  29.691  1.00  0.00     0.031 C 
ATOM     68  C   UNL A   1      47.696  32.301  28.549  1.00  0.00     0.029 A 
ATOM     69  C   UNL A   1      46.411  31.801  28.674  1.00  0.00     0.049 A 
ATOM     70  H   UNL A   1      45.691  29.863  28.240  1.00  0.00     0.167 HD
ATOM     71  C   UNL A   1      43.994  31.911  29.212  1.00  0.00     0.074 A 
ATOM     72  C   UNL A   1      42.808  32.602  29.669  1.00  0.00     0.031 C 
ATOM     73  C   UNL A   1      45.224  32.480  29.136  1.00  0.00     0.034 A 
BRANCH  60  74
ATOM     74  C   UNL A   1      49.628  28.637  27.066  1.00  0.00     0.023 A 
ATOM     75  C   UNL A   1      50.140  28.921  25.787  1.00  0.00     0.031 A 
ATOM     76  C   UNL A   1      50.520  28.147  28.036  1.00  0.00     0.131 A 
ATOM     77  C   UNL A   1      51.484  28.648  25.492  1.00  0.00     0.055 A 
ATOM     78  C   UNL A   1      51.875  27.950  27.758  1.00  0.00     0.041 A 
ATOM     79  F   UNL A   1      50.089  27.842  29.269  1.00  0.00    -0.206 F 
ATOM     80  C   UNL A   1      52.361  28.187  26.475  1.00  0.00     0.022 A 
BRANCH  77  81
ATOM     81  S   UNL A   1      52.036  28.778  23.770  1.00  0.00     0.124 S 
ATOM     82  O   UNL A   1      52.029  30.225  23.567  1.00  0.00    -0.237 OA
ATOM     83  O   UNL A   1      53.349  28.143  23.810  1.00  0.00    -0.237 OA
ATOM     84  O   UNL A   1      51.012  28.047  23.025  1.00  0.00    -0.744 OA
ENDBRANCH  77  81
ENDBRANCH  60  74
BRANCH  61  85
ATOM     85  C   UNL A   1      39.927  29.547  29.315  1.00  0.00     0.023 A 
ATOM     86  C   UNL A   1      39.537  29.571  30.664  1.00  0.00     0.031 A 
ATOM     87  C   UNL A   1      38.919  29.597  28.336  1.00  0.00     0.131 A 
ATOM     88  C   UNL A   1      38.174  29.586  30.998  1.00  0.00     0.055 A 
ATOM     89  C   UNL A   1      37.566  29.671  28.673  1.00  0.00     0.041 A 
ATOM     90  F   UNL A   1      39.237  29.582  27.032  1.00  0.00    -0.206 F 
ATOM     91  C   UNL A   1      37.187  29.650  30.012  1.00  0.00     0.022 A 
BRANCH  88  92
ATOM     92  S   UNL A   1      37.707  29.418  32.743  1.00  0.00     0.124 S 
ATOM     93  O   UNL A   1      36.433  30.126  32.779  1.00  0.00    -0.237 OA
ATOM     94  O   UNL A   1      37.642  27.968  32.898  1.00  0.00    -0.237 OA
ATOM     95  O   UNL A   1      38.805  30.071  33.452  1.00  0.00    -0.744 OA
ENDBRANCH  88  92
ENDBRANCH  61  85
BRANCH  73  96
ATOM     96  C   UNL A   1      45.329  33.939  29.509  1.00  0.00     0.023 A 
ATOM     97  C   UNL A   1      45.076  34.962  28.580  1.00  0.00     0.031 A 
ATOM     98  C   UNL A   1      45.704  34.308  30.814  1.00  0.00     0.131 A 
ATOM     99  C   UNL A   1      45.252  36.304  28.951  1.00  0.00     0.055 A 
ATOM    100  C   UNL A   1      45.823  35.646  31.193  1.00  0.00     0.041 A 
ATOM    101  F   UNL A   1      45.959  33.372  31.742  1.00  0.00    -0.206 F 
ATOM    102  C   UNL A   1      45.608  36.652  30.257  1.00  0.00     0.022 A 
BRANCH  99 103
ATOM    103  S   UNL A   1      45.083  37.590  27.683  1.00  0.00     0.124 S 
ATOM    104  O   UNL A   1      45.415  38.798  28.430  1.00  0.00    -0.237 OA
ATOM    105  O   UNL A   1      46.059  37.172  26.681  1.00  0.00    -0.237 OA
ATOM    106  O   UNL A   1      43.686  37.481  27.267  1.00  0.00    -0.744 OA
ENDBRANCH  99 103
ENDBRANCH  73  96
ENDBRANCH  47  48
ENDBRANCH  39  42
ENDBRANCH  37  38
ENDBRANCH  36  37
ENDBRANCH  35  36
ENDBRANCH   1  35
TORSDOF 21
ENDMDL
MODEL 3
REMARK VINA RESULT:     -10.2      5.539     12.504
REMARK SMILES COc1cc(/C=C2/SC(=S)N(c3ccc(C)cc3C)C2=O)ccc1O[C@@H](C)C(=O)NCCCCCCNC(=O)c1ccc(-c2c3nc(c(-c4cc(S(=O)(=O)[O-])ccc4F)c4ccc([nH]4)c(-c4cc(S(=O)(=O)[O-])ccc4F)c4nc(c(-c5cc(S(=O)(=O)[O-])ccc5F)c5ccc2[nH]5)C=C4)C=C3)cc1
REMARK SMILES IDX 33 1 32 2 31 3 30 4 28 5 29 6 26 8 27 9 25 10 24 11 3 12
REMARK SMILES IDX 4 13 5 14 23 15 22 16 2 17 1 18 6 19 7 20 8 21 20 22 9 23
REMARK SMILES IDX 11 24 21 25 10 26 12 27 13 28 18 29 14 30 17 31 19 32 15 33
REMARK SMILES IDX 16 34 34 35 35 36 36 37 37 38 38 39 39 41 40 42 41 43 102 44
REMARK SMILES IDX 42 45 101 46 43 47 44 48 45 49 95 50 46 51 100 52 94 53
REMARK SMILES IDX 96 54 47 55 99 56 93 57 92 58 48 60 80 61 60 62 79 63 61 64
REMARK SMILES IDX 64 65 78 66 97 67 62 68 63 69 77 71 98 72 65 73 49 74 50 75
REMARK SMILES IDX 58 76 51 77 57 78 59 79 56 80 52 81 53 82 54 83 55 84 81 85
REMARK SMILES IDX 82 86 90 87 83 88 89 89 91 90 88 91 84 92 85 93 86 94 87 95
REMARK SMILES IDX 66 96 67 97 75 98 68 99 74 100 76 101 73 102 69 103 70 104
REMARK SMILES IDX 71 105 72 106
REMARK H PARENT 30 7 37 40 96 59 64 70
REMARK Flexibility Score: inf
ROOT
ATOM      1  C   UNL A   1      47.731  26.564  30.472  1.00  0.00     0.002 C 
ENDROOT
BRANCH   1   2
ATOM      2  C   UNL A   1      49.027  26.774  29.679  1.00  0.00     0.021 C 
BRANCH   2   3
ATOM      3  C   UNL A   1      49.331  25.731  28.603  1.00  0.00     0.116 C 
BRANCH   3   4
ATOM      4  N   UNL A   1      50.455  26.057  27.759  1.00  0.00    -0.353 N 
ATOM      5  C   UNL A   1      50.682  27.012  26.827  1.00  0.00     0.260 C 
ATOM      6  O   UNL A   1      51.893  27.172  26.580  1.00  0.00    -0.271 OA
ATOM      7  H   UNL A   1      51.223  25.455  27.889  1.00  0.00     0.163 HD
BRANCH   5   8
ATOM      8  C   UNL A   1      49.642  27.920  26.022  1.00  0.00     0.259 C 
ATOM      9  C   UNL A   1      49.903  27.655  24.520  1.00  0.00     0.064 C 
BRANCH   8  10
ATOM     10  O   UNL A   1      49.085  29.214  25.976  1.00  0.00    -0.477 OA
BRANCH  10  11
ATOM     11  C   UNL A   1      47.961  29.486  26.666  1.00  0.00     0.162 A 
ATOM     12  C   UNL A   1      46.717  29.455  26.027  1.00  0.00     0.161 A 
ATOM     13  C   UNL A   1      45.554  29.746  26.749  1.00  0.00     0.058 A 
ATOM     14  C   UNL A   1      45.631  29.990  28.128  1.00  0.00    -0.020 A 
ATOM     15  C   UNL A   1      48.026  29.578  28.049  1.00  0.00     0.051 A 
ATOM     16  C   UNL A   1      46.855  29.776  28.776  1.00  0.00     0.012 A 
BRANCH  12  17
ATOM     17  O   UNL A   1      46.610  29.030  24.728  1.00  0.00    -0.493 OA
ATOM     18  C   UNL A   1      46.201  27.674  24.601  1.00  0.00     0.278 C 
ENDBRANCH  12  17
BRANCH  14  19
ATOM     19  C   UNL A   1      44.447  30.416  28.891  1.00  0.00     0.029 C 
ATOM     20  C   UNL A   1      43.981  31.675  29.007  1.00  0.00     0.081 C 
ATOM     21  S   UNL A   1      42.609  32.059  29.981  1.00  0.00    -0.054 SA
ATOM     22  C   UNL A   1      44.492  32.937  28.377  1.00  0.00     0.270 C 
ATOM     23  C   UNL A   1      42.563  33.734  29.443  1.00  0.00     0.152 C 
ATOM     24  N   UNL A   1      43.741  34.030  28.786  1.00  0.00    -0.261 N 
ATOM     25  O   UNL A   1      45.432  32.974  27.592  1.00  0.00    -0.268 OA
ATOM     26  S   UNL A   1      41.204  34.688  29.635  1.00  0.00    -0.051 S 
BRANCH  24  27
ATOM     27  C   UNL A   1      44.207  35.349  28.500  1.00  0.00     0.054 A 
ATOM     28  C   UNL A   1      44.943  36.045  29.476  1.00  0.00     0.027 A 
ATOM     29  C   UNL A   1      43.827  36.030  27.323  1.00  0.00    -0.027 A 
ATOM     30  C   UNL A   1      45.315  37.379  29.291  1.00  0.00     0.005 A 
ATOM     31  C   UNL A   1      44.235  37.368  27.143  1.00  0.00     0.009 A 
ATOM     32  C   UNL A   1      42.935  35.453  26.254  1.00  0.00     0.046 C 
ATOM     33  C   UNL A   1      44.960  38.051  28.124  1.00  0.00    -0.051 A 
ATOM     34  C   UNL A   1      45.318  39.497  27.949  1.00  0.00     0.044 C 
ENDBRANCH  24  27
ENDBRANCH  14  19
ENDBRANCH  10  11
ENDBRANCH   8  10
ENDBRANCH   5   8
ENDBRANCH   3   4
ENDBRANCH   2   3
ENDBRANCH   1   2
BRANCH   1  35
ATOM     35  C   UNL A   1      47.865  25.967  31.879  1.00  0.00     0.002 C 
BRANCH  35  36
ATOM     36  C   UNL A   1      49.255  26.007  32.524  1.00  0.00     0.021 C 
BRANCH  36  37
ATOM     37  C   UNL A   1      49.441  27.001  33.672  1.00  0.00     0.116 C 
BRANCH  37  38
ATOM     38  N   UNL A   1      49.077  26.449  34.969  1.00  0.00    -0.352 N 
ATOM     39  C   UNL A   1      47.901  26.487  35.683  1.00  0.00     0.251 C 
ATOM     40  H   UNL A   1      49.805  25.960  35.416  1.00  0.00     0.163 HD
ATOM     41  O   UNL A   1      47.906  26.071  36.841  1.00  0.00    -0.269 OA
BRANCH  39  42
ATOM     42  C   UNL A   1      46.643  27.027  35.106  1.00  0.00     0.039 A 
ATOM     43  C   UNL A   1      46.612  28.340  34.628  1.00  0.00     0.014 A 
ATOM     44  C   UNL A   1      45.469  26.277  35.086  1.00  0.00     0.014 A 
ATOM     45  C   UNL A   1      45.437  28.859  34.064  1.00  0.00     0.010 A 
ATOM     46  C   UNL A   1      44.317  26.764  34.461  1.00  0.00     0.010 A 
ATOM     47  C   UNL A   1      44.288  28.061  33.933  1.00  0.00    -0.014 A 
BRANCH  47  48
ATOM     48  C   UNL A   1      43.076  28.552  33.216  1.00  0.00     0.031 A 
ATOM     49  C   UNL A   1      42.810  28.169  31.782  1.00  0.00     0.074 A 
ATOM     50  C   UNL A   1      42.237  29.402  33.842  1.00  0.00     0.049 A 
ATOM     51  N   UNL A   1      41.834  28.545  30.993  1.00  0.00    -0.248 NA
ATOM     52  C   UNL A   1      43.779  27.266  31.146  1.00  0.00     0.031 C 
ATOM     53  C   UNL A   1      42.403  29.894  35.213  1.00  0.00     0.029 A 
ATOM     54  N   UNL A   1      41.084  30.014  33.413  1.00  0.00    -0.354 N 
ATOM     55  C   UNL A   1      42.066  27.922  29.770  1.00  0.00     0.074 A 
ATOM     56  C   UNL A   1      43.315  27.200  29.906  1.00  0.00     0.031 C 
ATOM     57  C   UNL A   1      41.378  30.704  35.519  1.00  0.00     0.029 A 
ATOM     58  C   UNL A   1      40.504  30.831  34.357  1.00  0.00     0.049 A 
ATOM     59  H   UNL A   1      40.707  29.880  32.514  1.00  0.00     0.167 HD
ATOM     60  C   UNL A   1      41.301  27.928  28.649  1.00  0.00     0.034 A 
ATOM     61  C   UNL A   1      39.401  31.604  34.296  1.00  0.00     0.034 A 
ATOM     62  C   UNL A   1      40.055  28.650  28.520  1.00  0.00     0.049 A 
ATOM     63  C   UNL A   1      38.589  31.628  33.025  1.00  0.00     0.074 A 
ATOM     64  C   UNL A   1      39.184  28.685  27.444  1.00  0.00     0.029 A 
ATOM     65  N   UNL A   1      39.507  29.472  29.496  1.00  0.00    -0.354 N 
ATOM     66  N   UNL A   1      38.800  30.987  31.899  1.00  0.00    -0.248 NA
ATOM     67  C   UNL A   1      37.386  32.470  33.022  1.00  0.00     0.031 C 
ATOM     68  C   UNL A   1      38.144  29.572  27.744  1.00  0.00     0.029 A 
ATOM     69  C   UNL A   1      38.326  30.038  29.035  1.00  0.00     0.049 A 
ATOM     70  H   UNL A   1      39.897  29.630  30.386  1.00  0.00     0.167 HD
ATOM     71  C   UNL A   1      37.734  31.324  31.069  1.00  0.00     0.074 A 
ATOM     72  C   UNL A   1      36.878  32.211  31.826  1.00  0.00     0.031 C 
ATOM     73  C   UNL A   1      37.483  30.929  29.795  1.00  0.00     0.034 A 
BRANCH  60  74
ATOM     74  C   UNL A   1      41.795  27.132  27.464  1.00  0.00     0.023 A 
ATOM     75  C   UNL A   1      41.689  25.729  27.427  1.00  0.00     0.031 A 
ATOM     76  C   UNL A   1      42.379  27.774  26.358  1.00  0.00     0.131 A 
ATOM     77  C   UNL A   1      42.222  25.013  26.346  1.00  0.00     0.055 A 
ATOM     78  C   UNL A   1      42.837  27.060  25.248  1.00  0.00     0.041 A 
ATOM     79  F   UNL A   1      42.523  29.108  26.340  1.00  0.00    -0.206 F 
ATOM     80  C   UNL A   1      42.774  25.670  25.244  1.00  0.00     0.022 A 
BRANCH  77  81
ATOM     81  S   UNL A   1      42.301  23.205  26.460  1.00  0.00     0.124 S 
ATOM     82  O   UNL A   1      42.695  22.841  25.102  1.00  0.00    -0.237 OA
ATOM     83  O   UNL A   1      43.308  22.999  27.496  1.00  0.00    -0.237 OA
ATOM     84  O   UNL A   1      40.939  22.824  26.830  1.00  0.00    -0.744 OA
ENDBRANCH  77  81
ENDBRANCH  60  74
BRANCH  61  85
ATOM     85  C   UNL A   1      38.990  32.432  35.467  1.00  0.00     0.023 A 
ATOM     86  C   UNL A   1      39.480  33.737  35.633  1.00  0.00     0.031 A 
ATOM     87  C   UNL A   1      38.151  31.910  36.467  1.00  0.00     0.131 A 
ATOM     88  C   UNL A   1      39.174  34.456  36.798  1.00  0.00     0.055 A 
ATOM     89  C   UNL A   1      37.802  32.651  37.597  1.00  0.00     0.041 A 
ATOM     90  F   UNL A   1      37.651  30.669  36.356  1.00  0.00    -0.206 F 
ATOM     91  C   UNL A   1      38.328  33.927  37.775  1.00  0.00     0.022 A 
BRANCH  88  92
ATOM     92  S   UNL A   1      39.984  36.057  37.066  1.00  0.00     0.124 S 
ATOM     93  O   UNL A   1      39.225  36.588  38.192  1.00  0.00    -0.237 OA
ATOM     94  O   UNL A   1      41.358  35.656  37.348  1.00  0.00    -0.237 OA
ATOM     95  O   UNL A   1      39.787  36.753  35.797  1.00  0.00    -0.744 OA
ENDBRANCH  88  92
ENDBRANCH  61  85
BRANCH  73  96
ATOM     96  C   UNL A   1      36.201  31.419  29.165  1.00  0.00     0.023 A 
ATOM     97  C   UNL A   1      35.802  32.764  29.247  1.00  0.00     0.031 A 
ATOM     98  C   UNL A   1      35.360  30.520  28.485  1.00  0.00     0.131 A 
ATOM     99  C   UNL A   1      34.570  33.163  28.706  1.00  0.00     0.055 A 
ATOM    100  C   UNL A   1      34.162  30.933  27.900  1.00  0.00     0.041 A 
ATOM    101  F   UNL A   1      35.692  29.223  28.377  1.00  0.00    -0.206 F 
ATOM    102  C   UNL A   1      33.756  32.259  28.019  1.00  0.00     0.022 A 
BRANCH  99 103
ATOM    103  S   UNL A   1      34.008  34.866  28.978  1.00  0.00     0.124 S 
ATOM    104  O   UNL A   1      34.403  35.098  30.362  1.00  0.00    -0.237 OA
ATOM    105  O   UNL A   1      34.756  35.608  27.968  1.00  0.00    -0.237 OA
ATOM    106  O   UNL A   1      32.566  34.792  28.747  1.00  0.00    -0.744 OA
ENDBRANCH  99 103
ENDBRANCH  73  96
ENDBRANCH  47  48
ENDBRANCH  39  42
ENDBRANCH  37  38
ENDBRANCH  36  37
ENDBRANCH  35  36
ENDBRANCH   1  35
TORSDOF 21
ENDMDL
