MODEL 1
REMARK VINA RESULT:     -11.9      0.000      0.000
REMARK SMILES COc1cccc(-c2ccc(=O)n(CC(=O)N[C@@H](C(=O)NCCCCCCNC(=O)c3ccc(-c4c5nc(c(-c6cc(S(=O)(=O)[O-])ccc6F)c6ccc([nH]6)c(-c6cc(S(=O)(=O)[O-])ccc6F)c6nc(c(-c7cc(S(=O)(=O)[O-])ccc7F)c7ccc4[nH]7)C=C6)C=C5)cc3)C(C)C)n2)c1
REMARK SMILES IDX 23 1 22 2 21 3 19 4 20 5 18 7 17 8 15 9 16 10 14 12 13 13
REMARK SMILES IDX 8 14 9 15 97 16 10 17 11 18 12 19 7 20 3 21 4 22 98 23 5 24
REMARK SMILES IDX 6 25 2 26 1 27 94 28 95 29 96 30 24 31 25 32 26 33 27 34
REMARK SMILES IDX 28 35 29 36 30 38 31 39 32 40 93 41 33 42 92 43 34 44 35 45
REMARK SMILES IDX 36 46 86 47 37 48 91 49 85 50 87 51 38 52 90 53 84 54 83 55
REMARK SMILES IDX 39 57 71 58 51 59 70 60 52 61 55 62 69 63 88 64 53 65 54 66
REMARK SMILES IDX 68 68 89 69 56 70 40 71 41 72 49 73 42 74 48 75 50 76 47 77
REMARK SMILES IDX 43 78 44 79 45 80 46 81 72 82 73 83 81 84 74 85 80 86 82 87
REMARK SMILES IDX 79 88 75 89 76 90 77 91 78 92 57 93 58 94 66 95 59 96 65 97
REMARK SMILES IDX 67 98 64 99 60 100 61 101 62 102 63 103
REMARK H PARENT 21 6 17 11 28 37 87 56 55 67
REMARK Flexibility Score: inf
ROOT
ATOM      1  C   UNL A   1      33.649  25.008  22.662  1.00  0.00     0.021 C 
ENDROOT
BRANCH   1   2
ATOM      2  C   UNL A   1      32.534  25.720  23.414  1.00  0.00     0.116 C 
BRANCH   2   3
ATOM      3  N   UNL A   1      32.996  26.369  24.621  1.00  0.00    -0.354 N 
ATOM      4  C   UNL A   1      32.278  26.851  25.679  1.00  0.00     0.242 C 
ATOM      5  O   UNL A   1      32.935  27.215  26.659  1.00  0.00    -0.273 OA
ATOM      6  H   UNL A   1      33.972  26.478  24.691  1.00  0.00     0.163 HD
BRANCH   4   7
ATOM      7  C   UNL A   1      30.715  26.808  25.686  1.00  0.00     0.173 C 
BRANCH   7   8
ATOM      8  N   UNL A   1      30.250  25.678  26.496  1.00  0.00    -0.342 N 
ATOM      9  C   UNL A   1      30.373  24.329  26.305  1.00  0.00     0.242 C 
ATOM     10  O   UNL A   1      29.933  23.609  27.207  1.00  0.00    -0.273 OA
ATOM     11  H   UNL A   1      29.767  25.932  27.315  1.00  0.00     0.164 HD
BRANCH   9  12
ATOM     12  C   UNL A   1      31.125  23.724  25.107  1.00  0.00     0.248 C 
BRANCH  12  13
ATOM     13  N   UNL A   1      32.142  22.719  25.419  1.00  0.00    -0.220 N 
ATOM     14  C   UNL A   1      32.969  20.636  24.978  1.00  0.00     0.091 A 
ATOM     15  C   UNL A   1      34.048  20.761  25.969  1.00  0.00     0.036 A 
ATOM     16  N   UNL A   1      32.087  21.540  24.706  1.00  0.00    -0.169 NA
ATOM     17  C   UNL A   1      34.155  21.952  26.559  1.00  0.00     0.075 A 
ATOM     18  C   UNL A   1      33.159  23.021  26.316  1.00  0.00     0.267 A 
ATOM     19  O   UNL A   1      33.251  24.069  26.950  1.00  0.00    -0.268 OA
BRANCH  14  20
ATOM     20  C   UNL A   1      32.995  19.403  24.186  1.00  0.00     0.006 A 
ATOM     21  C   UNL A   1      33.791  17.135  24.033  1.00  0.00     0.119 A 
ATOM     22  C   UNL A   1      33.144  17.021  22.798  1.00  0.00     0.046 A 
ATOM     23  C   UNL A   1      33.726  18.339  24.721  1.00  0.00     0.056 A 
ATOM     24  C   UNL A   1      32.420  18.094  22.263  1.00  0.00     0.005 A 
ATOM     25  C   UNL A   1      32.341  19.299  22.959  1.00  0.00     0.011 A 
BRANCH  21  26
ATOM     26  O   UNL A   1      34.472  16.028  24.457  1.00  0.00    -0.497 OA
ATOM     27  C   UNL A   1      35.475  16.258  25.445  1.00  0.00     0.278 C 
ENDBRANCH  21  26
ENDBRANCH  14  20
ENDBRANCH  12  13
ENDBRANCH   9  12
ENDBRANCH   7   8
BRANCH   7  28
ATOM     28  C   UNL A   1      30.149  26.740  24.239  1.00  0.00     0.015 C 
ATOM     29  C   UNL A   1      28.680  26.302  24.176  1.00  0.00     0.010 C 
ATOM     30  C   UNL A   1      30.270  28.102  23.536  1.00  0.00     0.010 C 
ENDBRANCH   7  28
ENDBRANCH   4   7
ENDBRANCH   2   3
ENDBRANCH   1   2
BRANCH   1  31
ATOM     31  C   UNL A   1      34.731  24.425  23.573  1.00  0.00     0.002 C 
BRANCH  31  32
ATOM     32  C   UNL A   1      35.245  23.039  23.166  1.00  0.00     0.002 C 
BRANCH  32  33
ATOM     33  C   UNL A   1      36.709  22.758  23.514  1.00  0.00     0.021 C 
BRANCH  33  34
ATOM     34  C   UNL A   1      37.158  23.261  24.878  1.00  0.00     0.116 C 
BRANCH  34  35
ATOM     35  N   UNL A   1      38.018  22.304  25.553  1.00  0.00    -0.352 N 
ATOM     36  C   UNL A   1      39.134  22.517  26.324  1.00  0.00     0.251 C 
ATOM     37  H   UNL A   1      37.762  21.361  25.441  1.00  0.00     0.163 HD
ATOM     38  O   UNL A   1      39.849  21.565  26.623  1.00  0.00    -0.269 OA
BRANCH  36  39
ATOM     39  C   UNL A   1      39.487  23.887  26.765  1.00  0.00     0.039 A 
ATOM     40  C   UNL A   1      39.254  24.247  28.094  1.00  0.00     0.014 A 
ATOM     41  C   UNL A   1      40.031  24.817  25.876  1.00  0.00     0.014 A 
ATOM     42  C   UNL A   1      39.620  25.519  28.542  1.00  0.00     0.010 A 
ATOM     43  C   UNL A   1      40.477  26.049  26.345  1.00  0.00     0.010 A 
ATOM     44  C   UNL A   1      40.268  26.419  27.681  1.00  0.00    -0.014 A 
BRANCH  44  45
ATOM     45  C   UNL A   1      40.714  27.755  28.155  1.00  0.00     0.031 A 
ATOM     46  C   UNL A   1      42.180  28.095  28.184  1.00  0.00     0.074 A 
ATOM     47  C   UNL A   1      39.805  28.643  28.606  1.00  0.00     0.049 A 
ATOM     48  N   UNL A   1      42.772  29.179  28.620  1.00  0.00    -0.248 NA
ATOM     49  C   UNL A   1      43.105  27.066  27.685  1.00  0.00     0.031 C 
ATOM     50  C   UNL A   1      38.359  28.416  28.660  1.00  0.00     0.029 A 
ATOM     51  N   UNL A   1      39.958  29.912  29.106  1.00  0.00    -0.354 N 
ATOM     52  C   UNL A   1      44.136  28.958  28.455  1.00  0.00     0.074 A 
ATOM     53  C   UNL A   1      44.282  27.609  27.951  1.00  0.00     0.031 C 
ATOM     54  C   UNL A   1      37.758  29.520  29.132  1.00  0.00     0.029 A 
ATOM     55  C   UNL A   1      38.774  30.512  29.466  1.00  0.00     0.049 A 
ATOM     56  H   UNL A   1      40.835  30.350  29.200  1.00  0.00     0.167 HD
ATOM     57  C   UNL A   1      45.168  29.809  28.679  1.00  0.00     0.034 A 
ATOM     58  C   UNL A   1      38.535  31.720  30.014  1.00  0.00     0.034 A 
ATOM     59  C   UNL A   1      45.002  31.151  29.182  1.00  0.00     0.049 A 
ATOM     60  C   UNL A   1      39.700  32.633  30.300  1.00  0.00     0.074 A 
ATOM     61  C   UNL A   1      45.970  32.114  29.404  1.00  0.00     0.029 A 
ATOM     62  N   UNL A   1      43.788  31.718  29.553  1.00  0.00    -0.354 N 
ATOM     63  N   UNL A   1      40.981  32.427  30.094  1.00  0.00    -0.248 NA
ATOM     64  C   UNL A   1      39.386  33.943  30.884  1.00  0.00     0.031 C 
ATOM     65  C   UNL A   1      45.355  33.231  29.982  1.00  0.00     0.029 A 
ATOM     66  C   UNL A   1      43.990  33.003  30.036  1.00  0.00     0.049 A 
ATOM     67  H   UNL A   1      42.913  31.273  29.483  1.00  0.00     0.167 HD
ATOM     68  C   UNL A   1      41.622  33.598  30.493  1.00  0.00     0.074 A 
ATOM     69  C   UNL A   1      40.584  34.507  30.935  1.00  0.00     0.031 C 
ATOM     70  C   UNL A   1      42.946  33.897  30.487  1.00  0.00     0.034 A 
BRANCH  57  71
ATOM     71  C   UNL A   1      46.563  29.294  28.406  1.00  0.00     0.023 A 
ATOM     72  C   UNL A   1      47.017  29.047  27.097  1.00  0.00     0.031 A 
ATOM     73  C   UNL A   1      47.442  29.011  29.467  1.00  0.00     0.131 A 
ATOM     74  C   UNL A   1      48.269  28.451  26.888  1.00  0.00     0.055 A 
ATOM     75  C   UNL A   1      48.725  28.504  29.247  1.00  0.00     0.041 A 
ATOM     76  F   UNL A   1      47.063  29.204  30.740  1.00  0.00    -0.206 F 
ATOM     77  C   UNL A   1      49.138  28.203  27.952  1.00  0.00     0.022 A 
BRANCH  74  78
ATOM     78  S   UNL A   1      48.674  27.852  25.225  1.00  0.00     0.124 S 
ATOM     79  O   UNL A   1      47.513  28.300  24.459  1.00  0.00    -0.237 OA
ATOM     80  O   UNL A   1      49.930  28.535  24.941  1.00  0.00    -0.237 OA
ATOM     81  O   UNL A   1      48.775  26.404  25.397  1.00  0.00    -0.744 OA
ENDBRANCH  74  78
ENDBRANCH  57  71
BRANCH  58  82
ATOM     82  C   UNL A   1      37.140  32.140  30.338  1.00  0.00     0.023 A 
ATOM     83  C   UNL A   1      36.326  32.755  29.373  1.00  0.00     0.031 A 
ATOM     84  C   UNL A   1      36.610  31.966  31.630  1.00  0.00     0.131 A 
ATOM     85  C   UNL A   1      35.048  33.216  29.724  1.00  0.00     0.055 A 
ATOM     86  C   UNL A   1      35.318  32.376  31.960  1.00  0.00     0.041 A 
ATOM     87  F   UNL A   1      37.343  31.381  32.591  1.00  0.00    -0.206 F 
ATOM     88  C   UNL A   1      34.533  33.017  31.006  1.00  0.00     0.022 A 
BRANCH  85  89
ATOM     89  S   UNL A   1      34.099  34.162  28.502  1.00  0.00     0.124 S 
ATOM     90  O   UNL A   1      34.971  35.309  28.271  1.00  0.00    -0.237 OA
ATOM     91  O   UNL A   1      33.986  33.209  27.403  1.00  0.00    -0.237 OA
ATOM     92  O   UNL A   1      32.849  34.459  29.198  1.00  0.00    -0.744 OA
ENDBRANCH  85  89
ENDBRANCH  58  82
BRANCH  70  93
ATOM     93  C   UNL A   1      43.340  35.287  30.930  1.00  0.00     0.023 A 
ATOM     94  C   UNL A   1      43.399  35.646  32.287  1.00  0.00     0.031 A 
ATOM     95  C   UNL A   1      43.653  36.269  29.972  1.00  0.00     0.131 A 
ATOM     96  C   UNL A   1      43.703  36.969  32.647  1.00  0.00     0.055 A 
ATOM     97  C   UNL A   1      44.022  37.564  30.338  1.00  0.00     0.041 A 
ATOM     98  F   UNL A   1      43.608  35.984  28.660  1.00  0.00    -0.206 F 
ATOM     99  C   UNL A   1      44.035  37.924  31.682  1.00  0.00     0.022 A 
BRANCH  96 100
ATOM    100  S   UNL A   1      43.560  37.453  34.390  1.00  0.00     0.124 S 
ATOM    101  O   UNL A   1      42.775  38.680  34.299  1.00  0.00    -0.237 OA
ATOM    102  O   UNL A   1      42.880  36.304  34.978  1.00  0.00    -0.237 OA
ATOM    103  O   UNL A   1      44.948  37.633  34.811  1.00  0.00    -0.744 OA
ENDBRANCH  96 100
ENDBRANCH  70  93
ENDBRANCH  44  45
ENDBRANCH  36  39
ENDBRANCH  34  35
ENDBRANCH  33  34
ENDBRANCH  32  33
ENDBRANCH  31  32
ENDBRANCH   1  31
TORSDOF 22
ENDMDL
MODEL 2
REMARK VINA RESULT:     -11.6      2.351      7.722
REMARK SMILES COc1cccc(-c2ccc(=O)n(CC(=O)N[C@@H](C(=O)NCCCCCCNC(=O)c3ccc(-c4c5nc(c(-c6cc(S(=O)(=O)[O-])ccc6F)c6ccc([nH]6)c(-c6cc(S(=O)(=O)[O-])ccc6F)c6nc(c(-c7cc(S(=O)(=O)[O-])ccc7F)c7ccc4[nH]7)C=C6)C=C5)cc3)C(C)C)n2)c1
REMARK SMILES IDX 23 1 22 2 21 3 19 4 20 5 18 7 17 8 15 9 16 10 14 12 13 13
REMARK SMILES IDX 8 14 9 15 97 16 10 17 11 18 12 19 7 20 3 21 4 22 98 23 5 24
REMARK SMILES IDX 6 25 2 26 1 27 94 28 95 29 96 30 24 31 25 32 26 33 27 34
REMARK SMILES IDX 28 35 29 36 30 38 31 39 32 40 93 41 33 42 92 43 34 44 35 45
REMARK SMILES IDX 36 46 86 47 37 48 91 49 85 50 87 51 38 52 90 53 84 54 83 55
REMARK SMILES IDX 39 57 71 58 51 59 70 60 52 61 55 62 69 63 88 64 53 65 54 66
REMARK SMILES IDX 68 68 89 69 56 70 40 71 41 72 49 73 42 74 48 75 50 76 47 77
REMARK SMILES IDX 43 78 44 79 45 80 46 81 72 82 73 83 81 84 74 85 80 86 82 87
REMARK SMILES IDX 79 88 75 89 76 90 77 91 78 92 57 93 58 94 66 95 59 96 65 97
REMARK SMILES IDX 67 98 64 99 60 100 61 101 62 102 63 103
REMARK H PARENT 21 6 17 11 28 37 87 56 55 67
REMARK Flexibility Score: inf
ROOT
ATOM      1  C   UNL A   1      33.655  25.161  22.618  1.00  0.00     0.021 C 
ENDROOT
BRANCH   1   2
ATOM      2  C   UNL A   1      32.594  26.010  23.304  1.00  0.00     0.116 C 
BRANCH   2   3
ATOM      3  N   UNL A   1      33.024  26.517  24.588  1.00  0.00    -0.354 N 
ATOM      4  C   UNL A   1      32.278  26.952  25.646  1.00  0.00     0.242 C 
ATOM      5  O   UNL A   1      32.898  27.184  26.688  1.00  0.00    -0.273 OA
ATOM      6  H   UNL A   1      34.000  26.554  24.718  1.00  0.00     0.163 HD
BRANCH   4   7
ATOM      7  C   UNL A   1      30.718  27.015  25.568  1.00  0.00     0.173 C 
BRANCH   7   8
ATOM      8  N   UNL A   1      30.134  25.940  26.376  1.00  0.00    -0.342 N 
ATOM      9  C   UNL A   1      30.238  24.581  26.267  1.00  0.00     0.242 C 
ATOM     10  O   UNL A   1      29.680  23.920  27.150  1.00  0.00    -0.273 OA
ATOM     11  H   UNL A   1      29.572  26.248  27.123  1.00  0.00     0.164 HD
BRANCH   9  12
ATOM     12  C   UNL A   1      31.099  23.896  25.193  1.00  0.00     0.248 C 
BRANCH  12  13
ATOM     13  N   UNL A   1      31.963  22.806  25.649  1.00  0.00    -0.220 N 
ATOM     14  C   UNL A   1      32.686  20.668  25.303  1.00  0.00     0.091 A 
ATOM     15  C   UNL A   1      33.583  20.692  26.469  1.00  0.00     0.036 A 
ATOM     16  N   UNL A   1      31.940  21.645  24.906  1.00  0.00    -0.169 NA
ATOM     17  C   UNL A   1      33.679  21.862  27.099  1.00  0.00     0.075 A 
ATOM     18  C   UNL A   1      32.828  23.012  26.716  1.00  0.00     0.267 A 
ATOM     19  O   UNL A   1      32.890  24.041  27.384  1.00  0.00    -0.268 OA
BRANCH  14  20
ATOM     20  C   UNL A   1      32.753  19.446  24.495  1.00  0.00     0.006 A 
ATOM     21  C   UNL A   1      33.340  17.111  24.436  1.00  0.00     0.119 A 
ATOM     22  C   UNL A   1      32.949  17.076  23.093  1.00  0.00     0.046 A 
ATOM     23  C   UNL A   1      33.254  18.309  25.134  1.00  0.00     0.056 A 
ATOM     24  C   UNL A   1      32.456  18.222  22.457  1.00  0.00     0.005 A 
ATOM     25  C   UNL A   1      32.355  19.422  23.160  1.00  0.00     0.011 A 
BRANCH  21  26
ATOM     26  O   UNL A   1      33.810  15.937  24.954  1.00  0.00    -0.497 OA
ATOM     27  C   UNL A   1      32.818  15.031  25.437  1.00  0.00     0.278 C 
ENDBRANCH  21  26
ENDBRANCH  14  20
ENDBRANCH  12  13
ENDBRANCH   9  12
ENDBRANCH   7   8
BRANCH   7  28
ATOM     28  C   UNL A   1      30.227  26.946  24.093  1.00  0.00     0.015 C 
ATOM     29  C   UNL A   1      28.801  26.400  23.948  1.00  0.00     0.010 C 
ATOM     30  C   UNL A   1      30.275  28.333  23.433  1.00  0.00     0.010 C 
ENDBRANCH   7  28
ENDBRANCH   4   7
ENDBRANCH   2   3
ENDBRANCH   1   2
BRANCH   1  31
ATOM     31  C   UNL A   1      34.513  24.346  23.588  1.00  0.00     0.002 C 
BRANCH  31  32
ATOM     32  C   UNL A   1      34.845  22.923  23.122  1.00  0.00     0.002 C 
BRANCH  32  33
ATOM     33  C   UNL A   1      36.225  22.407  23.535  1.00  0.00     0.021 C 
BRANCH  33  34
ATOM     34  C   UNL A   1      36.418  22.198  25.030  1.00  0.00     0.116 C 
BRANCH  34  35
ATOM     35  N   UNL A   1      37.258  21.047  25.314  1.00  0.00    -0.352 N 
ATOM     36  C   UNL A   1      38.551  20.995  25.771  1.00  0.00     0.251 C 
ATOM     37  H   UNL A   1      36.835  20.173  25.154  1.00  0.00     0.163 HD
ATOM     38  O   UNL A   1      39.157  19.928  25.737  1.00  0.00    -0.269 OA
BRANCH  36  39
ATOM     39  C   UNL A   1      39.216  22.219  26.274  1.00  0.00     0.039 A 
ATOM     40  C   UNL A   1      40.284  22.088  27.165  1.00  0.00     0.014 A 
ATOM     41  C   UNL A   1      38.786  23.489  25.884  1.00  0.00     0.014 A 
ATOM     42  C   UNL A   1      40.953  23.227  27.617  1.00  0.00     0.010 A 
ATOM     43  C   UNL A   1      39.510  24.616  26.263  1.00  0.00     0.010 A 
ATOM     44  C   UNL A   1      40.596  24.500  27.142  1.00  0.00    -0.014 A 
BRANCH  44  45
ATOM     45  C   UNL A   1      41.333  25.718  27.570  1.00  0.00     0.031 A 
ATOM     46  C   UNL A   1      40.629  26.786  28.365  1.00  0.00     0.074 A 
ATOM     47  C   UNL A   1      42.619  25.886  27.202  1.00  0.00     0.049 A 
ATOM     48  N   UNL A   1      41.078  27.944  28.777  1.00  0.00    -0.248 NA
ATOM     49  C   UNL A   1      39.224  26.528  28.714  1.00  0.00     0.031 C 
ATOM     50  C   UNL A   1      43.398  24.938  26.403  1.00  0.00     0.029 A 
ATOM     51  N   UNL A   1      43.498  26.911  27.447  1.00  0.00    -0.354 N 
ATOM     52  C   UNL A   1      40.010  28.556  29.426  1.00  0.00     0.074 A 
ATOM     53  C   UNL A   1      38.874  27.670  29.284  1.00  0.00     0.031 C 
ATOM     54  C   UNL A   1      44.646  25.410  26.255  1.00  0.00     0.029 A 
ATOM     55  C   UNL A   1      44.743  26.716  26.897  1.00  0.00     0.049 A 
ATOM     56  H   UNL A   1      43.258  27.712  27.967  1.00  0.00     0.167 HD
ATOM     57  C   UNL A   1      39.985  29.733  30.098  1.00  0.00     0.034 A 
ATOM     58  C   UNL A   1      45.836  27.505  26.900  1.00  0.00     0.034 A 
ATOM     59  C   UNL A   1      41.129  30.603  30.229  1.00  0.00     0.049 A 
ATOM     60  C   UNL A   1      45.773  28.832  27.613  1.00  0.00     0.074 A 
ATOM     61  C   UNL A   1      41.230  31.795  30.924  1.00  0.00     0.029 A 
ATOM     62  N   UNL A   1      42.369  30.381  29.643  1.00  0.00    -0.354 N 
ATOM     63  N   UNL A   1      44.769  29.374  28.263  1.00  0.00    -0.248 NA
ATOM     64  C   UNL A   1      46.994  29.648  27.600  1.00  0.00     0.031 C 
ATOM     65  C   UNL A   1      42.502  32.332  30.693  1.00  0.00     0.029 A 
ATOM     66  C   UNL A   1      43.228  31.432  29.930  1.00  0.00     0.049 A 
ATOM     67  H   UNL A   1      42.604  29.592  29.101  1.00  0.00     0.167 HD
ATOM     68  C   UNL A   1      45.250  30.582  28.765  1.00  0.00     0.074 A 
ATOM     69  C   UNL A   1      46.636  30.677  28.355  1.00  0.00     0.031 C 
ATOM     70  C   UNL A   1      44.607  31.522  29.503  1.00  0.00     0.034 A 
BRANCH  57  71
ATOM     71  C   UNL A   1      38.669  30.152  30.715  1.00  0.00     0.023 A 
ATOM     72  C   UNL A   1      37.722  30.905  29.996  1.00  0.00     0.031 A 
ATOM     73  C   UNL A   1      38.369  29.826  32.050  1.00  0.00     0.131 A 
ATOM     74  C   UNL A   1      36.570  31.382  30.638  1.00  0.00     0.055 A 
ATOM     75  C   UNL A   1      37.176  30.227  32.656  1.00  0.00     0.041 A 
ATOM     76  F   UNL A   1      39.238  29.128  32.797  1.00  0.00    -0.206 F 
ATOM     77  C   UNL A   1      36.276  31.026  31.956  1.00  0.00     0.022 A 
BRANCH  74  78
ATOM     78  S   UNL A   1      35.550  32.612  29.780  1.00  0.00     0.124 S 
ATOM     79  O   UNL A   1      34.373  32.675  30.644  1.00  0.00    -0.237 OA
ATOM     80  O   UNL A   1      36.408  33.790  29.781  1.00  0.00    -0.237 OA
ATOM     81  O   UNL A   1      35.318  32.010  28.468  1.00  0.00    -0.744 OA
ENDBRANCH  74  78
ENDBRANCH  57  71
BRANCH  58  82
ATOM     82  C   UNL A   1      47.083  27.073  26.202  1.00  0.00     0.023 A 
ATOM     83  C   UNL A   1      48.099  26.392  26.891  1.00  0.00     0.031 A 
ATOM     84  C   UNL A   1      47.293  27.366  24.843  1.00  0.00     0.131 A 
ATOM     85  C   UNL A   1      49.296  26.069  26.234  1.00  0.00     0.055 A 
ATOM     86  C   UNL A   1      48.462  26.994  24.178  1.00  0.00     0.041 A 
ATOM     87  F   UNL A   1      46.353  28.012  24.134  1.00  0.00    -0.206 F 
ATOM     88  C   UNL A   1      49.478  26.352  24.879  1.00  0.00     0.022 A 
BRANCH  85  89
ATOM     89  S   UNL A   1      50.653  25.351  27.201  1.00  0.00     0.124 S 
ATOM     90  O   UNL A   1      51.628  25.043  26.161  1.00  0.00    -0.237 OA
ATOM     91  O   UNL A   1      50.997  26.448  28.100  1.00  0.00    -0.237 OA
ATOM     92  O   UNL A   1      50.037  24.192  27.842  1.00  0.00    -0.744 OA
ENDBRANCH  85  89
ENDBRANCH  58  82
BRANCH  70  93
ATOM     93  C   UNL A   1      45.416  32.714  29.957  1.00  0.00     0.023 A 
ATOM     94  C   UNL A   1      45.485  33.897  29.201  1.00  0.00     0.031 A 
ATOM     95  C   UNL A   1      46.138  32.658  31.163  1.00  0.00     0.131 A 
ATOM     96  C   UNL A   1      46.306  34.953  29.628  1.00  0.00     0.055 A 
ATOM     97  C   UNL A   1      46.898  33.738  31.617  1.00  0.00     0.041 A 
ATOM     98  F   UNL A   1      46.114  31.552  31.924  1.00  0.00    -0.206 F 
ATOM     99  C   UNL A   1      46.996  34.888  30.842  1.00  0.00     0.022 A 
BRANCH  96 100
ATOM    100  S   UNL A   1      46.542  36.374  28.525  1.00  0.00     0.124 S 
ATOM    101  O   UNL A   1      47.465  37.203  29.294  1.00  0.00    -0.237 OA
ATOM    102  O   UNL A   1      47.093  35.752  27.326  1.00  0.00    -0.237 OA
ATOM    103  O   UNL A   1      45.195  36.920  28.376  1.00  0.00    -0.744 OA
ENDBRANCH  96 100
ENDBRANCH  70  93
ENDBRANCH  44  45
ENDBRANCH  36  39
ENDBRANCH  34  35
ENDBRANCH  33  34
ENDBRANCH  32  33
ENDBRANCH  31  32
ENDBRANCH   1  31
TORSDOF 22
ENDMDL
MODEL 3
REMARK VINA RESULT:     -11.5      3.076      6.619
REMARK SMILES COc1cccc(-c2ccc(=O)n(CC(=O)N[C@@H](C(=O)NCCCCCCNC(=O)c3ccc(-c4c5nc(c(-c6cc(S(=O)(=O)[O-])ccc6F)c6ccc([nH]6)c(-c6cc(S(=O)(=O)[O-])ccc6F)c6nc(c(-c7cc(S(=O)(=O)[O-])ccc7F)c7ccc4[nH]7)C=C6)C=C5)cc3)C(C)C)n2)c1
REMARK SMILES IDX 23 1 22 2 21 3 19 4 20 5 18 7 17 8 15 9 16 10 14 12 13 13
REMARK SMILES IDX 8 14 9 15 97 16 10 17 11 18 12 19 7 20 3 21 4 22 98 23 5 24
REMARK SMILES IDX 6 25 2 26 1 27 94 28 95 29 96 30 24 31 25 32 26 33 27 34
REMARK SMILES IDX 28 35 29 36 30 38 31 39 32 40 93 41 33 42 92 43 34 44 35 45
REMARK SMILES IDX 36 46 86 47 37 48 91 49 85 50 87 51 38 52 90 53 84 54 83 55
REMARK SMILES IDX 39 57 71 58 51 59 70 60 52 61 55 62 69 63 88 64 53 65 54 66
REMARK SMILES IDX 68 68 89 69 56 70 40 71 41 72 49 73 42 74 48 75 50 76 47 77
REMARK SMILES IDX 43 78 44 79 45 80 46 81 72 82 73 83 81 84 74 85 80 86 82 87
REMARK SMILES IDX 79 88 75 89 76 90 77 91 78 92 57 93 58 94 66 95 59 96 65 97
REMARK SMILES IDX 67 98 64 99 60 100 61 101 62 102 63 103
REMARK H PARENT 21 6 17 11 28 37 87 56 55 67
REMARK Flexibility Score: inf
ROOT
ATOM      1  C   UNL A   1      34.107  23.808  24.440  1.00  0.00     0.021 C 
ENDROOT
BRANCH   1   2
ATOM      2  C   UNL A   1      33.430  25.159  24.251  1.00  0.00     0.116 C 
BRANCH   2   3
ATOM      3  N   UNL A   1      32.509  25.479  25.319  1.00  0.00    -0.354 N 
ATOM      4  C   UNL A   1      31.355  26.211  25.282  1.00  0.00     0.242 C 
ATOM      5  O   UNL A   1      30.671  26.195  26.310  1.00  0.00    -0.273 OA
ATOM      6  H   UNL A   1      32.749  25.116  26.203  1.00  0.00     0.163 HD
BRANCH   4   7
ATOM      7  C   UNL A   1      30.876  26.905  23.966  1.00  0.00     0.173 C 
BRANCH   7   8
ATOM      8  N   UNL A   1      31.818  27.964  23.589  1.00  0.00    -0.342 N 
ATOM      9  C   UNL A   1      32.375  28.971  24.327  1.00  0.00     0.242 C 
ATOM     10  O   UNL A   1      33.201  29.681  23.744  1.00  0.00    -0.273 OA
ATOM     11  H   UNL A   1      32.096  27.947  22.645  1.00  0.00     0.164 HD
BRANCH   9  12
ATOM     12  C   UNL A   1      32.101  29.150  25.830  1.00  0.00     0.248 C 
BRANCH  12  13
ATOM     13  N   UNL A   1      33.208  29.666  26.635  1.00  0.00    -0.220 N 
ATOM     14  C   UNL A   1      34.037  31.414  27.850  1.00  0.00     0.091 A 
ATOM     15  C   UNL A   1      35.285  30.707  28.175  1.00  0.00     0.036 A 
ATOM     16  N   UNL A   1      33.063  30.938  27.147  1.00  0.00    -0.169 NA
ATOM     17  C   UNL A   1      35.352  29.438  27.772  1.00  0.00     0.075 A 
ATOM     18  C   UNL A   1      34.285  28.841  26.937  1.00  0.00     0.267 A 
ATOM     19  O   UNL A   1      34.435  27.697  26.517  1.00  0.00    -0.268 OA
BRANCH  14  20
ATOM     20  C   UNL A   1      33.888  32.729  28.479  1.00  0.00     0.006 A 
ATOM     21  C   UNL A   1      34.329  34.085  30.420  1.00  0.00     0.119 A 
ATOM     22  C   UNL A   1      33.669  35.147  29.795  1.00  0.00     0.046 A 
ATOM     23  C   UNL A   1      34.424  32.865  29.762  1.00  0.00     0.056 A 
ATOM     24  C   UNL A   1      33.126  35.001  28.512  1.00  0.00     0.005 A 
ATOM     25  C   UNL A   1      33.234  33.782  27.842  1.00  0.00     0.011 A 
BRANCH  21  26
ATOM     26  O   UNL A   1      34.816  34.337  31.673  1.00  0.00    -0.497 OA
ATOM     27  C   UNL A   1      33.843  34.404  32.714  1.00  0.00     0.278 C 
ENDBRANCH  21  26
ENDBRANCH  14  20
ENDBRANCH  12  13
ENDBRANCH   9  12
ENDBRANCH   7   8
BRANCH   7  28
ATOM     28  C   UNL A   1      29.431  27.460  24.119  1.00  0.00     0.015 C 
ATOM     29  C   UNL A   1      29.098  28.581  23.127  1.00  0.00     0.010 C 
ATOM     30  C   UNL A   1      28.391  26.342  23.940  1.00  0.00     0.010 C 
ENDBRANCH   7  28
ENDBRANCH   4   7
ENDBRANCH   2   3
ENDBRANCH   1   2
BRANCH   1  31
ATOM     31  C   UNL A   1      33.781  23.138  25.776  1.00  0.00     0.002 C 
BRANCH  31  32
ATOM     32  C   UNL A   1      34.692  21.963  26.152  1.00  0.00     0.002 C 
BRANCH  32  33
ATOM     33  C   UNL A   1      35.894  21.750  25.230  1.00  0.00     0.021 C 
BRANCH  33  34
ATOM     34  C   UNL A   1      37.204  22.347  25.725  1.00  0.00     0.116 C 
BRANCH  34  35
ATOM     35  N   UNL A   1      38.150  21.322  26.130  1.00  0.00    -0.352 N 
ATOM     36  C   UNL A   1      39.456  21.443  26.535  1.00  0.00     0.251 C 
ATOM     37  H   UNL A   1      37.802  20.402  26.111  1.00  0.00     0.163 HD
ATOM     38  O   UNL A   1      40.153  20.436  26.623  1.00  0.00    -0.269 OA
BRANCH  36  39
ATOM     39  C   UNL A   1      40.025  22.777  26.835  1.00  0.00     0.039 A 
ATOM     40  C   UNL A   1      40.968  22.893  27.858  1.00  0.00     0.014 A 
ATOM     41  C   UNL A   1      39.625  23.911  26.125  1.00  0.00     0.014 A 
ATOM     42  C   UNL A   1      41.550  24.134  28.128  1.00  0.00     0.010 A 
ATOM     43  C   UNL A   1      40.270  25.127  26.334  1.00  0.00     0.010 A 
ATOM     44  C   UNL A   1      41.233  25.256  27.345  1.00  0.00    -0.014 A 
BRANCH  44  45
ATOM     45  C   UNL A   1      41.883  26.571  27.582  1.00  0.00     0.031 A 
ATOM     46  C   UNL A   1      43.265  26.837  27.048  1.00  0.00     0.074 A 
ATOM     47  C   UNL A   1      41.252  27.506  28.320  1.00  0.00     0.049 A 
ATOM     48  N   UNL A   1      44.025  27.892  27.200  1.00  0.00    -0.248 NA
ATOM     49  C   UNL A   1      43.887  25.759  26.263  1.00  0.00     0.031 C 
ATOM     50  C   UNL A   1      39.925  27.352  28.921  1.00  0.00     0.029 A 
ATOM     51  N   UNL A   1      41.639  28.769  28.694  1.00  0.00    -0.354 N 
ATOM     52  C   UNL A   1      45.214  27.602  26.540  1.00  0.00     0.074 A 
ATOM     53  C   UNL A   1      45.100  26.244  26.052  1.00  0.00     0.031 C 
ATOM     54  C   UNL A   1      39.596  28.488  29.556  1.00  0.00     0.029 A 
ATOM     55  C   UNL A   1      40.706  29.430  29.458  1.00  0.00     0.049 A 
ATOM     56  H   UNL A   1      42.504  29.163  28.439  1.00  0.00     0.167 HD
ATOM     57  C   UNL A   1      46.291  28.402  26.337  1.00  0.00     0.034 A 
ATOM     58  C   UNL A   1      40.744  30.652  30.025  1.00  0.00     0.034 A 
ATOM     59  C   UNL A   1      46.386  29.754  26.831  1.00  0.00     0.049 A 
ATOM     60  C   UNL A   1      41.970  31.507  29.828  1.00  0.00     0.074 A 
ATOM     61  C   UNL A   1      47.408  30.669  26.647  1.00  0.00     0.029 A 
ATOM     62  N   UNL A   1      45.429  30.384  27.618  1.00  0.00    -0.354 N 
ATOM     63  N   UNL A   1      43.068  31.236  29.159  1.00  0.00    -0.248 NA
ATOM     64  C   UNL A   1      41.958  32.836  30.453  1.00  0.00     0.031 C 
ATOM     65  C   UNL A   1      47.107  31.819  27.386  1.00  0.00     0.029 A 
ATOM     66  C   UNL A   1      45.854  31.660  27.957  1.00  0.00     0.049 A 
ATOM     67  H   UNL A   1      44.573  29.982  27.894  1.00  0.00     0.167 HD
ATOM     68  C   UNL A   1      43.863  32.376  29.257  1.00  0.00     0.074 A 
ATOM     69  C   UNL A   1      43.110  33.339  30.035  1.00  0.00     0.031 C 
ATOM     70  C   UNL A   1      45.099  32.608  28.745  1.00  0.00     0.034 A 
BRANCH  57  71
ATOM     71  C   UNL A   1      47.456  27.815  25.571  1.00  0.00     0.023 A 
ATOM     72  C   UNL A   1      47.623  28.043  24.192  1.00  0.00     0.031 A 
ATOM     73  C   UNL A   1      48.393  26.989  26.216  1.00  0.00     0.131 A 
ATOM     74  C   UNL A   1      48.641  27.381  23.490  1.00  0.00     0.055 A 
ATOM     75  C   UNL A   1      49.461  26.407  25.528  1.00  0.00     0.041 A 
ATOM     76  F   UNL A   1      48.278  26.716  27.525  1.00  0.00    -0.206 F 
ATOM     77  C   UNL A   1      49.579  26.587  24.152  1.00  0.00     0.022 A 
BRANCH  74  78
ATOM     78  S   UNL A   1      48.620  27.442  21.677  1.00  0.00     0.124 S 
ATOM     79  O   UNL A   1      48.743  26.027  21.333  1.00  0.00    -0.237 OA
ATOM     80  O   UNL A   1      47.329  28.058  21.397  1.00  0.00    -0.237 OA
ATOM     81  O   UNL A   1      49.786  28.259  21.346  1.00  0.00    -0.744 OA
ENDBRANCH  74  78
ENDBRANCH  57  71
BRANCH  58  82
ATOM     82  C   UNL A   1      39.595  31.144  30.840  1.00  0.00     0.023 A 
ATOM     83  C   UNL A   1      39.631  31.099  32.243  1.00  0.00     0.031 A 
ATOM     84  C   UNL A   1      38.427  31.634  30.228  1.00  0.00     0.131 A 
ATOM     85  C   UNL A   1      38.507  31.490  32.986  1.00  0.00     0.055 A 
ATOM     86  C   UNL A   1      37.332  32.074  30.972  1.00  0.00     0.041 A 
ATOM     87  F   UNL A   1      38.340  31.703  28.890  1.00  0.00    -0.206 F 
ATOM     88  C   UNL A   1      37.364  31.991  32.360  1.00  0.00     0.022 A 
BRANCH  85  89
ATOM     89  S   UNL A   1      38.525  31.250  34.784  1.00  0.00     0.124 S 
ATOM     90  O   UNL A   1      39.810  31.839  35.148  1.00  0.00    -0.237 OA
ATOM     91  O   UNL A   1      37.338  31.990  35.200  1.00  0.00    -0.237 OA
ATOM     92  O   UNL A   1      38.438  29.800  34.935  1.00  0.00    -0.744 OA
ENDBRANCH  85  89
ENDBRANCH  58  82
BRANCH  70  93
ATOM     93  C   UNL A   1      45.691  33.979  28.971  1.00  0.00     0.023 A 
ATOM     94  C   UNL A   1      45.374  35.071  28.145  1.00  0.00     0.031 A 
ATOM     95  C   UNL A   1      46.596  34.191  30.028  1.00  0.00     0.131 A 
ATOM     96  C   UNL A   1      46.003  36.310  28.351  1.00  0.00     0.055 A 
ATOM     97  C   UNL A   1      47.165  35.442  30.270  1.00  0.00     0.041 A 
ATOM     98  F   UNL A   1      46.940  33.183  30.845  1.00  0.00    -0.206 F 
ATOM     99  C   UNL A   1      46.880  36.507  29.421  1.00  0.00     0.022 A 
BRANCH  96 100
ATOM    100  S   UNL A   1      45.738  37.634  27.141  1.00  0.00     0.124 S 
ATOM    101  O   UNL A   1      46.569  37.195  26.025  1.00  0.00    -0.237 OA
ATOM    102  O   UNL A   1      44.296  37.575  26.923  1.00  0.00    -0.237 OA
ATOM    103  O   UNL A   1      46.210  38.832  27.833  1.00  0.00    -0.744 OA
ENDBRANCH  96 100
ENDBRANCH  70  93
ENDBRANCH  44  45
ENDBRANCH  36  39
ENDBRANCH  34  35
ENDBRANCH  33  34
ENDBRANCH  32  33
ENDBRANCH  31  32
ENDBRANCH   1  31
TORSDOF 22
ENDMDL
