MODEL 1
REMARK VINA RESULT:     -12.6      0.000      0.000
REMARK SMILES O=C(Cc1c(C(=O)c2cc3c(cn2)CCCC3)[nH]c2cc(Cl)ccc12)NCCCCCCNC(=O)c1ccc(-c2c3nc(c(-c4cc(S(=O)(=O)[O-])ccc4F)c4ccc([nH]4)c(-c4cc(S(=O)(=O)[O-])ccc4F)c4nc(c(-c5cc(S(=O)(=O)[O-])ccc5F)c5ccc2[nH]5)C=C4)C=C3)cc1
REMARK SMILES IDX 29 1 28 2 27 3 26 4 1 5 2 6 3 8 4 9 5 10 25 11 18 12 19 13
REMARK SMILES IDX 24 14 20 16 23 17 21 18 22 19 6 20 7 21 8 22 9 23 13 24
REMARK SMILES IDX 10 25 12 26 11 27 17 28 14 29 16 30 15 31 30 32 31 33 32 34
REMARK SMILES IDX 33 35 34 36 35 38 36 39 37 40 98 41 38 42 97 43 39 44 40 45
REMARK SMILES IDX 41 46 91 47 42 48 96 49 90 50 92 51 43 52 95 53 89 54 88 55
REMARK SMILES IDX 44 57 76 58 56 59 75 60 57 61 60 62 74 63 93 64 58 65 59 66
REMARK SMILES IDX 73 68 94 69 61 70 45 71 46 72 54 73 47 74 53 75 55 76 52 77
REMARK SMILES IDX 48 78 49 79 50 80 51 81 77 82 78 83 86 84 79 85 85 86 87 87
REMARK SMILES IDX 84 88 80 89 81 90 82 91 83 92 62 93 63 94 71 95 64 96 70 97
REMARK SMILES IDX 72 98 69 99 65 100 66 101 67 102 68 103
REMARK H PARENT 26 7 18 15 33 37 92 56 60 67
REMARK Flexibility Score: inf
ROOT
ATOM      1  C   UNL A   1      36.002  22.389  24.734  1.00  0.00     0.002 C 
ENDROOT
BRANCH   1   2
ATOM      2  C   UNL A   1      36.357  23.369  25.860  1.00  0.00     0.021 C 
BRANCH   2   3
ATOM      3  C   UNL A   1      35.269  23.560  26.915  1.00  0.00     0.116 C 
BRANCH   3   4
ATOM      4  N   UNL A   1      33.969  23.162  26.418  1.00  0.00    -0.356 N 
ATOM      5  O   UNL A   1      33.046  22.665  28.463  1.00  0.00    -0.275 OA
ATOM      6  C   UNL A   1      32.940  22.757  27.242  1.00  0.00     0.224 C 
ATOM      7  H   UNL A   1      33.810  23.182  25.447  1.00  0.00     0.163 HD
BRANCH   6   8
ATOM      8  C   UNL A   1      31.666  22.375  26.512  1.00  0.00     0.138 C 
BRANCH   8   9
ATOM      9  C   UNL A   1      31.860  21.723  25.162  1.00  0.00    -0.002 A 
ATOM     10  C   UNL A   1      31.624  22.342  23.929  1.00  0.00     0.093 A 
ATOM     11  C   UNL A   1      32.352  20.397  24.887  1.00  0.00     0.004 A 
ATOM     12  N   UNL A   1      31.979  21.435  22.955  1.00  0.00    -0.351 N 
ATOM     13  C   UNL A   1      32.372  20.241  23.504  1.00  0.00     0.048 A 
ATOM     14  C   UNL A   1      32.781  19.307  25.678  1.00  0.00     0.012 A 
ATOM     15  H   UNL A   1      31.955  21.620  21.989  1.00  0.00     0.167 HD
ATOM     16  C   UNL A   1      32.762  19.053  22.871  1.00  0.00     0.047 A 
ATOM     17  C   UNL A   1      33.168  18.106  25.068  1.00  0.00     0.021 A 
ATOM     18  C   UNL A   1      33.150  17.987  23.684  1.00  0.00     0.043 A 
ATOM     19  Cl  UNL A   1      33.626  16.502  22.950  1.00  0.00    -0.084 Cl
BRANCH  10  20
ATOM     20  C   UNL A   1      31.147  23.703  23.669  1.00  0.00     0.227 C 
ATOM     21  O   UNL A   1      30.185  23.956  22.946  1.00  0.00    -0.285 OA
BRANCH  20  22
ATOM     22  C   UNL A   1      31.859  24.852  24.299  1.00  0.00     0.113 A 
ATOM     23  C   UNL A   1      31.217  25.649  25.242  1.00  0.00     0.036 A 
ATOM     24  N   UNL A   1      33.134  25.053  23.888  1.00  0.00    -0.252 NA
ATOM     25  C   UNL A   1      31.920  26.724  25.798  1.00  0.00    -0.041 A 
ATOM     26  C   UNL A   1      33.798  26.083  24.453  1.00  0.00     0.115 A 
ATOM     27  C   UNL A   1      33.241  26.953  25.386  1.00  0.00    -0.026 A 
ATOM     28  C   UNL A   1      31.231  27.645  26.774  1.00  0.00     0.036 C 
ATOM     29  C   UNL A   1      34.082  28.053  25.978  1.00  0.00     0.037 C 
ATOM     30  C   UNL A   1      32.203  28.515  27.572  1.00  0.00     0.005 C 
ATOM     31  C   UNL A   1      33.248  29.139  26.654  1.00  0.00     0.005 C 
ENDBRANCH  20  22
ENDBRANCH  10  20
ENDBRANCH   8   9
ENDBRANCH   6   8
ENDBRANCH   3   4
ENDBRANCH   2   3
ENDBRANCH   1   2
BRANCH   1  32
ATOM     32  C   UNL A   1      36.000  20.906  25.115  1.00  0.00     0.002 C 
BRANCH  32  33
ATOM     33  C   UNL A   1      37.309  20.157  24.869  1.00  0.00     0.021 C 
BRANCH  33  34
ATOM     34  C   UNL A   1      38.574  20.892  25.303  1.00  0.00     0.116 C 
BRANCH  34  35
ATOM     35  N   UNL A   1      39.598  20.007  25.838  1.00  0.00    -0.352 N 
ATOM     36  C   UNL A   1      40.675  20.322  26.638  1.00  0.00     0.251 C 
ATOM     37  H   UNL A   1      39.509  19.057  25.597  1.00  0.00     0.163 HD
ATOM     38  O   UNL A   1      41.510  19.465  26.913  1.00  0.00    -0.269 OA
BRANCH  36  39
ATOM     39  C   UNL A   1      40.839  21.714  27.116  1.00  0.00     0.039 A 
ATOM     40  C   UNL A   1      40.273  22.777  26.412  1.00  0.00     0.014 A 
ATOM     41  C   UNL A   1      41.628  21.957  28.244  1.00  0.00     0.014 A 
ATOM     42  C   UNL A   1      40.642  24.082  26.725  1.00  0.00     0.010 A 
ATOM     43  C   UNL A   1      41.935  23.272  28.602  1.00  0.00     0.010 A 
ATOM     44  C   UNL A   1      41.495  24.344  27.809  1.00  0.00    -0.014 A 
BRANCH  44  45
ATOM     45  C   UNL A   1      41.940  25.738  28.076  1.00  0.00     0.031 A 
ATOM     46  C   UNL A   1      43.275  26.225  27.577  1.00  0.00     0.074 A 
ATOM     47  C   UNL A   1      41.113  26.584  28.720  1.00  0.00     0.049 A 
ATOM     48  N   UNL A   1      43.812  27.413  27.693  1.00  0.00    -0.248 NA
ATOM     49  C   UNL A   1      44.117  25.257  26.856  1.00  0.00     0.031 C 
ATOM     50  C   UNL A   1      39.790  26.227  29.233  1.00  0.00     0.029 A 
ATOM     51  N   UNL A   1      41.244  27.914  29.033  1.00  0.00    -0.354 N 
ATOM     52  C   UNL A   1      45.057  27.332  27.076  1.00  0.00     0.074 A 
ATOM     53  C   UNL A   1      45.209  25.970  26.616  1.00  0.00     0.031 C 
ATOM     54  C   UNL A   1      39.214  27.319  29.754  1.00  0.00     0.029 A 
ATOM     55  C   UNL A   1      40.146  28.441  29.673  1.00  0.00     0.049 A 
ATOM     56  H   UNL A   1      42.049  28.441  28.820  1.00  0.00     0.167 HD
ATOM     57  C   UNL A   1      45.977  28.309  26.895  1.00  0.00     0.034 A 
ATOM     58  C   UNL A   1      39.914  29.681  30.150  1.00  0.00     0.034 A 
ATOM     59  C   UNL A   1      45.803  29.670  27.338  1.00  0.00     0.049 A 
ATOM     60  C   UNL A   1      40.967  30.743  29.964  1.00  0.00     0.074 A 
ATOM     61  C   UNL A   1      46.672  30.735  27.181  1.00  0.00     0.029 A 
ATOM     62  N   UNL A   1      44.691  30.157  28.010  1.00  0.00    -0.354 N 
ATOM     63  N   UNL A   1      42.123  30.657  29.348  1.00  0.00    -0.248 NA
ATOM     64  C   UNL A   1      40.691  32.068  30.534  1.00  0.00     0.031 C 
ATOM     65  C   UNL A   1      46.110  31.851  27.803  1.00  0.00     0.029 A 
ATOM     66  C   UNL A   1      44.862  31.501  28.294  1.00  0.00     0.049 A 
ATOM     67  H   UNL A   1      43.899  29.624  28.250  1.00  0.00     0.167 HD
ATOM     68  C   UNL A   1      42.703  31.917  29.441  1.00  0.00     0.074 A 
ATOM     69  C   UNL A   1      41.760  32.757  30.151  1.00  0.00     0.031 C 
ATOM     70  C   UNL A   1      43.910  32.337  28.986  1.00  0.00     0.034 A 
BRANCH  57  71
ATOM     71  C   UNL A   1      47.259  27.971  26.176  1.00  0.00     0.023 A 
ATOM     72  C   UNL A   1      47.318  28.035  24.771  1.00  0.00     0.031 A 
ATOM     73  C   UNL A   1      48.374  27.468  26.867  1.00  0.00     0.131 A 
ATOM     74  C   UNL A   1      48.458  27.575  24.101  1.00  0.00     0.055 A 
ATOM     75  C   UNL A   1      49.522  27.041  26.197  1.00  0.00     0.041 A 
ATOM     76  F   UNL A   1      48.366  27.390  28.209  1.00  0.00    -0.206 F 
ATOM     77  C   UNL A   1      49.562  27.083  24.807  1.00  0.00     0.022 A 
BRANCH  74  78
ATOM     78  S   UNL A   1      48.535  27.541  22.289  1.00  0.00     0.124 S 
ATOM     79  O   UNL A   1      49.711  28.367  22.025  1.00  0.00    -0.237 OA
ATOM     80  O   UNL A   1      48.700  26.116  22.016  1.00  0.00    -0.237 OA
ATOM     81  O   UNL A   1      47.263  28.120  21.873  1.00  0.00    -0.744 OA
ENDBRANCH  74  78
ENDBRANCH  57  71
BRANCH  58  82
ATOM     82  C   UNL A   1      38.605  29.971  30.803  1.00  0.00     0.023 A 
ATOM     83  C   UNL A   1      37.602  30.689  30.125  1.00  0.00     0.031 A 
ATOM     84  C   UNL A   1      38.386  29.644  32.151  1.00  0.00     0.131 A 
ATOM     85  C   UNL A   1      36.466  31.124  30.817  1.00  0.00     0.055 A 
ATOM     86  C   UNL A   1      37.218  30.016  32.818  1.00  0.00     0.041 A 
ATOM     87  F   UNL A   1      39.317  28.970  32.844  1.00  0.00    -0.206 F 
ATOM     88  C   UNL A   1      36.259  30.779  32.156  1.00  0.00     0.022 A 
BRANCH  85  89
ATOM     89  S   UNL A   1      35.294  32.277  30.047  1.00  0.00     0.124 S 
ATOM     90  O   UNL A   1      34.776  31.485  28.936  1.00  0.00    -0.237 OA
ATOM     91  O   UNL A   1      34.356  32.524  31.140  1.00  0.00    -0.237 OA
ATOM     92  O   UNL A   1      36.126  33.416  29.677  1.00  0.00    -0.744 OA
ENDBRANCH  85  89
ENDBRANCH  58  82
BRANCH  70  93
ATOM     93  C   UNL A   1      44.317  33.770  29.225  1.00  0.00     0.023 A 
ATOM     94  C   UNL A   1      43.804  34.793  28.404  1.00  0.00     0.031 A 
ATOM     95  C   UNL A   1      45.326  34.097  30.147  1.00  0.00     0.131 A 
ATOM     96  C   UNL A   1      44.335  36.086  28.490  1.00  0.00     0.055 A 
ATOM     97  C   UNL A   1      45.821  35.397  30.259  1.00  0.00     0.041 A 
ATOM     98  F   UNL A   1      45.851  33.153  30.945  1.00  0.00    -0.206 F 
ATOM     99  C   UNL A   1      45.336  36.395  29.418  1.00  0.00     0.022 A 
BRANCH  96 100
ATOM    100  S   UNL A   1      43.812  37.392  27.345  1.00  0.00     0.124 S 
ATOM    101  O   UNL A   1      43.155  38.337  28.245  1.00  0.00    -0.237 OA
ATOM    102  O   UNL A   1      45.086  37.843  26.789  1.00  0.00    -0.237 OA
ATOM    103  O   UNL A   1      42.927  36.707  26.409  1.00  0.00    -0.744 OA
ENDBRANCH  96 100
ENDBRANCH  70  93
ENDBRANCH  44  45
ENDBRANCH  36  39
ENDBRANCH  34  35
ENDBRANCH  33  34
ENDBRANCH  32  33
ENDBRANCH   1  32
TORSDOF 19
ENDMDL
MODEL 2
REMARK VINA RESULT:     -12.5      2.042      8.134
REMARK SMILES O=C(Cc1c(C(=O)c2cc3c(cn2)CCCC3)[nH]c2cc(Cl)ccc12)NCCCCCCNC(=O)c1ccc(-c2c3nc(c(-c4cc(S(=O)(=O)[O-])ccc4F)c4ccc([nH]4)c(-c4cc(S(=O)(=O)[O-])ccc4F)c4nc(c(-c5cc(S(=O)(=O)[O-])ccc5F)c5ccc2[nH]5)C=C4)C=C3)cc1
REMARK SMILES IDX 29 1 28 2 27 3 26 4 1 5 2 6 3 8 4 9 5 10 25 11 18 12 19 13
REMARK SMILES IDX 24 14 20 16 23 17 21 18 22 19 6 20 7 21 8 22 9 23 13 24
REMARK SMILES IDX 10 25 12 26 11 27 17 28 14 29 16 30 15 31 30 32 31 33 32 34
REMARK SMILES IDX 33 35 34 36 35 38 36 39 37 40 98 41 38 42 97 43 39 44 40 45
REMARK SMILES IDX 41 46 91 47 42 48 96 49 90 50 92 51 43 52 95 53 89 54 88 55
REMARK SMILES IDX 44 57 76 58 56 59 75 60 57 61 60 62 74 63 93 64 58 65 59 66
REMARK SMILES IDX 73 68 94 69 61 70 45 71 46 72 54 73 47 74 53 75 55 76 52 77
REMARK SMILES IDX 48 78 49 79 50 80 51 81 77 82 78 83 86 84 79 85 85 86 87 87
REMARK SMILES IDX 84 88 80 89 81 90 82 91 83 92 62 93 63 94 71 95 64 96 70 97
REMARK SMILES IDX 72 98 69 99 65 100 66 101 67 102 68 103
REMARK H PARENT 26 7 18 15 33 37 92 56 60 67
REMARK Flexibility Score: inf
ROOT
ATOM      1  C   UNL A   1      34.907  23.392  26.818  1.00  0.00     0.002 C 
ENDROOT
BRANCH   1   2
ATOM      2  C   UNL A   1      34.340  22.155  27.526  1.00  0.00     0.021 C 
BRANCH   2   3
ATOM      3  C   UNL A   1      32.836  22.195  27.787  1.00  0.00     0.116 C 
BRANCH   3   4
ATOM      4  N   UNL A   1      32.086  22.387  26.565  1.00  0.00    -0.356 N 
ATOM      5  O   UNL A   1      31.453  24.556  26.980  1.00  0.00    -0.275 OA
ATOM      6  C   UNL A   1      31.459  23.573  26.244  1.00  0.00     0.224 C 
ATOM      7  H   UNL A   1      32.020  21.637  25.931  1.00  0.00     0.163 HD
BRANCH   6   8
ATOM      8  C   UNL A   1      30.721  23.552  24.918  1.00  0.00     0.138 C 
BRANCH   8   9
ATOM      9  C   UNL A   1      31.027  24.702  23.985  1.00  0.00    -0.002 A 
ATOM     10  C   UNL A   1      32.176  24.809  23.193  1.00  0.00     0.093 A 
ATOM     11  C   UNL A   1      30.205  25.851  23.705  1.00  0.00     0.004 A 
ATOM     12  N   UNL A   1      32.040  25.962  22.451  1.00  0.00    -0.351 N 
ATOM     13  C   UNL A   1      30.888  26.632  22.777  1.00  0.00     0.048 A 
ATOM     14  C   UNL A   1      28.945  26.310  24.150  1.00  0.00     0.012 A 
ATOM     15  H   UNL A   1      32.685  26.265  21.774  1.00  0.00     0.167 HD
ATOM     16  C   UNL A   1      30.402  27.856  22.297  1.00  0.00     0.047 A 
ATOM     17  C   UNL A   1      28.442  27.536  23.691  1.00  0.00     0.021 A 
ATOM     18  C   UNL A   1      29.168  28.294  22.782  1.00  0.00     0.043 A 
ATOM     19  Cl  UNL A   1      28.536  29.799  22.230  1.00  0.00    -0.084 Cl
BRANCH  10  20
ATOM     20  C   UNL A   1      33.303  23.879  23.091  1.00  0.00     0.227 C 
ATOM     21  O   UNL A   1      34.477  24.241  23.047  1.00  0.00    -0.285 OA
BRANCH  20  22
ATOM     22  C   UNL A   1      33.029  22.414  23.029  1.00  0.00     0.113 A 
ATOM     23  C   UNL A   1      33.609  21.548  23.951  1.00  0.00     0.036 A 
ATOM     24  N   UNL A   1      32.206  22.009  22.032  1.00  0.00    -0.252 NA
ATOM     25  C   UNL A   1      33.334  20.179  23.847  1.00  0.00    -0.041 A 
ATOM     26  C   UNL A   1      31.940  20.689  21.964  1.00  0.00     0.115 A 
ATOM     27  C   UNL A   1      32.485  19.736  22.821  1.00  0.00    -0.026 A 
ATOM     28  C   UNL A   1      33.996  19.208  24.791  1.00  0.00     0.036 C 
ATOM     29  C   UNL A   1      32.095  18.290  22.677  1.00  0.00     0.037 C 
ATOM     30  C   UNL A   1      33.326  17.834  24.813  1.00  0.00     0.005 C 
ATOM     31  C   UNL A   1      33.053  17.343  23.396  1.00  0.00     0.005 C 
ENDBRANCH  20  22
ENDBRANCH  10  20
ENDBRANCH   8   9
ENDBRANCH   6   8
ENDBRANCH   3   4
ENDBRANCH   2   3
ENDBRANCH   1   2
BRANCH   1  32
ATOM     32  C   UNL A   1      36.066  23.135  25.849  1.00  0.00     0.002 C 
BRANCH  32  33
ATOM     33  C   UNL A   1      36.583  21.698  25.804  1.00  0.00     0.021 C 
BRANCH  33  34
ATOM     34  C   UNL A   1      37.851  21.484  24.982  1.00  0.00     0.116 C 
BRANCH  34  35
ATOM     35  N   UNL A   1      38.748  20.493  25.556  1.00  0.00    -0.352 N 
ATOM     36  C   UNL A   1      39.831  20.690  26.384  1.00  0.00     0.251 C 
ATOM     37  H   UNL A   1      38.556  19.557  25.321  1.00  0.00     0.163 HD
ATOM     38  O   UNL A   1      40.552  19.745  26.692  1.00  0.00    -0.269 OA
BRANCH  36  39
ATOM     39  C   UNL A   1      40.143  22.059  26.855  1.00  0.00     0.039 A 
ATOM     40  C   UNL A   1      39.546  23.169  26.255  1.00  0.00     0.014 A 
ATOM     41  C   UNL A   1      41.097  22.231  27.862  1.00  0.00     0.014 A 
ATOM     42  C   UNL A   1      40.032  24.443  26.531  1.00  0.00     0.010 A 
ATOM     43  C   UNL A   1      41.528  23.519  28.193  1.00  0.00     0.010 A 
ATOM     44  C   UNL A   1      41.044  24.632  27.486  1.00  0.00    -0.014 A 
BRANCH  44  45
ATOM     45  C   UNL A   1      41.603  25.992  27.708  1.00  0.00     0.031 A 
ATOM     46  C   UNL A   1      40.837  27.015  28.504  1.00  0.00     0.074 A 
ATOM     47  C   UNL A   1      42.832  26.286  27.241  1.00  0.00     0.049 A 
ATOM     48  N   UNL A   1      41.182  28.238  28.821  1.00  0.00    -0.248 NA
ATOM     49  C   UNL A   1      39.513  26.619  29.011  1.00  0.00     0.031 C 
ATOM     50  C   UNL A   1      43.672  25.368  26.471  1.00  0.00     0.029 A 
ATOM     51  N   UNL A   1      43.596  27.419  27.358  1.00  0.00    -0.354 N 
ATOM     52  C   UNL A   1      40.116  28.760  29.547  1.00  0.00     0.074 A 
ATOM     53  C   UNL A   1      39.099  27.735  29.597  1.00  0.00     0.031 C 
ATOM     54  C   UNL A   1      44.851  25.956  26.227  1.00  0.00     0.029 A 
ATOM     55  C   UNL A   1      44.832  27.315  26.763  1.00  0.00     0.049 A 
ATOM     56  H   UNL A   1      43.289  28.231  27.824  1.00  0.00     0.167 HD
ATOM     57  C   UNL A   1      40.006  29.976  30.132  1.00  0.00     0.034 A 
ATOM     58  C   UNL A   1      45.835  28.209  26.650  1.00  0.00     0.034 A 
ATOM     59  C   UNL A   1      41.037  30.983  30.095  1.00  0.00     0.049 A 
ATOM     60  C   UNL A   1      45.677  29.567  27.283  1.00  0.00     0.074 A 
ATOM     61  C   UNL A   1      41.026  32.238  30.677  1.00  0.00     0.029 A 
ATOM     62  N   UNL A   1      42.261  30.851  29.455  1.00  0.00    -0.354 N 
ATOM     63  N   UNL A   1      44.676  30.031  27.995  1.00  0.00    -0.248 NA
ATOM     64  C   UNL A   1      46.776  30.525  27.101  1.00  0.00     0.031 C 
ATOM     65  C   UNL A   1      42.217  32.884  30.346  1.00  0.00     0.029 A 
ATOM     66  C   UNL A   1      43.002  32.011  29.610  1.00  0.00     0.049 A 
ATOM     67  H   UNL A   1      42.558  30.051  28.964  1.00  0.00     0.167 HD
ATOM     68  C   UNL A   1      45.032  31.325  28.360  1.00  0.00     0.074 A 
ATOM     69  C   UNL A   1      46.352  31.564  27.812  1.00  0.00     0.031 C 
ATOM     70  C   UNL A   1      44.325  32.235  29.077  1.00  0.00     0.034 A 
BRANCH  57  71
ATOM     71  C   UNL A   1      38.741  30.306  30.884  1.00  0.00     0.023 A 
ATOM     72  C   UNL A   1      37.710  31.026  30.250  1.00  0.00     0.031 A 
ATOM     73  C   UNL A   1      38.609  30.020  32.254  1.00  0.00     0.131 A 
ATOM     74  C   UNL A   1      36.607  31.462  30.994  1.00  0.00     0.055 A 
ATOM     75  C   UNL A   1      37.491  30.427  32.984  1.00  0.00     0.041 A 
ATOM     76  F   UNL A   1      39.564  29.333  32.902  1.00  0.00    -0.206 F 
ATOM     77  C   UNL A   1      36.490  31.162  32.356  1.00  0.00     0.022 A 
BRANCH  74  78
ATOM     78  S   UNL A   1      35.310  32.482  30.242  1.00  0.00     0.124 S 
ATOM     79  O   UNL A   1      34.923  31.672  29.089  1.00  0.00    -0.237 OA
ATOM     80  O   UNL A   1      34.319  32.556  31.313  1.00  0.00    -0.237 OA
ATOM     81  O   UNL A   1      35.988  33.733  29.922  1.00  0.00    -0.744 OA
ENDBRANCH  74  78
ENDBRANCH  57  71
BRANCH  58  82
ATOM     82  C   UNL A   1      47.086  27.808  25.943  1.00  0.00     0.023 A 
ATOM     83  C   UNL A   1      47.255  28.070  24.569  1.00  0.00     0.031 A 
ATOM     84  C   UNL A   1      48.071  27.052  26.597  1.00  0.00     0.131 A 
ATOM     85  C   UNL A   1      48.340  27.513  23.882  1.00  0.00     0.055 A 
ATOM     86  C   UNL A   1      49.190  26.560  25.923  1.00  0.00     0.041 A 
ATOM     87  F   UNL A   1      47.949  26.767  27.902  1.00  0.00    -0.206 F 
ATOM     88  C   UNL A   1      49.318  26.772  24.552  1.00  0.00     0.022 A 
BRANCH  85  89
ATOM     89  S   UNL A   1      48.437  27.604  22.072  1.00  0.00     0.124 S 
ATOM     90  O   UNL A   1      47.140  28.177  21.727  1.00  0.00    -0.237 OA
ATOM     91  O   UNL A   1      49.588  28.483  21.878  1.00  0.00    -0.237 OA
ATOM     92  O   UNL A   1      48.643  26.217  21.668  1.00  0.00    -0.744 OA
ENDBRANCH  85  89
ENDBRANCH  58  82
BRANCH  70  93
ATOM     93  C   UNL A   1      44.937  33.590  29.332  1.00  0.00     0.023 A 
ATOM     94  C   UNL A   1      44.773  34.625  28.391  1.00  0.00     0.031 A 
ATOM     95  C   UNL A   1      45.810  33.804  30.413  1.00  0.00     0.131 A 
ATOM     96  C   UNL A   1      45.507  35.810  28.524  1.00  0.00     0.055 A 
ATOM     97  C   UNL A   1      46.506  35.004  30.564  1.00  0.00     0.041 A 
ATOM     98  F   UNL A   1      46.005  32.843  31.330  1.00  0.00    -0.206 F 
ATOM     99  C   UNL A   1      46.368  36.007  29.609  1.00  0.00     0.022 A 
BRANCH  96 100
ATOM    100  S   UNL A   1      45.441  37.101  27.252  1.00  0.00     0.124 S 
ATOM    101  O   UNL A   1      46.271  36.527  26.196  1.00  0.00    -0.237 OA
ATOM    102  O   UNL A   1      44.012  37.169  26.956  1.00  0.00    -0.237 OA
ATOM    103  O   UNL A   1      46.001  38.276  27.912  1.00  0.00    -0.744 OA
ENDBRANCH  96 100
ENDBRANCH  70  93
ENDBRANCH  44  45
ENDBRANCH  36  39
ENDBRANCH  34  35
ENDBRANCH  33  34
ENDBRANCH  32  33
ENDBRANCH   1  32
TORSDOF 19
ENDMDL
MODEL 3
REMARK VINA RESULT:     -12.4      2.205      4.384
REMARK SMILES O=C(Cc1c(C(=O)c2cc3c(cn2)CCCC3)[nH]c2cc(Cl)ccc12)NCCCCCCNC(=O)c1ccc(-c2c3nc(c(-c4cc(S(=O)(=O)[O-])ccc4F)c4ccc([nH]4)c(-c4cc(S(=O)(=O)[O-])ccc4F)c4nc(c(-c5cc(S(=O)(=O)[O-])ccc5F)c5ccc2[nH]5)C=C4)C=C3)cc1
REMARK SMILES IDX 29 1 28 2 27 3 26 4 1 5 2 6 3 8 4 9 5 10 25 11 18 12 19 13
REMARK SMILES IDX 24 14 20 16 23 17 21 18 22 19 6 20 7 21 8 22 9 23 13 24
REMARK SMILES IDX 10 25 12 26 11 27 17 28 14 29 16 30 15 31 30 32 31 33 32 34
REMARK SMILES IDX 33 35 34 36 35 38 36 39 37 40 98 41 38 42 97 43 39 44 40 45
REMARK SMILES IDX 41 46 91 47 42 48 96 49 90 50 92 51 43 52 95 53 89 54 88 55
REMARK SMILES IDX 44 57 76 58 56 59 75 60 57 61 60 62 74 63 93 64 58 65 59 66
REMARK SMILES IDX 73 68 94 69 61 70 45 71 46 72 54 73 47 74 53 75 55 76 52 77
REMARK SMILES IDX 48 78 49 79 50 80 51 81 77 82 78 83 86 84 79 85 85 86 87 87
REMARK SMILES IDX 84 88 80 89 81 90 82 91 83 92 62 93 63 94 71 95 64 96 70 97
REMARK SMILES IDX 72 98 69 99 65 100 66 101 67 102 68 103
REMARK H PARENT 26 7 18 15 33 37 92 56 60 67
REMARK Flexibility Score: inf
ROOT
ATOM      1  C   UNL A   1      34.500  24.018  23.167  1.00  0.00     0.002 C 
ENDROOT
BRANCH   1   2
ATOM      2  C   UNL A   1      33.407  23.898  22.096  1.00  0.00     0.021 C 
BRANCH   2   3
ATOM      3  C   UNL A   1      32.644  25.189  21.807  1.00  0.00     0.116 C 
BRANCH   3   4
ATOM      4  N   UNL A   1      31.693  25.493  22.855  1.00  0.00    -0.356 N 
ATOM      5  O   UNL A   1      30.696  27.273  21.799  1.00  0.00    -0.275 OA
ATOM      6  C   UNL A   1      30.770  26.513  22.761  1.00  0.00     0.224 C 
ATOM      7  H   UNL A   1      31.704  24.946  23.673  1.00  0.00     0.163 HD
BRANCH   6   8
ATOM      8  C   UNL A   1      29.876  26.662  23.978  1.00  0.00     0.138 C 
BRANCH   8   9
ATOM      9  C   UNL A   1      30.584  27.009  25.267  1.00  0.00    -0.002 A 
ATOM     10  C   UNL A   1      30.709  26.155  26.370  1.00  0.00     0.093 A 
ATOM     11  C   UNL A   1      31.284  28.226  25.588  1.00  0.00     0.004 A 
ATOM     12  N   UNL A   1      31.469  26.823  27.304  1.00  0.00    -0.351 N 
ATOM     13  C   UNL A   1      31.785  28.088  26.880  1.00  0.00     0.048 A 
ATOM     14  C   UNL A   1      31.541  29.439  24.909  1.00  0.00     0.012 A 
ATOM     15  H   UNL A   1      31.751  26.440  28.166  1.00  0.00     0.167 HD
ATOM     16  C   UNL A   1      32.496  29.100  27.540  1.00  0.00     0.047 A 
ATOM     17  C   UNL A   1      32.242  30.469  25.553  1.00  0.00     0.021 A 
ATOM     18  C   UNL A   1      32.704  30.296  26.851  1.00  0.00     0.043 A 
ATOM     19  Cl  UNL A   1      33.562  31.573  27.627  1.00  0.00    -0.084 Cl
BRANCH  10  20
ATOM     20  C   UNL A   1      30.198  24.791  26.529  1.00  0.00     0.227 C 
ATOM     21  O   UNL A   1      29.029  24.535  26.808  1.00  0.00    -0.285 OA
BRANCH  20  22
ATOM     22  C   UNL A   1      31.135  23.643  26.355  1.00  0.00     0.113 A 
ATOM     23  C   UNL A   1      31.079  22.854  25.210  1.00  0.00     0.036 A 
ATOM     24  N   UNL A   1      32.008  23.435  27.369  1.00  0.00    -0.252 NA
ATOM     25  C   UNL A   1      31.969  21.780  25.095  1.00  0.00    -0.041 A 
ATOM     26  C   UNL A   1      32.869  22.406  27.227  1.00  0.00     0.115 A 
ATOM     27  C   UNL A   1      32.881  21.544  26.134  1.00  0.00    -0.026 A 
ATOM     28  C   UNL A   1      31.891  20.868  23.896  1.00  0.00     0.036 C 
ATOM     29  C   UNL A   1      33.908  20.445  26.060  1.00  0.00     0.037 C 
ATOM     30  C   UNL A   1      33.136  19.999  23.717  1.00  0.00     0.005 C 
ATOM     31  C   UNL A   1      33.549  19.366  25.040  1.00  0.00     0.005 C 
ENDBRANCH  20  22
ENDBRANCH  10  20
ENDBRANCH   8   9
ENDBRANCH   6   8
ENDBRANCH   3   4
ENDBRANCH   2   3
ENDBRANCH   1   2
BRANCH   1  32
ATOM     32  C   UNL A   1      35.238  22.721  23.515  1.00  0.00     0.002 C 
BRANCH  32  33
ATOM     33  C   UNL A   1      36.689  22.886  23.963  1.00  0.00     0.021 C 
BRANCH  33  34
ATOM     34  C   UNL A   1      36.969  22.528  25.420  1.00  0.00     0.116 C 
BRANCH  34  35
ATOM     35  N   UNL A   1      37.923  21.440  25.571  1.00  0.00    -0.352 N 
ATOM     36  C   UNL A   1      39.190  21.475  26.111  1.00  0.00     0.251 C 
ATOM     37  H   UNL A   1      37.623  20.561  25.245  1.00  0.00     0.163 HD
ATOM     38  O   UNL A   1      39.909  20.480  26.062  1.00  0.00    -0.269 OA
BRANCH  36  39
ATOM     39  C   UNL A   1      39.692  22.737  26.701  1.00  0.00     0.039 A 
ATOM     40  C   UNL A   1      39.204  23.969  26.260  1.00  0.00     0.014 A 
ATOM     41  C   UNL A   1      40.710  22.684  27.656  1.00  0.00     0.014 A 
ATOM     42  C   UNL A   1      39.856  25.140  26.635  1.00  0.00     0.010 A 
ATOM     43  C   UNL A   1      41.313  23.868  28.090  1.00  0.00     0.010 A 
ATOM     44  C   UNL A   1      40.932  25.102  27.537  1.00  0.00    -0.014 A 
BRANCH  44  45
ATOM     45  C   UNL A   1      41.664  26.355  27.862  1.00  0.00     0.031 A 
ATOM     46  C   UNL A   1      43.031  26.616  27.286  1.00  0.00     0.074 A 
ATOM     47  C   UNL A   1      41.070  27.286  28.633  1.00  0.00     0.049 A 
ATOM     48  N   UNL A   1      43.802  27.662  27.438  1.00  0.00    -0.248 NA
ATOM     49  C   UNL A   1      43.609  25.569  26.428  1.00  0.00     0.031 C 
ATOM     50  C   UNL A   1      39.743  27.149  29.233  1.00  0.00     0.029 A 
ATOM     51  N   UNL A   1      41.487  28.533  29.027  1.00  0.00    -0.354 N 
ATOM     52  C   UNL A   1      44.958  27.396  26.712  1.00  0.00     0.074 A 
ATOM     53  C   UNL A   1      44.802  26.075  26.145  1.00  0.00     0.031 C 
ATOM     54  C   UNL A   1      39.435  28.282  29.878  1.00  0.00     0.029 A 
ATOM     55  C   UNL A   1      40.565  29.206  29.795  1.00  0.00     0.049 A 
ATOM     56  H   UNL A   1      42.364  28.911  28.783  1.00  0.00     0.167 HD
ATOM     57  C   UNL A   1      46.039  28.188  26.521  1.00  0.00     0.034 A 
ATOM     58  C   UNL A   1      40.620  30.421  30.377  1.00  0.00     0.034 A 
ATOM     59  C   UNL A   1      46.173  29.513  27.072  1.00  0.00     0.049 A 
ATOM     60  C   UNL A   1      41.848  31.271  30.176  1.00  0.00     0.074 A 
ATOM     61  C   UNL A   1      47.224  30.399  26.917  1.00  0.00     0.029 A 
ATOM     62  N   UNL A   1      45.232  30.146  27.871  1.00  0.00    -0.354 N 
ATOM     63  N   UNL A   1      42.916  31.016  29.458  1.00  0.00    -0.248 NA
ATOM     64  C   UNL A   1      41.884  32.571  30.860  1.00  0.00     0.031 C 
ATOM     65  C   UNL A   1      46.943  31.545  27.662  1.00  0.00     0.029 A 
ATOM     66  C   UNL A   1      45.688  31.402  28.233  1.00  0.00     0.049 A 
ATOM     67  H   UNL A   1      44.368  29.758  28.140  1.00  0.00     0.167 HD
ATOM     68  C   UNL A   1      43.742  32.128  29.589  1.00  0.00     0.074 A 
ATOM     69  C   UNL A   1      43.039  33.070  30.436  1.00  0.00     0.031 C 
ATOM     70  C   UNL A   1      44.973  32.343  29.062  1.00  0.00     0.034 A 
BRANCH  57  71
ATOM     71  C   UNL A   1      47.174  27.671  25.671  1.00  0.00     0.023 A 
ATOM     72  C   UNL A   1      47.246  28.012  24.307  1.00  0.00     0.031 A 
ATOM     73  C   UNL A   1      48.104  26.747  26.178  1.00  0.00     0.131 A 
ATOM     74  C   UNL A   1      48.210  27.409  23.490  1.00  0.00     0.055 A 
ATOM     75  C   UNL A   1      49.085  26.174  25.366  1.00  0.00     0.041 A 
ATOM     76  F   UNL A   1      48.077  26.392  27.473  1.00  0.00    -0.206 F 
ATOM     77  C   UNL A   1      49.133  26.496  24.013  1.00  0.00     0.022 A 
BRANCH  74  78
ATOM     78  S   UNL A   1      48.271  27.739  21.708  1.00  0.00     0.124 S 
ATOM     79  O   UNL A   1      46.967  28.355  21.473  1.00  0.00    -0.237 OA
ATOM     80  O   UNL A   1      49.415  28.641  21.603  1.00  0.00    -0.237 OA
ATOM     81  O   UNL A   1      48.451  26.420  21.112  1.00  0.00    -0.744 OA
ENDBRANCH  74  78
ENDBRANCH  57  71
BRANCH  58  82
ATOM     82  C   UNL A   1      39.445  30.902  31.160  1.00  0.00     0.023 A 
ATOM     83  C   UNL A   1      38.444  31.684  30.554  1.00  0.00     0.031 A 
ATOM     84  C   UNL A   1      39.370  30.691  32.546  1.00  0.00     0.131 A 
ATOM     85  C   UNL A   1      37.460  32.291  31.343  1.00  0.00     0.055 A 
ATOM     86  C   UNL A   1      38.344  31.238  33.319  1.00  0.00     0.041 A 
ATOM     87  F   UNL A   1      40.306  29.961  33.171  1.00  0.00    -0.206 F 
ATOM     88  C   UNL A   1      37.393  32.061  32.721  1.00  0.00     0.022 A 
BRANCH  85  89
ATOM     89  S   UNL A   1      36.326  33.517  30.633  1.00  0.00     0.124 S 
ATOM     90  O   UNL A   1      36.054  34.379  31.779  1.00  0.00    -0.237 OA
ATOM     91  O   UNL A   1      37.147  34.108  29.578  1.00  0.00    -0.237 OA
ATOM     92  O   UNL A   1      35.201  32.715  30.164  1.00  0.00    -0.744 OA
ENDBRANCH  85  89
ENDBRANCH  58  82
BRANCH  70  93
ATOM     93  C   UNL A   1      45.674  33.645  29.366  1.00  0.00     0.023 A 
ATOM     94  C   UNL A   1      45.558  34.731  28.477  1.00  0.00     0.031 A 
ATOM     95  C   UNL A   1      46.578  33.753  30.437  1.00  0.00     0.131 A 
ATOM     96  C   UNL A   1      46.367  35.860  28.649  1.00  0.00     0.055 A 
ATOM     97  C   UNL A   1      47.351  34.899  30.628  1.00  0.00     0.041 A 
ATOM     98  F   UNL A   1      46.729  32.740  31.305  1.00  0.00    -0.206 F 
ATOM     99  C   UNL A   1      47.258  35.953  29.724  1.00  0.00     0.022 A 
BRANCH  96 100
ATOM    100  S   UNL A   1      46.359  37.212  27.439  1.00  0.00     0.124 S 
ATOM    101  O   UNL A   1      47.497  38.017  27.879  1.00  0.00    -0.237 OA
ATOM    102  O   UNL A   1      46.549  36.499  26.179  1.00  0.00    -0.237 OA
ATOM    103  O   UNL A   1      45.052  37.836  27.615  1.00  0.00    -0.744 OA
ENDBRANCH  96 100
ENDBRANCH  70  93
ENDBRANCH  44  45
ENDBRANCH  36  39
ENDBRANCH  34  35
ENDBRANCH  33  34
ENDBRANCH  32  33
ENDBRANCH   1  32
TORSDOF 19
ENDMDL
