MODEL 1
REMARK VINA RESULT:     -10.8      0.000      0.000
REMARK SMILES CC[C@@H](C)N(C)c1ccc(/C=C/C(=O)NCCCCCCNC(=O)c2ccc(-c3c4nc(c(-c5cc(S(=O)(=O)[O-])ccc5F)c5ccc([nH]5)c(-c5cc(S(=O)(=O)[O-])ccc5F)c5nc(c(-c6cc(S(=O)(=O)[O-])ccc6F)c6ccc3[nH]6)C=C5)C=C4)cc2)cc1F
REMARK SMILES IDX 18 1 17 2 16 3 15 4 13 5 14 6 12 8 11 9 10 10 7 11 8 12
REMARK SMILES IDX 89 13 9 14 88 15 90 16 5 17 6 18 3 19 4 20 2 21 1 22 19 23
REMARK SMILES IDX 20 24 21 25 22 26 23 27 24 29 25 30 26 31 87 32 27 33 86 34
REMARK SMILES IDX 28 35 29 36 30 37 80 38 31 39 85 40 79 41 81 42 32 43 84 44
REMARK SMILES IDX 78 45 77 46 33 48 65 49 45 50 64 51 46 52 49 53 63 54 82 55
REMARK SMILES IDX 47 56 48 57 62 59 83 60 50 61 34 62 35 63 43 64 36 65 42 66
REMARK SMILES IDX 44 67 41 68 37 69 38 70 39 71 40 72 66 73 67 74 75 75 68 76
REMARK SMILES IDX 74 77 76 78 73 79 69 80 70 81 71 82 72 83 51 84 52 85 60 86
REMARK SMILES IDX 53 87 59 88 61 89 58 90 54 91 55 92 56 93 57 94
REMARK H PARENT 15 7 22 28 81 47 49 58
REMARK Flexibility Score: inf
ROOT
ATOM      1  C   UNL A   1      31.777  29.296  25.397  1.00  0.00     0.002 C 
ENDROOT
BRANCH   1   2
ATOM      2  C   UNL A   1      30.778  29.848  24.373  1.00  0.00     0.021 C 
BRANCH   2   3
ATOM      3  C   UNL A   1      30.551  28.916  23.182  1.00  0.00     0.116 C 
BRANCH   3   4
ATOM      4  N   UNL A   1      29.279  28.226  23.315  1.00  0.00    -0.353 N 
ATOM      5  C   UNL A   1      28.979  26.974  23.753  1.00  0.00     0.243 C 
ATOM      6  O   UNL A   1      27.804  26.620  23.829  1.00  0.00    -0.270 OA
ATOM      7  H   UNL A   1      28.498  28.758  23.039  1.00  0.00     0.163 HD
BRANCH   5   8
ATOM      8  C   UNL A   1      30.041  26.064  24.242  1.00  0.00     0.072 C 
ATOM      9  C   UNL A   1      30.635  25.129  23.490  1.00  0.00     0.014 C 
BRANCH   9  10
ATOM     10  C   UNL A   1      31.737  24.266  23.935  1.00  0.00    -0.022 A 
ATOM     11  C   UNL A   1      33.919  22.555  24.638  1.00  0.00     0.073 A 
ATOM     12  C   UNL A   1      32.814  22.731  25.488  1.00  0.00     0.029 A 
ATOM     13  C   UNL A   1      33.877  23.248  23.419  1.00  0.00     0.147 A 
ATOM     14  C   UNL A   1      31.737  23.568  25.145  1.00  0.00     0.010 A 
ATOM     15  C   UNL A   1      32.822  24.095  23.075  1.00  0.00     0.049 A 
ATOM     16  F   UNL A   1      34.825  23.063  22.489  1.00  0.00    -0.205 F 
BRANCH  11  17
ATOM     17  N   UNL A   1      34.968  21.708  24.989  1.00  0.00    -0.370 N 
ATOM     18  C   UNL A   1      34.707  20.274  24.963  1.00  0.00     0.144 C 
BRANCH  17  19
ATOM     19  C   UNL A   1      36.175  22.189  25.699  1.00  0.00     0.078 C 
ATOM     20  C   UNL A   1      36.203  23.718  25.760  1.00  0.00     0.031 C 
BRANCH  19  21
ATOM     21  C   UNL A   1      37.472  21.593  25.129  1.00  0.00     0.021 C 
ATOM     22  C   UNL A   1      38.717  21.939  25.934  1.00  0.00     0.006 C 
ENDBRANCH  19  21
ENDBRANCH  17  19
ENDBRANCH  11  17
ENDBRANCH   9  10
ENDBRANCH   5   8
ENDBRANCH   3   4
ENDBRANCH   2   3
ENDBRANCH   1   2
BRANCH   1  23
ATOM     23  C   UNL A   1      31.792  30.031  26.743  1.00  0.00     0.002 C 
BRANCH  23  24
ATOM     24  C   UNL A   1      31.733  31.559  26.643  1.00  0.00     0.021 C 
BRANCH  24  25
ATOM     25  C   UNL A   1      32.980  32.267  27.165  1.00  0.00     0.116 C 
BRANCH  25  26
ATOM     26  N   UNL A   1      32.699  33.651  27.516  1.00  0.00    -0.352 N 
ATOM     27  C   UNL A   1      33.183  34.396  28.564  1.00  0.00     0.251 C 
ATOM     28  H   UNL A   1      32.073  34.120  26.918  1.00  0.00     0.163 HD
ATOM     29  O   UNL A   1      32.647  35.457  28.860  1.00  0.00    -0.269 OA
BRANCH  27  30
ATOM     30  C   UNL A   1      34.345  33.900  29.333  1.00  0.00     0.039 A 
ATOM     31  C   UNL A   1      34.133  33.005  30.384  1.00  0.00     0.014 A 
ATOM     32  C   UNL A   1      35.640  34.317  29.010  1.00  0.00     0.014 A 
ATOM     33  C   UNL A   1      35.229  32.478  31.070  1.00  0.00     0.010 A 
ATOM     34  C   UNL A   1      36.732  33.736  29.648  1.00  0.00     0.010 A 
ATOM     35  C   UNL A   1      36.538  32.807  30.681  1.00  0.00    -0.014 A 
BRANCH  35  36
ATOM     36  C   UNL A   1      37.718  32.179  31.329  1.00  0.00     0.031 A 
ATOM     37  C   UNL A   1      38.431  31.038  30.657  1.00  0.00     0.074 A 
ATOM     38  C   UNL A   1      38.111  32.603  32.547  1.00  0.00     0.049 A 
ATOM     39  N   UNL A   1      39.416  30.304  31.106  1.00  0.00    -0.248 NA
ATOM     40  C   UNL A   1      37.966  30.659  29.312  1.00  0.00     0.031 C 
ATOM     41  C   UNL A   1      37.486  33.689  33.305  1.00  0.00     0.029 A 
ATOM     42  N   UNL A   1      39.127  32.174  33.364  1.00  0.00    -0.354 N 
ATOM     43  C   UNL A   1      39.688  29.379  30.106  1.00  0.00     0.074 A 
ATOM     44  C   UNL A   1      38.730  29.609  29.046  1.00  0.00     0.031 C 
ATOM     45  C   UNL A   1      38.156  33.865  34.456  1.00  0.00     0.029 A 
ATOM     46  C   UNL A   1      39.220  32.871  34.547  1.00  0.00     0.049 A 
ATOM     47  H   UNL A   1      39.735  31.437  33.125  1.00  0.00     0.167 HD
ATOM     48  C   UNL A   1      40.661  28.438  30.067  1.00  0.00     0.034 A 
ATOM     49  C   UNL A   1      40.056  32.719  35.593  1.00  0.00     0.034 A 
ATOM     50  C   UNL A   1      41.621  28.228  31.121  1.00  0.00     0.049 A 
ATOM     51  C   UNL A   1      41.097  31.632  35.545  1.00  0.00     0.074 A 
ATOM     52  C   UNL A   1      42.666  27.321  31.160  1.00  0.00     0.029 A 
ATOM     53  N   UNL A   1      41.659  28.932  32.316  1.00  0.00    -0.354 N 
ATOM     54  N   UNL A   1      41.334  30.762  34.591  1.00  0.00    -0.248 NA
ATOM     55  C   UNL A   1      41.981  31.504  36.711  1.00  0.00     0.031 C 
ATOM     56  C   UNL A   1      43.294  27.431  32.402  1.00  0.00     0.029 A 
ATOM     57  C   UNL A   1      42.693  28.460  33.109  1.00  0.00     0.049 A 
ATOM     58  H   UNL A   1      41.043  29.658  32.564  1.00  0.00     0.167 HD
ATOM     59  C   UNL A   1      42.413  30.003  35.031  1.00  0.00     0.074 A 
ATOM     60  C   UNL A   1      42.783  30.518  36.333  1.00  0.00     0.031 C 
ATOM     61  C   UNL A   1      43.047  28.977  34.408  1.00  0.00     0.034 A 
BRANCH  48  62
ATOM     62  C   UNL A   1      40.739  27.553  28.851  1.00  0.00     0.023 A 
ATOM     63  C   UNL A   1      41.684  27.783  27.837  1.00  0.00     0.031 A 
ATOM     64  C   UNL A   1      39.900  26.432  28.733  1.00  0.00     0.131 A 
ATOM     65  C   UNL A   1      41.749  26.918  26.735  1.00  0.00     0.055 A 
ATOM     66  C   UNL A   1      40.009  25.541  27.665  1.00  0.00     0.041 A 
ATOM     67  F   UNL A   1      38.969  26.177  29.667  1.00  0.00    -0.206 F 
ATOM     68  C   UNL A   1      40.936  25.784  26.655  1.00  0.00     0.022 A 
BRANCH  65  69
ATOM     69  S   UNL A   1      42.878  27.323  25.375  1.00  0.00     0.124 S 
ATOM     70  O   UNL A   1      42.900  26.067  24.629  1.00  0.00    -0.237 OA
ATOM     71  O   UNL A   1      42.203  28.440  24.724  1.00  0.00    -0.237 OA
ATOM     72  O   UNL A   1      44.127  27.661  26.055  1.00  0.00    -0.744 OA
ENDBRANCH  65  69
ENDBRANCH  48  62
BRANCH  49  73
ATOM     73  C   UNL A   1      39.940  33.613  36.779  1.00  0.00     0.023 A 
ATOM     74  C   UNL A   1      39.392  33.144  37.984  1.00  0.00     0.031 A 
ATOM     75  C   UNL A   1      40.367  34.952  36.724  1.00  0.00     0.131 A 
ATOM     76  C   UNL A   1      39.259  34.015  39.076  1.00  0.00     0.055 A 
ATOM     77  C   UNL A   1      40.273  35.801  37.829  1.00  0.00     0.041 A 
ATOM     78  F   UNL A   1      40.904  35.447  35.598  1.00  0.00    -0.206 F 
ATOM     79  C   UNL A   1      39.709  35.336  39.011  1.00  0.00     0.022 A 
BRANCH  76  80
ATOM     80  S   UNL A   1      38.446  33.406  40.579  1.00  0.00     0.124 S 
ATOM     81  O   UNL A   1      37.045  33.397  40.176  1.00  0.00    -0.237 OA
ATOM     82  O   UNL A   1      39.072  32.100  40.757  1.00  0.00    -0.237 OA
ATOM     83  O   UNL A   1      38.802  34.405  41.585  1.00  0.00    -0.744 OA
ENDBRANCH  76  80
ENDBRANCH  49  73
BRANCH  61  84
ATOM     84  C   UNL A   1      44.233  28.366  35.104  1.00  0.00     0.023 A 
ATOM     85  C   UNL A   1      44.129  27.166  35.825  1.00  0.00     0.031 A 
ATOM     86  C   UNL A   1      45.499  28.971  34.999  1.00  0.00     0.131 A 
ATOM     87  C   UNL A   1      45.266  26.622  36.442  1.00  0.00     0.055 A 
ATOM     88  C   UNL A   1      46.635  28.398  35.569  1.00  0.00     0.041 A 
ATOM     89  F   UNL A   1      45.652  30.118  34.317  1.00  0.00    -0.206 F 
ATOM     90  C   UNL A   1      46.521  27.221  36.301  1.00  0.00     0.022 A 
BRANCH  87  91
ATOM     91  S   UNL A   1      45.077  25.137  37.465  1.00  0.00     0.124 S 
ATOM     92  O   UNL A   1      43.989  24.440  36.786  1.00  0.00    -0.237 OA
ATOM     93  O   UNL A   1      46.393  24.515  37.366  1.00  0.00    -0.237 OA
ATOM     94  O   UNL A   1      44.743  25.669  38.785  1.00  0.00    -0.744 OA
ENDBRANCH  87  91
ENDBRANCH  61  84
ENDBRANCH  35  36
ENDBRANCH  27  30
ENDBRANCH  25  26
ENDBRANCH  24  25
ENDBRANCH  23  24
ENDBRANCH   1  23
TORSDOF 20
ENDMDL
MODEL 2
REMARK VINA RESULT:     -10.7      2.498      7.906
REMARK SMILES CC[C@@H](C)N(C)c1ccc(/C=C/C(=O)NCCCCCCNC(=O)c2ccc(-c3c4nc(c(-c5cc(S(=O)(=O)[O-])ccc5F)c5ccc([nH]5)c(-c5cc(S(=O)(=O)[O-])ccc5F)c5nc(c(-c6cc(S(=O)(=O)[O-])ccc6F)c6ccc3[nH]6)C=C5)C=C4)cc2)cc1F
REMARK SMILES IDX 18 1 17 2 16 3 15 4 13 5 14 6 12 8 11 9 10 10 7 11 8 12
REMARK SMILES IDX 89 13 9 14 88 15 90 16 5 17 6 18 3 19 4 20 2 21 1 22 19 23
REMARK SMILES IDX 20 24 21 25 22 26 23 27 24 29 25 30 26 31 87 32 27 33 86 34
REMARK SMILES IDX 28 35 29 36 30 37 80 38 31 39 85 40 79 41 81 42 32 43 84 44
REMARK SMILES IDX 78 45 77 46 33 48 65 49 45 50 64 51 46 52 49 53 63 54 82 55
REMARK SMILES IDX 47 56 48 57 62 59 83 60 50 61 34 62 35 63 43 64 36 65 42 66
REMARK SMILES IDX 44 67 41 68 37 69 38 70 39 71 40 72 66 73 67 74 75 75 68 76
REMARK SMILES IDX 74 77 76 78 73 79 69 80 70 81 71 82 72 83 51 84 52 85 60 86
REMARK SMILES IDX 53 87 59 88 61 89 58 90 54 91 55 92 56 93 57 94
REMARK H PARENT 15 7 22 28 81 47 49 58
REMARK Flexibility Score: inf
ROOT
ATOM      1  C   UNL A   1      31.255  27.457  26.497  1.00  0.00     0.002 C 
ENDROOT
BRANCH   1   2
ATOM      2  C   UNL A   1      31.601  27.545  25.005  1.00  0.00     0.021 C 
BRANCH   2   3
ATOM      3  C   UNL A   1      33.105  27.517  24.728  1.00  0.00     0.116 C 
BRANCH   3   4
ATOM      4  N   UNL A   1      33.355  27.426  23.299  1.00  0.00    -0.353 N 
ATOM      5  C   UNL A   1      33.595  26.355  22.497  1.00  0.00     0.243 C 
ATOM      6  O   UNL A   1      33.727  26.518  21.285  1.00  0.00    -0.270 OA
ATOM      7  H   UNL A   1      33.349  28.291  22.830  1.00  0.00     0.163 HD
BRANCH   5   8
ATOM      8  C   UNL A   1      33.595  24.979  23.045  1.00  0.00     0.072 C 
ATOM      9  C   UNL A   1      32.856  23.974  22.555  1.00  0.00     0.014 C 
BRANCH   9  10
ATOM     10  C   UNL A   1      32.895  22.588  23.039  1.00  0.00    -0.022 A 
ATOM     11  C   UNL A   1      33.136  19.912  24.021  1.00  0.00     0.073 A 
ATOM     12  C   UNL A   1      32.206  20.253  23.024  1.00  0.00     0.029 A 
ATOM     13  C   UNL A   1      33.952  20.954  24.486  1.00  0.00     0.147 A 
ATOM     14  C   UNL A   1      32.087  21.566  22.535  1.00  0.00     0.010 A 
ATOM     15  C   UNL A   1      33.831  22.265  24.021  1.00  0.00     0.049 A 
ATOM     16  F   UNL A   1      34.946  20.715  25.354  1.00  0.00    -0.205 F 
BRANCH  11  17
ATOM     17  N   UNL A   1      33.251  18.601  24.479  1.00  0.00    -0.370 N 
ATOM     18  C   UNL A   1      32.725  18.308  25.806  1.00  0.00     0.144 C 
BRANCH  17  19
ATOM     19  C   UNL A   1      34.163  17.616  23.851  1.00  0.00     0.078 C 
ATOM     20  C   UNL A   1      33.405  16.352  23.440  1.00  0.00     0.031 C 
BRANCH  19  21
ATOM     21  C   UNL A   1      35.395  17.316  24.720  1.00  0.00     0.021 C 
ATOM     22  C   UNL A   1      35.317  15.990  25.464  1.00  0.00     0.006 C 
ENDBRANCH  19  21
ENDBRANCH  17  19
ENDBRANCH  11  17
ENDBRANCH   9  10
ENDBRANCH   5   8
ENDBRANCH   3   4
ENDBRANCH   2   3
ENDBRANCH   1   2
BRANCH   1  23
ATOM     23  C   UNL A   1      31.831  28.587  27.359  1.00  0.00     0.002 C 
BRANCH  23  24
ATOM     24  C   UNL A   1      31.412  29.998  26.935  1.00  0.00     0.021 C 
BRANCH  24  25
ATOM     25  C   UNL A   1      32.540  30.830  26.331  1.00  0.00     0.116 C 
BRANCH  25  26
ATOM     26  N   UNL A   1      32.438  32.228  26.719  1.00  0.00    -0.352 N 
ATOM     27  C   UNL A   1      33.183  32.931  27.634  1.00  0.00     0.251 C 
ATOM     28  H   UNL A   1      31.735  32.743  26.262  1.00  0.00     0.163 HD
ATOM     29  O   UNL A   1      32.798  34.026  28.026  1.00  0.00    -0.269 OA
BRANCH  27  30
ATOM     30  C   UNL A   1      34.442  32.349  28.148  1.00  0.00     0.039 A 
ATOM     31  C   UNL A   1      35.603  33.124  28.140  1.00  0.00     0.014 A 
ATOM     32  C   UNL A   1      34.470  31.040  28.640  1.00  0.00     0.014 A 
ATOM     33  C   UNL A   1      36.779  32.607  28.687  1.00  0.00     0.010 A 
ATOM     34  C   UNL A   1      35.623  30.554  29.247  1.00  0.00     0.010 A 
ATOM     35  C   UNL A   1      36.788  31.334  29.282  1.00  0.00    -0.014 A 
BRANCH  35  36
ATOM     36  C   UNL A   1      38.000  30.807  29.960  1.00  0.00     0.031 A 
ATOM     37  C   UNL A   1      38.336  31.249  31.359  1.00  0.00     0.074 A 
ATOM     38  C   UNL A   1      38.824  29.973  29.296  1.00  0.00     0.049 A 
ATOM     39  N   UNL A   1      39.393  30.974  32.078  1.00  0.00    -0.248 NA
ATOM     40  C   UNL A   1      37.367  32.131  32.031  1.00  0.00     0.031 C 
ATOM     41  C   UNL A   1      38.612  29.488  27.930  1.00  0.00     0.029 A 
ATOM     42  N   UNL A   1      40.005  29.384  29.674  1.00  0.00    -0.354 N 
ATOM     43  C   UNL A   1      39.220  31.646  33.281  1.00  0.00     0.074 A 
ATOM     44  C   UNL A   1      37.981  32.384  33.178  1.00  0.00     0.031 C 
ATOM     45  C   UNL A   1      39.608  28.648  27.601  1.00  0.00     0.029 A 
ATOM     46  C   UNL A   1      40.558  28.577  28.706  1.00  0.00     0.049 A 
ATOM     47  H   UNL A   1      40.418  29.525  30.557  1.00  0.00     0.167 HD
ATOM     48  C   UNL A   1      40.013  31.629  34.379  1.00  0.00     0.034 A 
ATOM     49  C   UNL A   1      41.706  27.870  28.701  1.00  0.00     0.034 A 
ATOM     50  C   UNL A   1      41.237  30.876  34.477  1.00  0.00     0.049 A 
ATOM     51  C   UNL A   1      42.594  27.911  29.917  1.00  0.00     0.074 A 
ATOM     52  C   UNL A   1      42.093  30.770  35.560  1.00  0.00     0.029 A 
ATOM     53  N   UNL A   1      41.779  30.099  33.464  1.00  0.00    -0.354 N 
ATOM     54  N   UNL A   1      42.415  28.558  31.045  1.00  0.00    -0.248 NA
ATOM     55  C   UNL A   1      43.836  27.129  29.861  1.00  0.00     0.031 C 
ATOM     56  C   UNL A   1      43.183  29.983  35.181  1.00  0.00     0.029 A 
ATOM     57  C   UNL A   1      42.971  29.533  33.888  1.00  0.00     0.049 A 
ATOM     58  H   UNL A   1      41.377  29.969  32.574  1.00  0.00     0.167 HD
ATOM     59  C   UNL A   1      43.509  28.237  31.843  1.00  0.00     0.074 A 
ATOM     60  C   UNL A   1      44.339  27.337  31.070  1.00  0.00     0.031 C 
ATOM     61  C   UNL A   1      43.794  28.644  33.105  1.00  0.00     0.034 A 
BRANCH  48  62
ATOM     62  C   UNL A   1      39.592  32.455  35.566  1.00  0.00     0.023 A 
ATOM     63  C   UNL A   1      39.982  33.798  35.700  1.00  0.00     0.031 A 
ATOM     64  C   UNL A   1      38.742  31.911  36.544  1.00  0.00     0.131 A 
ATOM     65  C   UNL A   1      39.543  34.545  36.802  1.00  0.00     0.055 A 
ATOM     66  C   UNL A   1      38.260  32.676  37.607  1.00  0.00     0.041 A 
ATOM     67  F   UNL A   1      38.353  30.627  36.472  1.00  0.00    -0.206 F 
ATOM     68  C   UNL A   1      38.664  34.001  37.742  1.00  0.00     0.022 A 
BRANCH  65  69
ATOM     69  S   UNL A   1      40.181  36.228  37.023  1.00  0.00     0.124 S 
ATOM     70  O   UNL A   1      39.409  36.685  38.177  1.00  0.00    -0.237 OA
ATOM     71  O   UNL A   1      41.602  36.002  37.256  1.00  0.00    -0.237 OA
ATOM     72  O   UNL A   1      39.853  36.887  35.761  1.00  0.00    -0.744 OA
ENDBRANCH  65  69
ENDBRANCH  48  62
BRANCH  49  73
ATOM     73  C   UNL A   1      42.088  27.072  27.503  1.00  0.00     0.023 A 
ATOM     74  C   UNL A   1      41.827  25.693  27.443  1.00  0.00     0.031 A 
ATOM     75  C   UNL A   1      42.727  27.672  26.403  1.00  0.00     0.131 A 
ATOM     76  C   UNL A   1      42.229  24.955  26.320  1.00  0.00     0.055 A 
ATOM     77  C   UNL A   1      43.084  26.941  25.269  1.00  0.00     0.041 A 
ATOM     78  F   UNL A   1      42.992  28.988  26.408  1.00  0.00    -0.206 F 
ATOM     79  C   UNL A   1      42.843  25.572  25.226  1.00  0.00     0.022 A 
BRANCH  76  80
ATOM     80  S   UNL A   1      41.976  23.159  26.323  1.00  0.00     0.124 S 
ATOM     81  O   UNL A   1      42.417  22.795  24.982  1.00  0.00    -0.237 OA
ATOM     82  O   UNL A   1      42.836  22.731  27.421  1.00  0.00    -0.237 OA
ATOM     83  O   UNL A   1      40.542  23.019  26.570  1.00  0.00    -0.744 OA
ENDBRANCH  76  80
ENDBRANCH  49  73
BRANCH  61  84
ATOM     84  C   UNL A   1      45.035  28.090  33.752  1.00  0.00     0.023 A 
ATOM     85  C   UNL A   1      45.030  26.857  34.422  1.00  0.00     0.031 A 
ATOM     86  C   UNL A   1      46.252  28.789  33.653  1.00  0.00     0.131 A 
ATOM     87  C   UNL A   1      46.215  26.370  34.995  1.00  0.00     0.055 A 
ATOM     88  C   UNL A   1      47.437  28.276  34.178  1.00  0.00     0.041 A 
ATOM     89  F   UNL A   1      46.309  29.972  33.020  1.00  0.00    -0.206 F 
ATOM     90  C   UNL A   1      47.422  27.063  34.859  1.00  0.00     0.022 A 
BRANCH  87  91
ATOM     91  S   UNL A   1      46.153  24.833  35.955  1.00  0.00     0.124 S 
ATOM     92  O   UNL A   1      45.719  23.867  34.950  1.00  0.00    -0.237 OA
ATOM     93  O   UNL A   1      47.529  24.695  36.419  1.00  0.00    -0.237 OA
ATOM     94  O   UNL A   1      45.174  25.121  37.001  1.00  0.00    -0.744 OA
ENDBRANCH  87  91
ENDBRANCH  61  84
ENDBRANCH  35  36
ENDBRANCH  27  30
ENDBRANCH  25  26
ENDBRANCH  24  25
ENDBRANCH  23  24
ENDBRANCH   1  23
TORSDOF 20
ENDMDL
MODEL 3
REMARK VINA RESULT:     -10.6      4.661      8.425
REMARK SMILES CC[C@@H](C)N(C)c1ccc(/C=C/C(=O)NCCCCCCNC(=O)c2ccc(-c3c4nc(c(-c5cc(S(=O)(=O)[O-])ccc5F)c5ccc([nH]5)c(-c5cc(S(=O)(=O)[O-])ccc5F)c5nc(c(-c6cc(S(=O)(=O)[O-])ccc6F)c6ccc3[nH]6)C=C5)C=C4)cc2)cc1F
REMARK SMILES IDX 18 1 17 2 16 3 15 4 13 5 14 6 12 8 11 9 10 10 7 11 8 12
REMARK SMILES IDX 89 13 9 14 88 15 90 16 5 17 6 18 3 19 4 20 2 21 1 22 19 23
REMARK SMILES IDX 20 24 21 25 22 26 23 27 24 29 25 30 26 31 87 32 27 33 86 34
REMARK SMILES IDX 28 35 29 36 30 37 80 38 31 39 85 40 79 41 81 42 32 43 84 44
REMARK SMILES IDX 78 45 77 46 33 48 65 49 45 50 64 51 46 52 49 53 63 54 82 55
REMARK SMILES IDX 47 56 48 57 62 59 83 60 50 61 34 62 35 63 43 64 36 65 42 66
REMARK SMILES IDX 44 67 41 68 37 69 38 70 39 71 40 72 66 73 67 74 75 75 68 76
REMARK SMILES IDX 74 77 76 78 73 79 69 80 70 81 71 82 72 83 51 84 52 85 60 86
REMARK SMILES IDX 53 87 59 88 61 89 58 90 54 91 55 92 56 93 57 94
REMARK H PARENT 15 7 22 28 81 47 49 58
REMARK Flexibility Score: inf
ROOT
ATOM      1  C   UNL A   1      34.648  20.589  25.441  1.00  0.00     0.002 C 
ENDROOT
BRANCH   1   2
ATOM      2  C   UNL A   1      34.181  19.301  24.752  1.00  0.00     0.021 C 
BRANCH   2   3
ATOM      3  C   UNL A   1      32.671  19.252  24.514  1.00  0.00     0.116 C 
BRANCH   3   4
ATOM      4  N   UNL A   1      32.372  19.488  23.112  1.00  0.00    -0.353 N 
ATOM      5  C   UNL A   1      31.998  20.617  22.452  1.00  0.00     0.243 C 
ATOM      6  O   UNL A   1      31.849  20.589  21.232  1.00  0.00    -0.270 OA
ATOM      7  H   UNL A   1      32.453  18.691  22.539  1.00  0.00     0.163 HD
BRANCH   5   8
ATOM      8  C   UNL A   1      31.872  21.909  23.165  1.00  0.00     0.072 C 
ATOM      9  C   UNL A   1      32.439  23.052  22.758  1.00  0.00     0.014 C 
BRANCH   9  10
ATOM     10  C   UNL A   1      32.268  24.356  23.412  1.00  0.00    -0.022 A 
ATOM     11  C   UNL A   1      32.102  26.924  24.662  1.00  0.00     0.073 A 
ATOM     12  C   UNL A   1      31.227  25.878  25.001  1.00  0.00     0.029 A 
ATOM     13  C   UNL A   1      33.073  26.626  23.693  1.00  0.00     0.147 A 
ATOM     14  C   UNL A   1      31.308  24.613  24.392  1.00  0.00     0.010 A 
ATOM     15  C   UNL A   1      33.151  25.379  23.070  1.00  0.00     0.049 A 
ATOM     16  F   UNL A   1      34.026  27.515  23.379  1.00  0.00    -0.205 F 
BRANCH  11  17
ATOM     17  N   UNL A   1      32.017  28.164  25.289  1.00  0.00    -0.370 N 
ATOM     18  C   UNL A   1      31.592  29.297  24.476  1.00  0.00     0.144 C 
BRANCH  17  19
ATOM     19  C   UNL A   1      32.653  28.439  26.598  1.00  0.00     0.078 C 
ATOM     20  C   UNL A   1      32.050  29.684  27.252  1.00  0.00     0.031 C 
BRANCH  19  21
ATOM     21  C   UNL A   1      34.186  28.497  26.508  1.00  0.00     0.021 C 
ATOM     22  C   UNL A   1      34.804  29.668  27.260  1.00  0.00     0.006 C 
ENDBRANCH  19  21
ENDBRANCH  17  19
ENDBRANCH  11  17
ENDBRANCH   9  10
ENDBRANCH   5   8
ENDBRANCH   3   4
ENDBRANCH   2   3
ENDBRANCH   1   2
BRANCH   1  23
ATOM     23  C   UNL A   1      35.474  21.530  24.555  1.00  0.00     0.002 C 
BRANCH  23  24
ATOM     24  C   UNL A   1      35.709  22.926  25.140  1.00  0.00     0.021 C 
BRANCH  24  25
ATOM     25  C   UNL A   1      37.160  23.393  25.078  1.00  0.00     0.116 C 
BRANCH  25  26
ATOM     26  N   UNL A   1      38.050  22.459  25.751  1.00  0.00    -0.352 N 
ATOM     27  C   UNL A   1      39.182  22.715  26.485  1.00  0.00     0.251 C 
ATOM     28  H   UNL A   1      37.806  21.509  25.667  1.00  0.00     0.163 HD
ATOM     29  O   UNL A   1      39.952  21.803  26.761  1.00  0.00    -0.269 OA
BRANCH  27  30
ATOM     30  C   UNL A   1      39.466  24.097  26.926  1.00  0.00     0.039 A 
ATOM     31  C   UNL A   1      39.177  24.465  28.242  1.00  0.00     0.014 A 
ATOM     32  C   UNL A   1      40.020  25.025  26.039  1.00  0.00     0.014 A 
ATOM     33  C   UNL A   1      39.507  25.747  28.686  1.00  0.00     0.010 A 
ATOM     34  C   UNL A   1      40.411  26.278  26.503  1.00  0.00     0.010 A 
ATOM     35  C   UNL A   1      40.164  26.650  27.832  1.00  0.00    -0.014 A 
BRANCH  35  36
ATOM     36  C   UNL A   1      40.614  27.980  28.315  1.00  0.00     0.031 A 
ATOM     37  C   UNL A   1      42.078  28.327  28.318  1.00  0.00     0.074 A 
ATOM     38  C   UNL A   1      39.709  28.854  28.798  1.00  0.00     0.049 A 
ATOM     39  N   UNL A   1      42.670  29.396  28.784  1.00  0.00    -0.248 NA
ATOM     40  C   UNL A   1      43.000  27.337  27.737  1.00  0.00     0.031 C 
ATOM     41  C   UNL A   1      38.263  28.623  28.863  1.00  0.00     0.029 A 
ATOM     42  N   UNL A   1      39.864  30.110  29.329  1.00  0.00    -0.354 N 
ATOM     43  C   UNL A   1      44.028  29.208  28.557  1.00  0.00     0.074 A 
ATOM     44  C   UNL A   1      44.179  27.900  27.958  1.00  0.00     0.031 C 
ATOM     45  C   UNL A   1      37.665  29.714  29.366  1.00  0.00     0.029 A 
ATOM     46  C   UNL A   1      38.682  30.701  29.714  1.00  0.00     0.049 A 
ATOM     47  H   UNL A   1      40.741  30.549  29.425  1.00  0.00     0.167 HD
ATOM     48  C   UNL A   1      45.051  30.059  28.807  1.00  0.00     0.034 A 
ATOM     49  C   UNL A   1      38.444  31.894  30.292  1.00  0.00     0.034 A 
ATOM     50  C   UNL A   1      44.888  31.367  29.389  1.00  0.00     0.049 A 
ATOM     51  C   UNL A   1      39.606  32.800  30.605  1.00  0.00     0.074 A 
ATOM     52  C   UNL A   1      45.860  32.316  29.651  1.00  0.00     0.029 A 
ATOM     53  N   UNL A   1      43.679  31.913  29.794  1.00  0.00    -0.354 N 
ATOM     54  N   UNL A   1      40.885  32.601  30.389  1.00  0.00    -0.248 NA
ATOM     55  C   UNL A   1      39.295  34.087  31.241  1.00  0.00     0.031 C 
ATOM     56  C   UNL A   1      45.251  33.408  30.273  1.00  0.00     0.029 A 
ATOM     57  C   UNL A   1      43.887  33.175  30.329  1.00  0.00     0.049 A 
ATOM     58  H   UNL A   1      42.803  31.471  29.715  1.00  0.00     0.167 HD
ATOM     59  C   UNL A   1      41.527  33.751  30.835  1.00  0.00     0.074 A 
ATOM     60  C   UNL A   1      40.497  34.640  31.329  1.00  0.00     0.031 C 
ATOM     61  C   UNL A   1      42.851  34.048  30.826  1.00  0.00     0.034 A 
BRANCH  48  62
ATOM     62  C   UNL A   1      46.445  29.607  28.462  1.00  0.00     0.023 A 
ATOM     63  C   UNL A   1      47.237  28.903  29.385  1.00  0.00     0.031 A 
ATOM     64  C   UNL A   1      46.967  29.829  27.176  1.00  0.00     0.131 A 
ATOM     65  C   UNL A   1      48.518  28.469  29.017  1.00  0.00     0.055 A 
ATOM     66  C   UNL A   1      48.218  29.343  26.796  1.00  0.00     0.041 A 
ATOM     67  F   UNL A   1      46.257  30.511  26.262  1.00  0.00    -0.206 F 
ATOM     68  C   UNL A   1      49.004  28.661  27.721  1.00  0.00     0.022 A 
BRANCH  65  69
ATOM     69  S   UNL A   1      49.570  27.693  30.274  1.00  0.00     0.124 S 
ATOM     70  O   UNL A   1      50.677  28.643  30.358  1.00  0.00    -0.237 OA
ATOM     71  O   UNL A   1      48.690  27.636  31.435  1.00  0.00    -0.237 OA
ATOM     72  O   UNL A   1      49.909  26.399  29.685  1.00  0.00    -0.744 OA
ENDBRANCH  65  69
ENDBRANCH  48  62
BRANCH  49  73
ATOM     73  C   UNL A   1      37.049  32.300  30.623  1.00  0.00     0.023 A 
ATOM     74  C   UNL A   1      36.216  32.874  29.649  1.00  0.00     0.031 A 
ATOM     75  C   UNL A   1      36.530  32.129  31.919  1.00  0.00     0.131 A 
ATOM     76  C   UNL A   1      34.918  33.282  29.993  1.00  0.00     0.055 A 
ATOM     77  C   UNL A   1      35.223  32.496  32.244  1.00  0.00     0.041 A 
ATOM     78  F   UNL A   1      37.284  31.580  32.884  1.00  0.00    -0.206 F 
ATOM     79  C   UNL A   1      34.411  33.084  31.280  1.00  0.00     0.022 A 
BRANCH  76  80
ATOM     80  S   UNL A   1      33.908  34.118  28.740  1.00  0.00     0.124 S 
ATOM     81  O   UNL A   1      34.818  35.158  28.272  1.00  0.00    -0.237 OA
ATOM     82  O   UNL A   1      33.631  33.038  27.800  1.00  0.00    -0.237 OA
ATOM     83  O   UNL A   1      32.752  34.592  29.497  1.00  0.00    -0.744 OA
ENDBRANCH  76  80
ENDBRANCH  49  73
BRANCH  61  84
ATOM     84  C   UNL A   1      43.265  35.405  31.330  1.00  0.00     0.023 A 
ATOM     85  C   UNL A   1      43.390  35.677  32.701  1.00  0.00     0.031 A 
ATOM     86  C   UNL A   1      43.585  36.427  30.416  1.00  0.00     0.131 A 
ATOM     87  C   UNL A   1      43.797  36.952  33.125  1.00  0.00     0.055 A 
ATOM     88  C   UNL A   1      44.039  37.674  30.841  1.00  0.00     0.041 A 
ATOM     89  F   UNL A   1      43.484  36.215  29.094  1.00  0.00    -0.206 F 
ATOM     90  C   UNL A   1      44.141  37.945  32.202  1.00  0.00     0.022 A 
BRANCH  87  91
ATOM     91  S   UNL A   1      43.835  37.310  34.902  1.00  0.00     0.124 S 
ATOM     92  O   UNL A   1      42.532  36.816  35.336  1.00  0.00    -0.237 OA
ATOM     93  O   UNL A   1      44.991  36.543  35.354  1.00  0.00    -0.237 OA
ATOM     94  O   UNL A   1      43.997  38.762  34.956  1.00  0.00    -0.744 OA
ENDBRANCH  87  91
ENDBRANCH  61  84
ENDBRANCH  35  36
ENDBRANCH  27  30
ENDBRANCH  25  26
ENDBRANCH  24  25
ENDBRANCH  23  24
ENDBRANCH   1  23
TORSDOF 20
ENDMDL
