MODEL 1
REMARK VINA RESULT:     -11.7      0.000      0.000
REMARK SMILES O=C(NCCCCCCNC(=O)c1cc(Br)ccc1OCc1ccccc1F)c1ccc(-c2c3nc(c(-c4cc(S(=O)(=O)[O-])ccc4F)c4ccc([nH]4)c(-c4cc(S(=O)(=O)[O-])ccc4F)c4nc(c(-c5cc(S(=O)(=O)[O-])ccc5F)c5ccc2[nH]5)C=C4)C=C3)cc1
REMARK SMILES IDX 6 1 5 2 4 3 3 4 1 5 2 6 29 8 30 9 91 10 31 11 90 12 32 13
REMARK SMILES IDX 33 14 34 15 84 16 35 17 89 18 83 19 85 20 36 21 88 22 82 23
REMARK SMILES IDX 81 24 37 26 69 27 49 28 68 29 50 30 53 31 67 32 86 33 51 34
REMARK SMILES IDX 52 35 66 37 87 38 54 39 38 40 39 41 47 42 40 43 46 44 48 45
REMARK SMILES IDX 45 46 41 47 42 48 43 49 44 50 70 51 71 52 79 53 72 54 78 55
REMARK SMILES IDX 80 56 77 57 73 58 74 59 75 60 76 61 55 62 56 63 64 64 57 65
REMARK SMILES IDX 63 66 65 67 62 68 58 69 59 70 60 71 61 72 7 73 8 74 9 75
REMARK SMILES IDX 10 76 11 77 12 79 13 80 14 81 19 82 15 83 18 84 16 85 17 86
REMARK SMILES IDX 20 87 21 88 22 89 23 90 27 91 24 92 26 93 28 94 25 95
REMARK H PARENT 3 7 85 25 53 36 10 78
REMARK Flexibility Score: inf
ROOT
ATOM      1  C   UNL A   1      31.153  31.108  25.784  1.00  0.00     0.002 C 
ENDROOT
BRANCH   1   2
ATOM      2  C   UNL A   1      31.186  32.297  26.740  1.00  0.00     0.021 C 
BRANCH   2   3
ATOM      3  C   UNL A   1      32.555  32.896  27.032  1.00  0.00     0.116 C 
BRANCH   3   4
ATOM      4  N   UNL A   1      32.495  34.248  27.561  1.00  0.00    -0.352 N 
ATOM      5  O   UNL A   1      33.000  35.967  28.929  1.00  0.00    -0.269 OA
ATOM      6  C   UNL A   1      33.261  34.828  28.546  1.00  0.00     0.251 C 
ATOM      7  H   UNL A   1      31.810  34.830  27.159  1.00  0.00     0.163 HD
BRANCH   6   8
ATOM      8  C   UNL A   1      34.374  34.075  29.174  1.00  0.00     0.039 A 
ATOM      9  C   UNL A   1      34.131  33.043  30.084  1.00  0.00     0.014 A 
ATOM     10  C   UNL A   1      35.691  34.410  28.838  1.00  0.00     0.014 A 
ATOM     11  C   UNL A   1      35.195  32.445  30.757  1.00  0.00     0.010 A 
ATOM     12  C   UNL A   1      36.761  33.763  29.467  1.00  0.00     0.010 A 
ATOM     13  C   UNL A   1      36.522  32.800  30.459  1.00  0.00    -0.014 A 
BRANCH  13  14
ATOM     14  C   UNL A   1      37.636  32.137  31.184  1.00  0.00     0.031 A 
ATOM     15  C   UNL A   1      38.421  31.023  30.545  1.00  0.00     0.074 A 
ATOM     16  C   UNL A   1      37.975  32.581  32.410  1.00  0.00     0.049 A 
ATOM     17  N   UNL A   1      39.439  30.354  31.024  1.00  0.00    -0.248 NA
ATOM     18  C   UNL A   1      38.008  30.602  29.198  1.00  0.00     0.031 C 
ATOM     19  C   UNL A   1      37.290  33.654  33.137  1.00  0.00     0.029 A 
ATOM     20  N   UNL A   1      38.990  32.206  33.252  1.00  0.00    -0.354 N 
ATOM     21  C   UNL A   1      39.776  29.421  30.051  1.00  0.00     0.074 A 
ATOM     22  C   UNL A   1      38.845  29.602  28.956  1.00  0.00     0.031 C 
ATOM     23  C   UNL A   1      37.938  33.885  34.290  1.00  0.00     0.029 A 
ATOM     24  C   UNL A   1      39.051  32.949  34.406  1.00  0.00     0.049 A 
ATOM     25  H   UNL A   1      39.617  31.474  33.048  1.00  0.00     0.167 HD
ATOM     26  C   UNL A   1      40.772  28.501  30.066  1.00  0.00     0.034 A 
ATOM     27  C   UNL A   1      39.903  32.884  35.447  1.00  0.00     0.034 A 
ATOM     28  C   UNL A   1      41.714  28.340  31.144  1.00  0.00     0.049 A 
ATOM     29  C   UNL A   1      40.994  31.854  35.441  1.00  0.00     0.074 A 
ATOM     30  C   UNL A   1      42.777  27.456  31.235  1.00  0.00     0.029 A 
ATOM     31  N   UNL A   1      41.709  29.077  32.319  1.00  0.00    -0.354 N 
ATOM     32  N   UNL A   1      41.279  30.964  34.521  1.00  0.00    -0.248 NA
ATOM     33  C   UNL A   1      41.872  31.811  36.619  1.00  0.00     0.031 C 
ATOM     34  C   UNL A   1      43.391  27.634  32.481  1.00  0.00     0.029 A 
ATOM     35  C   UNL A   1      42.737  28.656  33.147  1.00  0.00     0.049 A 
ATOM     36  H   UNL A   1      41.069  29.794  32.532  1.00  0.00     0.167 HD
ATOM     37  C   UNL A   1      42.365  30.250  35.011  1.00  0.00     0.074 A 
ATOM     38  C   UNL A   1      42.695  30.820  36.302  1.00  0.00     0.031 C 
ATOM     39  C   UNL A   1      43.031  29.215  34.443  1.00  0.00     0.034 A 
BRANCH  26  40
ATOM     40  C   UNL A   1      40.870  27.568  28.891  1.00  0.00     0.023 A 
ATOM     41  C   UNL A   1      41.837  27.745  27.889  1.00  0.00     0.031 A 
ATOM     42  C   UNL A   1      39.991  26.477  28.786  1.00  0.00     0.131 A 
ATOM     43  C   UNL A   1      41.878  26.862  26.799  1.00  0.00     0.055 A 
ATOM     44  C   UNL A   1      40.069  25.572  27.726  1.00  0.00     0.041 A 
ATOM     45  F   UNL A   1      39.041  26.275  29.712  1.00  0.00    -0.206 F 
ATOM     46  C   UNL A   1      41.013  25.765  26.722  1.00  0.00     0.022 A 
BRANCH  43  47
ATOM     47  S   UNL A   1      43.045  27.187  25.450  1.00  0.00     0.124 S 
ATOM     48  O   UNL A   1      43.169  25.863  24.846  1.00  0.00    -0.237 OA
ATOM     49  O   UNL A   1      42.345  28.189  24.653  1.00  0.00    -0.237 OA
ATOM     50  O   UNL A   1      44.241  27.667  26.141  1.00  0.00    -0.744 OA
ENDBRANCH  43  47
ENDBRANCH  26  40
BRANCH  27  51
ATOM     51  C   UNL A   1      39.731  33.807  36.597  1.00  0.00     0.023 A 
ATOM     52  C   UNL A   1      39.136  33.373  37.790  1.00  0.00     0.031 A 
ATOM     53  C   UNL A   1      40.182  35.136  36.517  1.00  0.00     0.131 A 
ATOM     54  C   UNL A   1      38.991  34.270  38.858  1.00  0.00     0.055 A 
ATOM     55  C   UNL A   1      40.059  36.017  37.592  1.00  0.00     0.041 A 
ATOM     56  F   UNL A   1      40.770  35.586  35.398  1.00  0.00    -0.206 F 
ATOM     57  C   UNL A   1      39.458  35.586  38.771  1.00  0.00     0.022 A 
BRANCH  54  58
ATOM     58  S   UNL A   1      38.180  33.696  40.376  1.00  0.00     0.124 S 
ATOM     59  O   UNL A   1      36.973  33.069  39.848  1.00  0.00    -0.237 OA
ATOM     60  O   UNL A   1      39.181  32.793  40.935  1.00  0.00    -0.237 OA
ATOM     61  O   UNL A   1      37.966  34.927  41.133  1.00  0.00    -0.744 OA
ENDBRANCH  54  58
ENDBRANCH  27  51
BRANCH  39  62
ATOM     62  C   UNL A   1      44.181  28.640  35.217  1.00  0.00     0.023 A 
ATOM     63  C   UNL A   1      43.974  27.653  36.195  1.00  0.00     0.031 A 
ATOM     64  C   UNL A   1      45.492  29.077  34.969  1.00  0.00     0.131 A 
ATOM     65  C   UNL A   1      45.068  27.151  36.915  1.00  0.00     0.055 A 
ATOM     66  C   UNL A   1      46.579  28.551  35.666  1.00  0.00     0.041 A 
ATOM     67  F   UNL A   1      45.732  30.020  34.044  1.00  0.00    -0.206 F 
ATOM     68  C   UNL A   1      46.370  27.585  36.648  1.00  0.00     0.022 A 
BRANCH  65  69
ATOM     69  S   UNL A   1      44.773  25.925  38.218  1.00  0.00     0.124 S 
ATOM     70  O   UNL A   1      43.656  26.521  38.944  1.00  0.00    -0.237 OA
ATOM     71  O   UNL A   1      44.466  24.716  37.460  1.00  0.00    -0.237 OA
ATOM     72  O   UNL A   1      46.040  25.891  38.948  1.00  0.00    -0.744 OA
ENDBRANCH  65  69
ENDBRANCH  39  62
ENDBRANCH  13  14
ENDBRANCH   6   8
ENDBRANCH   3   4
ENDBRANCH   2   3
ENDBRANCH   1   2
BRANCH   1  73
ATOM     73  C   UNL A   1      32.263  30.062  25.915  1.00  0.00     0.002 C 
BRANCH  73  74
ATOM     74  C   UNL A   1      32.053  28.884  26.874  1.00  0.00     0.021 C 
BRANCH  74  75
ATOM     75  C   UNL A   1      33.189  27.879  27.039  1.00  0.00     0.116 C 
BRANCH  75  76
ATOM     76  N   UNL A   1      33.834  27.495  25.801  1.00  0.00    -0.352 N 
ATOM     77  C   UNL A   1      33.514  26.436  24.992  1.00  0.00     0.255 C 
ATOM     78  H   UNL A   1      34.587  28.059  25.507  1.00  0.00     0.163 HD
ATOM     79  O   UNL A   1      33.843  26.426  23.810  1.00  0.00    -0.269 OA
BRANCH  77  80
ATOM     80  C   UNL A   1      32.714  25.330  25.536  1.00  0.00     0.082 A 
ATOM     81  C   UNL A   1      33.473  24.324  26.162  1.00  0.00     0.033 A 
ATOM     82  C   UNL A   1      31.314  25.255  25.503  1.00  0.00     0.132 A 
ATOM     83  C   UNL A   1      32.841  23.223  26.729  1.00  0.00     0.019 A 
ATOM     84  C   UNL A   1      30.707  24.127  26.084  1.00  0.00     0.048 A 
ATOM     85  Br  UNL A   1      33.864  21.875  27.565  1.00  0.00    -0.051 Br
ATOM     86  C   UNL A   1      31.458  23.115  26.688  1.00  0.00     0.019 A 
BRANCH  82  87
ATOM     87  O   UNL A   1      30.373  26.118  25.017  1.00  0.00    -0.488 OA
BRANCH  87  88
ATOM     88  C   UNL A   1      30.125  26.289  23.623  1.00  0.00     0.268 C 
BRANCH  88  89
ATOM     89  C   UNL A   1      29.425  27.574  23.267  1.00  0.00     0.025 A 
ATOM     90  C   UNL A   1      30.084  28.661  22.675  1.00  0.00     0.010 A 
ATOM     91  C   UNL A   1      28.055  27.690  23.524  1.00  0.00     0.129 A 
ATOM     92  C   UNL A   1      29.372  29.804  22.302  1.00  0.00     0.001 A 
ATOM     93  C   UNL A   1      27.339  28.826  23.159  1.00  0.00     0.039 A 
ATOM     94  F   UNL A   1      27.402  26.679  24.118  1.00  0.00    -0.207 F 
ATOM     95  C   UNL A   1      27.998  29.884  22.535  1.00  0.00     0.003 A 
ENDBRANCH  88  89
ENDBRANCH  87  88
ENDBRANCH  82  87
ENDBRANCH  77  80
ENDBRANCH  75  76
ENDBRANCH  74  75
ENDBRANCH  73  74
ENDBRANCH   1  73
TORSDOF 19
ENDMDL
MODEL 2
REMARK VINA RESULT:     -11.7      1.716      3.270
REMARK SMILES O=C(NCCCCCCNC(=O)c1cc(Br)ccc1OCc1ccccc1F)c1ccc(-c2c3nc(c(-c4cc(S(=O)(=O)[O-])ccc4F)c4ccc([nH]4)c(-c4cc(S(=O)(=O)[O-])ccc4F)c4nc(c(-c5cc(S(=O)(=O)[O-])ccc5F)c5ccc2[nH]5)C=C4)C=C3)cc1
REMARK SMILES IDX 6 1 5 2 4 3 3 4 1 5 2 6 29 8 30 9 91 10 31 11 90 12 32 13
REMARK SMILES IDX 33 14 34 15 84 16 35 17 89 18 83 19 85 20 36 21 88 22 82 23
REMARK SMILES IDX 81 24 37 26 69 27 49 28 68 29 50 30 53 31 67 32 86 33 51 34
REMARK SMILES IDX 52 35 66 37 87 38 54 39 38 40 39 41 47 42 40 43 46 44 48 45
REMARK SMILES IDX 45 46 41 47 42 48 43 49 44 50 70 51 71 52 79 53 72 54 78 55
REMARK SMILES IDX 80 56 77 57 73 58 74 59 75 60 76 61 55 62 56 63 64 64 57 65
REMARK SMILES IDX 63 66 65 67 62 68 58 69 59 70 60 71 61 72 7 73 8 74 9 75
REMARK SMILES IDX 10 76 11 77 12 79 13 80 14 81 19 82 15 83 18 84 16 85 17 86
REMARK SMILES IDX 20 87 21 88 22 89 23 90 27 91 24 92 26 93 28 94 25 95
REMARK H PARENT 3 7 85 25 53 36 10 78
REMARK Flexibility Score: inf
ROOT
ATOM      1  C   UNL A   1      31.709  30.609  25.997  1.00  0.00     0.002 C 
ENDROOT
BRANCH   1   2
ATOM      2  C   UNL A   1      31.491  32.013  26.555  1.00  0.00     0.021 C 
BRANCH   2   3
ATOM      3  C   UNL A   1      32.659  32.632  27.310  1.00  0.00     0.116 C 
BRANCH   3   4
ATOM      4  N   UNL A   1      32.459  34.033  27.639  1.00  0.00    -0.352 N 
ATOM      5  O   UNL A   1      32.735  35.959  28.778  1.00  0.00    -0.269 OA
ATOM      6  C   UNL A   1      33.109  34.805  28.575  1.00  0.00     0.251 C 
ATOM      7  H   UNL A   1      31.761  34.494  27.121  1.00  0.00     0.163 HD
BRANCH   6   8
ATOM      8  C   UNL A   1      34.231  34.243  29.365  1.00  0.00     0.039 A 
ATOM      9  C   UNL A   1      35.561  34.522  29.041  1.00  0.00     0.014 A 
ATOM     10  C   UNL A   1      33.941  33.420  30.461  1.00  0.00     0.014 A 
ATOM     11  C   UNL A   1      36.593  33.874  29.718  1.00  0.00     0.010 A 
ATOM     12  C   UNL A   1      34.981  32.822  31.182  1.00  0.00     0.010 A 
ATOM     13  C   UNL A   1      36.314  33.014  30.794  1.00  0.00    -0.014 A 
BRANCH  13  14
ATOM     14  C   UNL A   1      37.436  32.347  31.504  1.00  0.00     0.031 A 
ATOM     15  C   UNL A   1      38.232  31.256  30.840  1.00  0.00     0.074 A 
ATOM     16  C   UNL A   1      37.769  32.765  32.741  1.00  0.00     0.049 A 
ATOM     17  N   UNL A   1      39.257  30.587  31.304  1.00  0.00    -0.248 NA
ATOM     18  C   UNL A   1      37.824  30.862  29.483  1.00  0.00     0.031 C 
ATOM     19  C   UNL A   1      37.072  33.814  33.492  1.00  0.00     0.029 A 
ATOM     20  N   UNL A   1      38.788  32.381  33.574  1.00  0.00    -0.354 N 
ATOM     21  C   UNL A   1      39.605  29.680  30.310  1.00  0.00     0.074 A 
ATOM     22  C   UNL A   1      38.672  29.877  29.219  1.00  0.00     0.031 C 
ATOM     23  C   UNL A   1      37.717  34.025  34.650  1.00  0.00     0.029 A 
ATOM     24  C   UNL A   1      38.840  33.098  34.745  1.00  0.00     0.049 A 
ATOM     25  H   UNL A   1      39.422  31.661  33.354  1.00  0.00     0.167 HD
ATOM     26  C   UNL A   1      40.610  28.771  30.304  1.00  0.00     0.034 A 
ATOM     27  C   UNL A   1      39.692  33.018  35.785  1.00  0.00     0.034 A 
ATOM     28  C   UNL A   1      41.553  28.595  31.379  1.00  0.00     0.049 A 
ATOM     29  C   UNL A   1      40.794  31.999  35.756  1.00  0.00     0.074 A 
ATOM     30  C   UNL A   1      42.625  27.720  31.451  1.00  0.00     0.029 A 
ATOM     31  N   UNL A   1      41.540  29.304  32.571  1.00  0.00    -0.354 N 
ATOM     32  N   UNL A   1      41.088  31.134  34.816  1.00  0.00    -0.248 NA
ATOM     33  C   UNL A   1      41.671  31.939  36.933  1.00  0.00     0.031 C 
ATOM     34  C   UNL A   1      43.237  27.876  32.700  1.00  0.00     0.029 A 
ATOM     35  C   UNL A   1      42.572  28.875  33.390  1.00  0.00     0.049 A 
ATOM     36  H   UNL A   1      40.892  30.009  32.800  1.00  0.00     0.167 HD
ATOM     37  C   UNL A   1      42.182  30.421  35.290  1.00  0.00     0.074 A 
ATOM     38  C   UNL A   1      42.505  30.964  36.593  1.00  0.00     0.031 C 
ATOM     39  C   UNL A   1      42.859  29.406  34.698  1.00  0.00     0.034 A 
BRANCH  26  40
ATOM     40  C   UNL A   1      40.719  27.867  29.108  1.00  0.00     0.023 A 
ATOM     41  C   UNL A   1      41.688  28.073  28.113  1.00  0.00     0.031 A 
ATOM     42  C   UNL A   1      39.848  26.772  28.974  1.00  0.00     0.131 A 
ATOM     43  C   UNL A   1      41.738  27.217  27.003  1.00  0.00     0.055 A 
ATOM     44  C   UNL A   1      39.936  25.893  27.894  1.00  0.00     0.041 A 
ATOM     45  F   UNL A   1      38.896  26.542  29.891  1.00  0.00    -0.206 F 
ATOM     46  C   UNL A   1      40.882  26.116  26.898  1.00  0.00     0.022 A 
BRANCH  43  47
ATOM     47  S   UNL A   1      42.908  27.582  25.667  1.00  0.00     0.124 S 
ATOM     48  O   UNL A   1      43.978  28.262  26.392  1.00  0.00    -0.237 OA
ATOM     49  O   UNL A   1      43.232  26.256  25.151  1.00  0.00    -0.237 OA
ATOM     50  O   UNL A   1      42.137  28.430  24.760  1.00  0.00    -0.744 OA
ENDBRANCH  43  47
ENDBRANCH  26  40
BRANCH  27  51
ATOM     51  C   UNL A   1      39.510  33.912  36.956  1.00  0.00     0.023 A 
ATOM     52  C   UNL A   1      38.872  33.459  38.119  1.00  0.00     0.031 A 
ATOM     53  C   UNL A   1      39.993  35.232  36.927  1.00  0.00     0.131 A 
ATOM     54  C   UNL A   1      38.718  34.329  39.209  1.00  0.00     0.055 A 
ATOM     55  C   UNL A   1      39.862  36.084  38.022  1.00  0.00     0.041 A 
ATOM     56  F   UNL A   1      40.623  35.698  35.837  1.00  0.00    -0.206 F 
ATOM     57  C   UNL A   1      39.218  35.635  39.172  1.00  0.00     0.022 A 
BRANCH  54  58
ATOM     58  S   UNL A   1      37.852  33.732  40.686  1.00  0.00     0.124 S 
ATOM     59  O   UNL A   1      36.747  32.982  40.100  1.00  0.00    -0.237 OA
ATOM     60  O   UNL A   1      38.885  32.942  41.348  1.00  0.00    -0.237 OA
ATOM     61  O   UNL A   1      37.475  34.962  41.379  1.00  0.00    -0.744 OA
ENDBRANCH  54  58
ENDBRANCH  27  51
BRANCH  39  62
ATOM     62  C   UNL A   1      44.014  28.826  35.460  1.00  0.00     0.023 A 
ATOM     63  C   UNL A   1      43.829  27.761  36.357  1.00  0.00     0.031 A 
ATOM     64  C   UNL A   1      45.310  29.337  35.281  1.00  0.00     0.131 A 
ATOM     65  C   UNL A   1      44.926  27.255  37.068  1.00  0.00     0.055 A 
ATOM     66  C   UNL A   1      46.403  28.808  35.967  1.00  0.00     0.041 A 
ATOM     67  F   UNL A   1      45.530  30.354  34.434  1.00  0.00    -0.206 F 
ATOM     68  C   UNL A   1      46.214  27.763  36.870  1.00  0.00     0.022 A 
BRANCH  65  69
ATOM     69  S   UNL A   1      44.655  25.924  38.270  1.00  0.00     0.124 S 
ATOM     70  O   UNL A   1      46.005  25.399  38.447  1.00  0.00    -0.237 OA
ATOM     71  O   UNL A   1      44.093  26.633  39.414  1.00  0.00    -0.237 OA
ATOM     72  O   UNL A   1      43.726  25.027  37.582  1.00  0.00    -0.744 OA
ENDBRANCH  65  69
ENDBRANCH  39  62
ENDBRANCH  13  14
ENDBRANCH   6   8
ENDBRANCH   3   4
ENDBRANCH   2   3
ENDBRANCH   1   2
BRANCH   1  73
ATOM     73  C   UNL A   1      31.803  29.455  26.998  1.00  0.00     0.002 C 
BRANCH  73  74
ATOM     74  C   UNL A   1      33.034  28.542  26.954  1.00  0.00     0.021 C 
BRANCH  74  75
ATOM     75  C   UNL A   1      32.815  27.046  26.752  1.00  0.00     0.116 C 
BRANCH  75  76
ATOM     76  N   UNL A   1      31.461  26.600  27.006  1.00  0.00    -0.352 N 
ATOM     77  C   UNL A   1      30.582  26.060  26.103  1.00  0.00     0.255 C 
ATOM     78  H   UNL A   1      31.136  26.693  27.932  1.00  0.00     0.163 HD
ATOM     79  O   UNL A   1      29.639  25.371  26.479  1.00  0.00    -0.269 OA
BRANCH  77  80
ATOM     80  C   UNL A   1      30.812  26.262  24.666  1.00  0.00     0.082 A 
ATOM     81  C   UNL A   1      30.389  27.515  24.186  1.00  0.00     0.033 A 
ATOM     82  C   UNL A   1      31.434  25.341  23.811  1.00  0.00     0.132 A 
ATOM     83  C   UNL A   1      30.556  27.843  22.845  1.00  0.00     0.019 A 
ATOM     84  C   UNL A   1      31.585  25.702  22.460  1.00  0.00     0.048 A 
ATOM     85  Br  UNL A   1      29.984  29.523  22.205  1.00  0.00    -0.051 Br
ATOM     86  C   UNL A   1      31.148  26.937  21.975  1.00  0.00     0.019 A 
BRANCH  82  87
ATOM     87  O   UNL A   1      31.975  24.109  24.048  1.00  0.00    -0.488 OA
BRANCH  87  88
ATOM     88  C   UNL A   1      33.029  23.560  23.260  1.00  0.00     0.268 C 
BRANCH  88  89
ATOM     89  C   UNL A   1      34.241  23.134  24.047  1.00  0.00     0.025 A 
ATOM     90  C   UNL A   1      34.592  21.790  24.236  1.00  0.00     0.010 A 
ATOM     91  C   UNL A   1      35.062  24.119  24.605  1.00  0.00     0.129 A 
ATOM     92  C   UNL A   1      35.765  21.454  24.917  1.00  0.00     0.001 A 
ATOM     93  C   UNL A   1      36.231  23.792  25.286  1.00  0.00     0.039 A 
ATOM     94  F   UNL A   1      34.737  25.414  24.467  1.00  0.00    -0.207 F 
ATOM     95  C   UNL A   1      36.590  22.454  25.434  1.00  0.00     0.003 A 
ENDBRANCH  88  89
ENDBRANCH  87  88
ENDBRANCH  82  87
ENDBRANCH  77  80
ENDBRANCH  75  76
ENDBRANCH  74  75
ENDBRANCH  73  74
ENDBRANCH   1  73
TORSDOF 19
ENDMDL
MODEL 3
REMARK VINA RESULT:     -11.4      5.433      8.677
REMARK SMILES O=C(NCCCCCCNC(=O)c1cc(Br)ccc1OCc1ccccc1F)c1ccc(-c2c3nc(c(-c4cc(S(=O)(=O)[O-])ccc4F)c4ccc([nH]4)c(-c4cc(S(=O)(=O)[O-])ccc4F)c4nc(c(-c5cc(S(=O)(=O)[O-])ccc5F)c5ccc2[nH]5)C=C4)C=C3)cc1
REMARK SMILES IDX 6 1 5 2 4 3 3 4 1 5 2 6 29 8 30 9 91 10 31 11 90 12 32 13
REMARK SMILES IDX 33 14 34 15 84 16 35 17 89 18 83 19 85 20 36 21 88 22 82 23
REMARK SMILES IDX 81 24 37 26 69 27 49 28 68 29 50 30 53 31 67 32 86 33 51 34
REMARK SMILES IDX 52 35 66 37 87 38 54 39 38 40 39 41 47 42 40 43 46 44 48 45
REMARK SMILES IDX 45 46 41 47 42 48 43 49 44 50 70 51 71 52 79 53 72 54 78 55
REMARK SMILES IDX 80 56 77 57 73 58 74 59 75 60 76 61 55 62 56 63 64 64 57 65
REMARK SMILES IDX 63 66 65 67 62 68 58 69 59 70 60 71 61 72 7 73 8 74 9 75
REMARK SMILES IDX 10 76 11 77 12 79 13 80 14 81 19 82 15 83 18 84 16 85 17 86
REMARK SMILES IDX 20 87 21 88 22 89 23 90 27 91 24 92 26 93 28 94 25 95
REMARK H PARENT 3 7 85 25 53 36 10 78
REMARK Flexibility Score: inf
ROOT
ATOM      1  C   UNL A   1      35.194  23.434  24.055  1.00  0.00     0.002 C 
ENDROOT
BRANCH   1   2
ATOM      2  C   UNL A   1      36.174  22.274  24.207  1.00  0.00     0.021 C 
BRANCH   2   3
ATOM      3  C   UNL A   1      36.748  22.047  25.598  1.00  0.00     0.116 C 
BRANCH   3   4
ATOM      4  N   UNL A   1      37.752  20.998  25.648  1.00  0.00    -0.352 N 
ATOM      5  O   UNL A   1      39.799  20.093  25.916  1.00  0.00    -0.269 OA
ATOM      6  C   UNL A   1      39.072  21.078  26.029  1.00  0.00     0.251 C 
ATOM      7  H   UNL A   1      37.445  20.106  25.370  1.00  0.00     0.163 HD
BRANCH   6   8
ATOM      8  C   UNL A   1      39.631  22.353  26.540  1.00  0.00     0.039 A 
ATOM      9  C   UNL A   1      39.182  23.588  26.062  1.00  0.00     0.014 A 
ATOM     10  C   UNL A   1      40.625  22.310  27.525  1.00  0.00     0.014 A 
ATOM     11  C   UNL A   1      39.818  24.761  26.463  1.00  0.00     0.010 A 
ATOM     12  C   UNL A   1      41.218  23.495  27.975  1.00  0.00     0.010 A 
ATOM     13  C   UNL A   1      40.845  24.728  27.421  1.00  0.00    -0.014 A 
BRANCH  13  14
ATOM     14  C   UNL A   1      41.497  25.997  27.838  1.00  0.00     0.031 A 
ATOM     15  C   UNL A   1      42.905  26.319  27.412  1.00  0.00     0.074 A 
ATOM     16  C   UNL A   1      40.793  26.887  28.563  1.00  0.00     0.049 A 
ATOM     17  N   UNL A   1      43.614  27.390  27.663  1.00  0.00    -0.248 NA
ATOM     18  C   UNL A   1      43.607  25.309  26.607  1.00  0.00     0.031 C 
ATOM     19  C   UNL A   1      39.420  26.690  29.038  1.00  0.00     0.029 A 
ATOM     20  N   UNL A   1      41.121  28.142  29.007  1.00  0.00    -0.354 N 
ATOM     21  C   UNL A   1      44.852  27.177  27.067  1.00  0.00     0.074 A 
ATOM     22  C   UNL A   1      44.800  25.868  26.450  1.00  0.00     0.031 C 
ATOM     23  C   UNL A   1      39.007  27.805  29.660  1.00  0.00     0.029 A 
ATOM     24  C   UNL A   1      40.097  28.776  29.669  1.00  0.00     0.049 A 
ATOM     25  H   UNL A   1      42.005  28.551  28.865  1.00  0.00     0.167 HD
ATOM     26  C   UNL A   1      45.930  27.999  27.032  1.00  0.00     0.034 A 
ATOM     27  C   UNL A   1      40.039  29.999  30.229  1.00  0.00     0.034 A 
ATOM     28  C   UNL A   1      45.970  29.312  27.623  1.00  0.00     0.049 A 
ATOM     29  C   UNL A   1      41.248  30.888  30.181  1.00  0.00     0.074 A 
ATOM     30  C   UNL A   1      47.008  30.230  27.613  1.00  0.00     0.029 A 
ATOM     31  N   UNL A   1      44.931  29.896  28.331  1.00  0.00    -0.354 N 
ATOM     32  N   UNL A   1      42.417  30.656  29.633  1.00  0.00    -0.248 NA
ATOM     33  C   UNL A   1      41.134  32.198  30.836  1.00  0.00     0.031 C 
ATOM     34  C   UNL A   1      46.607  31.354  28.345  1.00  0.00     0.029 A 
ATOM     35  C   UNL A   1      45.307  31.153  28.777  1.00  0.00     0.049 A 
ATOM     36  H   UNL A   1      44.054  29.479  28.493  1.00  0.00     0.167 HD
ATOM     37  C   UNL A   1      43.181  31.789  29.884  1.00  0.00     0.074 A 
ATOM     38  C   UNL A   1      42.338  32.710  30.618  1.00  0.00     0.031 C 
ATOM     39  C   UNL A   1      44.465  32.044  29.535  1.00  0.00     0.034 A 
BRANCH  26  40
ATOM     40  C   UNL A   1      47.172  27.483  26.362  1.00  0.00     0.023 A 
ATOM     41  C   UNL A   1      48.107  26.692  27.049  1.00  0.00     0.031 A 
ATOM     42  C   UNL A   1      47.413  27.775  25.008  1.00  0.00     0.131 A 
ATOM     43  C   UNL A   1      49.264  26.251  26.388  1.00  0.00     0.055 A 
ATOM     44  C   UNL A   1      48.539  27.291  24.342  1.00  0.00     0.041 A 
ATOM     45  F   UNL A   1      46.555  28.539  24.313  1.00  0.00    -0.206 F 
ATOM     46  C   UNL A   1      49.475  26.528  25.034  1.00  0.00     0.022 A 
BRANCH  43  47
ATOM     47  S   UNL A   1      50.521  25.346  27.331  1.00  0.00     0.124 S 
ATOM     48  O   UNL A   1      50.942  26.355  28.300  1.00  0.00    -0.237 OA
ATOM     49  O   UNL A   1      49.768  24.219  27.872  1.00  0.00    -0.237 OA
ATOM     50  O   UNL A   1      51.521  25.000  26.323  1.00  0.00    -0.744 OA
ENDBRANCH  43  47
ENDBRANCH  26  40
BRANCH  27  51
ATOM     51  C   UNL A   1      38.796  30.439  30.912  1.00  0.00     0.023 A 
ATOM     52  C   UNL A   1      37.800  31.139  30.217  1.00  0.00     0.031 A 
ATOM     53  C   UNL A   1      38.587  30.144  32.270  1.00  0.00     0.131 A 
ATOM     54  C   UNL A   1      36.636  31.538  30.891  1.00  0.00     0.055 A 
ATOM     55  C   UNL A   1      37.416  30.519  32.929  1.00  0.00     0.041 A 
ATOM     56  F   UNL A   1      39.510  29.463  32.966  1.00  0.00    -0.206 F 
ATOM     57  C   UNL A   1      36.433  31.224  32.239  1.00  0.00     0.022 A 
BRANCH  54  58
ATOM     58  S   UNL A   1      35.380  32.479  29.982  1.00  0.00     0.124 S 
ATOM     59  O   UNL A   1      35.020  31.544  28.921  1.00  0.00    -0.237 OA
ATOM     60  O   UNL A   1      34.367  32.708  31.006  1.00  0.00    -0.237 OA
ATOM     61  O   UNL A   1      36.100  33.673  29.546  1.00  0.00    -0.744 OA
ENDBRANCH  54  58
ENDBRANCH  27  51
BRANCH  39  62
ATOM     62  C   UNL A   1      45.030  33.373  29.945  1.00  0.00     0.023 A 
ATOM     63  C   UNL A   1      44.914  34.498  29.113  1.00  0.00     0.031 A 
ATOM     64  C   UNL A   1      45.679  33.515  31.182  1.00  0.00     0.131 A 
ATOM     65  C   UNL A   1      45.470  35.720  29.517  1.00  0.00     0.055 A 
ATOM     66  C   UNL A   1      46.201  34.741  31.594  1.00  0.00     0.041 A 
ATOM     67  F   UNL A   1      45.811  32.465  32.007  1.00  0.00    -0.206 F 
ATOM     68  C   UNL A   1      46.102  35.851  30.758  1.00  0.00     0.022 A 
BRANCH  65  69
ATOM     69  S   UNL A   1      45.368  37.144  28.399  1.00  0.00     0.124 S 
ATOM     70  O   UNL A   1      45.395  38.263  29.335  1.00  0.00    -0.237 OA
ATOM     71  O   UNL A   1      46.554  36.983  27.564  1.00  0.00    -0.237 OA
ATOM     72  O   UNL A   1      44.095  36.944  27.707  1.00  0.00    -0.744 OA
ENDBRANCH  65  69
ENDBRANCH  39  62
ENDBRANCH  13  14
ENDBRANCH   6   8
ENDBRANCH   3   4
ENDBRANCH   2   3
ENDBRANCH   1   2
BRANCH   1  73
ATOM     73  C   UNL A   1      34.415  23.537  22.741  1.00  0.00     0.002 C 
BRANCH  73  74
ATOM     74  C   UNL A   1      33.083  24.294  22.735  1.00  0.00     0.021 C 
BRANCH  74  75
ATOM     75  C   UNL A   1      33.112  25.803  22.508  1.00  0.00     0.116 C 
BRANCH  75  76
ATOM     76  N   UNL A   1      31.851  26.368  22.077  1.00  0.00    -0.352 N 
ATOM     77  C   UNL A   1      31.060  27.252  22.765  1.00  0.00     0.255 C 
ATOM     78  H   UNL A   1      31.525  26.087  21.191  1.00  0.00     0.163 HD
ATOM     79  O   UNL A   1      30.245  27.955  22.176  1.00  0.00    -0.269 OA
BRANCH  77  80
ATOM     80  C   UNL A   1      31.239  27.400  24.215  1.00  0.00     0.082 A 
ATOM     81  C   UNL A   1      31.504  28.719  24.630  1.00  0.00     0.033 A 
ATOM     82  C   UNL A   1      31.122  26.365  25.153  1.00  0.00     0.132 A 
ATOM     83  C   UNL A   1      31.685  29.004  25.979  1.00  0.00     0.019 A 
ATOM     84  C   UNL A   1      31.314  26.686  26.509  1.00  0.00     0.048 A 
ATOM     85  Br  UNL A   1      32.045  30.773  26.530  1.00  0.00    -0.051 Br
ATOM     86  C   UNL A   1      31.598  27.990  26.924  1.00  0.00     0.019 A 
BRANCH  82  87
ATOM     87  O   UNL A   1      30.816  25.041  25.006  1.00  0.00    -0.488 OA
BRANCH  87  88
ATOM     88  C   UNL A   1      30.627  24.161  26.112  1.00  0.00     0.268 C 
BRANCH  88  89
ATOM     89  C   UNL A   1      31.675  23.087  26.242  1.00  0.00     0.025 A 
ATOM     90  C   UNL A   1      32.573  23.026  27.317  1.00  0.00     0.010 A 
ATOM     91  C   UNL A   1      31.753  22.099  25.256  1.00  0.00     0.129 A 
ATOM     92  C   UNL A   1      33.480  21.968  27.423  1.00  0.00     0.001 A 
ATOM     93  C   UNL A   1      32.655  21.043  25.353  1.00  0.00     0.039 A 
ATOM     94  F   UNL A   1      30.928  22.146  24.198  1.00  0.00    -0.207 F 
ATOM     95  C   UNL A   1      33.515  20.971  26.446  1.00  0.00     0.003 A 
ENDBRANCH  88  89
ENDBRANCH  87  88
ENDBRANCH  82  87
ENDBRANCH  77  80
ENDBRANCH  75  76
ENDBRANCH  74  75
ENDBRANCH  73  74
ENDBRANCH   1  73
TORSDOF 19
ENDMDL
