MODEL 1
REMARK VINA RESULT:     -12.1      0.000      0.000
REMARK SMILES CSc1ccc(/C=C2\C(C)=C(CC(=O)NCCCCCCNC(=O)c3ccc(-c4c5nc(c(-c6cc(S(=O)(=O)[O-])ccc6F)c6ccc([nH]6)c(-c6cc(S(=O)(=O)[O-])ccc6F)c6nc(c(-c7cc(S(=O)(=O)[O-])ccc7F)c7ccc4[nH]7)C=C6)C=C5)cc3)c3cc(F)ccc32)cc1
REMARK SMILES IDX 18 1 17 2 16 3 15 4 13 5 14 6 12 8 11 9 7 10 8 11 9 12 94 13
REMARK SMILES IDX 10 14 88 15 93 16 89 17 92 18 90 19 91 20 6 21 3 22 4 23
REMARK SMILES IDX 96 24 5 25 95 26 2 27 1 28 19 29 20 30 21 31 22 32 23 33
REMARK SMILES IDX 24 35 25 36 26 37 87 38 27 39 86 40 28 41 29 42 30 43 80 44
REMARK SMILES IDX 31 45 85 46 79 47 81 48 32 49 84 50 78 51 77 52 33 54 65 55
REMARK SMILES IDX 45 56 64 57 46 58 49 59 63 60 82 61 47 62 48 63 62 65 83 66
REMARK SMILES IDX 50 67 34 68 35 69 43 70 36 71 42 72 44 73 41 74 37 75 38 76
REMARK SMILES IDX 39 77 40 78 66 79 67 80 75 81 68 82 74 83 76 84 73 85 69 86
REMARK SMILES IDX 70 87 71 88 72 89 51 90 52 91 60 92 53 93 59 94 61 95 58 96
REMARK SMILES IDX 54 97 55 98 56 99 57 100
REMARK H PARENT 15 7 22 34 81 53 49 64
REMARK Flexibility Score: inf
ROOT
ATOM      1  C   UNL A   1      31.408  28.113  25.996  1.00  0.00     0.002 C 
ENDROOT
BRANCH   1   2
ATOM      2  C   UNL A   1      31.130  26.738  26.601  1.00  0.00     0.021 C 
BRANCH   2   3
ATOM      3  C   UNL A   1      30.247  25.833  25.744  1.00  0.00     0.116 C 
BRANCH   3   4
ATOM      4  N   UNL A   1      29.894  24.621  26.452  1.00  0.00    -0.356 N 
ATOM      5  C   UNL A   1      30.733  23.610  26.821  1.00  0.00     0.224 C 
ATOM      6  O   UNL A   1      30.263  22.585  27.315  1.00  0.00    -0.275 OA
ATOM      7  H   UNL A   1      28.947  24.515  26.694  1.00  0.00     0.163 HD
BRANCH   5   8
ATOM      8  C   UNL A   1      32.221  23.788  26.608  1.00  0.00     0.136 C 
BRANCH   8   9
ATOM      9  C   UNL A   1      32.627  23.143  25.296  1.00  0.00    -0.027 C 
ATOM     10  C   UNL A   1      34.104  25.839  23.758  1.00  0.00     0.017 C 
ATOM     11  C   UNL A   1      33.901  24.567  24.143  1.00  0.00    -0.014 C 
ATOM     12  C   UNL A   1      32.624  23.820  24.112  1.00  0.00    -0.039 C 
ATOM     13  C   UNL A   1      34.857  23.581  24.711  1.00  0.00    -0.010 A 
ATOM     14  C   UNL A   1      32.561  23.008  22.798  1.00  0.00     0.045 C 
ATOM     15  C   UNL A   1      34.014  22.634  25.337  1.00  0.00    -0.011 A 
ATOM     16  C   UNL A   1      36.098  23.196  24.234  1.00  0.00     0.012 A 
ATOM     17  C   UNL A   1      34.355  21.302  25.486  1.00  0.00     0.048 A 
ATOM     18  C   UNL A   1      36.446  21.839  24.354  1.00  0.00     0.040 A 
ATOM     19  C   UNL A   1      35.576  20.914  24.959  1.00  0.00     0.123 A 
ATOM     20  F   UNL A   1      35.877  19.608  24.916  1.00  0.00    -0.207 F 
BRANCH  10  21
ATOM     21  C   UNL A   1      33.238  26.699  22.897  1.00  0.00    -0.025 A 
ATOM     22  C   UNL A   1      31.153  28.560  22.479  1.00  0.00     0.007 A 
ATOM     23  C   UNL A   1      32.471  28.986  22.535  1.00  0.00     0.015 A 
ATOM     24  C   UNL A   1      30.917  27.183  22.378  1.00  0.00     0.015 A 
ATOM     25  C   UNL A   1      33.500  28.057  22.699  1.00  0.00     0.009 A 
ATOM     26  C   UNL A   1      31.951  26.256  22.585  1.00  0.00     0.009 A 
BRANCH  22  27
ATOM     27  S   UNL A   1      29.754  29.659  22.617  1.00  0.00    -0.130 SA
ATOM     28  C   UNL A   1      28.362  28.521  22.925  1.00  0.00     0.091 C 
ENDBRANCH  22  27
ENDBRANCH  10  21
ENDBRANCH   8   9
ENDBRANCH   5   8
ENDBRANCH   3   4
ENDBRANCH   2   3
ENDBRANCH   1   2
BRANCH   1  29
ATOM     29  C   UNL A   1      32.832  28.621  26.214  1.00  0.00     0.002 C 
BRANCH  29  30
ATOM     30  C   UNL A   1      32.993  30.138  26.084  1.00  0.00     0.021 C 
BRANCH  30  31
ATOM     31  C   UNL A   1      32.545  30.917  27.314  1.00  0.00     0.116 C 
BRANCH  31  32
ATOM     32  N   UNL A   1      32.793  32.338  27.151  1.00  0.00    -0.352 N 
ATOM     33  C   UNL A   1      33.784  33.102  27.712  1.00  0.00     0.251 C 
ATOM     34  H   UNL A   1      32.168  32.816  26.559  1.00  0.00     0.163 HD
ATOM     35  O   UNL A   1      33.684  34.322  27.727  1.00  0.00    -0.269 OA
BRANCH  33  36
ATOM     36  C   UNL A   1      34.962  32.432  28.303  1.00  0.00     0.039 A 
ATOM     37  C   UNL A   1      36.219  33.023  28.171  1.00  0.00     0.014 A 
ATOM     38  C   UNL A   1      34.818  31.217  28.983  1.00  0.00     0.014 A 
ATOM     39  C   UNL A   1      37.330  32.413  28.756  1.00  0.00     0.010 A 
ATOM     40  C   UNL A   1      35.911  30.654  29.631  1.00  0.00     0.010 A 
ATOM     41  C   UNL A   1      37.181  31.238  29.512  1.00  0.00    -0.014 A 
BRANCH  41  42
ATOM     42  C   UNL A   1      38.348  30.587  30.158  1.00  0.00     0.031 A 
ATOM     43  C   UNL A   1      38.739  30.971  31.560  1.00  0.00     0.074 A 
ATOM     44  C   UNL A   1      39.081  29.692  29.468  1.00  0.00     0.049 A 
ATOM     45  N   UNL A   1      39.756  30.569  32.277  1.00  0.00    -0.248 NA
ATOM     46  C   UNL A   1      37.886  31.964  32.230  1.00  0.00     0.031 C 
ATOM     47  C   UNL A   1      38.817  29.267  28.091  1.00  0.00     0.029 A 
ATOM     48  N   UNL A   1      40.197  28.981  29.826  1.00  0.00    -0.354 N 
ATOM     49  C   UNL A   1      39.671  31.264  33.479  1.00  0.00     0.074 A 
ATOM     50  C   UNL A   1      38.547  32.168  33.358  1.00  0.00     0.031 C 
ATOM     51  C   UNL A   1      39.724  28.343  27.736  1.00  0.00     0.029 A 
ATOM     52  C   UNL A   1      40.661  28.146  28.836  1.00  0.00     0.049 A 
ATOM     53  H   UNL A   1      40.625  29.060  30.708  1.00  0.00     0.167 HD
ATOM     54  C   UNL A   1      40.440  31.138  34.590  1.00  0.00     0.034 A 
ATOM     55  C   UNL A   1      41.727  27.321  28.818  1.00  0.00     0.034 A 
ATOM     56  C   UNL A   1      41.554  30.226  34.689  1.00  0.00     0.049 A 
ATOM     57  C   UNL A   1      42.595  27.231  30.048  1.00  0.00     0.074 A 
ATOM     58  C   UNL A   1      42.377  29.985  35.774  1.00  0.00     0.029 A 
ATOM     59  N   UNL A   1      42.006  29.408  33.661  1.00  0.00    -0.354 N 
ATOM     60  N   UNL A   1      42.477  27.863  31.193  1.00  0.00    -0.248 NA
ATOM     61  C   UNL A   1      43.735  26.308  29.984  1.00  0.00     0.031 C 
ATOM     62  C   UNL A   1      43.367  29.077  35.382  1.00  0.00     0.029 A 
ATOM     63  C   UNL A   1      43.115  28.686  34.077  1.00  0.00     0.049 A 
ATOM     64  H   UNL A   1      41.597  29.348  32.767  1.00  0.00     0.167 HD
ATOM     65  C   UNL A   1      43.507  27.383  31.999  1.00  0.00     0.074 A 
ATOM     66  C   UNL A   1      44.226  26.402  31.211  1.00  0.00     0.031 C 
ATOM     67  C   UNL A   1      43.827  27.718  33.275  1.00  0.00     0.034 A 
BRANCH  54  68
ATOM     68  C   UNL A   1      40.108  32.030  35.764  1.00  0.00     0.023 A 
ATOM     69  C   UNL A   1      39.162  31.650  36.734  1.00  0.00     0.031 A 
ATOM     70  C   UNL A   1      40.704  33.296  35.895  1.00  0.00     0.131 A 
ATOM     71  C   UNL A   1      38.773  32.558  37.729  1.00  0.00     0.055 A 
ATOM     72  C   UNL A   1      40.382  34.160  36.944  1.00  0.00     0.041 A 
ATOM     73  F   UNL A   1      41.598  33.728  34.990  1.00  0.00    -0.206 F 
ATOM     74  C   UNL A   1      39.396  33.800  37.858  1.00  0.00     0.022 A 
BRANCH  71  75
ATOM     75  S   UNL A   1      37.320  32.161  38.741  1.00  0.00     0.124 S 
ATOM     76  O   UNL A   1      37.156  30.734  38.470  1.00  0.00    -0.237 OA
ATOM     77  O   UNL A   1      37.768  32.509  40.085  1.00  0.00    -0.237 OA
ATOM     78  O   UNL A   1      36.273  33.017  38.189  1.00  0.00    -0.744 OA
ENDBRANCH  71  75
ENDBRANCH  54  68
BRANCH  55  79
ATOM     79  C   UNL A   1      42.036  26.510  27.606  1.00  0.00     0.023 A 
ATOM     80  C   UNL A   1      41.653  25.163  27.525  1.00  0.00     0.031 A 
ATOM     81  C   UNL A   1      42.754  27.058  26.527  1.00  0.00     0.131 A 
ATOM     82  C   UNL A   1      42.032  24.392  26.414  1.00  0.00     0.055 A 
ATOM     83  C   UNL A   1      43.080  26.302  25.400  1.00  0.00     0.041 A 
ATOM     84  F   UNL A   1      43.139  28.344  26.550  1.00  0.00    -0.206 F 
ATOM     85  C   UNL A   1      42.730  24.956  25.346  1.00  0.00     0.022 A 
BRANCH  82  86
ATOM     86  S   UNL A   1      41.671  22.615  26.429  1.00  0.00     0.124 S 
ATOM     87  O   UNL A   1      42.439  22.147  25.280  1.00  0.00    -0.237 OA
ATOM     88  O   UNL A   1      42.169  22.216  27.741  1.00  0.00    -0.237 OA
ATOM     89  O   UNL A   1      40.219  22.562  26.273  1.00  0.00    -0.744 OA
ENDBRANCH  82  86
ENDBRANCH  55  79
BRANCH  67  90
ATOM     90  C   UNL A   1      44.978  26.974  33.910  1.00  0.00     0.023 A 
ATOM     91  C   UNL A   1      44.778  25.821  34.690  1.00  0.00     0.031 A 
ATOM     92  C   UNL A   1      46.295  27.439  33.744  1.00  0.00     0.131 A 
ATOM     93  C   UNL A   1      45.870  25.208  35.323  1.00  0.00     0.055 A 
ATOM     94  C   UNL A   1      47.384  26.787  34.323  1.00  0.00     0.041 A 
ATOM     95  F   UNL A   1      46.545  28.537  33.012  1.00  0.00    -0.206 F 
ATOM     96  C   UNL A   1      47.173  25.673  35.130  1.00  0.00     0.022 A 
BRANCH  93  97
ATOM     97  S   UNL A   1      45.553  23.852  36.486  1.00  0.00     0.124 S 
ATOM     98  O   UNL A   1      44.839  22.894  35.648  1.00  0.00    -0.237 OA
ATOM     99  O   UNL A   1      46.902  23.465  36.887  1.00  0.00    -0.237 OA
ATOM    100  O   UNL A   1      44.751  24.478  37.534  1.00  0.00    -0.744 OA
ENDBRANCH  93  97
ENDBRANCH  67  90
ENDBRANCH  41  42
ENDBRANCH  33  36
ENDBRANCH  31  32
ENDBRANCH  30  31
ENDBRANCH  29  30
ENDBRANCH   1  29
TORSDOF 19
ENDMDL
MODEL 2
REMARK VINA RESULT:     -12.0      2.760      8.449
REMARK SMILES CSc1ccc(/C=C2\C(C)=C(CC(=O)NCCCCCCNC(=O)c3ccc(-c4c5nc(c(-c6cc(S(=O)(=O)[O-])ccc6F)c6ccc([nH]6)c(-c6cc(S(=O)(=O)[O-])ccc6F)c6nc(c(-c7cc(S(=O)(=O)[O-])ccc7F)c7ccc4[nH]7)C=C6)C=C5)cc3)c3cc(F)ccc32)cc1
REMARK SMILES IDX 18 1 17 2 16 3 15 4 13 5 14 6 12 8 11 9 7 10 8 11 9 12 94 13
REMARK SMILES IDX 10 14 88 15 93 16 89 17 92 18 90 19 91 20 6 21 3 22 4 23
REMARK SMILES IDX 96 24 5 25 95 26 2 27 1 28 19 29 20 30 21 31 22 32 23 33
REMARK SMILES IDX 24 35 25 36 26 37 87 38 27 39 86 40 28 41 29 42 30 43 80 44
REMARK SMILES IDX 31 45 85 46 79 47 81 48 32 49 84 50 78 51 77 52 33 54 65 55
REMARK SMILES IDX 45 56 64 57 46 58 49 59 63 60 82 61 47 62 48 63 62 65 83 66
REMARK SMILES IDX 50 67 34 68 35 69 43 70 36 71 42 72 44 73 41 74 37 75 38 76
REMARK SMILES IDX 39 77 40 78 66 79 67 80 75 81 68 82 74 83 76 84 73 85 69 86
REMARK SMILES IDX 70 87 71 88 72 89 51 90 52 91 60 92 53 93 59 94 61 95 58 96
REMARK SMILES IDX 54 97 55 98 56 99 57 100
REMARK H PARENT 15 7 22 34 81 53 49 64
REMARK Flexibility Score: inf
ROOT
ATOM      1  C   UNL A   1      31.839  29.628  27.248  1.00  0.00     0.002 C 
ENDROOT
BRANCH   1   2
ATOM      2  C   UNL A   1      32.629  28.431  26.723  1.00  0.00     0.021 C 
BRANCH   2   3
ATOM      3  C   UNL A   1      34.070  28.745  26.327  1.00  0.00     0.116 C 
BRANCH   3   4
ATOM      4  N   UNL A   1      34.154  29.173  24.946  1.00  0.00    -0.356 N 
ATOM      5  C   UNL A   1      34.218  28.376  23.840  1.00  0.00     0.224 C 
ATOM      6  O   UNL A   1      34.406  28.887  22.737  1.00  0.00    -0.275 OA
ATOM      7  H   UNL A   1      34.166  30.143  24.788  1.00  0.00     0.163 HD
BRANCH   5   8
ATOM      8  C   UNL A   1      34.052  26.881  24.014  1.00  0.00     0.136 C 
BRANCH   8   9
ATOM      9  C   UNL A   1      32.951  26.382  23.096  1.00  0.00    -0.027 C 
ATOM     10  C   UNL A   1      32.110  23.476  24.728  1.00  0.00     0.017 C 
ATOM     11  C   UNL A   1      31.958  24.618  24.037  1.00  0.00    -0.014 C 
ATOM     12  C   UNL A   1      32.738  25.056  22.858  1.00  0.00    -0.039 C 
ATOM     13  C   UNL A   1      31.013  25.744  24.255  1.00  0.00    -0.010 A 
ATOM     14  C   UNL A   1      31.967  24.651  21.580  1.00  0.00     0.045 C 
ATOM     15  C   UNL A   1      31.614  26.814  23.553  1.00  0.00    -0.011 A 
ATOM     16  C   UNL A   1      29.639  25.709  24.420  1.00  0.00     0.012 A 
ATOM     17  C   UNL A   1      30.889  27.847  22.986  1.00  0.00     0.048 A 
ATOM     18  C   UNL A   1      28.888  26.737  23.826  1.00  0.00     0.040 A 
ATOM     19  C   UNL A   1      29.511  27.776  23.112  1.00  0.00     0.123 A 
ATOM     20  F   UNL A   1      28.754  28.650  22.433  1.00  0.00    -0.207 F 
BRANCH  10  21
ATOM     21  C   UNL A   1      32.817  22.227  24.317  1.00  0.00    -0.025 A 
ATOM     22  C   UNL A   1      33.339  19.454  24.480  1.00  0.00     0.007 A 
ATOM     23  C   UNL A   1      32.486  19.950  23.506  1.00  0.00     0.015 A 
ATOM     24  C   UNL A   1      34.116  20.373  25.195  1.00  0.00     0.015 A 
ATOM     25  C   UNL A   1      32.266  21.324  23.403  1.00  0.00     0.009 A 
ATOM     26  C   UNL A   1      33.860  21.752  25.116  1.00  0.00     0.009 A 
BRANCH  22  27
ATOM     27  S   UNL A   1      33.430  17.729  24.925  1.00  0.00    -0.130 SA
ATOM     28  C   UNL A   1      33.305  16.879  23.316  1.00  0.00     0.091 C 
ENDBRANCH  22  27
ENDBRANCH  10  21
ENDBRANCH   8   9
ENDBRANCH   5   8
ENDBRANCH   3   4
ENDBRANCH   2   3
ENDBRANCH   1   2
BRANCH   1  29
ATOM     29  C   UNL A   1      31.437  30.638  26.174  1.00  0.00     0.002 C 
BRANCH  29  30
ATOM     30  C   UNL A   1      31.454  32.098  26.635  1.00  0.00     0.021 C 
BRANCH  30  31
ATOM     31  C   UNL A   1      32.750  32.518  27.318  1.00  0.00     0.116 C 
BRANCH  31  32
ATOM     32  N   UNL A   1      32.760  33.944  27.586  1.00  0.00    -0.352 N 
ATOM     33  C   UNL A   1      33.447  34.626  28.559  1.00  0.00     0.251 C 
ATOM     34  H   UNL A   1      32.200  34.495  26.992  1.00  0.00     0.163 HD
ATOM     35  O   UNL A   1      33.121  35.769  28.852  1.00  0.00    -0.269 OA
BRANCH  33  36
ATOM     36  C   UNL A   1      34.572  33.958  29.247  1.00  0.00     0.039 A 
ATOM     37  C   UNL A   1      35.875  34.192  28.806  1.00  0.00     0.014 A 
ATOM     38  C   UNL A   1      34.332  33.099  30.325  1.00  0.00     0.014 A 
ATOM     39  C   UNL A   1      36.944  33.592  29.473  1.00  0.00     0.010 A 
ATOM     40  C   UNL A   1      35.402  32.566  31.036  1.00  0.00     0.010 A 
ATOM     41  C   UNL A   1      36.718  32.795  30.608  1.00  0.00    -0.014 A 
BRANCH  41  42
ATOM     42  C   UNL A   1      37.844  32.166  31.342  1.00  0.00     0.031 A 
ATOM     43  C   UNL A   1      38.618  31.042  30.706  1.00  0.00     0.074 A 
ATOM     44  C   UNL A   1      38.136  32.571  32.593  1.00  0.00     0.049 A 
ATOM     45  N   UNL A   1      39.589  30.320  31.201  1.00  0.00    -0.248 NA
ATOM     46  C   UNL A   1      38.220  30.662  29.342  1.00  0.00     0.031 C 
ATOM     47  C   UNL A   1      37.433  33.628  33.324  1.00  0.00     0.029 A 
ATOM     48  N   UNL A   1      39.097  32.142  33.473  1.00  0.00    -0.354 N 
ATOM     49  C   UNL A   1      39.916  29.396  30.214  1.00  0.00     0.074 A 
ATOM     50  C   UNL A   1      38.982  29.602  29.126  1.00  0.00     0.031 C 
ATOM     51  C   UNL A   1      38.011  33.788  34.525  1.00  0.00     0.029 A 
ATOM     52  C   UNL A   1      39.088  32.816  34.671  1.00  0.00     0.049 A 
ATOM     53  H   UNL A   1      39.733  31.420  33.266  1.00  0.00     0.167 HD
ATOM     54  C   UNL A   1      40.918  28.482  30.202  1.00  0.00     0.034 A 
ATOM     55  C   UNL A   1      39.859  32.660  35.766  1.00  0.00     0.034 A 
ATOM     56  C   UNL A   1      41.840  28.297  31.297  1.00  0.00     0.049 A 
ATOM     57  C   UNL A   1      40.938  31.607  35.750  1.00  0.00     0.074 A 
ATOM     58  C   UNL A   1      42.916  27.431  31.383  1.00  0.00     0.029 A 
ATOM     59  N   UNL A   1      41.791  28.986  32.503  1.00  0.00    -0.354 N 
ATOM     60  N   UNL A   1      41.262  30.769  34.793  1.00  0.00    -0.248 NA
ATOM     61  C   UNL A   1      41.760  31.486  36.961  1.00  0.00     0.031 C 
ATOM     62  C   UNL A   1      43.472  27.546  32.662  1.00  0.00     0.029 A 
ATOM     63  C   UNL A   1      42.798  28.542  33.348  1.00  0.00     0.049 A 
ATOM     64  H   UNL A   1      41.138  29.688  32.725  1.00  0.00     0.167 HD
ATOM     65  C   UNL A   1      42.352  30.047  35.274  1.00  0.00     0.074 A 
ATOM     66  C   UNL A   1      42.634  30.559  36.600  1.00  0.00     0.031 C 
ATOM     67  C   UNL A   1      43.060  29.056  34.673  1.00  0.00     0.034 A 
BRANCH  54  68
ATOM     68  C   UNL A   1      41.040  27.605  28.978  1.00  0.00     0.023 A 
ATOM     69  C   UNL A   1      42.054  27.806  28.025  1.00  0.00     0.031 A 
ATOM     70  C   UNL A   1      40.105  26.584  28.731  1.00  0.00     0.131 A 
ATOM     71  C   UNL A   1      42.054  27.069  26.831  1.00  0.00     0.055 A 
ATOM     72  C   UNL A   1      40.166  25.789  27.584  1.00  0.00     0.041 A 
ATOM     73  F   UNL A   1      39.098  26.355  29.590  1.00  0.00    -0.206 F 
ATOM     74  C   UNL A   1      41.133  26.042  26.616  1.00  0.00     0.022 A 
BRANCH  71  75
ATOM     75  S   UNL A   1      43.163  27.590  25.493  1.00  0.00     0.124 S 
ATOM     76  O   UNL A   1      44.069  28.494  26.199  1.00  0.00    -0.237 OA
ATOM     77  O   UNL A   1      43.738  26.326  25.050  1.00  0.00    -0.237 OA
ATOM     78  O   UNL A   1      42.267  28.239  24.538  1.00  0.00    -0.744 OA
ENDBRANCH  71  75
ENDBRANCH  54  68
BRANCH  55  79
ATOM     79  C   UNL A   1      39.650  33.519  36.967  1.00  0.00     0.023 A 
ATOM     80  C   UNL A   1      39.017  33.013  38.112  1.00  0.00     0.031 A 
ATOM     81  C   UNL A   1      40.043  34.870  36.974  1.00  0.00     0.131 A 
ATOM     82  C   UNL A   1      38.748  33.861  39.197  1.00  0.00     0.055 A 
ATOM     83  C   UNL A   1      39.823  35.696  38.077  1.00  0.00     0.041 A 
ATOM     84  F   UNL A   1      40.658  35.404  35.907  1.00  0.00    -0.206 F 
ATOM     85  C   UNL A   1      39.159  35.195  39.193  1.00  0.00     0.022 A 
BRANCH  82  86
ATOM     86  S   UNL A   1      37.773  33.214  40.583  1.00  0.00     0.124 S 
ATOM     87  O   UNL A   1      37.832  34.323  41.530  1.00  0.00    -0.237 OA
ATOM     88  O   UNL A   1      36.478  32.973  39.956  1.00  0.00    -0.237 OA
ATOM     89  O   UNL A   1      38.505  32.014  40.981  1.00  0.00    -0.744 OA
ENDBRANCH  82  86
ENDBRANCH  55  79
BRANCH  67  90
ATOM     90  C   UNL A   1      44.240  28.501  35.434  1.00  0.00     0.023 A 
ATOM     91  C   UNL A   1      44.097  27.470  36.379  1.00  0.00     0.031 A 
ATOM     92  C   UNL A   1      45.527  29.027  35.219  1.00  0.00     0.131 A 
ATOM     93  C   UNL A   1      45.210  27.039  37.117  1.00  0.00     0.055 A 
ATOM     94  C   UNL A   1      46.642  28.549  35.909  1.00  0.00     0.041 A 
ATOM     95  F   UNL A   1      45.722  30.014  34.330  1.00  0.00    -0.206 F 
ATOM     96  C   UNL A   1      46.484  27.560  36.875  1.00  0.00     0.022 A 
BRANCH  93  97
ATOM     97  S   UNL A   1      44.954  25.858  38.470  1.00  0.00     0.124 S 
ATOM     98  O   UNL A   1      44.377  24.716  37.771  1.00  0.00    -0.237 OA
ATOM     99  O   UNL A   1      46.309  25.674  38.983  1.00  0.00    -0.237 OA
ATOM    100  O   UNL A   1      44.042  26.560  39.370  1.00  0.00    -0.744 OA
ENDBRANCH  93  97
ENDBRANCH  67  90
ENDBRANCH  41  42
ENDBRANCH  33  36
ENDBRANCH  31  32
ENDBRANCH  30  31
ENDBRANCH  29  30
ENDBRANCH   1  29
TORSDOF 19
ENDMDL
MODEL 3
REMARK VINA RESULT:     -12.0      2.877      4.862
REMARK SMILES CSc1ccc(/C=C2\C(C)=C(CC(=O)NCCCCCCNC(=O)c3ccc(-c4c5nc(c(-c6cc(S(=O)(=O)[O-])ccc6F)c6ccc([nH]6)c(-c6cc(S(=O)(=O)[O-])ccc6F)c6nc(c(-c7cc(S(=O)(=O)[O-])ccc7F)c7ccc4[nH]7)C=C6)C=C5)cc3)c3cc(F)ccc32)cc1
REMARK SMILES IDX 18 1 17 2 16 3 15 4 13 5 14 6 12 8 11 9 7 10 8 11 9 12 94 13
REMARK SMILES IDX 10 14 88 15 93 16 89 17 92 18 90 19 91 20 6 21 3 22 4 23
REMARK SMILES IDX 96 24 5 25 95 26 2 27 1 28 19 29 20 30 21 31 22 32 23 33
REMARK SMILES IDX 24 35 25 36 26 37 87 38 27 39 86 40 28 41 29 42 30 43 80 44
REMARK SMILES IDX 31 45 85 46 79 47 81 48 32 49 84 50 78 51 77 52 33 54 65 55
REMARK SMILES IDX 45 56 64 57 46 58 49 59 63 60 82 61 47 62 48 63 62 65 83 66
REMARK SMILES IDX 50 67 34 68 35 69 43 70 36 71 42 72 44 73 41 74 37 75 38 76
REMARK SMILES IDX 39 77 40 78 66 79 67 80 75 81 68 82 74 83 76 84 73 85 69 86
REMARK SMILES IDX 70 87 71 88 72 89 51 90 52 91 60 92 53 93 59 94 61 95 58 96
REMARK SMILES IDX 54 97 55 98 56 99 57 100
REMARK H PARENT 15 7 22 34 81 53 49 64
REMARK Flexibility Score: inf
ROOT
ATOM      1  C   UNL A   1      35.755  32.534  27.859  1.00  0.00     0.002 C 
ENDROOT
BRANCH   1   2
ATOM      2  C   UNL A   1      35.217  31.385  28.708  1.00  0.00     0.021 C 
BRANCH   2   3
ATOM      3  C   UNL A   1      35.049  30.065  27.959  1.00  0.00     0.116 C 
BRANCH   3   4
ATOM      4  N   UNL A   1      34.202  30.225  26.796  1.00  0.00    -0.356 N 
ATOM      5  C   UNL A   1      33.766  29.243  25.954  1.00  0.00     0.224 C 
ATOM      6  O   UNL A   1      33.146  29.551  24.936  1.00  0.00    -0.275 OA
ATOM      7  H   UNL A   1      33.908  31.141  26.590  1.00  0.00     0.163 HD
BRANCH   5   8
ATOM      8  C   UNL A   1      34.063  27.801  26.307  1.00  0.00     0.136 C 
BRANCH   8   9
ATOM      9  C   UNL A   1      33.443  26.886  25.267  1.00  0.00    -0.027 C 
ATOM     10  C   UNL A   1      34.720  23.872  26.315  1.00  0.00     0.017 C 
ATOM     11  C   UNL A   1      33.838  24.763  25.832  1.00  0.00    -0.014 C 
ATOM     12  C   UNL A   1      34.083  25.781  24.787  1.00  0.00    -0.039 C 
ATOM     13  C   UNL A   1      32.418  24.995  26.206  1.00  0.00    -0.010 A 
ATOM     14  C   UNL A   1      33.634  25.204  23.424  1.00  0.00     0.045 C 
ATOM     15  C   UNL A   1      32.167  26.304  25.734  1.00  0.00    -0.011 A 
ATOM     16  C   UNL A   1      31.382  24.082  26.301  1.00  0.00     0.012 A 
ATOM     17  C   UNL A   1      30.917  26.734  25.329  1.00  0.00     0.048 A 
ATOM     18  C   UNL A   1      30.111  24.497  25.867  1.00  0.00     0.040 A 
ATOM     19  C   UNL A   1      29.896  25.798  25.378  1.00  0.00     0.123 A 
ATOM     20  F   UNL A   1      28.710  26.104  24.833  1.00  0.00    -0.207 F 
BRANCH  10  21
ATOM     21  C   UNL A   1      36.016  23.429  25.719  1.00  0.00    -0.025 A 
ATOM     22  C   UNL A   1      38.465  22.020  25.772  1.00  0.00     0.007 A 
ATOM     23  C   UNL A   1      37.355  21.473  25.146  1.00  0.00     0.015 A 
ATOM     24  C   UNL A   1      38.406  23.370  26.139  1.00  0.00     0.015 A 
ATOM     25  C   UNL A   1      36.161  22.192  25.086  1.00  0.00     0.009 A 
ATOM     26  C   UNL A   1      37.191  24.073  26.114  1.00  0.00     0.009 A 
BRANCH  22  27
ATOM     27  S   UNL A   1      39.916  21.079  26.208  1.00  0.00    -0.130 SA
ATOM     28  C   UNL A   1      39.471  19.379  25.719  1.00  0.00     0.091 C 
ENDBRANCH  22  27
ENDBRANCH  10  21
ENDBRANCH   8   9
ENDBRANCH   5   8
ENDBRANCH   3   4
ENDBRANCH   2   3
ENDBRANCH   1   2
BRANCH   1  29
ATOM     29  C   UNL A   1      35.815  33.878  28.582  1.00  0.00     0.002 C 
BRANCH  29  30
ATOM     30  C   UNL A   1      34.586  34.767  28.376  1.00  0.00     0.021 C 
BRANCH  30  31
ATOM     31  C   UNL A   1      33.340  34.281  29.105  1.00  0.00     0.116 C 
BRANCH  31  32
ATOM     32  N   UNL A   1      32.947  35.213  30.146  1.00  0.00    -0.352 N 
ATOM     33  C   UNL A   1      33.339  35.240  31.461  1.00  0.00     0.251 C 
ATOM     34  H   UNL A   1      32.317  35.918  29.873  1.00  0.00     0.163 HD
ATOM     35  O   UNL A   1      32.698  35.886  32.278  1.00  0.00    -0.269 OA
BRANCH  33  36
ATOM     36  C   UNL A   1      34.534  34.473  31.871  1.00  0.00     0.039 A 
ATOM     37  C   UNL A   1      34.383  33.151  32.293  1.00  0.00     0.014 A 
ATOM     38  C   UNL A   1      35.801  35.066  31.840  1.00  0.00     0.014 A 
ATOM     39  C   UNL A   1      35.511  32.410  32.648  1.00  0.00     0.010 A 
ATOM     40  C   UNL A   1      36.929  34.303  32.118  1.00  0.00     0.010 A 
ATOM     41  C   UNL A   1      36.795  32.972  32.540  1.00  0.00    -0.014 A 
BRANCH  41  42
ATOM     42  C   UNL A   1      38.007  32.192  32.894  1.00  0.00     0.031 A 
ATOM     43  C   UNL A   1      38.739  32.486  34.176  1.00  0.00     0.074 A 
ATOM     44  C   UNL A   1      38.474  31.259  32.042  1.00  0.00     0.049 A 
ATOM     45  N   UNL A   1      39.846  31.965  34.637  1.00  0.00    -0.248 NA
ATOM     46  C   UNL A   1      38.160  33.529  35.037  1.00  0.00     0.031 C 
ATOM     47  C   UNL A   1      37.867  30.911  30.756  1.00  0.00     0.029 A 
ATOM     48  N   UNL A   1      39.567  30.434  32.128  1.00  0.00    -0.354 N 
ATOM     49  C   UNL A   1      40.102  32.621  35.837  1.00  0.00     0.074 A 
ATOM     50  C   UNL A   1      39.074  33.629  35.989  1.00  0.00     0.031 C 
ATOM     51  C   UNL A   1      38.576  29.920  30.191  1.00  0.00     0.029 A 
ATOM     52  C   UNL A   1      39.711  29.597  31.046  1.00  0.00     0.049 A 
ATOM     53  H   UNL A   1      40.188  30.440  32.891  1.00  0.00     0.167 HD
ATOM     54  C   UNL A   1      41.084  32.383  36.743  1.00  0.00     0.034 A 
ATOM     55  C   UNL A   1      40.660  28.678  30.774  1.00  0.00     0.034 A 
ATOM     56  C   UNL A   1      42.096  31.369  36.574  1.00  0.00     0.049 A 
ATOM     57  C   UNL A   1      41.768  28.462  31.773  1.00  0.00     0.074 A 
ATOM     58  C   UNL A   1      43.115  31.012  37.440  1.00  0.00     0.029 A 
ATOM     59  N   UNL A   1      42.223  30.550  35.457  1.00  0.00    -0.354 N 
ATOM     60  N   UNL A   1      41.973  29.059  32.924  1.00  0.00    -0.248 NA
ATOM     61  C   UNL A   1      42.768  27.440  31.439  1.00  0.00     0.031 C 
ATOM     62  C   UNL A   1      43.896  30.031  36.819  1.00  0.00     0.029 A 
ATOM     63  C   UNL A   1      43.320  29.714  35.601  1.00  0.00     0.049 A 
ATOM     64  H   UNL A   1      41.620  30.562  34.679  1.00  0.00     0.167 HD
ATOM     65  C   UNL A   1      43.105  28.457  33.468  1.00  0.00     0.074 A 
ATOM     66  C   UNL A   1      43.528  27.443  32.523  1.00  0.00     0.031 C 
ATOM     67  C   UNL A   1      43.735  28.714  34.643  1.00  0.00     0.034 A 
BRANCH  54  68
ATOM     68  C   UNL A   1      41.114  33.258  37.975  1.00  0.00     0.023 A 
ATOM     69  C   UNL A   1      40.389  32.925  39.133  1.00  0.00     0.031 A 
ATOM     70  C   UNL A   1      41.835  34.465  37.981  1.00  0.00     0.131 A 
ATOM     71  C   UNL A   1      40.322  33.827  40.205  1.00  0.00     0.055 A 
ATOM     72  C   UNL A   1      41.843  35.315  39.089  1.00  0.00     0.041 A 
ATOM     73  F   UNL A   1      42.530  34.852  36.899  1.00  0.00    -0.206 F 
ATOM     74  C   UNL A   1      41.067  35.008  40.203  1.00  0.00     0.022 A 
BRANCH  71  75
ATOM     75  S   UNL A   1      39.114  33.518  41.522  1.00  0.00     0.124 S 
ATOM     76  O   UNL A   1      39.985  33.335  42.682  1.00  0.00    -0.237 OA
ATOM     77  O   UNL A   1      38.314  34.737  41.510  1.00  0.00    -0.237 OA
ATOM     78  O   UNL A   1      38.421  32.311  41.076  1.00  0.00    -0.744 OA
ENDBRANCH  71  75
ENDBRANCH  54  68
BRANCH  55  79
ATOM     79  C   UNL A   1      40.607  27.887  29.511  1.00  0.00     0.023 A 
ATOM     80  C   UNL A   1      41.489  28.159  28.455  1.00  0.00     0.031 A 
ATOM     81  C   UNL A   1      39.648  26.875  29.325  1.00  0.00     0.131 A 
ATOM     82  C   UNL A   1      41.364  27.465  27.241  1.00  0.00     0.055 A 
ATOM     83  C   UNL A   1      39.563  26.149  28.136  1.00  0.00     0.041 A 
ATOM     84  F   UNL A   1      38.783  26.569  30.306  1.00  0.00    -0.206 F 
ATOM     85  C   UNL A   1      40.417  26.453  27.080  1.00  0.00     0.022 A 
BRANCH  82  86
ATOM     86  S   UNL A   1      42.406  27.968  25.844  1.00  0.00     0.124 S 
ATOM     87  O   UNL A   1      43.725  28.025  26.464  1.00  0.00    -0.237 OA
ATOM     88  O   UNL A   1      42.187  26.880  24.897  1.00  0.00    -0.237 OA
ATOM     89  O   UNL A   1      41.845  29.258  25.450  1.00  0.00    -0.744 OA
ENDBRANCH  82  86
ENDBRANCH  55  79
BRANCH  67  90
ATOM     90  C   UNL A   1      44.919  27.843  34.989  1.00  0.00     0.023 A 
ATOM     91  C   UNL A   1      44.772  26.624  35.673  1.00  0.00     0.031 A 
ATOM     92  C   UNL A   1      46.220  28.253  34.643  1.00  0.00     0.131 A 
ATOM     93  C   UNL A   1      45.907  25.886  36.041  1.00  0.00     0.055 A 
ATOM     94  C   UNL A   1      47.341  27.483  34.954  1.00  0.00     0.041 A 
ATOM     95  F   UNL A   1      46.421  29.410  33.992  1.00  0.00    -0.206 F 
ATOM     96  C   UNL A   1      47.189  26.299  35.671  1.00  0.00     0.022 A 
BRANCH  93  97
ATOM     97  S   UNL A   1      45.694  24.429  37.100  1.00  0.00     0.124 S 
ATOM     98  O   UNL A   1      47.069  23.967  37.261  1.00  0.00    -0.237 OA
ATOM     99  O   UNL A   1      45.069  24.997  38.290  1.00  0.00    -0.237 OA
ATOM    100  O   UNL A   1      44.835  23.551  36.308  1.00  0.00    -0.744 OA
ENDBRANCH  93  97
ENDBRANCH  67  90
ENDBRANCH  41  42
ENDBRANCH  33  36
ENDBRANCH  31  32
ENDBRANCH  30  31
ENDBRANCH  29  30
ENDBRANCH   1  29
TORSDOF 19
ENDMDL
