MODEL 1
REMARK VINA RESULT:     -12.3      0.000      0.000
REMARK SMILES O=C(NCCCCCCNC(=O)c1ccc(-c2c3nc(c(-c4cc(S(=O)(=O)[O-])ccc4F)c4ccc([nH]4)c(-c4cc(S(=O)(=O)[O-])ccc4F)c4nc(c(-c5cc(S(=O)(=O)[O-])ccc5F)c5ccc2[nH]5)C=C4)C=C3)cc1)C1=Cc2c(cc(Cl)c(Cl)c2Cl)O[C@H]1C(F)(F)F
REMARK SMILES IDX 7 1 6 2 5 3 4 4 3 5 1 6 2 7 76 9 77 10 88 11 78 12 87 13
REMARK SMILES IDX 79 14 85 15 80 16 83 17 86 18 81 19 84 20 82 21 89 22 90 23
REMARK SMILES IDX 91 24 92 25 8 26 9 27 10 28 11 29 12 31 13 32 14 33 75 34
REMARK SMILES IDX 15 35 74 36 16 37 17 38 18 39 68 40 19 41 73 42 67 43 69 44
REMARK SMILES IDX 20 45 72 46 66 47 65 48 21 50 53 51 33 52 52 53 34 54 37 55
REMARK SMILES IDX 51 56 70 57 35 58 36 59 50 61 71 62 38 63 22 64 23 65 31 66
REMARK SMILES IDX 24 67 30 68 32 69 29 70 25 71 26 72 27 73 28 74 54 75 55 76
REMARK SMILES IDX 63 77 56 78 62 79 64 80 61 81 57 82 58 83 59 84 60 85 39 86
REMARK SMILES IDX 40 87 48 88 41 89 47 90 49 91 46 92 42 93 43 94 44 95 45 96
REMARK H PARENT 3 8 10 30 69 49 37 60
REMARK Flexibility Score: inf
ROOT
ATOM      1  C   UNL A   1      31.480  30.127  25.756  1.00  0.00     0.002 C 
ENDROOT
BRANCH   1   2
ATOM      2  C   UNL A   1      32.822  29.731  25.124  1.00  0.00     0.002 C 
BRANCH   2   3
ATOM      3  C   UNL A   1      32.804  29.256  23.671  1.00  0.00     0.021 C 
BRANCH   3   4
ATOM      4  C   UNL A   1      33.837  28.201  23.305  1.00  0.00     0.116 C 
BRANCH   4   5
ATOM      5  N   UNL A   1      33.644  27.528  22.026  1.00  0.00    -0.352 N 
ATOM      6  O   UNL A   1      33.168  25.683  20.761  1.00  0.00    -0.270 OA
ATOM      7  C   UNL A   1      33.267  26.208  21.853  1.00  0.00     0.251 C 
ATOM      8  H   UNL A   1      33.794  28.061  21.212  1.00  0.00     0.163 HD
BRANCH   7   9
ATOM      9  C   UNL A   1      33.030  25.457  23.110  1.00  0.00     0.067 C 
ATOM     10  C   UNL A   1      34.109  24.868  23.640  1.00  0.00     0.027 C 
ATOM     11  C   UNL A   1      31.616  25.057  23.389  1.00  0.00     0.314 C 
ATOM     12  C   UNL A   1      33.906  23.532  24.216  1.00  0.00     0.037 A 
ATOM     13  O   UNL A   1      31.484  23.675  23.810  1.00  0.00    -0.475 OA
ATOM     14  C   UNL A   1      32.614  22.984  24.166  1.00  0.00     0.131 A 
ATOM     15  C   UNL A   1      34.996  22.688  24.538  1.00  0.00     0.072 A 
ATOM     16  C   UNL A   1      32.416  21.622  24.378  1.00  0.00     0.069 A 
ATOM     17  C   UNL A   1      34.798  21.304  24.715  1.00  0.00     0.079 A 
ATOM     18  Cl  UNL A   1      36.605  23.355  24.632  1.00  0.00    -0.082 Cl
ATOM     19  C   UNL A   1      33.502  20.779  24.616  1.00  0.00     0.064 A 
ATOM     20  Cl  UNL A   1      36.150  20.244  24.971  1.00  0.00    -0.081 Cl
ATOM     21  Cl  UNL A   1      33.173  19.085  24.714  1.00  0.00    -0.083 Cl
BRANCH  11  22
ATOM     22  C   UNL A   1      30.919  25.989  24.390  1.00  0.00     0.429 C 
ATOM     23  F   UNL A   1      31.780  26.520  25.287  1.00  0.00    -0.167 F 
ATOM     24  F   UNL A   1      30.340  27.033  23.745  1.00  0.00    -0.167 F 
ATOM     25  F   UNL A   1      29.947  25.357  25.086  1.00  0.00    -0.167 F 
ENDBRANCH  11  22
ENDBRANCH   7   9
ENDBRANCH   4   5
ENDBRANCH   3   4
ENDBRANCH   2   3
ENDBRANCH   1   2
BRANCH   1  26
ATOM     26  C   UNL A   1      31.384  31.492  26.451  1.00  0.00     0.021 C 
BRANCH  26  27
ATOM     27  C   UNL A   1      32.681  32.097  26.988  1.00  0.00     0.116 C 
BRANCH  27  28
ATOM     28  N   UNL A   1      32.527  33.462  27.449  1.00  0.00    -0.352 N 
ATOM     29  C   UNL A   1      33.226  34.189  28.382  1.00  0.00     0.251 C 
ATOM     30  H   UNL A   1      31.792  33.956  27.017  1.00  0.00     0.163 HD
ATOM     31  O   UNL A   1      32.815  35.317  28.660  1.00  0.00    -0.269 OA
BRANCH  29  32
ATOM     32  C   UNL A   1      34.429  33.658  29.078  1.00  0.00     0.039 A 
ATOM     33  C   UNL A   1      34.233  32.706  30.089  1.00  0.00     0.014 A 
ATOM     34  C   UNL A   1      35.723  34.119  28.823  1.00  0.00     0.014 A 
ATOM     35  C   UNL A   1      35.322  32.186  30.799  1.00  0.00     0.010 A 
ATOM     36  C   UNL A   1      36.817  33.564  29.499  1.00  0.00     0.010 A 
ATOM     37  C   UNL A   1      36.628  32.593  30.496  1.00  0.00    -0.014 A 
BRANCH  37  38
ATOM     38  C   UNL A   1      37.797  32.021  31.219  1.00  0.00     0.031 A 
ATOM     39  C   UNL A   1      38.637  30.945  30.583  1.00  0.00     0.074 A 
ATOM     40  C   UNL A   1      38.080  32.433  32.469  1.00  0.00     0.049 A 
ATOM     41  N   UNL A   1      39.638  30.269  31.087  1.00  0.00    -0.248 NA
ATOM     42  C   UNL A   1      38.286  30.569  29.207  1.00  0.00     0.031 C 
ATOM     43  C   UNL A   1      37.333  33.448  33.215  1.00  0.00     0.029 A 
ATOM     44  N   UNL A   1      39.063  32.037  33.341  1.00  0.00    -0.354 N 
ATOM     45  C   UNL A   1      40.028  29.370  30.099  1.00  0.00     0.074 A 
ATOM     46  C   UNL A   1      39.130  29.572  28.979  1.00  0.00     0.031 C 
ATOM     47  C   UNL A   1      37.885  33.593  34.431  1.00  0.00     0.029 A 
ATOM     48  C   UNL A   1      39.005  32.665  34.563  1.00  0.00     0.049 A 
ATOM     49  H   UNL A   1      39.746  31.366  33.113  1.00  0.00     0.167 HD
ATOM     50  C   UNL A   1      41.042  28.469  30.117  1.00  0.00     0.034 A 
ATOM     51  C   UNL A   1      39.752  32.502  35.670  1.00  0.00     0.034 A 
ATOM     52  C   UNL A   1      41.948  28.286  31.225  1.00  0.00     0.049 A 
ATOM     53  C   UNL A   1      40.875  31.501  35.669  1.00  0.00     0.074 A 
ATOM     54  C   UNL A   1      43.043  27.441  31.316  1.00  0.00     0.029 A 
ATOM     55  N   UNL A   1      41.864  28.953  32.439  1.00  0.00    -0.354 N 
ATOM     56  N   UNL A   1      41.243  30.676  34.717  1.00  0.00    -0.248 NA
ATOM     57  C   UNL A   1      41.687  31.414  36.891  1.00  0.00     0.031 C 
ATOM     58  C   UNL A   1      43.594  27.566  32.598  1.00  0.00     0.029 A 
ATOM     59  C   UNL A   1      42.872  28.523  33.291  1.00  0.00     0.049 A 
ATOM     60  H   UNL A   1      41.188  29.632  32.662  1.00  0.00     0.167 HD
ATOM     61  C   UNL A   1      42.338  29.983  35.221  1.00  0.00     0.074 A 
ATOM     62  C   UNL A   1      42.577  30.490  36.557  1.00  0.00     0.031 C 
ATOM     63  C   UNL A   1      43.086  29.019  34.628  1.00  0.00     0.034 A 
BRANCH  50  64
ATOM     64  C   UNL A   1      41.194  27.585  28.906  1.00  0.00     0.023 A 
ATOM     65  C   UNL A   1      42.193  27.818  27.945  1.00  0.00     0.031 A 
ATOM     66  C   UNL A   1      40.303  26.520  28.691  1.00  0.00     0.131 A 
ATOM     67  C   UNL A   1      42.232  27.042  26.777  1.00  0.00     0.055 A 
ATOM     68  C   UNL A   1      40.391  25.706  27.559  1.00  0.00     0.041 A 
ATOM     69  F   UNL A   1      39.320  26.263  29.567  1.00  0.00    -0.206 F 
ATOM     70  C   UNL A   1      41.351  25.975  26.587  1.00  0.00     0.022 A 
BRANCH  67  71
ATOM     71  S   UNL A   1      43.367  27.530  25.449  1.00  0.00     0.124 S 
ATOM     72  O   UNL A   1      42.437  28.008  24.428  1.00  0.00    -0.237 OA
ATOM     73  O   UNL A   1      44.186  28.549  26.093  1.00  0.00    -0.237 OA
ATOM     74  O   UNL A   1      44.062  26.288  25.117  1.00  0.00    -0.744 OA
ENDBRANCH  67  71
ENDBRANCH  50  64
BRANCH  51  75
ATOM     75  C   UNL A   1      39.449  33.285  36.896  1.00  0.00     0.023 A 
ATOM     76  C   UNL A   1      40.098  34.501  37.156  1.00  0.00     0.031 A 
ATOM     77  C   UNL A   1      38.520  32.809  37.836  1.00  0.00     0.131 A 
ATOM     78  C   UNL A   1      39.829  35.190  38.348  1.00  0.00     0.055 A 
ATOM     79  C   UNL A   1      38.234  33.513  39.006  1.00  0.00     0.041 A 
ATOM     80  F   UNL A   1      37.872  31.654  37.622  1.00  0.00    -0.206 F 
ATOM     81  C   UNL A   1      38.898  34.707  39.271  1.00  0.00     0.022 A 
BRANCH  78  82
ATOM     82  S   UNL A   1      40.751  36.712  38.698  1.00  0.00     0.124 S 
ATOM     83  O   UNL A   1      41.552  36.862  37.488  1.00  0.00    -0.237 OA
ATOM     84  O   UNL A   1      39.676  37.682  38.881  1.00  0.00    -0.237 OA
ATOM     85  O   UNL A   1      41.503  36.384  39.907  1.00  0.00    -0.744 OA
ENDBRANCH  78  82
ENDBRANCH  51  75
BRANCH  63  86
ATOM     86  C   UNL A   1      44.250  28.485  35.417  1.00  0.00     0.023 A 
ATOM     87  C   UNL A   1      44.069  27.555  36.455  1.00  0.00     0.031 A 
ATOM     88  C   UNL A   1      45.553  28.933  35.142  1.00  0.00     0.131 A 
ATOM     89  C   UNL A   1      45.172  27.132  37.210  1.00  0.00     0.055 A 
ATOM     90  C   UNL A   1      46.652  28.481  35.874  1.00  0.00     0.041 A 
ATOM     91  F   UNL A   1      45.776  29.823  34.162  1.00  0.00    -0.206 F 
ATOM     92  C   UNL A   1      46.464  27.582  36.920  1.00  0.00     0.022 A 
BRANCH  89  93
ATOM     93  S   UNL A   1      44.894  26.025  38.621  1.00  0.00     0.124 S 
ATOM     94  O   UNL A   1      45.021  24.708  38.005  1.00  0.00    -0.237 OA
ATOM     95  O   UNL A   1      45.965  26.407  39.535  1.00  0.00    -0.237 OA
ATOM     96  O   UNL A   1      43.546  26.372  39.069  1.00  0.00    -0.744 OA
ENDBRANCH  89  93
ENDBRANCH  63  86
ENDBRANCH  37  38
ENDBRANCH  29  32
ENDBRANCH  27  28
ENDBRANCH  26  27
ENDBRANCH   1  26
TORSDOF 17
ENDMDL
MODEL 2
REMARK VINA RESULT:     -12.2      1.523      1.804
REMARK SMILES O=C(NCCCCCCNC(=O)c1ccc(-c2c3nc(c(-c4cc(S(=O)(=O)[O-])ccc4F)c4ccc([nH]4)c(-c4cc(S(=O)(=O)[O-])ccc4F)c4nc(c(-c5cc(S(=O)(=O)[O-])ccc5F)c5ccc2[nH]5)C=C4)C=C3)cc1)C1=Cc2c(cc(Cl)c(Cl)c2Cl)O[C@H]1C(F)(F)F
REMARK SMILES IDX 7 1 6 2 5 3 4 4 3 5 1 6 2 7 76 9 77 10 88 11 78 12 87 13
REMARK SMILES IDX 79 14 85 15 80 16 83 17 86 18 81 19 84 20 82 21 89 22 90 23
REMARK SMILES IDX 91 24 92 25 8 26 9 27 10 28 11 29 12 31 13 32 14 33 75 34
REMARK SMILES IDX 15 35 74 36 16 37 17 38 18 39 68 40 19 41 73 42 67 43 69 44
REMARK SMILES IDX 20 45 72 46 66 47 65 48 21 50 53 51 33 52 52 53 34 54 37 55
REMARK SMILES IDX 51 56 70 57 35 58 36 59 50 61 71 62 38 63 22 64 23 65 31 66
REMARK SMILES IDX 24 67 30 68 32 69 29 70 25 71 26 72 27 73 28 74 54 75 55 76
REMARK SMILES IDX 63 77 56 78 62 79 64 80 61 81 57 82 58 83 59 84 60 85 39 86
REMARK SMILES IDX 40 87 48 88 41 89 47 90 49 91 46 92 42 93 43 94 44 95 45 96
REMARK H PARENT 3 8 10 30 69 49 37 60
REMARK Flexibility Score: inf
ROOT
ATOM      1  C   UNL A   1      31.890  30.212  26.896  1.00  0.00     0.002 C 
ENDROOT
BRANCH   1   2
ATOM      2  C   UNL A   1      33.286  29.726  27.308  1.00  0.00     0.002 C 
BRANCH   2   3
ATOM      3  C   UNL A   1      34.119  28.998  26.252  1.00  0.00     0.021 C 
BRANCH   3   4
ATOM      4  C   UNL A   1      33.639  27.605  25.874  1.00  0.00     0.116 C 
BRANCH   4   5
ATOM      5  N   UNL A   1      33.562  27.317  24.446  1.00  0.00    -0.352 N 
ATOM      6  O   UNL A   1      33.473  25.873  22.675  1.00  0.00    -0.270 OA
ATOM      7  C   UNL A   1      33.485  26.058  23.877  1.00  0.00     0.251 C 
ATOM      8  H   UNL A   1      33.565  28.087  23.832  1.00  0.00     0.163 HD
BRANCH   7   9
ATOM      9  C   UNL A   1      33.460  24.935  24.845  1.00  0.00     0.067 C 
ATOM     10  C   UNL A   1      34.655  24.425  25.165  1.00  0.00     0.027 C 
ATOM     11  C   UNL A   1      32.158  24.215  24.995  1.00  0.00     0.314 C 
ATOM     12  C   UNL A   1      34.725  22.964  25.306  1.00  0.00     0.037 A 
ATOM     13  O   UNL A   1      32.295  22.772  24.974  1.00  0.00    -0.475 OA
ATOM     14  C   UNL A   1      33.548  22.227  25.097  1.00  0.00     0.131 A 
ATOM     15  C   UNL A   1      35.963  22.280  25.349  1.00  0.00     0.072 A 
ATOM     16  C   UNL A   1      33.604  20.852  24.883  1.00  0.00     0.069 A 
ATOM     17  C   UNL A   1      36.022  20.895  25.096  1.00  0.00     0.079 A 
ATOM     18  Cl  UNL A   1      37.434  23.174  25.635  1.00  0.00    -0.082 Cl
ATOM     19  C   UNL A   1      34.834  20.193  24.847  1.00  0.00     0.064 A 
ATOM     20  Cl  UNL A   1      37.552  20.077  25.010  1.00  0.00    -0.081 Cl
ATOM     21  Cl  UNL A   1      34.813  18.517  24.425  1.00  0.00    -0.083 Cl
BRANCH  11  22
ATOM     22  C   UNL A   1      31.371  24.659  26.236  1.00  0.00     0.429 C 
ATOM     23  F   UNL A   1      31.096  25.983  26.227  1.00  0.00    -0.167 F 
ATOM     24  F   UNL A   1      30.177  24.017  26.299  1.00  0.00    -0.167 F 
ATOM     25  F   UNL A   1      32.033  24.391  27.384  1.00  0.00    -0.167 F 
ENDBRANCH  11  22
ENDBRANCH   7   9
ENDBRANCH   4   5
ENDBRANCH   3   4
ENDBRANCH   2   3
ENDBRANCH   1   2
BRANCH   1  26
ATOM     26  C   UNL A   1      31.637  31.725  26.848  1.00  0.00     0.021 C 
BRANCH  26  27
ATOM     27  C   UNL A   1      32.858  32.642  26.905  1.00  0.00     0.116 C 
BRANCH  27  28
ATOM     28  N   UNL A   1      32.599  33.899  27.577  1.00  0.00    -0.352 N 
ATOM     29  C   UNL A   1      33.215  34.498  28.649  1.00  0.00     0.251 C 
ATOM     30  H   UNL A   1      31.850  34.414  27.199  1.00  0.00     0.163 HD
ATOM     31  O   UNL A   1      32.722  35.537  29.090  1.00  0.00    -0.269 OA
BRANCH  29  32
ATOM     32  C   UNL A   1      34.424  33.929  29.303  1.00  0.00     0.039 A 
ATOM     33  C   UNL A   1      34.234  32.982  30.320  1.00  0.00     0.014 A 
ATOM     34  C   UNL A   1      35.722  34.349  29.003  1.00  0.00     0.014 A 
ATOM     35  C   UNL A   1      35.329  32.427  30.991  1.00  0.00     0.010 A 
ATOM     36  C   UNL A   1      36.821  33.759  29.641  1.00  0.00     0.010 A 
ATOM     37  C   UNL A   1      36.636  32.793  30.643  1.00  0.00    -0.014 A 
BRANCH  37  38
ATOM     38  C   UNL A   1      37.811  32.184  31.325  1.00  0.00     0.031 A 
ATOM     39  C   UNL A   1      38.575  31.061  30.674  1.00  0.00     0.074 A 
ATOM     40  C   UNL A   1      38.167  32.606  32.554  1.00  0.00     0.049 A 
ATOM     41  N   UNL A   1      39.568  30.351  31.147  1.00  0.00    -0.248 NA
ATOM     42  C   UNL A   1      38.147  30.676  29.323  1.00  0.00     0.031 C 
ATOM     43  C   UNL A   1      37.498  33.666  33.311  1.00  0.00     0.029 A 
ATOM     44  N   UNL A   1      39.171  32.183  33.389  1.00  0.00    -0.354 N 
ATOM     45  C   UNL A   1      39.873  29.419  30.161  1.00  0.00     0.074 A 
ATOM     46  C   UNL A   1      38.936  29.639  29.078  1.00  0.00     0.031 C 
ATOM     47  C   UNL A   1      38.111  33.809  34.498  1.00  0.00     0.029 A 
ATOM     48  C   UNL A   1      39.194  32.835  34.599  1.00  0.00     0.049 A 
ATOM     49  H   UNL A   1      39.814  31.479  33.145  1.00  0.00     0.167 HD
ATOM     50  C   UNL A   1      40.848  28.474  30.153  1.00  0.00     0.034 A 
ATOM     51  C   UNL A   1      39.983  32.659  35.676  1.00  0.00     0.034 A 
ATOM     52  C   UNL A   1      41.795  28.272  31.223  1.00  0.00     0.049 A 
ATOM     53  C   UNL A   1      41.061  31.610  35.644  1.00  0.00     0.074 A 
ATOM     54  C   UNL A   1      42.855  27.382  31.282  1.00  0.00     0.029 A 
ATOM     55  N   UNL A   1      41.794  28.964  32.426  1.00  0.00    -0.354 N 
ATOM     56  N   UNL A   1      41.350  30.753  34.695  1.00  0.00    -0.248 NA
ATOM     57  C   UNL A   1      41.922  31.511  36.831  1.00  0.00     0.031 C 
ATOM     58  C   UNL A   1      43.469  27.506  32.536  1.00  0.00     0.029 A 
ATOM     59  C   UNL A   1      42.820  28.506  33.241  1.00  0.00     0.049 A 
ATOM     60  H   UNL A   1      41.159  29.676  32.665  1.00  0.00     0.167 HD
ATOM     61  C   UNL A   1      42.436  30.022  35.163  1.00  0.00     0.074 A 
ATOM     62  C   UNL A   1      42.756  30.543  36.477  1.00  0.00     0.031 C 
ATOM     63  C   UNL A   1      43.115  29.017  34.557  1.00  0.00     0.034 A 
BRANCH  50  64
ATOM     64  C   UNL A   1      40.908  27.563  28.954  1.00  0.00     0.023 A 
ATOM     65  C   UNL A   1      41.873  27.734  27.947  1.00  0.00     0.031 A 
ATOM     66  C   UNL A   1      39.962  26.535  28.798  1.00  0.00     0.131 A 
ATOM     67  C   UNL A   1      41.827  26.935  26.793  1.00  0.00     0.055 A 
ATOM     68  C   UNL A   1      39.964  25.698  27.680  1.00  0.00     0.041 A 
ATOM     69  F   UNL A   1      39.008  26.340  29.721  1.00  0.00    -0.206 F 
ATOM     70  C   UNL A   1      40.891  25.906  26.663  1.00  0.00     0.022 A 
BRANCH  67  71
ATOM     71  S   UNL A   1      42.923  27.348  25.409  1.00  0.00     0.124 S 
ATOM     72  O   UNL A   1      43.049  26.056  24.738  1.00  0.00    -0.237 OA
ATOM     73  O   UNL A   1      42.161  28.366  24.696  1.00  0.00    -0.237 OA
ATOM     74  O   UNL A   1      44.140  27.824  26.064  1.00  0.00    -0.744 OA
ENDBRANCH  67  71
ENDBRANCH  50  64
BRANCH  51  75
ATOM     75  C   UNL A   1      39.769  33.478  36.898  1.00  0.00     0.023 A 
ATOM     76  C   UNL A   1      39.034  32.978  37.982  1.00  0.00     0.031 A 
ATOM     77  C   UNL A   1      40.280  34.783  36.982  1.00  0.00     0.131 A 
ATOM     78  C   UNL A   1      38.803  33.795  39.099  1.00  0.00     0.055 A 
ATOM     79  C   UNL A   1      40.074  35.581  38.107  1.00  0.00     0.041 A 
ATOM     80  F   UNL A   1      40.996  35.296  35.969  1.00  0.00    -0.206 F 
ATOM     81  C   UNL A   1      39.323  35.090  39.171  1.00  0.00     0.022 A 
BRANCH  78  82
ATOM     82  S   UNL A   1      37.771  33.154  40.446  1.00  0.00     0.124 S 
ATOM     83  O   UNL A   1      36.555  32.772  39.736  1.00  0.00    -0.237 OA
ATOM     84  O   UNL A   1      38.587  32.057  40.956  1.00  0.00    -0.237 OA
ATOM     85  O   UNL A   1      37.636  34.297  41.345  1.00  0.00    -0.744 OA
ENDBRANCH  78  82
ENDBRANCH  51  75
BRANCH  63  86
ATOM     86  C   UNL A   1      44.289  28.446  35.304  1.00  0.00     0.023 A 
ATOM     87  C   UNL A   1      44.119  27.495  36.325  1.00  0.00     0.031 A 
ATOM     88  C   UNL A   1      45.592  28.880  35.008  1.00  0.00     0.131 A 
ATOM     89  C   UNL A   1      45.233  27.038  37.043  1.00  0.00     0.055 A 
ATOM     90  C   UNL A   1      46.701  28.395  35.701  1.00  0.00     0.041 A 
ATOM     91  F   UNL A   1      45.804  29.790  34.044  1.00  0.00    -0.206 F 
ATOM     92  C   UNL A   1      46.524  27.475  36.731  1.00  0.00     0.022 A 
BRANCH  89  93
ATOM     93  S   UNL A   1      44.972  25.903  38.435  1.00  0.00     0.124 S 
ATOM     94  O   UNL A   1      44.799  24.623  37.755  1.00  0.00    -0.237 OA
ATOM     95  O   UNL A   1      46.204  26.056  39.200  1.00  0.00    -0.237 OA
ATOM     96  O   UNL A   1      43.772  26.426  39.084  1.00  0.00    -0.744 OA
ENDBRANCH  89  93
ENDBRANCH  63  86
ENDBRANCH  37  38
ENDBRANCH  29  32
ENDBRANCH  27  28
ENDBRANCH  26  27
ENDBRANCH   1  26
TORSDOF 17
ENDMDL
MODEL 3
REMARK VINA RESULT:     -11.8      4.972      8.454
REMARK SMILES O=C(NCCCCCCNC(=O)c1ccc(-c2c3nc(c(-c4cc(S(=O)(=O)[O-])ccc4F)c4ccc([nH]4)c(-c4cc(S(=O)(=O)[O-])ccc4F)c4nc(c(-c5cc(S(=O)(=O)[O-])ccc5F)c5ccc2[nH]5)C=C4)C=C3)cc1)C1=Cc2c(cc(Cl)c(Cl)c2Cl)O[C@H]1C(F)(F)F
REMARK SMILES IDX 7 1 6 2 5 3 4 4 3 5 1 6 2 7 76 9 77 10 88 11 78 12 87 13
REMARK SMILES IDX 79 14 85 15 80 16 83 17 86 18 81 19 84 20 82 21 89 22 90 23
REMARK SMILES IDX 91 24 92 25 8 26 9 27 10 28 11 29 12 31 13 32 14 33 75 34
REMARK SMILES IDX 15 35 74 36 16 37 17 38 18 39 68 40 19 41 73 42 67 43 69 44
REMARK SMILES IDX 20 45 72 46 66 47 65 48 21 50 53 51 33 52 52 53 34 54 37 55
REMARK SMILES IDX 51 56 70 57 35 58 36 59 50 61 71 62 38 63 22 64 23 65 31 66
REMARK SMILES IDX 24 67 30 68 32 69 29 70 25 71 26 72 27 73 28 74 54 75 55 76
REMARK SMILES IDX 63 77 56 78 62 79 64 80 61 81 57 82 58 83 59 84 60 85 39 86
REMARK SMILES IDX 40 87 48 88 41 89 47 90 49 91 46 92 42 93 43 94 44 95 45 96
REMARK H PARENT 3 8 10 30 69 49 37 60
REMARK Flexibility Score: inf
ROOT
ATOM      1  C   UNL A   1      35.788  20.808  24.991  1.00  0.00     0.002 C 
ENDROOT
BRANCH   1   2
ATOM      2  C   UNL A   1      34.389  20.766  25.622  1.00  0.00     0.002 C 
BRANCH   2   3
ATOM      3  C   UNL A   1      34.231  21.349  27.026  1.00  0.00     0.021 C 
BRANCH   3   4
ATOM      4  C   UNL A   1      33.576  22.720  27.106  1.00  0.00     0.116 C 
BRANCH   4   5
ATOM      5  N   UNL A   1      32.157  22.737  27.441  1.00  0.00    -0.352 N 
ATOM      6  O   UNL A   1      30.031  23.546  27.205  1.00  0.00    -0.270 OA
ATOM      7  C   UNL A   1      31.195  23.537  26.852  1.00  0.00     0.251 C 
ATOM      8  H   UNL A   1      31.856  22.123  28.150  1.00  0.00     0.163 HD
BRANCH   7   9
ATOM      9  C   UNL A   1      31.695  24.425  25.774  1.00  0.00     0.067 C 
ATOM     10  C   UNL A   1      32.145  25.620  26.176  1.00  0.00     0.027 C 
ATOM     11  C   UNL A   1      31.238  24.109  24.386  1.00  0.00     0.314 C 
ATOM     12  C   UNL A   1      31.813  26.765  25.318  1.00  0.00     0.037 A 
ATOM     13  O   UNL A   1      30.783  25.275  23.653  1.00  0.00    -0.475 OA
ATOM     14  C   UNL A   1      31.060  26.520  24.158  1.00  0.00     0.131 A 
ATOM     15  C   UNL A   1      31.968  28.098  25.765  1.00  0.00     0.072 A 
ATOM     16  C   UNL A   1      30.432  27.568  23.490  1.00  0.00     0.069 A 
ATOM     17  C   UNL A   1      31.302  29.152  25.109  1.00  0.00     0.079 A 
ATOM     18  Cl  UNL A   1      32.923  28.426  27.188  1.00  0.00    -0.082 Cl
ATOM     19  C   UNL A   1      30.521  28.872  23.980  1.00  0.00     0.064 A 
ATOM     20  Cl  UNL A   1      31.375  30.771  25.737  1.00  0.00    -0.081 Cl
ATOM     21  Cl  UNL A   1      29.584  30.078  23.170  1.00  0.00    -0.083 Cl
BRANCH  11  22
ATOM     22  C   UNL A   1      32.289  23.342  23.572  1.00  0.00     0.429 C 
ATOM     23  F   UNL A   1      32.085  22.005  23.593  1.00  0.00    -0.167 F 
ATOM     24  F   UNL A   1      32.251  23.718  22.269  1.00  0.00    -0.167 F 
ATOM     25  F   UNL A   1      33.546  23.567  24.019  1.00  0.00    -0.167 F 
ENDBRANCH  11  22
ENDBRANCH   7   9
ENDBRANCH   4   5
ENDBRANCH   3   4
ENDBRANCH   2   3
ENDBRANCH   1   2
BRANCH   1  26
ATOM     26  C   UNL A   1      36.325  22.165  24.516  1.00  0.00     0.021 C 
BRANCH  26  27
ATOM     27  C   UNL A   1      37.311  22.888  25.432  1.00  0.00     0.116 C 
BRANCH  27  28
ATOM     28  N   UNL A   1      38.387  22.038  25.901  1.00  0.00    -0.352 N 
ATOM     29  C   UNL A   1      39.589  22.339  26.494  1.00  0.00     0.251 C 
ATOM     30  H   UNL A   1      38.228  21.075  25.772  1.00  0.00     0.163 HD
ATOM     31  O   UNL A   1      40.376  21.415  26.704  1.00  0.00    -0.269 OA
BRANCH  29  32
ATOM     32  C   UNL A   1      39.979  23.727  26.861  1.00  0.00     0.039 A 
ATOM     33  C   UNL A   1      40.094  24.035  28.224  1.00  0.00     0.014 A 
ATOM     34  C   UNL A   1      40.156  24.743  25.919  1.00  0.00     0.014 A 
ATOM     35  C   UNL A   1      40.433  25.330  28.636  1.00  0.00     0.010 A 
ATOM     36  C   UNL A   1      40.542  26.026  26.328  1.00  0.00     0.010 A 
ATOM     37  C   UNL A   1      40.683  26.333  27.691  1.00  0.00    -0.014 A 
BRANCH  37  38
ATOM     38  C   UNL A   1      41.079  27.705  28.115  1.00  0.00     0.031 A 
ATOM     39  C   UNL A   1      42.529  28.108  28.140  1.00  0.00     0.074 A 
ATOM     40  C   UNL A   1      40.139  28.578  28.525  1.00  0.00     0.049 A 
ATOM     41  N   UNL A   1      43.072  29.224  28.557  1.00  0.00    -0.248 NA
ATOM     42  C   UNL A   1      43.494  27.113  27.651  1.00  0.00     0.031 C 
ATOM     43  C   UNL A   1      38.700  28.310  28.577  1.00  0.00     0.029 A 
ATOM     44  N   UNL A   1      40.254  29.864  28.991  1.00  0.00    -0.354 N 
ATOM     45  C   UNL A   1      44.445  29.062  28.401  1.00  0.00     0.074 A 
ATOM     46  C   UNL A   1      44.647  27.724  27.879  1.00  0.00     0.031 C 
ATOM     47  C   UNL A   1      38.069  29.397  29.049  1.00  0.00     0.029 A 
ATOM     48  C   UNL A   1      39.056  30.428  29.359  1.00  0.00     0.049 A 
ATOM     49  H   UNL A   1      41.115  30.338  29.056  1.00  0.00     0.167 HD
ATOM     50  C   UNL A   1      45.443  29.944  28.659  1.00  0.00     0.034 A 
ATOM     51  C   UNL A   1      38.781  31.629  29.902  1.00  0.00     0.034 A 
ATOM     52  C   UNL A   1      45.238  31.283  29.158  1.00  0.00     0.049 A 
ATOM     53  C   UNL A   1      39.901  32.595  30.175  1.00  0.00     0.074 A 
ATOM     54  C   UNL A   1      46.179  32.272  29.394  1.00  0.00     0.029 A 
ATOM     55  N   UNL A   1      44.006  31.821  29.504  1.00  0.00    -0.354 N 
ATOM     56  N   UNL A   1      41.191  32.433  30.000  1.00  0.00    -0.248 NA
ATOM     57  C   UNL A   1      39.525  33.909  30.715  1.00  0.00     0.031 C 
ATOM     58  C   UNL A   1      45.523  33.392  29.921  1.00  0.00     0.029 A 
ATOM     59  C   UNL A   1      44.166  33.118  29.971  1.00  0.00     0.049 A 
ATOM     60  H   UNL A   1      43.145  31.352  29.428  1.00  0.00     0.167 HD
ATOM     61  C   UNL A   1      41.779  33.630  30.395  1.00  0.00     0.074 A 
ATOM     62  C   UNL A   1      40.704  34.508  30.810  1.00  0.00     0.031 C 
ATOM     63  C   UNL A   1      43.091  33.976  30.403  1.00  0.00     0.034 A 
BRANCH  50  64
ATOM     64  C   UNL A   1      46.855  29.465  28.438  1.00  0.00     0.023 A 
ATOM     65  C   UNL A   1      47.584  28.827  29.455  1.00  0.00     0.031 A 
ATOM     66  C   UNL A   1      47.492  29.686  27.204  1.00  0.00     0.131 A 
ATOM     67  C   UNL A   1      48.932  28.496  29.245  1.00  0.00     0.055 A 
ATOM     68  C   UNL A   1      48.812  29.292  26.978  1.00  0.00     0.041 A 
ATOM     69  F   UNL A   1      46.847  30.307  26.204  1.00  0.00    -0.206 F 
ATOM     70  C   UNL A   1      49.544  28.706  28.007  1.00  0.00     0.022 A 
BRANCH  67  71
ATOM     71  S   UNL A   1      49.910  27.909  30.654  1.00  0.00     0.124 S 
ATOM     72  O   UNL A   1      50.650  26.799  30.058  1.00  0.00    -0.237 OA
ATOM     73  O   UNL A   1      50.697  29.086  31.004  1.00  0.00    -0.237 OA
ATOM     74  O   UNL A   1      48.900  27.520  31.636  1.00  0.00    -0.744 OA
ENDBRANCH  67  71
ENDBRANCH  50  64
BRANCH  51  75
ATOM     75  C   UNL A   1      37.382  31.984  30.256  1.00  0.00     0.023 A 
ATOM     76  C   UNL A   1      36.497  32.485  29.290  1.00  0.00     0.031 A 
ATOM     77  C   UNL A   1      36.923  31.849  31.576  1.00  0.00     0.131 A 
ATOM     78  C   UNL A   1      35.199  32.862  29.666  1.00  0.00     0.055 A 
ATOM     79  C   UNL A   1      35.623  32.197  31.940  1.00  0.00     0.041 A 
ATOM     80  F   UNL A   1      37.736  31.367  32.529  1.00  0.00    -0.206 F 
ATOM     81  C   UNL A   1      34.755  32.715  30.984  1.00  0.00     0.022 A 
BRANCH  78  82
ATOM     82  S   UNL A   1      34.109  33.591  28.415  1.00  0.00     0.124 S 
ATOM     83  O   UNL A   1      33.429  32.413  27.887  1.00  0.00    -0.237 OA
ATOM     84  O   UNL A   1      33.293  34.498  29.215  1.00  0.00    -0.237 OA
ATOM     85  O   UNL A   1      35.037  34.242  27.492  1.00  0.00    -0.744 OA
ENDBRANCH  78  82
ENDBRANCH  51  75
BRANCH  63  86
ATOM     86  C   UNL A   1      43.419  35.375  30.846  1.00  0.00     0.023 A 
ATOM     87  C   UNL A   1      43.553  35.704  32.206  1.00  0.00     0.031 A 
ATOM     88  C   UNL A   1      43.570  36.398  29.894  1.00  0.00     0.131 A 
ATOM     89  C   UNL A   1      43.794  37.034  32.580  1.00  0.00     0.055 A 
ATOM     90  C   UNL A   1      43.845  37.713  30.271  1.00  0.00     0.041 A 
ATOM     91  F   UNL A   1      43.447  36.134  28.584  1.00  0.00    -0.206 F 
ATOM     92  C   UNL A   1      43.949  38.039  31.621  1.00  0.00     0.022 A 
BRANCH  89  93
ATOM     93  S   UNL A   1      43.844  37.451  34.345  1.00  0.00     0.124 S 
ATOM     94  O   UNL A   1      42.428  37.440  34.701  1.00  0.00    -0.237 OA
ATOM     95  O   UNL A   1      44.648  36.368  34.900  1.00  0.00    -0.237 OA
ATOM     96  O   UNL A   1      44.479  38.767  34.370  1.00  0.00    -0.744 OA
ENDBRANCH  89  93
ENDBRANCH  63  86
ENDBRANCH  37  38
ENDBRANCH  29  32
ENDBRANCH  27  28
ENDBRANCH  26  27
ENDBRANCH   1  26
TORSDOF 17
ENDMDL
