MODEL 1
REMARK VINA RESULT:      -9.6      0.000      0.000
REMARK SMILES C#CCNC(=O)C[N@@H+](CC(=O)NCCCCCCNC(=O)c1ccc(-c2c3nc(c(-c4cc(S(=O)(=O)[O-])ccc4F)c4ccc([nH]4)c(-c4cc(S(=O)(=O)[O-])ccc4F)c4nc(c(-c5cc(S(=O)(=O)[O-])ccc5F)c5ccc2[nH]5)C=C4)C=C3)cc1)C(C)(C)C
REMARK SMILES IDX 14 1 13 2 12 3 10 4 11 5 9 7 8 8 7 10 5 11 4 12 6 14 3 15
REMARK SMILES IDX 2 16 1 17 85 18 86 19 87 20 88 21 15 22 16 23 17 24 18 25
REMARK SMILES IDX 19 26 20 27 21 29 22 30 23 31 84 32 24 33 83 34 25 35 26 36
REMARK SMILES IDX 27 37 77 38 28 39 82 40 76 41 78 42 29 43 81 44 75 45 74 46
REMARK SMILES IDX 30 48 62 49 42 50 61 51 43 52 46 53 60 54 79 55 44 56 45 57
REMARK SMILES IDX 59 59 80 60 47 61 31 62 32 63 40 64 33 65 39 66 41 67 38 68
REMARK SMILES IDX 34 69 35 70 36 71 37 72 63 73 64 74 72 75 65 76 71 77 73 78
REMARK SMILES IDX 70 79 66 80 67 81 68 82 69 83 48 84 49 85 57 86 50 87 56 88
REMARK SMILES IDX 58 89 55 90 51 91 52 92 53 93 54 94
REMARK H PARENT 12 6 8 9 4 13 19 28 78 47 46 58
REMARK Flexibility Score: inf
ROOT
ATOM      1  C   UNL A   1      33.538  26.027  25.524  1.00  0.00     0.021 C 
ENDROOT
BRANCH   1   2
ATOM      2  C   UNL A   1      33.536  27.337  24.734  1.00  0.00     0.116 C 
BRANCH   2   3
ATOM      3  N   UNL A   1      32.925  28.412  25.492  1.00  0.00    -0.351 N 
ATOM      4  C   UNL A   1      31.989  29.340  25.141  1.00  0.00     0.275 C 
ATOM      5  O   UNL A   1      31.572  30.075  26.043  1.00  0.00    -0.269 OA
ATOM      6  H   UNL A   1      33.241  28.485  26.422  1.00  0.00     0.163 HD
BRANCH   4   7
ATOM      7  C   UNL A   1      31.414  29.438  23.721  1.00  0.00     0.364 C 
BRANCH   7   8
ATOM      8  N   UNL A   1      30.066  28.850  23.477  1.00  0.00    -0.315 N 
ATOM      9  H   UNL A   1      29.661  28.718  24.404  1.00  0.00     0.349 HD
BRANCH   8  10
ATOM     10  C   UNL A   1      30.168  27.505  22.883  1.00  0.00     0.364 C 
BRANCH  10  11
ATOM     11  C   UNL A   1      30.024  26.318  23.829  1.00  0.00     0.275 C 
ATOM     12  N   UNL A   1      30.608  25.127  23.540  1.00  0.00    -0.340 N 
ATOM     13  H   UNL A   1      30.327  24.367  24.100  1.00  0.00     0.164 HD
ATOM     14  O   UNL A   1      29.275  26.379  24.807  1.00  0.00    -0.268 OA
BRANCH  12  15
ATOM     15  C   UNL A   1      31.583  24.825  22.526  1.00  0.00     0.206 C 
BRANCH  15  16
ATOM     16  C   UNL A   1      32.047  23.396  22.755  1.00  0.00    -0.085 C 
ATOM     17  C   UNL A   1      32.445  22.170  22.950  1.00  0.00     0.006 C 
ENDBRANCH  15  16
ENDBRANCH  12  15
ENDBRANCH  10  11
ENDBRANCH   8  10
BRANCH   8  18
ATOM     18  C   UNL A   1      29.006  29.753  22.937  1.00  0.00     0.090 C 
ATOM     19  C   UNL A   1      27.577  29.166  22.961  1.00  0.00     0.078 C 
ATOM     20  C   UNL A   1      28.945  31.077  23.737  1.00  0.00     0.078 C 
ATOM     21  C   UNL A   1      29.340  30.167  21.483  1.00  0.00     0.078 C 
ENDBRANCH   8  18
ENDBRANCH   7   8
ENDBRANCH   4   7
ENDBRANCH   2   3
ENDBRANCH   1   2
BRANCH   1  22
ATOM     22  C   UNL A   1      34.374  24.897  24.927  1.00  0.00     0.002 C 
BRANCH  22  23
ATOM     23  C   UNL A   1      34.457  23.619  25.762  1.00  0.00     0.002 C 
BRANCH  23  24
ATOM     24  C   UNL A   1      35.649  22.700  25.473  1.00  0.00     0.021 C 
BRANCH  24  25
ATOM     25  C   UNL A   1      37.028  23.358  25.525  1.00  0.00     0.116 C 
BRANCH  25  26
ATOM     26  N   UNL A   1      38.056  22.446  25.991  1.00  0.00    -0.352 N 
ATOM     27  C   UNL A   1      39.283  22.698  26.549  1.00  0.00     0.251 C 
ATOM     28  H   UNL A   1      37.837  21.491  25.889  1.00  0.00     0.163 HD
ATOM     29  O   UNL A   1      40.085  21.774  26.666  1.00  0.00    -0.269 OA
BRANCH  27  30
ATOM     30  C   UNL A   1      39.654  24.060  26.995  1.00  0.00     0.039 A 
ATOM     31  C   UNL A   1      40.241  24.928  26.069  1.00  0.00     0.014 A 
ATOM     32  C   UNL A   1      39.495  24.467  28.323  1.00  0.00     0.014 A 
ATOM     33  C   UNL A   1      40.632  26.209  26.463  1.00  0.00     0.010 A 
ATOM     34  C   UNL A   1      39.824  25.770  28.700  1.00  0.00     0.010 A 
ATOM     35  C   UNL A   1      40.414  26.647  27.779  1.00  0.00    -0.014 A 
BRANCH  35  36
ATOM     36  C   UNL A   1      40.834  28.008  28.202  1.00  0.00     0.031 A 
ATOM     37  C   UNL A   1      42.289  28.395  28.177  1.00  0.00     0.074 A 
ATOM     38  C   UNL A   1      39.911  28.881  28.651  1.00  0.00     0.049 A 
ATOM     39  N   UNL A   1      42.852  29.528  28.514  1.00  0.00    -0.248 NA
ATOM     40  C   UNL A   1      43.237  27.357  27.749  1.00  0.00     0.031 C 
ATOM     41  C   UNL A   1      38.481  28.600  28.788  1.00  0.00     0.029 A 
ATOM     42  N   UNL A   1      40.038  30.177  29.084  1.00  0.00    -0.354 N 
ATOM     43  C   UNL A   1      44.221  29.334  28.354  1.00  0.00     0.074 A 
ATOM     44  C   UNL A   1      44.401  27.954  27.953  1.00  0.00     0.031 C 
ATOM     45  C   UNL A   1      37.862  29.693  29.260  1.00  0.00     0.029 A 
ATOM     46  C   UNL A   1      38.850  30.744  29.480  1.00  0.00     0.049 A 
ATOM     47  H   UNL A   1      40.899  30.655  29.108  1.00  0.00     0.167 HD
ATOM     48  C   UNL A   1      45.232  30.228  28.505  1.00  0.00     0.034 A 
ATOM     49  C   UNL A   1      38.587  31.972  29.968  1.00  0.00     0.034 A 
ATOM     50  C   UNL A   1      45.031  31.604  28.894  1.00  0.00     0.049 A 
ATOM     51  C   UNL A   1      39.712  32.965  30.088  1.00  0.00     0.074 A 
ATOM     52  C   UNL A   1      45.967  32.617  29.005  1.00  0.00     0.029 A 
ATOM     53  N   UNL A   1      43.805  32.160  29.245  1.00  0.00    -0.354 N 
ATOM     54  N   UNL A   1      40.993  32.793  29.852  1.00  0.00    -0.248 NA
ATOM     55  C   UNL A   1      39.352  34.323  30.514  1.00  0.00     0.031 C 
ATOM     56  C   UNL A   1      45.320  33.765  29.482  1.00  0.00     0.029 A 
ATOM     57  C   UNL A   1      43.966  33.492  29.600  1.00  0.00     0.049 A 
ATOM     58  H   UNL A   1      42.947  31.678  29.241  1.00  0.00     0.167 HD
ATOM     59  C   UNL A   1      41.589  34.030  30.082  1.00  0.00     0.074 A 
ATOM     60  C   UNL A   1      40.523  34.940  30.453  1.00  0.00     0.031 C 
ATOM     61  C   UNL A   1      42.898  34.382  29.992  1.00  0.00     0.034 A 
BRANCH  48  62
ATOM     62  C   UNL A   1      46.640  29.724  28.278  1.00  0.00     0.023 A 
ATOM     63  C   UNL A   1      47.448  29.281  29.340  1.00  0.00     0.031 A 
ATOM     64  C   UNL A   1      47.203  29.739  26.988  1.00  0.00     0.131 A 
ATOM     65  C   UNL A   1      48.797  28.966  29.113  1.00  0.00     0.055 A 
ATOM     66  C   UNL A   1      48.522  29.339  26.755  1.00  0.00     0.041 A 
ATOM     67  F   UNL A   1      46.490  30.167  25.935  1.00  0.00    -0.206 F 
ATOM     68  C   UNL A   1      49.333  28.969  27.823  1.00  0.00     0.022 A 
BRANCH  65  69
ATOM     69  S   UNL A   1      49.882  28.723  30.547  1.00  0.00     0.124 S 
ATOM     70  O   UNL A   1      51.085  29.441  30.131  1.00  0.00    -0.237 OA
ATOM     71  O   UNL A   1      49.115  29.332  31.627  1.00  0.00    -0.237 OA
ATOM     72  O   UNL A   1      50.028  27.272  30.625  1.00  0.00    -0.744 OA
ENDBRANCH  65  69
ENDBRANCH  48  62
BRANCH  49  73
ATOM     73  C   UNL A   1      37.199  32.329  30.374  1.00  0.00     0.023 A 
ATOM     74  C   UNL A   1      36.308  32.933  29.475  1.00  0.00     0.031 A 
ATOM     75  C   UNL A   1      36.749  32.071  31.681  1.00  0.00     0.131 A 
ATOM     76  C   UNL A   1      35.019  33.291  29.903  1.00  0.00     0.055 A 
ATOM     77  C   UNL A   1      35.454  32.392  32.091  1.00  0.00     0.041 A 
ATOM     78  F   UNL A   1      37.560  31.482  32.574  1.00  0.00    -0.206 F 
ATOM     79  C   UNL A   1      34.584  33.014  31.201  1.00  0.00     0.022 A 
BRANCH  76  80
ATOM     80  S   UNL A   1      33.931  34.170  28.749  1.00  0.00     0.124 S 
ATOM     81  O   UNL A   1      34.787  35.264  28.306  1.00  0.00    -0.237 OA
ATOM     82  O   UNL A   1      33.644  33.137  27.759  1.00  0.00    -0.237 OA
ATOM     83  O   UNL A   1      32.796  34.560  29.583  1.00  0.00    -0.744 OA
ENDBRANCH  76  80
ENDBRANCH  49  73
BRANCH  61  84
ATOM     84  C   UNL A   1      43.234  35.826  30.276  1.00  0.00     0.023 A 
ATOM     85  C   UNL A   1      43.122  36.819  29.286  1.00  0.00     0.031 A 
ATOM     86  C   UNL A   1      43.703  36.209  31.545  1.00  0.00     0.131 A 
ATOM     87  C   UNL A   1      43.535  38.131  29.562  1.00  0.00     0.055 A 
ATOM     88  C   UNL A   1      44.056  37.528  31.831  1.00  0.00     0.041 A 
ATOM     89  F   UNL A   1      43.832  35.303  32.527  1.00  0.00    -0.206 F 
ATOM     90  C   UNL A   1      43.987  38.494  30.832  1.00  0.00     0.022 A 
BRANCH  87  91
ATOM     91  S   UNL A   1      43.578  39.333  28.204  1.00  0.00     0.124 S 
ATOM     92  O   UNL A   1      42.701  38.709  27.218  1.00  0.00    -0.237 OA
ATOM     93  O   UNL A   1      43.066  40.541  28.840  1.00  0.00    -0.237 OA
ATOM     94  O   UNL A   1      44.992  39.380  27.832  1.00  0.00    -0.744 OA
ENDBRANCH  87  91
ENDBRANCH  61  84
ENDBRANCH  35  36
ENDBRANCH  27  30
ENDBRANCH  25  26
ENDBRANCH  24  25
ENDBRANCH  23  24
ENDBRANCH  22  23
ENDBRANCH   1  22
TORSDOF 22
ENDMDL
MODEL 2
REMARK VINA RESULT:      -9.5      4.936      9.887
REMARK SMILES C#CCNC(=O)C[N@@H+](CC(=O)NCCCCCCNC(=O)c1ccc(-c2c3nc(c(-c4cc(S(=O)(=O)[O-])ccc4F)c4ccc([nH]4)c(-c4cc(S(=O)(=O)[O-])ccc4F)c4nc(c(-c5cc(S(=O)(=O)[O-])ccc5F)c5ccc2[nH]5)C=C4)C=C3)cc1)C(C)(C)C
REMARK SMILES IDX 14 1 13 2 12 3 10 4 11 5 9 7 8 8 7 10 5 11 4 12 6 14 3 15
REMARK SMILES IDX 2 16 1 17 85 18 86 19 87 20 88 21 15 22 16 23 17 24 18 25
REMARK SMILES IDX 19 26 20 27 21 29 22 30 23 31 84 32 24 33 83 34 25 35 26 36
REMARK SMILES IDX 27 37 77 38 28 39 82 40 76 41 78 42 29 43 81 44 75 45 74 46
REMARK SMILES IDX 30 48 62 49 42 50 61 51 43 52 46 53 60 54 79 55 44 56 45 57
REMARK SMILES IDX 59 59 80 60 47 61 31 62 32 63 40 64 33 65 39 66 41 67 38 68
REMARK SMILES IDX 34 69 35 70 36 71 37 72 63 73 64 74 72 75 65 76 71 77 73 78
REMARK SMILES IDX 70 79 66 80 67 81 68 82 69 83 48 84 49 85 57 86 50 87 56 88
REMARK SMILES IDX 58 89 55 90 51 91 52 92 53 93 54 94
REMARK H PARENT 12 6 8 9 4 13 19 28 78 47 46 58
REMARK Flexibility Score: inf
ROOT
ATOM      1  C   UNL A   1      31.445  27.300  26.529  1.00  0.00     0.021 C 
ENDROOT
BRANCH   1   2
ATOM      2  C   UNL A   1      30.861  26.042  25.885  1.00  0.00     0.116 C 
BRANCH   2   3
ATOM      3  N   UNL A   1      30.918  24.908  26.789  1.00  0.00    -0.351 N 
ATOM      4  C   UNL A   1      31.280  23.610  26.581  1.00  0.00     0.275 C 
ATOM      5  O   UNL A   1      31.335  22.883  27.580  1.00  0.00    -0.269 OA
ATOM      6  H   UNL A   1      30.648  25.112  27.714  1.00  0.00     0.163 HD
BRANCH   4   7
ATOM      7  C   UNL A   1      31.673  23.073  25.198  1.00  0.00     0.364 C 
BRANCH   7   8
ATOM      8  N   UNL A   1      33.126  22.895  24.911  1.00  0.00    -0.315 N 
ATOM      9  H   UNL A   1      33.166  22.235  24.135  1.00  0.00     0.349 HD
BRANCH   8  10
ATOM     10  C   UNL A   1      33.818  22.241  26.037  1.00  0.00     0.364 C 
BRANCH  10  11
ATOM     11  C   UNL A   1      34.824  21.150  25.690  1.00  0.00     0.275 C 
ATOM     12  N   UNL A   1      34.406  19.935  25.252  1.00  0.00    -0.340 N 
ATOM     13  H   UNL A   1      35.096  19.234  25.219  1.00  0.00     0.164 HD
ATOM     14  O   UNL A   1      36.027  21.307  25.920  1.00  0.00    -0.268 OA
BRANCH  12  15
ATOM     15  C   UNL A   1      33.091  19.536  24.827  1.00  0.00     0.206 C 
BRANCH  15  16
ATOM     16  C   UNL A   1      32.884  18.101  25.283  1.00  0.00    -0.085 C 
ATOM     17  C   UNL A   1      32.706  16.870  25.675  1.00  0.00     0.006 C 
ENDBRANCH  15  16
ENDBRANCH  12  15
ENDBRANCH  10  11
ENDBRANCH   8  10
BRANCH   8  18
ATOM     18  C   UNL A   1      33.839  24.021  24.237  1.00  0.00     0.090 C 
ATOM     19  C   UNL A   1      34.476  25.053  25.194  1.00  0.00     0.078 C 
ATOM     20  C   UNL A   1      34.987  23.493  23.341  1.00  0.00     0.078 C 
ATOM     21  C   UNL A   1      32.881  24.770  23.278  1.00  0.00     0.078 C 
ENDBRANCH   8  18
ENDBRANCH   7   8
ENDBRANCH   4   7
ENDBRANCH   2   3
ENDBRANCH   1   2
BRANCH   1  22
ATOM     22  C   UNL A   1      31.483  28.541  25.640  1.00  0.00     0.002 C 
BRANCH  22  23
ATOM     23  C   UNL A   1      31.867  29.847  26.336  1.00  0.00     0.002 C 
BRANCH  23  24
ATOM     24  C   UNL A   1      32.976  29.749  27.389  1.00  0.00     0.021 C 
BRANCH  24  25
ATOM     25  C   UNL A   1      34.150  30.713  27.214  1.00  0.00     0.116 C 
BRANCH  25  26
ATOM     26  N   UNL A   1      34.027  31.889  28.053  1.00  0.00    -0.352 N 
ATOM     27  C   UNL A   1      34.766  32.292  29.136  1.00  0.00     0.251 C 
ATOM     28  H   UNL A   1      33.293  32.498  27.805  1.00  0.00     0.163 HD
ATOM     29  O   UNL A   1      34.348  33.213  29.834  1.00  0.00    -0.269 OA
BRANCH  27  30
ATOM     30  C   UNL A   1      36.043  31.626  29.479  1.00  0.00     0.039 A 
ATOM     31  C   UNL A   1      36.016  30.556  30.378  1.00  0.00     0.014 A 
ATOM     32  C   UNL A   1      37.267  32.083  28.981  1.00  0.00     0.014 A 
ATOM     33  C   UNL A   1      37.206  29.924  30.749  1.00  0.00     0.010 A 
ATOM     34  C   UNL A   1      38.447  31.410  29.300  1.00  0.00     0.010 A 
ATOM     35  C   UNL A   1      38.431  30.336  30.201  1.00  0.00    -0.014 A 
BRANCH  35  36
ATOM     36  C   UNL A   1      39.698  29.670  30.598  1.00  0.00     0.031 A 
ATOM     37  C   UNL A   1      40.478  30.167  31.786  1.00  0.00     0.074 A 
ATOM     38  C   UNL A   1      40.170  28.644  29.862  1.00  0.00     0.049 A 
ATOM     39  N   UNL A   1      41.604  29.724  32.283  1.00  0.00    -0.248 NA
ATOM     40  C   UNL A   1      39.931  31.338  32.485  1.00  0.00     0.031 C 
ATOM     41  C   UNL A   1      39.542  28.118  28.649  1.00  0.00     0.029 A 
ATOM     42  N   UNL A   1      41.291  27.869  30.019  1.00  0.00    -0.354 N 
ATOM     43  C   UNL A   1      41.912  30.573  33.343  1.00  0.00     0.074 A 
ATOM     44  C   UNL A   1      40.883  31.592  33.370  1.00  0.00     0.031 C 
ATOM     45  C   UNL A   1      40.279  27.100  28.179  1.00  0.00     0.029 A 
ATOM     46  C   UNL A   1      41.442  26.915  29.042  1.00  0.00     0.049 A 
ATOM     47  H   UNL A   1      41.927  27.986  30.762  1.00  0.00     0.167 HD
ATOM     48  C   UNL A   1      42.942  30.497  34.224  1.00  0.00     0.034 A 
ATOM     49  C   UNL A   1      42.410  25.994  28.860  1.00  0.00     0.034 A 
ATOM     50  C   UNL A   1      43.951  29.464  34.188  1.00  0.00     0.049 A 
ATOM     51  C   UNL A   1      43.521  25.895  29.870  1.00  0.00     0.074 A 
ATOM     52  C   UNL A   1      44.994  29.243  35.070  1.00  0.00     0.029 A 
ATOM     53  N   UNL A   1      44.048  28.483  33.208  1.00  0.00    -0.354 N 
ATOM     54  N   UNL A   1      43.753  26.653  30.918  1.00  0.00    -0.248 NA
ATOM     55  C   UNL A   1      44.483  24.803  29.689  1.00  0.00     0.031 C 
ATOM     56  C   UNL A   1      45.756  28.170  34.591  1.00  0.00     0.029 A 
ATOM     57  C   UNL A   1      45.149  27.673  33.449  1.00  0.00     0.049 A 
ATOM     58  H   UNL A   1      43.426  28.377  32.453  1.00  0.00     0.167 HD
ATOM     59  C   UNL A   1      44.879  26.113  31.533  1.00  0.00     0.074 A 
ATOM     60  C   UNL A   1      45.263  24.956  30.750  1.00  0.00     0.031 C 
ATOM     61  C   UNL A   1      45.535  26.535  32.645  1.00  0.00     0.034 A 
BRANCH  48  62
ATOM     62  C   UNL A   1      43.033  31.581  35.275  1.00  0.00     0.023 A 
ATOM     63  C   UNL A   1      42.174  31.608  36.387  1.00  0.00     0.031 A 
ATOM     64  C   UNL A   1      43.955  32.635  35.134  1.00  0.00     0.131 A 
ATOM     65  C   UNL A   1      42.184  32.710  37.257  1.00  0.00     0.055 A 
ATOM     66  C   UNL A   1      44.021  33.685  36.054  1.00  0.00     0.041 A 
ATOM     67  F   UNL A   1      44.792  32.677  34.086  1.00  0.00    -0.206 F 
ATOM     68  C   UNL A   1      43.119  33.737  37.112  1.00  0.00     0.022 A 
BRANCH  65  69
ATOM     69  S   UNL A   1      40.846  32.865  38.473  1.00  0.00     0.124 S 
ATOM     70  O   UNL A   1      40.675  34.315  38.541  1.00  0.00    -0.237 OA
ATOM     71  O   UNL A   1      39.761  32.121  37.844  1.00  0.00    -0.237 OA
ATOM     72  O   UNL A   1      41.405  32.255  39.678  1.00  0.00    -0.744 OA
ENDBRANCH  65  69
ENDBRANCH  48  62
BRANCH  49  73
ATOM     73  C   UNL A   1      42.365  25.094  27.674  1.00  0.00     0.023 A 
ATOM     74  C   UNL A   1      41.620  23.905  27.688  1.00  0.00     0.031 A 
ATOM     75  C   UNL A   1      43.080  25.414  26.506  1.00  0.00     0.131 A 
ATOM     76  C   UNL A   1      41.632  23.060  26.567  1.00  0.00     0.055 A 
ATOM     77  C   UNL A   1      43.055  24.592  25.379  1.00  0.00     0.041 A 
ATOM     78  F   UNL A   1      43.795  26.548  26.438  1.00  0.00    -0.206 F 
ATOM     79  C   UNL A   1      42.336  23.402  25.409  1.00  0.00     0.022 A 
BRANCH  76  80
ATOM     80  S   UNL A   1      40.750  21.478  26.659  1.00  0.00     0.124 S 
ATOM     81  O   UNL A   1      40.786  21.198  28.089  1.00  0.00    -0.237 OA
ATOM     82  O   UNL A   1      39.445  21.828  26.105  1.00  0.00    -0.237 OA
ATOM     83  O   UNL A   1      41.557  20.590  25.825  1.00  0.00    -0.744 OA
ENDBRANCH  76  80
ENDBRANCH  49  73
BRANCH  61  84
ATOM     84  C   UNL A   1      46.720  25.712  33.088  1.00  0.00     0.023 A 
ATOM     85  C   UNL A   1      46.571  24.595  33.929  1.00  0.00     0.031 A 
ATOM     86  C   UNL A   1      48.020  26.069  32.689  1.00  0.00     0.131 A 
ATOM     87  C   UNL A   1      47.705  23.914  34.396  1.00  0.00     0.055 A 
ATOM     88  C   UNL A   1      49.141  25.351  33.108  1.00  0.00     0.041 A 
ATOM     89  F   UNL A   1      48.223  27.128  31.888  1.00  0.00    -0.206 F 
ATOM     90  C   UNL A   1      48.988  24.276  33.978  1.00  0.00     0.022 A 
BRANCH  87  91
ATOM     91  S   UNL A   1      47.488  22.616  35.644  1.00  0.00     0.124 S 
ATOM     92  O   UNL A   1      48.702  22.756  36.443  1.00  0.00    -0.237 OA
ATOM     93  O   UNL A   1      46.246  23.015  36.296  1.00  0.00    -0.237 OA
ATOM     94  O   UNL A   1      47.407  21.389  34.852  1.00  0.00    -0.744 OA
ENDBRANCH  87  91
ENDBRANCH  61  84
ENDBRANCH  35  36
ENDBRANCH  27  30
ENDBRANCH  25  26
ENDBRANCH  24  25
ENDBRANCH  23  24
ENDBRANCH  22  23
ENDBRANCH   1  22
TORSDOF 22
ENDMDL
MODEL 3
REMARK VINA RESULT:      -9.4      5.206      8.194
REMARK SMILES C#CCNC(=O)C[N@@H+](CC(=O)NCCCCCCNC(=O)c1ccc(-c2c3nc(c(-c4cc(S(=O)(=O)[O-])ccc4F)c4ccc([nH]4)c(-c4cc(S(=O)(=O)[O-])ccc4F)c4nc(c(-c5cc(S(=O)(=O)[O-])ccc5F)c5ccc2[nH]5)C=C4)C=C3)cc1)C(C)(C)C
REMARK SMILES IDX 14 1 13 2 12 3 10 4 11 5 9 7 8 8 7 10 5 11 4 12 6 14 3 15
REMARK SMILES IDX 2 16 1 17 85 18 86 19 87 20 88 21 15 22 16 23 17 24 18 25
REMARK SMILES IDX 19 26 20 27 21 29 22 30 23 31 84 32 24 33 83 34 25 35 26 36
REMARK SMILES IDX 27 37 77 38 28 39 82 40 76 41 78 42 29 43 81 44 75 45 74 46
REMARK SMILES IDX 30 48 62 49 42 50 61 51 43 52 46 53 60 54 79 55 44 56 45 57
REMARK SMILES IDX 59 59 80 60 47 61 31 62 32 63 40 64 33 65 39 66 41 67 38 68
REMARK SMILES IDX 34 69 35 70 36 71 37 72 63 73 64 74 72 75 65 76 71 77 73 78
REMARK SMILES IDX 70 79 66 80 67 81 68 82 69 83 48 84 49 85 57 86 50 87 56 88
REMARK SMILES IDX 58 89 55 90 51 91 52 92 53 93 54 94
REMARK H PARENT 12 6 8 9 4 13 19 28 78 47 46 58
REMARK Flexibility Score: inf
ROOT
ATOM      1  C   UNL A   1      30.779  26.407  24.122  1.00  0.00     0.021 C 
ENDROOT
BRANCH   1   2
ATOM      2  C   UNL A   1      30.816  25.013  23.495  1.00  0.00     0.116 C 
BRANCH   2   3
ATOM      3  N   UNL A   1      30.523  23.983  24.473  1.00  0.00    -0.351 N 
ATOM      4  C   UNL A   1      31.328  23.324  25.354  1.00  0.00     0.275 C 
ATOM      5  O   UNL A   1      30.771  22.563  26.153  1.00  0.00    -0.269 OA
ATOM      6  H   UNL A   1      29.576  23.712  24.507  1.00  0.00     0.163 HD
BRANCH   4   7
ATOM      7  C   UNL A   1      32.845  23.553  25.418  1.00  0.00     0.364 C 
BRANCH   7   8
ATOM      8  N   UNL A   1      33.709  22.729  24.524  1.00  0.00    -0.315 N 
ATOM      9  H   UNL A   1      33.061  22.169  23.970  1.00  0.00     0.349 HD
BRANCH   8  10
ATOM     10  C   UNL A   1      34.518  21.770  25.297  1.00  0.00     0.364 C 
BRANCH  10  11
ATOM     11  C   UNL A   1      33.837  21.085  26.477  1.00  0.00     0.275 C 
ATOM     12  N   UNL A   1      32.891  20.132  26.274  1.00  0.00    -0.340 N 
ATOM     13  H   UNL A   1      32.377  19.866  27.069  1.00  0.00     0.164 HD
ATOM     14  O   UNL A   1      34.041  21.469  27.631  1.00  0.00    -0.268 OA
BRANCH  12  15
ATOM     15  C   UNL A   1      32.541  19.458  25.052  1.00  0.00     0.206 C 
BRANCH  15  16
ATOM     16  C   UNL A   1      32.905  17.992  25.222  1.00  0.00    -0.085 C 
ATOM     17  C   UNL A   1      33.218  16.735  25.368  1.00  0.00     0.006 C 
ENDBRANCH  15  16
ENDBRANCH  12  15
ENDBRANCH  10  11
ENDBRANCH   8  10
BRANCH   8  18
ATOM     18  C   UNL A   1      34.380  23.421  23.384  1.00  0.00     0.090 C 
ATOM     19  C   UNL A   1      35.833  22.970  23.114  1.00  0.00     0.078 C 
ATOM     20  C   UNL A   1      33.604  23.195  22.063  1.00  0.00     0.078 C 
ATOM     21  C   UNL A   1      34.378  24.953  23.605  1.00  0.00     0.078 C 
ENDBRANCH   8  18
ENDBRANCH   7   8
ENDBRANCH   4   7
ENDBRANCH   2   3
ENDBRANCH   1   2
BRANCH   1  22
ATOM     22  C   UNL A   1      30.551  26.446  25.632  1.00  0.00     0.002 C 
BRANCH  22  23
ATOM     23  C   UNL A   1      31.717  26.973  26.467  1.00  0.00     0.002 C 
BRANCH  23  24
ATOM     24  C   UNL A   1      31.695  28.472  26.788  1.00  0.00     0.021 C 
BRANCH  24  25
ATOM     25  C   UNL A   1      32.671  29.339  25.993  1.00  0.00     0.116 C 
BRANCH  25  26
ATOM     26  N   UNL A   1      32.428  30.757  26.182  1.00  0.00    -0.352 N 
ATOM     27  C   UNL A   1      33.017  31.656  27.035  1.00  0.00     0.251 C 
ATOM     28  H   UNL A   1      31.725  31.135  25.604  1.00  0.00     0.163 HD
ATOM     29  O   UNL A   1      32.502  32.761  27.183  1.00  0.00    -0.269 OA
BRANCH  27  30
ATOM     30  C   UNL A   1      34.246  31.306  27.782  1.00  0.00     0.039 A 
ATOM     31  C   UNL A   1      34.362  30.016  28.306  1.00  0.00     0.014 A 
ATOM     32  C   UNL A   1      35.248  32.250  28.029  1.00  0.00     0.014 A 
ATOM     33  C   UNL A   1      35.495  29.662  29.044  1.00  0.00     0.010 A 
ATOM     34  C   UNL A   1      36.408  31.876  28.709  1.00  0.00     0.010 A 
ATOM     35  C   UNL A   1      36.535  30.584  29.239  1.00  0.00    -0.014 A 
BRANCH  35  36
ATOM     36  C   UNL A   1      37.737  30.212  30.028  1.00  0.00     0.031 A 
ATOM     37  C   UNL A   1      38.774  29.289  29.443  1.00  0.00     0.074 A 
ATOM     38  C   UNL A   1      37.875  30.669  31.288  1.00  0.00     0.049 A 
ATOM     39  N   UNL A   1      39.883  28.844  29.976  1.00  0.00    -0.248 NA
ATOM     40  C   UNL A   1      38.506  28.775  28.093  1.00  0.00     0.031 C 
ATOM     41  C   UNL A   1      36.906  31.512  31.990  1.00  0.00     0.029 A 
ATOM     42  N   UNL A   1      38.878  30.482  32.205  1.00  0.00    -0.354 N 
ATOM     43  C   UNL A   1      40.439  27.983  29.033  1.00  0.00     0.074 A 
ATOM     44  C   UNL A   1      39.507  27.924  27.926  1.00  0.00     0.031 C 
ATOM     45  C   UNL A   1      37.366  31.779  33.222  1.00  0.00     0.029 A 
ATOM     46  C   UNL A   1      38.650  31.110  33.407  1.00  0.00     0.049 A 
ATOM     47  H   UNL A   1      39.685  29.948  32.020  1.00  0.00     0.167 HD
ATOM     48  C   UNL A   1      41.625  27.323  29.076  1.00  0.00     0.034 A 
ATOM     49  C   UNL A   1      39.391  31.141  34.532  1.00  0.00     0.034 A 
ATOM     50  C   UNL A   1      42.547  27.406  30.184  1.00  0.00     0.049 A 
ATOM     51  C   UNL A   1      40.723  30.440  34.548  1.00  0.00     0.074 A 
ATOM     52  C   UNL A   1      43.805  26.844  30.306  1.00  0.00     0.029 A 
ATOM     53  N   UNL A   1      42.303  28.090  31.371  1.00  0.00    -0.354 N 
ATOM     54  N   UNL A   1      41.275  29.698  33.615  1.00  0.00    -0.248 NA
ATOM     55  C   UNL A   1      41.541  30.603  35.754  1.00  0.00     0.031 C 
ATOM     56  C   UNL A   1      44.295  27.136  31.586  1.00  0.00     0.029 A 
ATOM     57  C   UNL A   1      43.375  27.940  32.239  1.00  0.00     0.049 A 
ATOM     58  H   UNL A   1      41.489  28.607  31.566  1.00  0.00     0.167 HD
ATOM     59  C   UNL A   1      42.518  29.322  34.118  1.00  0.00     0.074 A 
ATOM     60  C   UNL A   1      42.639  29.938  35.424  1.00  0.00     0.031 C 
ATOM     61  C   UNL A   1      43.473  28.540  33.550  1.00  0.00     0.034 A 
BRANCH  48  62
ATOM     62  C   UNL A   1      41.963  26.435  27.900  1.00  0.00     0.023 A 
ATOM     63  C   UNL A   1      41.616  25.072  27.877  1.00  0.00     0.031 A 
ATOM     64  C   UNL A   1      42.693  26.942  26.809  1.00  0.00     0.131 A 
ATOM     65  C   UNL A   1      42.079  24.246  26.842  1.00  0.00     0.055 A 
ATOM     66  C   UNL A   1      43.075  26.132  25.737  1.00  0.00     0.041 A 
ATOM     67  F   UNL A   1      43.070  28.230  26.777  1.00  0.00    -0.206 F 
ATOM     68  C   UNL A   1      42.787  24.771  25.759  1.00  0.00     0.022 A 
BRANCH  65  69
ATOM     69  S   UNL A   1      41.895  22.450  27.021  1.00  0.00     0.124 S 
ATOM     70  O   UNL A   1      42.010  22.284  28.469  1.00  0.00    -0.237 OA
ATOM     71  O   UNL A   1      40.574  22.211  26.453  1.00  0.00    -0.237 OA
ATOM     72  O   UNL A   1      43.013  21.911  26.249  1.00  0.00    -0.744 OA
ENDBRANCH  65  69
ENDBRANCH  48  62
BRANCH  49  73
ATOM     73  C   UNL A   1      38.889  31.866  35.732  1.00  0.00     0.023 A 
ATOM     74  C   UNL A   1      38.218  31.194  36.764  1.00  0.00     0.031 A 
ATOM     75  C   UNL A   1      39.072  33.256  35.856  1.00  0.00     0.131 A 
ATOM     76  C   UNL A   1      37.724  31.915  37.863  1.00  0.00     0.055 A 
ATOM     77  C   UNL A   1      38.615  33.962  36.970  1.00  0.00     0.041 A 
ATOM     78  F   UNL A   1      39.721  33.942  34.902  1.00  0.00    -0.206 F 
ATOM     79  C   UNL A   1      37.928  33.292  37.977  1.00  0.00     0.022 A 
BRANCH  76  80
ATOM     80  S   UNL A   1      36.766  31.032  39.124  1.00  0.00     0.124 S 
ATOM     81  O   UNL A   1      35.566  31.855  39.218  1.00  0.00    -0.237 OA
ATOM     82  O   UNL A   1      36.598  29.719  38.511  1.00  0.00    -0.237 OA
ATOM     83  O   UNL A   1      37.638  31.060  40.296  1.00  0.00    -0.744 OA
ENDBRANCH  76  80
ENDBRANCH  49  73
BRANCH  61  84
ATOM     84  C   UNL A   1      44.743  28.338  34.340  1.00  0.00     0.023 A 
ATOM     85  C   UNL A   1      44.920  27.227  35.183  1.00  0.00     0.031 A 
ATOM     86  C   UNL A   1      45.779  29.287  34.272  1.00  0.00     0.131 A 
ATOM     87  C   UNL A   1      46.075  27.125  35.973  1.00  0.00     0.055 A 
ATOM     88  C   UNL A   1      46.952  29.149  35.014  1.00  0.00     0.041 A 
ATOM     89  F   UNL A   1      45.663  30.369  33.485  1.00  0.00    -0.206 F 
ATOM     90  C   UNL A   1      47.098  28.071  35.882  1.00  0.00     0.022 A 
BRANCH  87  91
ATOM     91  S   UNL A   1      46.173  25.795  37.203  1.00  0.00     0.124 S 
ATOM     92  O   UNL A   1      44.844  25.199  37.113  1.00  0.00    -0.237 OA
ATOM     93  O   UNL A   1      47.273  24.981  36.695  1.00  0.00    -0.237 OA
ATOM     94  O   UNL A   1      46.451  26.503  38.452  1.00  0.00    -0.744 OA
ENDBRANCH  87  91
ENDBRANCH  61  84
ENDBRANCH  35  36
ENDBRANCH  27  30
ENDBRANCH  25  26
ENDBRANCH  24  25
ENDBRANCH  23  24
ENDBRANCH  22  23
ENDBRANCH   1  22
TORSDOF 22
ENDMDL
