MODEL 1
REMARK VINA RESULT:     -10.5      0.000      0.000
REMARK SMILES CCCN(CC)c1ccnc(C(=O)NCCCCCCNC(=O)c2ccc(-c3c4nc(c(-c5cc(S(=O)(=O)[O-])ccc5F)c5ccc([nH]5)c(-c5cc(S(=O)(=O)[O-])ccc5F)c5nc(c(-c6cc(S(=O)(=O)[O-])ccc6F)c6ccc3[nH]6)C=C5)C=C4)cc2)c1
REMARK SMILES IDX 17 1 16 2 15 3 14 4 12 5 13 6 11 8 7 9 8 10 87 11 9 12 10 13
REMARK SMILES IDX 4 14 3 15 2 16 1 17 5 18 6 19 18 20 19 21 20 22 21 23 22 24
REMARK SMILES IDX 23 26 24 27 25 28 86 29 26 30 85 31 27 32 28 33 29 34 79 35
REMARK SMILES IDX 30 36 84 37 78 38 80 39 31 40 83 41 77 42 76 43 32 45 64 46
REMARK SMILES IDX 44 47 63 48 45 49 48 50 62 51 81 52 46 53 47 54 61 56 82 57
REMARK SMILES IDX 49 58 33 59 34 60 42 61 35 62 41 63 43 64 40 65 36 66 37 67
REMARK SMILES IDX 38 68 39 69 65 70 66 71 74 72 67 73 73 74 75 75 72 76 68 77
REMARK SMILES IDX 69 78 70 79 71 80 50 81 51 82 59 83 52 84 58 85 60 86 57 87
REMARK SMILES IDX 53 88 54 89 55 90 56 91
REMARK H PARENT 14 7 21 25 80 44 48 55
REMARK Flexibility Score: inf
ROOT
ATOM      1  C   UNL A   1      34.178  20.142  25.239  1.00  0.00     0.002 C 
ENDROOT
BRANCH   1   2
ATOM      2  C   UNL A   1      33.186  20.739  24.234  1.00  0.00     0.021 C 
BRANCH   2   3
ATOM      3  C   UNL A   1      32.079  21.547  24.913  1.00  0.00     0.116 C 
BRANCH   3   4
ATOM      4  N   UNL A   1      32.380  21.706  26.321  1.00  0.00    -0.351 N 
ATOM      5  C   UNL A   1      32.301  22.792  27.165  1.00  0.00     0.269 C 
ATOM      6  O   UNL A   1      32.638  22.614  28.337  1.00  0.00    -0.268 OA
ATOM      7  H   UNL A   1      32.701  20.883  26.757  1.00  0.00     0.163 HD
BRANCH   5   8
ATOM      8  C   UNL A   1      31.766  24.124  26.725  1.00  0.00     0.130 A 
ATOM      9  C   UNL A   1      32.007  26.352  25.859  1.00  0.00     0.040 A 
ATOM     10  C   UNL A   1      30.623  26.381  25.706  1.00  0.00     0.046 A 
ATOM     11  C   UNL A   1      32.577  25.216  26.436  1.00  0.00     0.060 A 
ATOM     12  C   UNL A   1      29.874  25.295  26.118  1.00  0.00     0.114 A 
ATOM     13  N   UNL A   1      30.413  24.163  26.600  1.00  0.00    -0.251 NA
BRANCH   9  14
ATOM     14  N   UNL A   1      32.792  27.392  25.402  1.00  0.00    -0.372 N 
BRANCH  14  15
ATOM     15  C   UNL A   1      33.669  27.233  24.240  1.00  0.00     0.116 C 
BRANCH  15  16
ATOM     16  C   UNL A   1      33.702  28.490  23.364  1.00  0.00     0.018 C 
ATOM     17  C   UNL A   1      34.054  28.178  21.914  1.00  0.00     0.006 C 
ENDBRANCH  15  16
ENDBRANCH  14  15
BRANCH  14  18
ATOM     18  C   UNL A   1      32.749  28.678  26.100  1.00  0.00     0.113 C 
ATOM     19  C   UNL A   1      33.473  28.614  27.437  1.00  0.00     0.027 C 
ENDBRANCH  14  18
ENDBRANCH   9  14
ENDBRANCH   5   8
ENDBRANCH   3   4
ENDBRANCH   2   3
ENDBRANCH   1   2
BRANCH   1  20
ATOM     20  C   UNL A   1      35.651  20.446  24.930  1.00  0.00     0.002 C 
BRANCH  20  21
ATOM     21  C   UNL A   1      35.969  21.924  24.685  1.00  0.00     0.021 C 
BRANCH  21  22
ATOM     22  C   UNL A   1      37.064  22.492  25.583  1.00  0.00     0.116 C 
BRANCH  22  23
ATOM     23  N   UNL A   1      38.029  21.472  25.957  1.00  0.00    -0.352 N 
ATOM     24  C   UNL A   1      39.324  21.612  26.376  1.00  0.00     0.251 C 
ATOM     25  H   UNL A   1      37.703  20.545  25.902  1.00  0.00     0.163 HD
ATOM     26  O   UNL A   1      40.060  20.624  26.404  1.00  0.00    -0.269 OA
BRANCH  24  27
ATOM     27  C   UNL A   1      39.841  22.936  26.784  1.00  0.00     0.039 A 
ATOM     28  C   UNL A   1      39.434  24.067  26.072  1.00  0.00     0.014 A 
ATOM     29  C   UNL A   1      40.761  23.060  27.830  1.00  0.00     0.014 A 
ATOM     30  C   UNL A   1      39.920  25.326  26.432  1.00  0.00     0.010 A 
ATOM     31  C   UNL A   1      41.191  24.322  28.231  1.00  0.00     0.010 A 
ATOM     32  C   UNL A   1      40.788  25.466  27.526  1.00  0.00    -0.014 A 
BRANCH  32  33
ATOM     33  C   UNL A   1      41.308  26.801  27.922  1.00  0.00     0.031 A 
ATOM     34  C   UNL A   1      42.737  27.171  27.624  1.00  0.00     0.074 A 
ATOM     35  C   UNL A   1      40.508  27.658  28.583  1.00  0.00     0.049 A 
ATOM     36  N   UNL A   1      43.391  28.261  27.929  1.00  0.00    -0.248 NA
ATOM     37  C   UNL A   1      43.544  26.165  26.916  1.00  0.00     0.031 C 
ATOM     38  C   UNL A   1      39.118  27.394  28.961  1.00  0.00     0.029 A 
ATOM     39  N   UNL A   1      40.746  28.923  29.060  1.00  0.00    -0.354 N 
ATOM     40  C   UNL A   1      44.688  28.070  27.462  1.00  0.00     0.074 A 
ATOM     41  C   UNL A   1      44.741  26.732  26.913  1.00  0.00     0.031 C 
ATOM     42  C   UNL A   1      38.619  28.473  29.586  1.00  0.00     0.029 A 
ATOM     43  C   UNL A   1      39.662  29.489  29.691  1.00  0.00     0.049 A 
ATOM     44  H   UNL A   1      41.610  29.382  28.959  1.00  0.00     0.167 HD
ATOM     45  C   UNL A   1      45.730  28.939  27.468  1.00  0.00     0.034 A 
ATOM     46  C   UNL A   1      39.527  30.688  30.291  1.00  0.00     0.034 A 
ATOM     47  C   UNL A   1      45.653  30.276  28.008  1.00  0.00     0.049 A 
ATOM     48  C   UNL A   1      40.700  31.635  30.293  1.00  0.00     0.074 A 
ATOM     49  C   UNL A   1      46.629  31.257  28.027  1.00  0.00     0.029 A 
ATOM     50  N   UNL A   1      44.534  30.819  28.629  1.00  0.00    -0.354 N 
ATOM     51  N   UNL A   1      41.906  31.456  29.805  1.00  0.00    -0.248 NA
ATOM     52  C   UNL A   1      40.487  32.951  30.907  1.00  0.00     0.031 C 
ATOM     53  C   UNL A   1      46.124  32.366  28.713  1.00  0.00     0.029 A 
ATOM     54  C   UNL A   1      44.806  32.111  29.055  1.00  0.00     0.049 A 
ATOM     55  H   UNL A   1      43.675  30.355  28.748  1.00  0.00     0.167 HD
ATOM     56  C   UNL A   1      42.584  32.653  30.024  1.00  0.00     0.074 A 
ATOM     57  C   UNL A   1      41.647  33.547  30.674  1.00  0.00     0.031 C 
ATOM     58  C   UNL A   1      43.862  32.987  29.708  1.00  0.00     0.034 A 
BRANCH  45  59
ATOM     59  C   UNL A   1      47.043  28.455  26.896  1.00  0.00     0.023 A 
ATOM     60  C   UNL A   1      47.251  28.349  25.509  1.00  0.00     0.031 A 
ATOM     61  C   UNL A   1      48.091  28.065  27.748  1.00  0.00     0.131 A 
ATOM     62  C   UNL A   1      48.441  27.791  25.018  1.00  0.00     0.055 A 
ATOM     63  C   UNL A   1      49.308  27.590  27.250  1.00  0.00     0.041 A 
ATOM     64  F   UNL A   1      47.947  28.121  29.081  1.00  0.00    -0.206 F 
ATOM     65  C   UNL A   1      49.481  27.435  25.879  1.00  0.00     0.022 A 
BRANCH  62  66
ATOM     66  S   UNL A   1      48.548  27.396  23.251  1.00  0.00     0.124 S 
ATOM     67  O   UNL A   1      47.414  28.145  22.714  1.00  0.00    -0.237 OA
ATOM     68  O   UNL A   1      49.871  27.898  22.896  1.00  0.00    -0.237 OA
ATOM     69  O   UNL A   1      48.400  25.944  23.215  1.00  0.00    -0.744 OA
ENDBRANCH  62  66
ENDBRANCH  45  59
BRANCH  46  70
ATOM     70  C   UNL A   1      38.238  31.067  30.938  1.00  0.00     0.023 A 
ATOM     71  C   UNL A   1      37.233  31.728  30.214  1.00  0.00     0.031 A 
ATOM     72  C   UNL A   1      38.006  30.804  32.299  1.00  0.00     0.131 A 
ATOM     73  C   UNL A   1      36.062  32.148  30.866  1.00  0.00     0.055 A 
ATOM     74  C   UNL A   1      36.817  31.176  32.931  1.00  0.00     0.041 A 
ATOM     75  F   UNL A   1      38.930  30.166  33.035  1.00  0.00    -0.206 F 
ATOM     76  C   UNL A   1      35.842  31.865  32.216  1.00  0.00     0.022 A 
BRANCH  73  77
ATOM     77  S   UNL A   1      34.865  33.147  29.940  1.00  0.00     0.124 S 
ATOM     78  O   UNL A   1      34.247  32.146  29.078  1.00  0.00    -0.237 OA
ATOM     79  O   UNL A   1      34.027  33.680  31.009  1.00  0.00    -0.237 OA
ATOM     80  O   UNL A   1      35.701  34.130  29.256  1.00  0.00    -0.744 OA
ENDBRANCH  73  77
ENDBRANCH  46  70
BRANCH  58  81
ATOM     81  C   UNL A   1      44.297  34.399  30.017  1.00  0.00     0.023 A 
ATOM     82  C   UNL A   1      44.142  35.444  29.090  1.00  0.00     0.031 A 
ATOM     83  C   UNL A   1      44.889  34.696  31.258  1.00  0.00     0.131 A 
ATOM     84  C   UNL A   1      44.628  36.725  29.394  1.00  0.00     0.055 A 
ATOM     85  C   UNL A   1      45.315  35.986  31.578  1.00  0.00     0.041 A 
ATOM     86  F   UNL A   1      45.063  33.736  32.179  1.00  0.00    -0.206 F 
ATOM     87  C   UNL A   1      45.198  37.006  30.639  1.00  0.00     0.022 A 
BRANCH  84  88
ATOM     88  S   UNL A   1      44.592  37.999  28.103  1.00  0.00     0.124 S 
ATOM     89  O   UNL A   1      45.958  37.950  27.590  1.00  0.00    -0.237 OA
ATOM     90  O   UNL A   1      43.557  37.502  27.204  1.00  0.00    -0.237 OA
ATOM     91  O   UNL A   1      44.248  39.217  28.833  1.00  0.00    -0.744 OA
ENDBRANCH  84  88
ENDBRANCH  58  81
ENDBRANCH  32  33
ENDBRANCH  24  27
ENDBRANCH  22  23
ENDBRANCH  21  22
ENDBRANCH  20  21
ENDBRANCH   1  20
TORSDOF 20
ENDMDL
MODEL 2
REMARK VINA RESULT:     -10.2      4.748      9.974
REMARK SMILES CCCN(CC)c1ccnc(C(=O)NCCCCCCNC(=O)c2ccc(-c3c4nc(c(-c5cc(S(=O)(=O)[O-])ccc5F)c5ccc([nH]5)c(-c5cc(S(=O)(=O)[O-])ccc5F)c5nc(c(-c6cc(S(=O)(=O)[O-])ccc6F)c6ccc3[nH]6)C=C5)C=C4)cc2)c1
REMARK SMILES IDX 17 1 16 2 15 3 14 4 12 5 13 6 11 8 7 9 8 10 87 11 9 12 10 13
REMARK SMILES IDX 4 14 3 15 2 16 1 17 5 18 6 19 18 20 19 21 20 22 21 23 22 24
REMARK SMILES IDX 23 26 24 27 25 28 86 29 26 30 85 31 27 32 28 33 29 34 79 35
REMARK SMILES IDX 30 36 84 37 78 38 80 39 31 40 83 41 77 42 76 43 32 45 64 46
REMARK SMILES IDX 44 47 63 48 45 49 48 50 62 51 81 52 46 53 47 54 61 56 82 57
REMARK SMILES IDX 49 58 33 59 34 60 42 61 35 62 41 63 43 64 40 65 36 66 37 67
REMARK SMILES IDX 38 68 39 69 65 70 66 71 74 72 67 73 73 74 75 75 72 76 68 77
REMARK SMILES IDX 69 78 70 79 71 80 50 81 51 82 59 83 52 84 58 85 60 86 57 87
REMARK SMILES IDX 53 88 54 89 55 90 56 91
REMARK H PARENT 14 7 21 25 80 44 48 55
REMARK Flexibility Score: inf
ROOT
ATOM      1  C   UNL A   1      30.943  28.432  24.941  1.00  0.00     0.002 C 
ENDROOT
BRANCH   1   2
ATOM      2  C   UNL A   1      30.525  26.962  24.813  1.00  0.00     0.021 C 
BRANCH   2   3
ATOM      3  C   UNL A   1      31.464  26.017  25.565  1.00  0.00     0.116 C 
BRANCH   3   4
ATOM      4  N   UNL A   1      30.693  25.120  26.400  1.00  0.00    -0.351 N 
ATOM      5  C   UNL A   1      30.753  23.756  26.590  1.00  0.00     0.269 C 
ATOM      6  O   UNL A   1      29.942  23.266  27.379  1.00  0.00    -0.268 OA
ATOM      7  H   UNL A   1      29.994  25.567  26.931  1.00  0.00     0.163 HD
BRANCH   5   8
ATOM      8  C   UNL A   1      31.791  22.891  25.938  1.00  0.00     0.130 A 
ATOM      9  C   UNL A   1      34.020  22.426  25.169  1.00  0.00     0.040 A 
ATOM     10  C   UNL A   1      33.618  21.104  24.984  1.00  0.00     0.046 A 
ATOM     11  C   UNL A   1      33.062  23.345  25.601  1.00  0.00     0.060 A 
ATOM     12  C   UNL A   1      32.306  20.755  25.238  1.00  0.00     0.114 A 
ATOM     13  N   UNL A   1      31.393  21.608  25.731  1.00  0.00    -0.251 NA
BRANCH   9  14
ATOM     14  N   UNL A   1      35.337  22.799  24.985  1.00  0.00    -0.372 N 
BRANCH  14  15
ATOM     15  C   UNL A   1      36.197  23.146  26.118  1.00  0.00     0.116 C 
BRANCH  15  16
ATOM     16  C   UNL A   1      37.651  23.375  25.690  1.00  0.00     0.018 C 
ATOM     17  C   UNL A   1      38.436  24.184  26.715  1.00  0.00     0.006 C 
ENDBRANCH  15  16
ENDBRANCH  14  15
BRANCH  14  18
ATOM     18  C   UNL A   1      35.878  22.853  23.626  1.00  0.00     0.113 C 
ATOM     19  C   UNL A   1      34.868  23.425  22.643  1.00  0.00     0.027 C 
ENDBRANCH  14  18
ENDBRANCH   9  14
ENDBRANCH   5   8
ENDBRANCH   3   4
ENDBRANCH   2   3
ENDBRANCH   1   2
BRANCH   1  20
ATOM     20  C   UNL A   1      31.964  28.892  23.891  1.00  0.00     0.002 C 
BRANCH  20  21
ATOM     21  C   UNL A   1      33.364  29.188  24.437  1.00  0.00     0.021 C 
BRANCH  21  22
ATOM     22  C   UNL A   1      33.428  29.367  25.951  1.00  0.00     0.116 C 
BRANCH  22  23
ATOM     23  N   UNL A   1      33.199  30.750  26.335  1.00  0.00    -0.352 N 
ATOM     24  C   UNL A   1      33.815  31.498  27.301  1.00  0.00     0.251 C 
ATOM     25  H   UNL A   1      32.498  31.217  25.825  1.00  0.00     0.163 HD
ATOM     26  O   UNL A   1      33.312  32.569  27.648  1.00  0.00    -0.269 OA
BRANCH  24  27
ATOM     27  C   UNL A   1      35.067  31.025  27.930  1.00  0.00     0.039 A 
ATOM     28  C   UNL A   1      35.090  29.758  28.517  1.00  0.00     0.014 A 
ATOM     29  C   UNL A   1      36.199  31.844  27.987  1.00  0.00     0.014 A 
ATOM     30  C   UNL A   1      36.258  29.297  29.128  1.00  0.00     0.010 A 
ATOM     31  C   UNL A   1      37.383  31.356  28.535  1.00  0.00     0.010 A 
ATOM     32  C   UNL A   1      37.420  30.085  29.126  1.00  0.00    -0.014 A 
BRANCH  32  33
ATOM     33  C   UNL A   1      38.670  29.603  29.768  1.00  0.00     0.031 A 
ATOM     34  C   UNL A   1      39.080  30.140  31.114  1.00  0.00     0.074 A 
ATOM     35  C   UNL A   1      39.452  28.717  29.123  1.00  0.00     0.049 A 
ATOM     36  N   UNL A   1      40.153  29.884  31.816  1.00  0.00    -0.248 NA
ATOM     37  C   UNL A   1      38.175  31.119  31.736  1.00  0.00     0.031 C 
ATOM     38  C   UNL A   1      39.176  28.157  27.798  1.00  0.00     0.029 A 
ATOM     39  N   UNL A   1      40.640  28.135  29.488  1.00  0.00    -0.354 N 
ATOM     40  C   UNL A   1      40.061  30.677  32.956  1.00  0.00     0.074 A 
ATOM     41  C   UNL A   1      38.858  31.470  32.815  1.00  0.00     0.031 C 
ATOM     42  C   UNL A   1      40.151  27.293  27.475  1.00  0.00     0.029 A 
ATOM     43  C   UNL A   1      41.142  27.266  28.546  1.00  0.00     0.049 A 
ATOM     44  H   UNL A   1      41.089  28.320  30.343  1.00  0.00     0.167 HD
ATOM     45  C   UNL A   1      40.888  30.721  34.030  1.00  0.00     0.034 A 
ATOM     46  C   UNL A   1      42.275  26.537  28.545  1.00  0.00     0.034 A 
ATOM     47  C   UNL A   1      42.077  29.911  34.156  1.00  0.00     0.049 A 
ATOM     48  C   UNL A   1      43.184  26.606  29.746  1.00  0.00     0.074 A 
ATOM     49  C   UNL A   1      42.963  29.839  35.217  1.00  0.00     0.029 A 
ATOM     50  N   UNL A   1      42.548  29.034  33.187  1.00  0.00    -0.354 N 
ATOM     51  N   UNL A   1      43.058  27.327  30.837  1.00  0.00    -0.248 NA
ATOM     52  C   UNL A   1      44.377  25.751  29.724  1.00  0.00     0.031 C 
ATOM     53  C   UNL A   1      44.001  28.970  34.864  1.00  0.00     0.029 A 
ATOM     54  C   UNL A   1      43.724  28.436  33.616  1.00  0.00     0.049 A 
ATOM     55  H   UNL A   1      42.110  28.861  32.323  1.00  0.00     0.167 HD
ATOM     56  C   UNL A   1      44.139  26.983  31.645  1.00  0.00     0.074 A 
ATOM     57  C   UNL A   1      44.895  25.982  30.920  1.00  0.00     0.031 C 
ATOM     58  C   UNL A   1      44.470  27.444  32.878  1.00  0.00     0.034 A 
BRANCH  45  59
ATOM     59  C   UNL A   1      40.545  31.695  35.133  1.00  0.00     0.023 A 
ATOM     60  C   UNL A   1      39.580  31.394  36.112  1.00  0.00     0.031 A 
ATOM     61  C   UNL A   1      41.167  32.955  35.192  1.00  0.00     0.131 A 
ATOM     62  C   UNL A   1      39.208  32.366  37.053  1.00  0.00     0.055 A 
ATOM     63  C   UNL A   1      40.853  33.887  36.185  1.00  0.00     0.041 A 
ATOM     64  F   UNL A   1      42.079  33.311  34.275  1.00  0.00    -0.206 F 
ATOM     65  C   UNL A   1      39.857  33.601  37.112  1.00  0.00     0.022 A 
BRANCH  62  66
ATOM     66  S   UNL A   1      37.760  32.048  38.099  1.00  0.00     0.124 S 
ATOM     67  O   UNL A   1      37.377  30.706  37.669  1.00  0.00    -0.237 OA
ATOM     68  O   UNL A   1      38.314  32.155  39.444  1.00  0.00    -0.237 OA
ATOM     69  O   UNL A   1      36.827  33.106  37.722  1.00  0.00    -0.744 OA
ENDBRANCH  62  66
ENDBRANCH  45  59
BRANCH  46  70
ATOM     70  C   UNL A   1      42.617  25.677  27.376  1.00  0.00     0.023 A 
ATOM     71  C   UNL A   1      42.204  24.336  27.320  1.00  0.00     0.031 A 
ATOM     72  C   UNL A   1      43.393  26.173  26.315  1.00  0.00     0.131 A 
ATOM     73  C   UNL A   1      42.608  23.524  26.249  1.00  0.00     0.055 A 
ATOM     74  C   UNL A   1      43.748  25.376  25.224  1.00  0.00     0.041 A 
ATOM     75  F   UNL A   1      43.807  27.450  26.314  1.00  0.00    -0.206 F 
ATOM     76  C   UNL A   1      43.367  24.038  25.195  1.00  0.00     0.022 A 
BRANCH  73  77
ATOM     77  S   UNL A   1      42.199  21.757  26.296  1.00  0.00     0.124 S 
ATOM     78  O   UNL A   1      42.535  21.412  27.673  1.00  0.00    -0.237 OA
ATOM     79  O   UNL A   1      40.778  21.768  25.964  1.00  0.00    -0.237 OA
ATOM     80  O   UNL A   1      43.071  21.180  25.276  1.00  0.00    -0.744 OA
ENDBRANCH  73  77
ENDBRANCH  46  70
BRANCH  58  81
ATOM     81  C   UNL A   1      45.679  26.826  33.538  1.00  0.00     0.023 A 
ATOM     82  C   UNL A   1      45.581  25.672  34.335  1.00  0.00     0.031 A 
ATOM     83  C   UNL A   1      46.946  27.414  33.376  1.00  0.00     0.131 A 
ATOM     84  C   UNL A   1      46.721  25.176  34.987  1.00  0.00     0.055 A 
ATOM     85  C   UNL A   1      48.086  26.880  33.978  1.00  0.00     0.041 A 
ATOM     86  F   UNL A   1      47.097  28.518  32.627  1.00  0.00    -0.206 F 
ATOM     87  C   UNL A   1      47.975  25.763  34.800  1.00  0.00     0.022 A 
BRANCH  84  88
ATOM     88  S   UNL A   1      46.525  23.808  36.163  1.00  0.00     0.124 S 
ATOM     89  O   UNL A   1      45.094  23.534  36.074  1.00  0.00    -0.237 OA
ATOM     90  O   UNL A   1      47.404  22.788  35.603  1.00  0.00    -0.237 OA
ATOM     91  O   UNL A   1      46.968  24.380  37.432  1.00  0.00    -0.744 OA
ENDBRANCH  84  88
ENDBRANCH  58  81
ENDBRANCH  32  33
ENDBRANCH  24  27
ENDBRANCH  22  23
ENDBRANCH  21  22
ENDBRANCH  20  21
ENDBRANCH   1  20
TORSDOF 20
ENDMDL
MODEL 3
REMARK VINA RESULT:     -10.2      5.563      8.435
REMARK SMILES CCCN(CC)c1ccnc(C(=O)NCCCCCCNC(=O)c2ccc(-c3c4nc(c(-c5cc(S(=O)(=O)[O-])ccc5F)c5ccc([nH]5)c(-c5cc(S(=O)(=O)[O-])ccc5F)c5nc(c(-c6cc(S(=O)(=O)[O-])ccc6F)c6ccc3[nH]6)C=C5)C=C4)cc2)c1
REMARK SMILES IDX 17 1 16 2 15 3 14 4 12 5 13 6 11 8 7 9 8 10 87 11 9 12 10 13
REMARK SMILES IDX 4 14 3 15 2 16 1 17 5 18 6 19 18 20 19 21 20 22 21 23 22 24
REMARK SMILES IDX 23 26 24 27 25 28 86 29 26 30 85 31 27 32 28 33 29 34 79 35
REMARK SMILES IDX 30 36 84 37 78 38 80 39 31 40 83 41 77 42 76 43 32 45 64 46
REMARK SMILES IDX 44 47 63 48 45 49 48 50 62 51 81 52 46 53 47 54 61 56 82 57
REMARK SMILES IDX 49 58 33 59 34 60 42 61 35 62 41 63 43 64 40 65 36 66 37 67
REMARK SMILES IDX 38 68 39 69 65 70 66 71 74 72 67 73 73 74 75 75 72 76 68 77
REMARK SMILES IDX 69 78 70 79 71 80 50 81 51 82 59 83 52 84 58 85 60 86 57 87
REMARK SMILES IDX 53 88 54 89 55 90 56 91
REMARK H PARENT 14 7 21 25 80 44 48 55
REMARK Flexibility Score: inf
ROOT
ATOM      1  C   UNL A   1      32.409  29.378  27.189  1.00  0.00     0.002 C 
ENDROOT
BRANCH   1   2
ATOM      2  C   UNL A   1      31.966  27.924  27.392  1.00  0.00     0.021 C 
BRANCH   2   3
ATOM      3  C   UNL A   1      31.388  27.304  26.118  1.00  0.00     0.116 C 
BRANCH   3   4
ATOM      4  N   UNL A   1      30.305  26.404  26.458  1.00  0.00    -0.351 N 
ATOM      5  C   UNL A   1      30.249  25.033  26.584  1.00  0.00     0.269 C 
ATOM      6  O   UNL A   1      29.159  24.544  26.887  1.00  0.00    -0.268 OA
ATOM      7  H   UNL A   1      29.448  26.857  26.632  1.00  0.00     0.163 HD
BRANCH   5   8
ATOM      8  C   UNL A   1      31.458  24.155  26.436  1.00  0.00     0.130 A 
ATOM      9  C   UNL A   1      33.402  23.362  25.269  1.00  0.00     0.040 A 
ATOM     10  C   UNL A   1      33.762  22.696  26.439  1.00  0.00     0.046 A 
ATOM     11  C   UNL A   1      32.192  24.057  25.259  1.00  0.00     0.060 A 
ATOM     12  C   UNL A   1      32.923  22.754  27.535  1.00  0.00     0.114 A 
ATOM     13  N   UNL A   1      31.796  23.484  27.569  1.00  0.00    -0.251 NA
BRANCH   9  14
ATOM     14  N   UNL A   1      34.244  23.378  24.175  1.00  0.00    -0.372 N 
BRANCH  14  15
ATOM     15  C   UNL A   1      34.301  24.528  23.271  1.00  0.00     0.116 C 
BRANCH  15  16
ATOM     16  C   UNL A   1      33.227  24.459  22.179  1.00  0.00     0.018 C 
ATOM     17  C   UNL A   1      32.848  25.836  21.651  1.00  0.00     0.006 C 
ENDBRANCH  15  16
ENDBRANCH  14  15
BRANCH  14  18
ATOM     18  C   UNL A   1      35.094  22.214  23.913  1.00  0.00     0.113 C 
ATOM     19  C   UNL A   1      36.563  22.601  23.827  1.00  0.00     0.027 C 
ENDBRANCH  14  18
ENDBRANCH   9  14
ENDBRANCH   5   8
ENDBRANCH   3   4
ENDBRANCH   2   3
ENDBRANCH   1   2
BRANCH   1  20
ATOM     20  C   UNL A   1      31.501  30.191  26.255  1.00  0.00     0.002 C 
BRANCH  20  21
ATOM     21  C   UNL A   1      31.496  31.701  26.510  1.00  0.00     0.021 C 
BRANCH  21  22
ATOM     22  C   UNL A   1      32.761  32.234  27.175  1.00  0.00     0.116 C 
BRANCH  22  23
ATOM     23  N   UNL A   1      32.620  33.633  27.543  1.00  0.00    -0.352 N 
ATOM     24  C   UNL A   1      33.226  34.333  28.551  1.00  0.00     0.251 C 
ATOM     25  H   UNL A   1      31.998  34.154  26.985  1.00  0.00     0.163 HD
ATOM     26  O   UNL A   1      32.789  35.443  28.862  1.00  0.00    -0.269 OA
BRANCH  24  27
ATOM     27  C   UNL A   1      34.385  33.762  29.268  1.00  0.00     0.039 A 
ATOM     28  C   UNL A   1      34.165  32.767  30.225  1.00  0.00     0.014 A 
ATOM     29  C   UNL A   1      35.681  34.235  29.037  1.00  0.00     0.014 A 
ATOM     30  C   UNL A   1      35.245  32.223  30.922  1.00  0.00     0.010 A 
ATOM     31  C   UNL A   1      36.763  33.644  29.683  1.00  0.00     0.010 A 
ATOM     32  C   UNL A   1      36.555  32.644  30.644  1.00  0.00    -0.014 A 
BRANCH  32  33
ATOM     33  C   UNL A   1      37.714  32.068  31.376  1.00  0.00     0.031 A 
ATOM     34  C   UNL A   1      38.542  30.984  30.740  1.00  0.00     0.074 A 
ATOM     35  C   UNL A   1      37.991  32.493  32.623  1.00  0.00     0.049 A 
ATOM     36  N   UNL A   1      39.558  30.322  31.231  1.00  0.00    -0.248 NA
ATOM     37  C   UNL A   1      38.154  30.568  29.383  1.00  0.00     0.031 C 
ATOM     38  C   UNL A   1      37.234  33.511  33.355  1.00  0.00     0.029 A 
ATOM     39  N   UNL A   1      38.980  32.121  33.499  1.00  0.00    -0.354 N 
ATOM     40  C   UNL A   1      39.924  29.405  30.250  1.00  0.00     0.074 A 
ATOM     41  C   UNL A   1      38.977  29.554  29.165  1.00  0.00     0.031 C 
ATOM     42  C   UNL A   1      37.802  33.701  34.557  1.00  0.00     0.029 A 
ATOM     43  C   UNL A   1      38.936  32.793  34.699  1.00  0.00     0.049 A 
ATOM     44  H   UNL A   1      39.657  31.439  33.288  1.00  0.00     0.167 HD
ATOM     45  C   UNL A   1      40.967  28.538  30.245  1.00  0.00     0.034 A 
ATOM     46  C   UNL A   1      39.718  32.684  35.791  1.00  0.00     0.034 A 
ATOM     47  C   UNL A   1      41.909  28.415  31.333  1.00  0.00     0.049 A 
ATOM     48  C   UNL A   1      40.867  31.709  35.767  1.00  0.00     0.074 A 
ATOM     49  C   UNL A   1      43.028  27.604  31.417  1.00  0.00     0.029 A 
ATOM     50  N   UNL A   1      41.840  29.120  32.528  1.00  0.00    -0.354 N 
ATOM     51  N   UNL A   1      41.228  30.881  34.813  1.00  0.00    -0.248 NA
ATOM     52  C   UNL A   1      41.725  31.666  36.958  1.00  0.00     0.031 C 
ATOM     53  C   UNL A   1      43.597  27.772  32.685  1.00  0.00     0.029 A 
ATOM     54  C   UNL A   1      42.882  28.745  33.364  1.00  0.00     0.049 A 
ATOM     55  H   UNL A   1      41.153  29.789  32.749  1.00  0.00     0.167 HD
ATOM     56  C   UNL A   1      42.377  30.246  35.278  1.00  0.00     0.074 A 
ATOM     57  C   UNL A   1      42.654  30.797  36.589  1.00  0.00     0.031 C 
ATOM     58  C   UNL A   1      43.140  29.300  34.672  1.00  0.00     0.034 A 
BRANCH  45  59
ATOM     59  C   UNL A   1      41.122  27.642  29.038  1.00  0.00     0.023 A 
ATOM     60  C   UNL A   1      42.130  27.857  28.081  1.00  0.00     0.031 A 
ATOM     61  C   UNL A   1      40.231  26.576  28.822  1.00  0.00     0.131 A 
ATOM     62  C   UNL A   1      42.173  27.075  26.917  1.00  0.00     0.055 A 
ATOM     63  C   UNL A   1      40.332  25.745  27.703  1.00  0.00     0.041 A 
ATOM     64  F   UNL A   1      39.234  26.331  29.686  1.00  0.00    -0.206 F 
ATOM     65  C   UNL A   1      41.297  26.003  26.734  1.00  0.00     0.022 A 
BRANCH  62  66
ATOM     66  S   UNL A   1      43.291  27.574  25.579  1.00  0.00     0.124 S 
ATOM     67  O   UNL A   1      43.945  28.743  26.163  1.00  0.00    -0.237 OA
ATOM     68  O   UNL A   1      44.127  26.391  25.410  1.00  0.00    -0.237 OA
ATOM     69  O   UNL A   1      42.387  27.865  24.469  1.00  0.00    -0.744 OA
ENDBRANCH  62  66
ENDBRANCH  45  59
BRANCH  46  70
ATOM     70  C   UNL A   1      39.448  33.517  36.998  1.00  0.00     0.023 A 
ATOM     71  C   UNL A   1      38.745  32.995  38.095  1.00  0.00     0.031 A 
ATOM     72  C   UNL A   1      39.858  34.861  37.056  1.00  0.00     0.131 A 
ATOM     73  C   UNL A   1      38.432  33.825  39.184  1.00  0.00     0.055 A 
ATOM     74  C   UNL A   1      39.590  35.667  38.164  1.00  0.00     0.041 A 
ATOM     75  F   UNL A   1      40.540  35.408  36.037  1.00  0.00    -0.206 F 
ATOM     76  C   UNL A   1      38.860  35.153  39.231  1.00  0.00     0.022 A 
BRANCH  73  77
ATOM     77  S   UNL A   1      37.378  33.162  40.504  1.00  0.00     0.124 S 
ATOM     78  O   UNL A   1      37.084  34.362  41.279  1.00  0.00    -0.237 OA
ATOM     79  O   UNL A   1      36.266  32.597  39.747  1.00  0.00    -0.237 OA
ATOM     80  O   UNL A   1      38.240  32.185  41.166  1.00  0.00    -0.744 OA
ENDBRANCH  73  77
ENDBRANCH  46  70
BRANCH  58  81
ATOM     81  C   UNL A   1      44.378  28.845  35.407  1.00  0.00     0.023 A 
ATOM     82  C   UNL A   1      44.336  27.823  36.371  1.00  0.00     0.031 A 
ATOM     83  C   UNL A   1      45.616  29.457  35.144  1.00  0.00     0.131 A 
ATOM     84  C   UNL A   1      45.498  27.485  37.080  1.00  0.00     0.055 A 
ATOM     85  C   UNL A   1      46.781  29.074  35.809  1.00  0.00     0.041 A 
ATOM     86  F   UNL A   1      45.713  30.440  34.234  1.00  0.00    -0.206 F 
ATOM     87  C   UNL A   1      46.724  28.092  36.793  1.00  0.00     0.022 A 
BRANCH  84  88
ATOM     88  S   UNL A   1      45.369  26.305  38.453  1.00  0.00     0.124 S 
ATOM     89  O   UNL A   1      46.758  26.189  38.885  1.00  0.00    -0.237 OA
ATOM     90  O   UNL A   1      44.472  26.996  39.373  1.00  0.00    -0.237 OA
ATOM     91  O   UNL A   1      44.812  25.109  37.826  1.00  0.00    -0.744 OA
ENDBRANCH  84  88
ENDBRANCH  58  81
ENDBRANCH  32  33
ENDBRANCH  24  27
ENDBRANCH  22  23
ENDBRANCH  21  22
ENDBRANCH  20  21
ENDBRANCH   1  20
TORSDOF 20
ENDMDL
