MODEL 1
REMARK VINA RESULT:     -12.1      0.000      0.000
REMARK SMILES CS(=O)(=O)c1ccc(/C=C(/C(=O)NCCCCCCNC(=O)c2ccc(-c3c4nc(c(-c5cc(S(=O)(=O)[O-])ccc5F)c5ccc([nH]5)c(-c5cc(S(=O)(=O)[O-])ccc5F)c5nc(c(-c6cc(S(=O)(=O)[O-])ccc6F)c6ccc3[nH]6)C=C5)C=C4)cc2)c2ccc(F)cc2)cc1
REMARK SMILES IDX 17 1 16 2 15 3 14 4 13 5 11 6 12 7 10 9 9 10 8 11 5 12 6 13
REMARK SMILES IDX 94 14 7 15 93 16 2 17 1 18 3 19 4 20 86 21 87 22 92 23 88 24
REMARK SMILES IDX 91 25 89 26 90 27 18 28 19 29 20 30 21 31 22 33 23 34 24 35
REMARK SMILES IDX 85 36 25 37 84 38 26 39 27 40 28 41 78 42 29 43 83 44 77 45
REMARK SMILES IDX 79 46 30 47 82 48 76 49 75 50 31 52 63 53 43 54 62 55 44 56
REMARK SMILES IDX 47 57 61 58 80 59 45 60 46 61 60 63 81 64 48 65 32 66 33 67
REMARK SMILES IDX 41 68 34 69 40 70 42 71 39 72 35 73 36 74 37 75 38 76 64 77
REMARK SMILES IDX 65 78 73 79 66 80 72 81 74 82 71 83 67 84 68 85 69 86 70 87
REMARK SMILES IDX 49 88 50 89 58 90 51 91 57 92 59 93 56 94 52 95 53 96 54 97
REMARK SMILES IDX 55 98
REMARK H PARENT 13 8 20 32 79 51 47 62
REMARK Flexibility Score: inf
ROOT
ATOM      1  C   UNL A   1      33.364  28.958  23.921  1.00  0.00     0.002 C 
ENDROOT
BRANCH   1   2
ATOM      2  C   UNL A   1      32.977  28.262  22.609  1.00  0.00     0.002 C 
BRANCH   2   3
ATOM      3  C   UNL A   1      33.443  26.801  22.485  1.00  0.00     0.021 C 
BRANCH   3   4
ATOM      4  C   UNL A   1      32.290  25.794  22.427  1.00  0.00     0.116 C 
BRANCH   4   5
ATOM      5  N   UNL A   1      31.670  25.690  23.735  1.00  0.00    -0.352 N 
ATOM      6  C   UNL A   1      31.553  24.699  24.654  1.00  0.00     0.251 C 
ATOM      7  O   UNL A   1      30.849  24.951  25.635  1.00  0.00    -0.269 OA
ATOM      8  H   UNL A   1      31.237  26.527  24.019  1.00  0.00     0.163 HD
BRANCH   6   9
ATOM      9  C   UNL A   1      32.305  23.389  24.577  1.00  0.00     0.047 C 
ATOM     10  C   UNL A   1      31.686  22.186  24.607  1.00  0.00     0.022 C 
BRANCH  10  11
ATOM     11  C   UNL A   1      32.259  20.834  24.402  1.00  0.00    -0.025 A 
ATOM     12  C   UNL A   1      33.193  18.189  24.217  1.00  0.00     0.067 A 
ATOM     13  C   UNL A   1      32.661  18.819  23.093  1.00  0.00     0.021 A 
ATOM     14  C   UNL A   1      33.313  18.881  25.422  1.00  0.00     0.021 A 
ATOM     15  C   UNL A   1      32.233  20.148  23.182  1.00  0.00     0.009 A 
ATOM     16  C   UNL A   1      32.839  20.194  25.511  1.00  0.00     0.009 A 
BRANCH  12  17
ATOM     17  S   UNL A   1      33.721  16.496  24.122  1.00  0.00     0.175 S 
ATOM     18  C   UNL A   1      35.159  16.395  25.153  1.00  0.00     0.163 C 
ATOM     19  O   UNL A   1      34.133  16.265  22.750  1.00  0.00    -0.224 OA
ATOM     20  O   UNL A   1      32.694  15.685  24.746  1.00  0.00    -0.224 OA
ENDBRANCH  12  17
ENDBRANCH  10  11
BRANCH   9  21
ATOM     21  C   UNL A   1      33.786  23.484  24.642  1.00  0.00    -0.013 A 
ATOM     22  C   UNL A   1      34.382  23.760  25.888  1.00  0.00     0.012 A 
ATOM     23  C   UNL A   1      34.607  23.232  23.534  1.00  0.00     0.012 A 
ATOM     24  C   UNL A   1      35.768  23.754  26.033  1.00  0.00     0.040 A 
ATOM     25  C   UNL A   1      35.998  23.216  23.685  1.00  0.00     0.040 A 
ATOM     26  C   UNL A   1      36.562  23.470  24.932  1.00  0.00     0.123 A 
ATOM     27  F   UNL A   1      37.893  23.428  25.076  1.00  0.00    -0.207 F 
ENDBRANCH   9  21
ENDBRANCH   6   9
ENDBRANCH   4   5
ENDBRANCH   3   4
ENDBRANCH   2   3
ENDBRANCH   1   2
BRANCH   1  28
ATOM     28  C   UNL A   1      34.042  28.057  24.955  1.00  0.00     0.021 C 
BRANCH  28  29
ATOM     29  C   UNL A   1      33.712  28.400  26.404  1.00  0.00     0.116 C 
BRANCH  29  30
ATOM     30  N   UNL A   1      33.558  29.832  26.599  1.00  0.00    -0.352 N 
ATOM     31  C   UNL A   1      34.300  30.683  27.381  1.00  0.00     0.251 C 
ATOM     32  H   UNL A   1      32.818  30.249  26.102  1.00  0.00     0.163 HD
ATOM     33  O   UNL A   1      33.894  31.820  27.602  1.00  0.00    -0.269 OA
BRANCH  31  34
ATOM     34  C   UNL A   1      35.576  30.217  27.968  1.00  0.00     0.039 A 
ATOM     35  C   UNL A   1      35.581  29.718  29.273  1.00  0.00     0.014 A 
ATOM     36  C   UNL A   1      36.766  30.283  27.236  1.00  0.00     0.014 A 
ATOM     37  C   UNL A   1      36.770  29.236  29.826  1.00  0.00     0.010 A 
ATOM     38  C   UNL A   1      37.935  29.742  27.764  1.00  0.00     0.010 A 
ATOM     39  C   UNL A   1      37.951  29.219  29.066  1.00  0.00    -0.014 A 
BRANCH  39  40
ATOM     40  C   UNL A   1      39.216  28.671  29.620  1.00  0.00     0.031 A 
ATOM     41  C   UNL A   1      39.854  29.315  30.820  1.00  0.00     0.074 A 
ATOM     42  C   UNL A   1      39.823  27.639  29.004  1.00  0.00     0.049 A 
ATOM     43  N   UNL A   1      40.989  29.036  31.408  1.00  0.00    -0.248 NA
ATOM     44  C   UNL A   1      39.130  30.447  31.415  1.00  0.00     0.031 C 
ATOM     45  C   UNL A   1      39.323  26.955  27.809  1.00  0.00     0.029 A 
ATOM     46  N   UNL A   1      40.996  26.988  29.292  1.00  0.00    -0.354 N 
ATOM     47  C   UNL A   1      41.124  29.967  32.434  1.00  0.00     0.074 A 
ATOM     48  C   UNL A   1      39.985  30.856  32.339  1.00  0.00     0.031 C 
ATOM     49  C   UNL A   1      40.170  25.967  27.482  1.00  0.00     0.029 A 
ATOM     50  C   UNL A   1      41.293  25.972  28.414  1.00  0.00     0.049 A 
ATOM     51  H   UNL A   1      41.571  27.226  30.054  1.00  0.00     0.167 HD
ATOM     52  C   UNL A   1      42.094  30.056  33.378  1.00  0.00     0.034 A 
ATOM     53  C   UNL A   1      42.354  25.143  28.361  1.00  0.00     0.034 A 
ATOM     54  C   UNL A   1      43.217  29.153  33.460  1.00  0.00     0.049 A 
ATOM     55  C   UNL A   1      43.434  25.274  29.403  1.00  0.00     0.074 A 
ATOM     56  C   UNL A   1      44.224  29.109  34.409  1.00  0.00     0.029 A 
ATOM     57  N   UNL A   1      43.490  28.139  32.550  1.00  0.00    -0.354 N 
ATOM     58  N   UNL A   1      43.523  26.125  30.399  1.00  0.00    -0.248 NA
ATOM     59  C   UNL A   1      44.551  24.324  29.319  1.00  0.00     0.031 C 
ATOM     60  C   UNL A   1      45.137  28.115  34.036  1.00  0.00     0.029 A 
ATOM     61  C   UNL A   1      44.664  27.488  32.895  1.00  0.00     0.049 A 
ATOM     62  H   UNL A   1      42.930  27.914  31.771  1.00  0.00     0.167 HD
ATOM     63  C   UNL A   1      44.694  25.794  31.077  1.00  0.00     0.074 A 
ATOM     64  C   UNL A   1      45.268  24.660  30.381  1.00  0.00     0.031 C 
ATOM     65  C   UNL A   1      45.239  26.371  32.179  1.00  0.00     0.034 A 
BRANCH  52  66
ATOM     66  C   UNL A   1      41.986  31.192  34.371  1.00  0.00     0.023 A 
ATOM     67  C   UNL A   1      41.016  31.193  35.389  1.00  0.00     0.031 A 
ATOM     68  C   UNL A   1      42.824  32.317  34.264  1.00  0.00     0.131 A 
ATOM     69  C   UNL A   1      40.839  32.332  36.190  1.00  0.00     0.055 A 
ATOM     70  C   UNL A   1      42.704  33.409  35.125  1.00  0.00     0.041 A 
ATOM     71  F   UNL A   1      43.758  32.385  33.302  1.00  0.00    -0.206 F 
ATOM     72  C   UNL A   1      41.693  33.430  36.082  1.00  0.00     0.022 A 
BRANCH  69  73
ATOM     73  S   UNL A   1      39.365  32.425  37.243  1.00  0.00     0.124 S 
ATOM     74  O   UNL A   1      39.957  32.500  38.576  1.00  0.00    -0.237 OA
ATOM     75  O   UNL A   1      38.713  33.639  36.763  1.00  0.00    -0.237 OA
ATOM     76  O   UNL A   1      38.657  31.180  36.954  1.00  0.00    -0.744 OA
ENDBRANCH  69  73
ENDBRANCH  52  66
BRANCH  53  77
ATOM     77  C   UNL A   1      42.449  24.116  27.288  1.00  0.00     0.023 A 
ATOM     78  C   UNL A   1      41.677  22.946  27.342  1.00  0.00     0.031 A 
ATOM     79  C   UNL A   1      43.322  24.285  26.199  1.00  0.00     0.131 A 
ATOM     80  C   UNL A   1      41.816  21.971  26.343  1.00  0.00     0.055 A 
ATOM     81  C   UNL A   1      43.425  23.332  25.184  1.00  0.00     0.041 A 
ATOM     82  F   UNL A   1      44.073  25.393  26.095  1.00  0.00    -0.206 F 
ATOM     83  C   UNL A   1      42.676  22.161  25.258  1.00  0.00     0.022 A 
BRANCH  80  84
ATOM     84  S   UNL A   1      40.890  20.420  26.507  1.00  0.00     0.124 S 
ATOM     85  O   UNL A   1      39.573  20.806  26.015  1.00  0.00    -0.237 OA
ATOM     86  O   UNL A   1      41.657  19.517  25.654  1.00  0.00    -0.237 OA
ATOM     87  O   UNL A   1      40.962  20.131  27.939  1.00  0.00    -0.744 OA
ENDBRANCH  80  84
ENDBRANCH  53  77
BRANCH  65  88
ATOM     88  C   UNL A   1      46.505  25.751  32.716  1.00  0.00     0.023 A 
ATOM     89  C   UNL A   1      47.756  25.991  32.122  1.00  0.00     0.031 A 
ATOM     90  C   UNL A   1      46.455  24.894  33.829  1.00  0.00     0.131 A 
ATOM     91  C   UNL A   1      48.898  25.338  32.611  1.00  0.00     0.055 A 
ATOM     92  C   UNL A   1      47.602  24.293  34.347  1.00  0.00     0.041 A 
ATOM     93  F   UNL A   1      45.285  24.627  34.434  1.00  0.00    -0.206 F 
ATOM     94  C   UNL A   1      48.831  24.504  33.730  1.00  0.00     0.022 A 
BRANCH  91  95
ATOM     95  S   UNL A   1      50.462  25.526  31.711  1.00  0.00     0.124 S 
ATOM     96  O   UNL A   1      51.282  26.250  32.676  1.00  0.00    -0.237 OA
ATOM     97  O   UNL A   1      50.846  24.141  31.459  1.00  0.00    -0.237 OA
ATOM     98  O   UNL A   1      50.085  26.290  30.522  1.00  0.00    -0.744 OA
ENDBRANCH  91  95
ENDBRANCH  65  88
ENDBRANCH  39  40
ENDBRANCH  31  34
ENDBRANCH  29  30
ENDBRANCH  28  29
ENDBRANCH   1  28
TORSDOF 19
ENDMDL
MODEL 2
REMARK VINA RESULT:     -11.6      2.001      2.510
REMARK SMILES CS(=O)(=O)c1ccc(/C=C(/C(=O)NCCCCCCNC(=O)c2ccc(-c3c4nc(c(-c5cc(S(=O)(=O)[O-])ccc5F)c5ccc([nH]5)c(-c5cc(S(=O)(=O)[O-])ccc5F)c5nc(c(-c6cc(S(=O)(=O)[O-])ccc6F)c6ccc3[nH]6)C=C5)C=C4)cc2)c2ccc(F)cc2)cc1
REMARK SMILES IDX 17 1 16 2 15 3 14 4 13 5 11 6 12 7 10 9 9 10 8 11 5 12 6 13
REMARK SMILES IDX 94 14 7 15 93 16 2 17 1 18 3 19 4 20 86 21 87 22 92 23 88 24
REMARK SMILES IDX 91 25 89 26 90 27 18 28 19 29 20 30 21 31 22 33 23 34 24 35
REMARK SMILES IDX 85 36 25 37 84 38 26 39 27 40 28 41 78 42 29 43 83 44 77 45
REMARK SMILES IDX 79 46 30 47 82 48 76 49 75 50 31 52 63 53 43 54 62 55 44 56
REMARK SMILES IDX 47 57 61 58 80 59 45 60 46 61 60 63 81 64 48 65 32 66 33 67
REMARK SMILES IDX 41 68 34 69 40 70 42 71 39 72 35 73 36 74 37 75 38 76 64 77
REMARK SMILES IDX 65 78 73 79 66 80 72 81 74 82 71 83 67 84 68 85 69 86 70 87
REMARK SMILES IDX 49 88 50 89 58 90 51 91 57 92 59 93 56 94 52 95 53 96 54 97
REMARK SMILES IDX 55 98
REMARK H PARENT 13 8 20 32 79 51 47 62
REMARK Flexibility Score: inf
ROOT
ATOM      1  C   UNL A   1      32.741  28.150  25.529  1.00  0.00     0.002 C 
ENDROOT
BRANCH   1   2
ATOM      2  C   UNL A   1      31.383  27.571  25.946  1.00  0.00     0.002 C 
BRANCH   2   3
ATOM      3  C   UNL A   1      31.425  26.125  26.469  1.00  0.00     0.021 C 
BRANCH   3   4
ATOM      4  C   UNL A   1      30.612  25.143  25.620  1.00  0.00     0.116 C 
BRANCH   4   5
ATOM      5  N   UNL A   1      30.944  25.322  24.219  1.00  0.00    -0.352 N 
ATOM      6  C   UNL A   1      31.747  24.669  23.342  1.00  0.00     0.251 C 
ATOM      7  O   UNL A   1      31.861  25.184  22.226  1.00  0.00    -0.269 OA
ATOM      8  H   UNL A   1      30.482  26.091  23.814  1.00  0.00     0.163 HD
BRANCH   6   9
ATOM      9  C   UNL A   1      32.399  23.336  23.631  1.00  0.00     0.047 C 
ATOM     10  C   UNL A   1      31.718  22.166  23.607  1.00  0.00     0.022 C 
BRANCH  10  11
ATOM     11  C   UNL A   1      32.233  20.782  23.726  1.00  0.00    -0.025 A 
ATOM     12  C   UNL A   1      33.031  18.119  24.145  1.00  0.00     0.067 A 
ATOM     13  C   UNL A   1      32.679  18.547  22.866  1.00  0.00     0.021 A 
ATOM     14  C   UNL A   1      33.038  19.018  25.212  1.00  0.00     0.021 A 
ATOM     15  C   UNL A   1      32.321  19.882  22.657  1.00  0.00     0.009 A 
ATOM     16  C   UNL A   1      32.633  20.340  25.000  1.00  0.00     0.009 A 
BRANCH  12  17
ATOM     17  S   UNL A   1      33.468  16.421  24.427  1.00  0.00     0.175 S 
ATOM     18  C   UNL A   1      34.925  16.474  25.436  1.00  0.00     0.163 C 
ATOM     19  O   UNL A   1      33.833  15.866  23.137  1.00  0.00    -0.224 OA
ATOM     20  O   UNL A   1      32.417  15.829  25.231  1.00  0.00    -0.224 OA
ENDBRANCH  12  17
ENDBRANCH  10  11
BRANCH   9  21
ATOM     21  C   UNL A   1      33.801  23.390  24.117  1.00  0.00    -0.013 A 
ATOM     22  C   UNL A   1      34.834  23.095  23.205  1.00  0.00     0.012 A 
ATOM     23  C   UNL A   1      34.134  23.798  25.417  1.00  0.00     0.012 A 
ATOM     24  C   UNL A   1      36.171  23.235  23.572  1.00  0.00     0.040 A 
ATOM     25  C   UNL A   1      35.477  23.948  25.778  1.00  0.00     0.040 A 
ATOM     26  C   UNL A   1      36.479  23.671  24.853  1.00  0.00     0.123 A 
ATOM     27  F   UNL A   1      37.763  23.840  25.197  1.00  0.00    -0.207 F 
ENDBRANCH   9  21
ENDBRANCH   6   9
ENDBRANCH   4   5
ENDBRANCH   3   4
ENDBRANCH   2   3
ENDBRANCH   1   2
BRANCH   1  28
ATOM     28  C   UNL A   1      32.854  29.672  25.634  1.00  0.00     0.021 C 
BRANCH  28  29
ATOM     29  C   UNL A   1      32.809  30.212  27.061  1.00  0.00     0.116 C 
BRANCH  29  30
ATOM     30  N   UNL A   1      32.943  31.658  27.096  1.00  0.00    -0.352 N 
ATOM     31  C   UNL A   1      33.899  32.424  27.718  1.00  0.00     0.251 C 
ATOM     32  H   UNL A   1      32.251  32.159  26.607  1.00  0.00     0.163 HD
ATOM     33  O   UNL A   1      33.733  33.634  27.831  1.00  0.00    -0.269 OA
BRANCH  31  34
ATOM     34  C   UNL A   1      35.114  31.781  28.265  1.00  0.00     0.039 A 
ATOM     35  C   UNL A   1      36.318  32.491  28.263  1.00  0.00     0.014 A 
ATOM     36  C   UNL A   1      35.068  30.477  28.769  1.00  0.00     0.014 A 
ATOM     37  C   UNL A   1      37.464  31.913  28.814  1.00  0.00     0.010 A 
ATOM     38  C   UNL A   1      36.194  29.929  29.376  1.00  0.00     0.010 A 
ATOM     39  C   UNL A   1      37.405  30.638  29.400  1.00  0.00    -0.014 A 
BRANCH  39  40
ATOM     40  C   UNL A   1      38.602  30.023  30.030  1.00  0.00     0.031 A 
ATOM     41  C   UNL A   1      39.045  30.466  31.397  1.00  0.00     0.074 A 
ATOM     42  C   UNL A   1      39.325  29.116  29.345  1.00  0.00     0.049 A 
ATOM     43  N   UNL A   1      40.099  30.109  32.085  1.00  0.00    -0.248 NA
ATOM     44  C   UNL A   1      38.205  31.473  32.061  1.00  0.00     0.031 C 
ATOM     45  C   UNL A   1      39.018  28.635  27.997  1.00  0.00     0.029 A 
ATOM     46  N   UNL A   1      40.471  28.443  29.685  1.00  0.00    -0.354 N 
ATOM     47  C   UNL A   1      40.058  30.858  33.258  1.00  0.00     0.074 A 
ATOM     48  C   UNL A   1      38.910  31.735  33.150  1.00  0.00     0.031 C 
ATOM     49  C   UNL A   1      39.939  27.727  27.635  1.00  0.00     0.029 A 
ATOM     50  C   UNL A   1      40.923  27.592  28.704  1.00  0.00     0.049 A 
ATOM     51  H   UNL A   1      40.927  28.559  30.549  1.00  0.00     0.167 HD
ATOM     52  C   UNL A   1      40.886  30.802  34.331  1.00  0.00     0.034 A 
ATOM     53  C   UNL A   1      42.011  26.799  28.667  1.00  0.00     0.034 A 
ATOM     54  C   UNL A   1      42.020  29.913  34.422  1.00  0.00     0.049 A 
ATOM     55  C   UNL A   1      42.933  26.769  29.858  1.00  0.00     0.074 A 
ATOM     56  C   UNL A   1      42.889  29.726  35.483  1.00  0.00     0.029 A 
ATOM     57  N   UNL A   1      42.452  29.069  33.405  1.00  0.00    -0.354 N 
ATOM     58  N   UNL A   1      42.854  27.443  30.982  1.00  0.00    -0.248 NA
ATOM     59  C   UNL A   1      44.085  25.862  29.778  1.00  0.00     0.031 C 
ATOM     60  C   UNL A   1      43.881  28.821  35.085  1.00  0.00     0.029 A 
ATOM     61  C   UNL A   1      43.592  28.386  33.801  1.00  0.00     0.049 A 
ATOM     62  H   UNL A   1      42.012  28.970  32.530  1.00  0.00     0.167 HD
ATOM     63  C   UNL A   1      43.932  27.021  31.754  1.00  0.00     0.074 A 
ATOM     64  C   UNL A   1      44.638  26.027  30.971  1.00  0.00     0.031 C 
ATOM     65  C   UNL A   1      44.300  27.413  33.001  1.00  0.00     0.034 A 
BRANCH  52  66
ATOM     66  C   UNL A   1      40.601  31.754  35.470  1.00  0.00     0.023 A 
ATOM     67  C   UNL A   1      39.566  31.515  36.392  1.00  0.00     0.031 A 
ATOM     68  C   UNL A   1      41.335  32.947  35.605  1.00  0.00     0.131 A 
ATOM     69  C   UNL A   1      39.226  32.495  37.337  1.00  0.00     0.055 A 
ATOM     70  C   UNL A   1      41.052  33.877  36.608  1.00  0.00     0.041 A 
ATOM     71  F   UNL A   1      42.324  33.242  34.747  1.00  0.00    -0.206 F 
ATOM     72  C   UNL A   1      39.978  33.664  37.468  1.00  0.00     0.022 A 
BRANCH  69  73
ATOM     73  S   UNL A   1      37.679  32.301  38.263  1.00  0.00     0.124 S 
ATOM     74  O   UNL A   1      36.791  33.217  37.552  1.00  0.00    -0.237 OA
ATOM     75  O   UNL A   1      37.393  30.880  38.103  1.00  0.00    -0.237 OA
ATOM     76  O   UNL A   1      38.035  32.718  39.618  1.00  0.00    -0.744 OA
ENDBRANCH  69  73
ENDBRANCH  52  66
BRANCH  53  77
ATOM     77  C   UNL A   1      42.290  25.967  27.464  1.00  0.00     0.023 A 
ATOM     78  C   UNL A   1      41.970  24.601  27.445  1.00  0.00     0.031 A 
ATOM     79  C   UNL A   1      42.891  26.523  26.322  1.00  0.00     0.131 A 
ATOM     80  C   UNL A   1      42.283  23.826  26.318  1.00  0.00     0.055 A 
ATOM     81  C   UNL A   1      43.162  25.758  25.186  1.00  0.00     0.041 A 
ATOM     82  F   UNL A   1      43.206  27.828  26.287  1.00  0.00    -0.206 F 
ATOM     83  C   UNL A   1      42.866  24.398  25.183  1.00  0.00     0.022 A 
BRANCH  80  84
ATOM     84  S   UNL A   1      41.962  22.042  26.373  1.00  0.00     0.124 S 
ATOM     85  O   UNL A   1      42.222  21.736  27.774  1.00  0.00    -0.237 OA
ATOM     86  O   UNL A   1      40.567  21.972  25.948  1.00  0.00    -0.237 OA
ATOM     87  O   UNL A   1      42.927  21.493  25.422  1.00  0.00    -0.744 OA
ENDBRANCH  80  84
ENDBRANCH  53  77
BRANCH  65  88
ATOM     88  C   UNL A   1      45.503  26.730  33.602  1.00  0.00     0.023 A 
ATOM     89  C   UNL A   1      45.414  25.456  34.188  1.00  0.00     0.031 A 
ATOM     90  C   UNL A   1      46.754  27.373  33.603  1.00  0.00     0.131 A 
ATOM     91  C   UNL A   1      46.543  24.887  34.798  1.00  0.00     0.055 A 
ATOM     92  C   UNL A   1      47.886  26.778  34.160  1.00  0.00     0.041 A 
ATOM     93  F   UNL A   1      46.895  28.593  33.060  1.00  0.00    -0.206 F 
ATOM     94  C   UNL A   1      47.782  25.533  34.773  1.00  0.00     0.022 A 
BRANCH  91  95
ATOM     95  S   UNL A   1      46.352  23.327  35.704  1.00  0.00     0.124 S 
ATOM     96  O   UNL A   1      44.901  23.205  35.794  1.00  0.00    -0.237 OA
ATOM     97  O   UNL A   1      47.019  22.371  34.826  1.00  0.00    -0.237 OA
ATOM     98  O   UNL A   1      47.032  23.580  36.974  1.00  0.00    -0.744 OA
ENDBRANCH  91  95
ENDBRANCH  65  88
ENDBRANCH  39  40
ENDBRANCH  31  34
ENDBRANCH  29  30
ENDBRANCH  28  29
ENDBRANCH   1  28
TORSDOF 19
ENDMDL
MODEL 3
REMARK VINA RESULT:     -11.6      4.879      7.934
REMARK SMILES CS(=O)(=O)c1ccc(/C=C(/C(=O)NCCCCCCNC(=O)c2ccc(-c3c4nc(c(-c5cc(S(=O)(=O)[O-])ccc5F)c5ccc([nH]5)c(-c5cc(S(=O)(=O)[O-])ccc5F)c5nc(c(-c6cc(S(=O)(=O)[O-])ccc6F)c6ccc3[nH]6)C=C5)C=C4)cc2)c2ccc(F)cc2)cc1
REMARK SMILES IDX 17 1 16 2 15 3 14 4 13 5 11 6 12 7 10 9 9 10 8 11 5 12 6 13
REMARK SMILES IDX 94 14 7 15 93 16 2 17 1 18 3 19 4 20 86 21 87 22 92 23 88 24
REMARK SMILES IDX 91 25 89 26 90 27 18 28 19 29 20 30 21 31 22 33 23 34 24 35
REMARK SMILES IDX 85 36 25 37 84 38 26 39 27 40 28 41 78 42 29 43 83 44 77 45
REMARK SMILES IDX 79 46 30 47 82 48 76 49 75 50 31 52 63 53 43 54 62 55 44 56
REMARK SMILES IDX 47 57 61 58 80 59 45 60 46 61 60 63 81 64 48 65 32 66 33 67
REMARK SMILES IDX 41 68 34 69 40 70 42 71 39 72 35 73 36 74 37 75 38 76 64 77
REMARK SMILES IDX 65 78 73 79 66 80 72 81 74 82 71 83 67 84 68 85 69 86 70 87
REMARK SMILES IDX 49 88 50 89 58 90 51 91 57 92 59 93 56 94 52 95 53 96 54 97
REMARK SMILES IDX 55 98
REMARK H PARENT 13 8 20 32 79 51 47 62
REMARK Flexibility Score: inf
ROOT
ATOM      1  C   UNL A   1      34.672  24.012  23.663  1.00  0.00     0.002 C 
ENDROOT
BRANCH   1   2
ATOM      2  C   UNL A   1      33.558  23.557  22.713  1.00  0.00     0.002 C 
BRANCH   2   3
ATOM      3  C   UNL A   1      32.652  22.440  23.259  1.00  0.00     0.021 C 
BRANCH   3   4
ATOM      4  C   UNL A   1      31.233  22.912  23.591  1.00  0.00     0.116 C 
BRANCH   4   5
ATOM      5  N   UNL A   1      31.096  23.066  25.027  1.00  0.00    -0.352 N 
ATOM      6  C   UNL A   1      31.016  24.130  25.866  1.00  0.00     0.251 C 
ATOM      7  O   UNL A   1      31.007  23.869  27.072  1.00  0.00    -0.269 OA
ATOM      8  H   UNL A   1      31.051  22.203  25.500  1.00  0.00     0.163 HD
BRANCH   6   9
ATOM      9  C   UNL A   1      30.839  25.557  25.398  1.00  0.00     0.047 C 
ATOM     10  C   UNL A   1      30.057  25.892  24.345  1.00  0.00     0.022 C 
BRANCH  10  11
ATOM     11  C   UNL A   1      29.672  27.238  23.856  1.00  0.00    -0.025 A 
ATOM     12  C   UNL A   1      28.756  29.790  23.118  1.00  0.00     0.067 A 
ATOM     13  C   UNL A   1      30.107  29.590  23.400  1.00  0.00     0.021 A 
ATOM     14  C   UNL A   1      27.864  28.719  23.151  1.00  0.00     0.021 A 
ATOM     15  C   UNL A   1      30.563  28.310  23.729  1.00  0.00     0.009 A 
ATOM     16  C   UNL A   1      28.323  27.452  23.527  1.00  0.00     0.009 A 
BRANCH  12  17
ATOM     17  S   UNL A   1      28.161  31.415  22.719  1.00  0.00     0.175 S 
ATOM     18  C   UNL A   1      29.340  32.533  23.429  1.00  0.00     0.163 C 
ATOM     19  O   UNL A   1      26.902  31.581  23.423  1.00  0.00    -0.224 OA
ATOM     20  O   UNL A   1      28.244  31.568  21.281  1.00  0.00    -0.224 OA
ENDBRANCH  12  17
ENDBRANCH  10  11
BRANCH   9  21
ATOM     21  C   UNL A   1      31.711  26.567  26.050  1.00  0.00    -0.013 A 
ATOM     22  C   UNL A   1      33.045  26.677  25.612  1.00  0.00     0.012 A 
ATOM     23  C   UNL A   1      31.235  27.461  27.020  1.00  0.00     0.012 A 
ATOM     24  C   UNL A   1      33.878  27.678  26.109  1.00  0.00     0.040 A 
ATOM     25  C   UNL A   1      32.070  28.471  27.508  1.00  0.00     0.040 A 
ATOM     26  C   UNL A   1      33.378  28.573  27.044  1.00  0.00     0.123 A 
ATOM     27  F   UNL A   1      34.166  29.557  27.497  1.00  0.00    -0.207 F 
ENDBRANCH   9  21
ENDBRANCH   6   9
ENDBRANCH   4   5
ENDBRANCH   3   4
ENDBRANCH   2   3
ENDBRANCH   1   2
BRANCH   1  28
ATOM     28  C   UNL A   1      35.769  22.976  23.917  1.00  0.00     0.021 C 
BRANCH  28  29
ATOM     29  C   UNL A   1      35.956  22.601  25.384  1.00  0.00     0.116 C 
BRANCH  29  30
ATOM     30  N   UNL A   1      36.742  21.389  25.536  1.00  0.00    -0.352 N 
ATOM     31  C   UNL A   1      38.093  21.254  25.747  1.00  0.00     0.251 C 
ATOM     32  H   UNL A   1      36.236  20.546  25.480  1.00  0.00     0.163 HD
ATOM     33  O   UNL A   1      38.622  20.153  25.629  1.00  0.00    -0.269 OA
BRANCH  31  34
ATOM     34  C   UNL A   1      38.904  22.441  26.097  1.00  0.00     0.039 A 
ATOM     35  C   UNL A   1      38.549  23.685  25.571  1.00  0.00     0.014 A 
ATOM     36  C   UNL A   1      40.019  22.323  26.934  1.00  0.00     0.014 A 
ATOM     37  C   UNL A   1      39.281  24.821  25.926  1.00  0.00     0.010 A 
ATOM     38  C   UNL A   1      40.705  23.465  27.337  1.00  0.00     0.010 A 
ATOM     39  C   UNL A   1      40.348  24.724  26.833  1.00  0.00    -0.014 A 
BRANCH  39  40
ATOM     40  C   UNL A   1      41.111  25.927  27.256  1.00  0.00     0.031 A 
ATOM     41  C   UNL A   1      40.451  26.977  28.107  1.00  0.00     0.074 A 
ATOM     42  C   UNL A   1      42.373  26.103  26.822  1.00  0.00     0.049 A 
ATOM     43  N   UNL A   1      40.919  28.128  28.518  1.00  0.00    -0.248 NA
ATOM     44  C   UNL A   1      39.066  26.708  28.519  1.00  0.00     0.031 C 
ATOM     45  C   UNL A   1      43.109  25.174  25.961  1.00  0.00     0.029 A 
ATOM     46  N   UNL A   1      43.260  27.128  27.037  1.00  0.00    -0.354 N 
ATOM     47  C   UNL A   1      39.881  28.729  29.225  1.00  0.00     0.074 A 
ATOM     48  C   UNL A   1      38.742  27.839  29.125  1.00  0.00     0.031 C 
ATOM     49  C   UNL A   1      44.341  25.660  25.742  1.00  0.00     0.029 A 
ATOM     50  C   UNL A   1      44.470  26.952  26.409  1.00  0.00     0.049 A 
ATOM     51  H   UNL A   1      43.049  27.916  27.588  1.00  0.00     0.167 HD
ATOM     52  C   UNL A   1      39.886  29.899  29.911  1.00  0.00     0.034 A 
ATOM     53  C   UNL A   1      45.559  27.745  26.369  1.00  0.00     0.034 A 
ATOM     54  C   UNL A   1      41.036  30.767  30.005  1.00  0.00     0.049 A 
ATOM     55  C   UNL A   1      45.537  29.052  27.116  1.00  0.00     0.074 A 
ATOM     56  C   UNL A   1      41.175  31.943  30.723  1.00  0.00     0.029 A 
ATOM     57  N   UNL A   1      42.244  30.560  29.351  1.00  0.00    -0.354 N 
ATOM     58  N   UNL A   1      44.567  29.584  27.824  1.00  0.00    -0.248 NA
ATOM     59  C   UNL A   1      46.762  29.862  27.066  1.00  0.00     0.031 C 
ATOM     60  C   UNL A   1      42.440  32.477  30.449  1.00  0.00     0.029 A 
ATOM     61  C   UNL A   1      43.120  31.600  29.620  1.00  0.00     0.049 A 
ATOM     62  H   UNL A   1      42.450  29.785  28.778  1.00  0.00     0.167 HD
ATOM     63  C   UNL A   1      45.076  30.779  28.326  1.00  0.00     0.074 A 
ATOM     64  C   UNL A   1      46.440  30.881  27.848  1.00  0.00     0.031 C 
ATOM     65  C   UNL A   1      44.472  31.702  29.118  1.00  0.00     0.034 A 
BRANCH  52  66
ATOM     66  C   UNL A   1      38.594  30.310  30.581  1.00  0.00     0.023 A 
ATOM     67  C   UNL A   1      37.628  31.082  29.911  1.00  0.00     0.031 A 
ATOM     68  C   UNL A   1      38.348  29.976  31.925  1.00  0.00     0.131 A 
ATOM     69  C   UNL A   1      36.518  31.580  30.610  1.00  0.00     0.055 A 
ATOM     70  C   UNL A   1      37.194  30.397  32.590  1.00  0.00     0.041 A 
ATOM     71  F   UNL A   1      39.239  29.257  32.626  1.00  0.00    -0.206 F 
ATOM     72  C   UNL A   1      36.281  31.222  31.938  1.00  0.00     0.022 A 
BRANCH  69  73
ATOM     73  S   UNL A   1      35.493  32.846  29.812  1.00  0.00     0.124 S 
ATOM     74  O   UNL A   1      35.223  32.233  28.514  1.00  0.00    -0.237 OA
ATOM     75  O   UNL A   1      34.356  32.948  30.720  1.00  0.00    -0.237 OA
ATOM     76  O   UNL A   1      36.366  34.016  29.769  1.00  0.00    -0.744 OA
ENDBRANCH  69  73
ENDBRANCH  52  66
BRANCH  53  77
ATOM     77  C   UNL A   1      46.761  27.326  25.597  1.00  0.00     0.023 A 
ATOM     78  C   UNL A   1      46.963  27.770  24.281  1.00  0.00     0.031 A 
ATOM     79  C   UNL A   1      47.720  26.465  26.159  1.00  0.00     0.131 A 
ATOM     80  C   UNL A   1      48.079  27.327  23.557  1.00  0.00     0.055 A 
ATOM     81  C   UNL A   1      48.852  26.060  25.450  1.00  0.00     0.041 A 
ATOM     82  F   UNL A   1      47.578  26.021  27.419  1.00  0.00    -0.206 F 
ATOM     83  C   UNL A   1      49.032  26.484  24.137  1.00  0.00     0.022 A 
BRANCH  80  84
ATOM     84  S   UNL A   1      48.245  27.829  21.823  1.00  0.00     0.124 S 
ATOM     85  O   UNL A   1      47.033  28.613  21.622  1.00  0.00    -0.237 OA
ATOM     86  O   UNL A   1      49.499  28.576  21.842  1.00  0.00    -0.237 OA
ATOM     87  O   UNL A   1      48.294  26.556  21.103  1.00  0.00    -0.744 OA
ENDBRANCH  80  84
ENDBRANCH  53  77
BRANCH  65  88
ATOM     88  C   UNL A   1      45.307  32.884  29.543  1.00  0.00     0.023 A 
ATOM     89  C   UNL A   1      46.088  32.856  30.711  1.00  0.00     0.031 A 
ATOM     90  C   UNL A   1      45.306  34.063  28.776  1.00  0.00     0.131 A 
ATOM     91  C   UNL A   1      46.795  34.003  31.107  1.00  0.00     0.055 A 
ATOM     92  C   UNL A   1      46.055  35.180  29.144  1.00  0.00     0.041 A 
ATOM     93  F   UNL A   1      44.574  34.146  27.653  1.00  0.00    -0.206 F 
ATOM     94  C   UNL A   1      46.796  35.159  30.322  1.00  0.00     0.022 A 
BRANCH  91  95
ATOM     95  S   UNL A   1      47.644  33.993  32.709  1.00  0.00     0.124 S 
ATOM     96  O   UNL A   1      49.023  34.272  32.323  1.00  0.00    -0.237 OA
ATOM     97  O   UNL A   1      46.957  35.057  33.434  1.00  0.00    -0.237 OA
ATOM     98  O   UNL A   1      47.405  32.643  33.218  1.00  0.00    -0.744 OA
ENDBRANCH  91  95
ENDBRANCH  65  88
ENDBRANCH  39  40
ENDBRANCH  31  34
ENDBRANCH  29  30
ENDBRANCH  28  29
ENDBRANCH   1  28
TORSDOF 19
ENDMDL
