MODEL 1
REMARK VINA RESULT:     -13.1      0.000      0.000
REMARK SMILES CC1(C)O[C@@H]2C[C@@H]3[C@H]4CCC5=CC(=O)C=C[C@@]5(C)[C@]4(F)[C@H](O)C[C@]3(C)[C@]2(C(=O)NCCCCCCNC(=O)c2ccc(-c3c4nc(c(-c5cc(S(=O)(=O)[O-])ccc5F)c5ccc([nH]5)c(-c5cc(S(=O)(=O)[O-])ccc5F)c5nc(c(-c6cc(S(=O)(=O)[O-])ccc6F)c6ccc3[nH]6)C=C5)C=C4)cc2)O1
REMARK SMILES IDX 33 1 32 2 31 3 30 4 29 5 27 6 28 7 26 9 1 10 2 11 4 12
REMARK SMILES IDX 102 13 3 14 5 15 6 16 24 17 7 18 23 19 25 20 8 21 21 22 9 23
REMARK SMILES IDX 19 24 10 25 17 26 20 27 11 28 16 29 18 30 12 31 15 32 13 33
REMARK SMILES IDX 14 34 22 35 34 37 35 38 36 39 37 40 38 42 39 43 40 44 101 45
REMARK SMILES IDX 41 46 100 47 42 48 43 49 44 50 94 51 45 52 99 53 93 54 95 55
REMARK SMILES IDX 46 56 98 57 92 58 91 59 47 61 79 62 59 63 78 64 60 65 63 66
REMARK SMILES IDX 77 67 96 68 61 69 62 70 76 72 97 73 64 74 48 75 49 76 57 77
REMARK SMILES IDX 50 78 56 79 58 80 55 81 51 82 52 83 53 84 54 85 80 86 81 87
REMARK SMILES IDX 89 88 82 89 88 90 90 91 87 92 83 93 84 94 85 95 86 96 65 97
REMARK SMILES IDX 66 98 74 99 67 100 73 101 75 102 72 103 68 104 69 105 70 106
REMARK SMILES IDX 71 107
REMARK H PARENT 29 8 22 36 36 41 95 60 63 71
REMARK Flexibility Score: inf
ROOT
ATOM      1  C   UNL A   1      33.927  30.683  27.609  1.00  0.00     0.002 C 
ENDROOT
BRANCH   1   2
ATOM      2  C   UNL A   1      33.182  29.679  26.724  1.00  0.00     0.002 C 
BRANCH   2   3
ATOM      3  C   UNL A   1      34.075  28.653  26.032  1.00  0.00     0.021 C 
BRANCH   3   4
ATOM      4  C   UNL A   1      34.035  28.629  24.491  1.00  0.00     0.116 C 
BRANCH   4   5
ATOM      5  N   UNL A   1      32.680  28.830  23.975  1.00  0.00    -0.353 N 
ATOM      6  C   UNL A   1      31.614  28.005  23.738  1.00  0.00     0.255 C 
ATOM      7  O   UNL A   1      30.583  28.567  23.352  1.00  0.00    -0.272 OA
ATOM      8  H   UNL A   1      32.494  29.770  23.745  1.00  0.00     0.163 HD
BRANCH   6   9
ATOM      9  C   UNL A   1      31.640  26.464  23.955  1.00  0.00     0.181 C 
ATOM     10  C   UNL A   1      30.538  26.913  27.119  1.00  0.00     0.075 C 
ATOM     11  C   UNL A   1      30.816  25.847  26.070  1.00  0.00     0.164 C 
ATOM     12  O   UNL A   1      29.694  25.768  25.191  1.00  0.00    -0.344 OA
ATOM     13  O   UNL A   1      32.026  26.187  25.338  1.00  0.00    -0.331 OA
ATOM     14  C   UNL A   1      30.948  24.490  26.789  1.00  0.00     0.075 C 
ATOM     15  C   UNL A   1      30.200  25.804  23.860  1.00  0.00     0.164 C 
ATOM     16  C   UNL A   1      30.385  24.312  23.314  1.00  0.00     0.040 C 
ATOM     17  C   UNL A   1      32.397  25.565  22.878  1.00  0.00     0.014 C 
ATOM     18  C   UNL A   1      31.906  24.171  23.384  1.00  0.00     0.008 C 
ATOM     19  C   UNL A   1      33.904  25.514  22.680  1.00  0.00     0.046 C 
ATOM     20  C   UNL A   1      31.868  26.010  21.471  1.00  0.00     0.015 C 
ATOM     21  C   UNL A   1      32.859  23.040  23.896  1.00  0.00     0.035 C 
ATOM     22  C   UNL A   1      34.728  24.743  23.688  1.00  0.00     0.154 C 
ATOM     23  C   UNL A   1      32.426  21.597  23.695  1.00  0.00     0.012 C 
ATOM     24  C   UNL A   1      34.367  23.238  23.616  1.00  0.00     0.152 C 
ATOM     25  C   UNL A   1      33.176  20.733  24.727  1.00  0.00     0.032 C 
ATOM     26  C   UNL A   1      35.265  22.331  24.555  1.00  0.00     0.044 C 
ATOM     27  F   UNL A   1      34.567  22.835  22.316  1.00  0.00    -0.239 F 
ATOM     28  C   UNL A   1      34.680  20.910  24.698  1.00  0.00    -0.053 C 
ATOM     29  C   UNL A   1      36.701  22.255  24.028  1.00  0.00    -0.009 C 
ATOM     30  C   UNL A   1      35.399  22.900  25.997  1.00  0.00     0.024 C 
ATOM     31  C   UNL A   1      35.484  19.845  24.891  1.00  0.00     0.052 C 
ATOM     32  C   UNL A   1      37.495  21.189  24.207  1.00  0.00     0.048 C 
ATOM     33  C   UNL A   1      36.955  19.986  24.864  1.00  0.00     0.178 C 
ATOM     34  O   UNL A   1      37.686  19.115  25.337  1.00  0.00    -0.290 OA
BRANCH  22  35
ATOM     35  O   UNL A   1      34.596  25.333  24.972  1.00  0.00    -0.390 OA
ATOM     36  H   UNL A   1      34.912  26.251  24.940  1.00  0.00     0.211 HD
ENDBRANCH  22  35
ENDBRANCH   6   9
ENDBRANCH   4   5
ENDBRANCH   3   4
ENDBRANCH   2   3
ENDBRANCH   1   2
BRANCH   1  37
ATOM     37  C   UNL A   1      33.781  32.170  27.243  1.00  0.00     0.021 C 
BRANCH  37  38
ATOM     38  C   UNL A   1      32.439  32.824  27.579  1.00  0.00     0.116 C 
BRANCH  38  39
ATOM     39  N   UNL A   1      32.569  34.251  27.826  1.00  0.00    -0.352 N 
ATOM     40  C   UNL A   1      33.372  34.935  28.702  1.00  0.00     0.251 C 
ATOM     41  H   UNL A   1      31.986  34.819  27.273  1.00  0.00     0.163 HD
ATOM     42  O   UNL A   1      33.143  36.128  28.910  1.00  0.00    -0.269 OA
BRANCH  40  43
ATOM     43  C   UNL A   1      34.492  34.267  29.403  1.00  0.00     0.039 A 
ATOM     44  C   UNL A   1      35.797  34.475  28.941  1.00  0.00     0.014 A 
ATOM     45  C   UNL A   1      34.266  33.387  30.464  1.00  0.00     0.014 A 
ATOM     46  C   UNL A   1      36.872  33.845  29.575  1.00  0.00     0.010 A 
ATOM     47  C   UNL A   1      35.345  32.809  31.136  1.00  0.00     0.010 A 
ATOM     48  C   UNL A   1      36.660  33.028  30.696  1.00  0.00    -0.014 A 
BRANCH  48  49
ATOM     49  C   UNL A   1      37.800  32.388  31.409  1.00  0.00     0.031 A 
ATOM     50  C   UNL A   1      38.539  31.236  30.782  1.00  0.00     0.074 A 
ATOM     51  C   UNL A   1      38.136  32.812  32.645  1.00  0.00     0.049 A 
ATOM     52  N   UNL A   1      39.506  30.504  31.274  1.00  0.00    -0.248 NA
ATOM     53  C   UNL A   1      38.112  30.836  29.433  1.00  0.00     0.031 C 
ATOM     54  C   UNL A   1      37.478  33.900  33.371  1.00  0.00     0.029 A 
ATOM     55  N   UNL A   1      39.109  32.378  33.512  1.00  0.00    -0.354 N 
ATOM     56  C   UNL A   1      39.797  29.551  30.302  1.00  0.00     0.074 A 
ATOM     57  C   UNL A   1      38.859  29.764  29.220  1.00  0.00     0.031 C 
ATOM     58  C   UNL A   1      38.078  34.061  34.560  1.00  0.00     0.029 A 
ATOM     59  C   UNL A   1      39.130  33.061  34.706  1.00  0.00     0.049 A 
ATOM     60  H   UNL A   1      39.731  31.645  33.299  1.00  0.00     0.167 HD
ATOM     61  C   UNL A   1      40.768  28.604  30.303  1.00  0.00     0.034 A 
ATOM     62  C   UNL A   1      39.900  32.893  35.800  1.00  0.00     0.034 A 
ATOM     63  C   UNL A   1      41.701  28.412  31.389  1.00  0.00     0.049 A 
ATOM     64  C   UNL A   1      40.951  31.811  35.792  1.00  0.00     0.074 A 
ATOM     65  C   UNL A   1      42.754  27.517  31.473  1.00  0.00     0.029 A 
ATOM     66  N   UNL A   1      41.689  29.120  32.585  1.00  0.00    -0.354 N 
ATOM     67  N   UNL A   1      41.243  30.949  34.846  1.00  0.00    -0.248 NA
ATOM     68  C   UNL A   1      41.784  31.687  36.996  1.00  0.00     0.031 C 
ATOM     69  C   UNL A   1      43.329  27.632  32.744  1.00  0.00     0.029 A 
ATOM     70  C   UNL A   1      42.693  28.659  33.423  1.00  0.00     0.049 A 
ATOM     71  H   UNL A   1      41.059  29.844  32.804  1.00  0.00     0.167 HD
ATOM     72  C   UNL A   1      42.317  30.205  35.328  1.00  0.00     0.074 A 
ATOM     73  C   UNL A   1      42.628  30.730  36.641  1.00  0.00     0.031 C 
ATOM     74  C   UNL A   1      42.990  29.186  34.736  1.00  0.00     0.034 A 
BRANCH  61  75
ATOM     75  C   UNL A   1      40.849  27.686  29.104  1.00  0.00     0.023 A 
ATOM     76  C   UNL A   1      41.782  27.896  28.073  1.00  0.00     0.031 A 
ATOM     77  C   UNL A   1      39.966  26.598  28.976  1.00  0.00     0.131 A 
ATOM     78  C   UNL A   1      41.759  27.084  26.928  1.00  0.00     0.055 A 
ATOM     79  C   UNL A   1      40.006  25.741  27.875  1.00  0.00     0.041 A 
ATOM     80  F   UNL A   1      39.039  26.357  29.917  1.00  0.00    -0.206 F 
ATOM     81  C   UNL A   1      40.895  25.991  26.834  1.00  0.00     0.022 A 
BRANCH  78  82
ATOM     82  S   UNL A   1      42.767  27.570  25.502  1.00  0.00     0.124 S 
ATOM     83  O   UNL A   1      44.059  27.836  26.131  1.00  0.00    -0.237 OA
ATOM     84  O   UNL A   1      42.703  26.386  24.651  1.00  0.00    -0.237 OA
ATOM     85  O   UNL A   1      42.080  28.751  24.981  1.00  0.00    -0.744 OA
ENDBRANCH  78  82
ENDBRANCH  61  75
BRANCH  62  86
ATOM     86  C   UNL A   1      39.706  33.756  37.002  1.00  0.00     0.023 A 
ATOM     87  C   UNL A   1      39.055  33.269  38.146  1.00  0.00     0.031 A 
ATOM     88  C   UNL A   1      40.129  35.097  37.008  1.00  0.00     0.131 A 
ATOM     89  C   UNL A   1      38.803  34.126  39.228  1.00  0.00     0.055 A 
ATOM     90  C   UNL A   1      39.927  35.932  38.107  1.00  0.00     0.041 A 
ATOM     91  F   UNL A   1      40.762  35.614  35.941  1.00  0.00    -0.206 F 
ATOM     92  C   UNL A   1      39.246  35.451  39.223  1.00  0.00     0.022 A 
BRANCH  89  93
ATOM     93  S   UNL A   1      37.804  33.510  40.611  1.00  0.00     0.124 S 
ATOM     94  O   UNL A   1      37.600  34.723  41.394  1.00  0.00    -0.237 OA
ATOM     95  O   UNL A   1      36.628  32.985  39.924  1.00  0.00    -0.237 OA
ATOM     96  O   UNL A   1      38.662  32.502  41.230  1.00  0.00    -0.744 OA
ENDBRANCH  89  93
ENDBRANCH  62  86
BRANCH  74  97
ATOM     97  C   UNL A   1      44.166  28.609  35.487  1.00  0.00     0.023 A 
ATOM     98  C   UNL A   1      44.016  27.572  36.425  1.00  0.00     0.031 A 
ATOM     99  C   UNL A   1      45.460  29.115  35.266  1.00  0.00     0.131 A 
ATOM    100  C   UNL A   1      45.129  27.115  37.147  1.00  0.00     0.055 A 
ATOM    101  C   UNL A   1      46.573  28.613  35.940  1.00  0.00     0.041 A 
ATOM    102  F   UNL A   1      45.664  30.108  34.384  1.00  0.00    -0.206 F 
ATOM    103  C   UNL A   1      46.409  27.615  36.897  1.00  0.00     0.022 A 
BRANCH 100 104
ATOM    104  S   UNL A   1      44.868  25.923  38.490  1.00  0.00     0.124 S 
ATOM    105  O   UNL A   1      46.225  25.734  38.995  1.00  0.00    -0.237 OA
ATOM    106  O   UNL A   1      43.954  26.640  39.371  1.00  0.00    -0.237 OA
ATOM    107  O   UNL A   1      44.293  24.763  37.812  1.00  0.00    -0.744 OA
ENDBRANCH 100 104
ENDBRANCH  74  97
ENDBRANCH  48  49
ENDBRANCH  40  43
ENDBRANCH  38  39
ENDBRANCH  37  38
ENDBRANCH   1  37
TORSDOF 17
ENDMDL
MODEL 2
REMARK VINA RESULT:     -12.7      1.024      7.324
REMARK SMILES CC1(C)O[C@@H]2C[C@@H]3[C@H]4CCC5=CC(=O)C=C[C@@]5(C)[C@]4(F)[C@H](O)C[C@]3(C)[C@]2(C(=O)NCCCCCCNC(=O)c2ccc(-c3c4nc(c(-c5cc(S(=O)(=O)[O-])ccc5F)c5ccc([nH]5)c(-c5cc(S(=O)(=O)[O-])ccc5F)c5nc(c(-c6cc(S(=O)(=O)[O-])ccc6F)c6ccc3[nH]6)C=C5)C=C4)cc2)O1
REMARK SMILES IDX 33 1 32 2 31 3 30 4 29 5 27 6 28 7 26 9 1 10 2 11 4 12
REMARK SMILES IDX 102 13 3 14 5 15 6 16 24 17 7 18 23 19 25 20 8 21 21 22 9 23
REMARK SMILES IDX 19 24 10 25 17 26 20 27 11 28 16 29 18 30 12 31 15 32 13 33
REMARK SMILES IDX 14 34 22 35 34 37 35 38 36 39 37 40 38 42 39 43 40 44 101 45
REMARK SMILES IDX 41 46 100 47 42 48 43 49 44 50 94 51 45 52 99 53 93 54 95 55
REMARK SMILES IDX 46 56 98 57 92 58 91 59 47 61 79 62 59 63 78 64 60 65 63 66
REMARK SMILES IDX 77 67 96 68 61 69 62 70 76 72 97 73 64 74 48 75 49 76 57 77
REMARK SMILES IDX 50 78 56 79 58 80 55 81 51 82 52 83 53 84 54 85 80 86 81 87
REMARK SMILES IDX 89 88 82 89 88 90 90 91 87 92 83 93 84 94 85 95 86 96 65 97
REMARK SMILES IDX 66 98 74 99 67 100 73 101 75 102 72 103 68 104 69 105 70 106
REMARK SMILES IDX 71 107
REMARK H PARENT 29 8 22 36 36 41 95 60 63 71
REMARK Flexibility Score: inf
ROOT
ATOM      1  C   UNL A   1      34.455  31.304  27.996  1.00  0.00     0.002 C 
ENDROOT
BRANCH   1   2
ATOM      2  C   UNL A   1      34.366  29.996  27.202  1.00  0.00     0.002 C 
BRANCH   2   3
ATOM      3  C   UNL A   1      33.253  29.959  26.158  1.00  0.00     0.021 C 
BRANCH   3   4
ATOM      4  C   UNL A   1      33.521  29.121  24.891  1.00  0.00     0.116 C 
BRANCH   4   5
ATOM      5  N   UNL A   1      32.409  29.189  23.943  1.00  0.00    -0.353 N 
ATOM      6  C   UNL A   1      31.527  28.273  23.436  1.00  0.00     0.255 C 
ATOM      7  O   UNL A   1      30.656  28.732  22.687  1.00  0.00    -0.272 OA
ATOM      8  H   UNL A   1      32.262  30.097  23.590  1.00  0.00     0.163 HD
BRANCH   6   9
ATOM      9  C   UNL A   1      31.559  26.754  23.773  1.00  0.00     0.181 C 
ATOM     10  C   UNL A   1      30.701  27.466  26.964  1.00  0.00     0.075 C 
ATOM     11  C   UNL A   1      30.892  26.316  25.986  1.00  0.00     0.164 C 
ATOM     12  O   UNL A   1      29.706  26.183  25.202  1.00  0.00    -0.344 OA
ATOM     13  O   UNL A   1      32.046  26.582  25.141  1.00  0.00    -0.331 OA
ATOM     14  C   UNL A   1      31.069  25.019  26.799  1.00  0.00     0.075 C 
ATOM     15  C   UNL A   1      30.112  26.107  23.838  1.00  0.00     0.164 C 
ATOM     16  C   UNL A   1      30.245  24.574  23.401  1.00  0.00     0.040 C 
ATOM     17  C   UNL A   1      32.227  25.763  22.718  1.00  0.00     0.014 C 
ATOM     18  C   UNL A   1      31.765  24.420  23.368  1.00  0.00     0.008 C 
ATOM     19  C   UNL A   1      33.714  25.677  22.413  1.00  0.00     0.046 C 
ATOM     20  C   UNL A   1      31.597  26.102  21.323  1.00  0.00     0.015 C 
ATOM     21  C   UNL A   1      32.747  23.320  23.897  1.00  0.00     0.035 C 
ATOM     22  C   UNL A   1      34.606  24.978  23.415  1.00  0.00     0.154 C 
ATOM     23  C   UNL A   1      32.290  21.872  23.845  1.00  0.00     0.012 C 
ATOM     24  C   UNL A   1      34.230  23.476  23.490  1.00  0.00     0.152 C 
ATOM     25  C   UNL A   1      33.110  21.083  24.883  1.00  0.00     0.032 C 
ATOM     26  C   UNL A   1      35.191  22.635  24.429  1.00  0.00     0.044 C 
ATOM     27  F   UNL A   1      34.329  22.969  22.216  1.00  0.00    -0.239 F 
ATOM     28  C   UNL A   1      34.608  21.238  24.729  1.00  0.00    -0.053 C 
ATOM     29  C   UNL A   1      36.582  22.500  23.805  1.00  0.00    -0.009 C 
ATOM     30  C   UNL A   1      35.436  23.315  25.808  1.00  0.00     0.024 C 
ATOM     31  C   UNL A   1      35.417  20.181  24.946  1.00  0.00     0.052 C 
ATOM     32  C   UNL A   1      37.381  21.441  24.009  1.00  0.00     0.048 C 
ATOM     33  C   UNL A   1      36.883  20.301  24.798  1.00  0.00     0.178 C 
ATOM     34  O   UNL A   1      37.642  19.462  25.284  1.00  0.00    -0.290 OA
BRANCH  22  35
ATOM     35  O   UNL A   1      34.575  25.670  24.654  1.00  0.00    -0.390 OA
ATOM     36  H   UNL A   1      34.223  26.564  24.516  1.00  0.00     0.211 HD
ENDBRANCH  22  35
ENDBRANCH   6   9
ENDBRANCH   4   5
ENDBRANCH   3   4
ENDBRANCH   2   3
ENDBRANCH   1   2
BRANCH   1  37
ATOM     37  C   UNL A   1      33.228  32.230  27.943  1.00  0.00     0.021 C 
BRANCH  37  38
ATOM     38  C   UNL A   1      33.507  33.714  27.694  1.00  0.00     0.116 C 
BRANCH  38  39
ATOM     39  N   UNL A   1      33.038  34.553  28.784  1.00  0.00    -0.352 N 
ATOM     40  C   UNL A   1      33.407  34.590  30.104  1.00  0.00     0.251 C 
ATOM     41  H   UNL A   1      32.341  35.202  28.534  1.00  0.00     0.163 HD
ATOM     42  O   UNL A   1      32.707  35.218  30.901  1.00  0.00    -0.269 OA
BRANCH  40  43
ATOM     43  C   UNL A   1      34.618  33.886  30.585  1.00  0.00     0.039 A 
ATOM     44  C   UNL A   1      34.469  32.836  31.498  1.00  0.00     0.014 A 
ATOM     45  C   UNL A   1      35.898  34.292  30.199  1.00  0.00     0.014 A 
ATOM     46  C   UNL A   1      35.596  32.163  31.980  1.00  0.00     0.010 A 
ATOM     47  C   UNL A   1      37.018  33.579  30.632  1.00  0.00     0.010 A 
ATOM     48  C   UNL A   1      36.880  32.510  31.531  1.00  0.00    -0.014 A 
BRANCH  48  49
ATOM     49  C   UNL A   1      38.085  31.771  32.000  1.00  0.00     0.031 A 
ATOM     50  C   UNL A   1      38.763  32.162  33.286  1.00  0.00     0.074 A 
ATOM     51  C   UNL A   1      38.599  30.781  31.242  1.00  0.00     0.049 A 
ATOM     52  N   UNL A   1      39.859  31.690  33.824  1.00  0.00    -0.248 NA
ATOM     53  C   UNL A   1      38.139  33.249  34.056  1.00  0.00     0.031 C 
ATOM     54  C   UNL A   1      38.049  30.329  29.962  1.00  0.00     0.029 A 
ATOM     55  N   UNL A   1      39.698  29.981  31.429  1.00  0.00    -0.354 N 
ATOM     56  C   UNL A   1      40.064  32.427  34.986  1.00  0.00     0.074 A 
ATOM     57  C   UNL A   1      39.010  33.418  35.039  1.00  0.00     0.031 C 
ATOM     58  C   UNL A   1      38.800  29.321  29.492  1.00  0.00     0.029 A 
ATOM     59  C   UNL A   1      39.912  29.084  30.408  1.00  0.00     0.049 A 
ATOM     60  H   UNL A   1      40.281  30.045  32.221  1.00  0.00     0.167 HD
ATOM     61  C   UNL A   1      41.027  32.278  35.930  1.00  0.00     0.034 A 
ATOM     62  C   UNL A   1      40.897  28.182  30.222  1.00  0.00     0.034 A 
ATOM     63  C   UNL A   1      42.067  31.277  35.864  1.00  0.00     0.049 A 
ATOM     64  C   UNL A   1      41.976  28.057  31.268  1.00  0.00     0.074 A 
ATOM     65  C   UNL A   1      43.062  31.006  36.788  1.00  0.00     0.029 A 
ATOM     66  N   UNL A   1      42.254  30.389  34.811  1.00  0.00    -0.354 N 
ATOM     67  N   UNL A   1      42.128  28.731  32.384  1.00  0.00    -0.248 NA
ATOM     68  C   UNL A   1      43.010  27.040  31.034  1.00  0.00     0.031 C 
ATOM     69  C   UNL A   1      43.891  30.008  36.261  1.00  0.00     0.029 A 
ATOM     70  C   UNL A   1      43.365  29.594  35.049  1.00  0.00     0.049 A 
ATOM     71  H   UNL A   1      41.679  30.333  34.013  1.00  0.00     0.167 HD
ATOM     72  C   UNL A   1      43.255  28.194  33.001  1.00  0.00     0.074 A 
ATOM     73  C   UNL A   1      43.733  27.133  32.140  1.00  0.00     0.031 C 
ATOM     74  C   UNL A   1      43.837  28.542  34.177  1.00  0.00     0.034 A 
BRANCH  61  75
ATOM     75  C   UNL A   1      41.015  33.238  37.098  1.00  0.00     0.023 A 
ATOM     76  C   UNL A   1      40.418  32.902  38.325  1.00  0.00     0.031 A 
ATOM     77  C   UNL A   1      41.587  34.517  36.977  1.00  0.00     0.131 A 
ATOM     78  C   UNL A   1      40.335  33.856  39.352  1.00  0.00     0.055 A 
ATOM     79  C   UNL A   1      41.580  35.431  38.032  1.00  0.00     0.041 A 
ATOM     80  F   UNL A   1      42.155  34.906  35.824  1.00  0.00    -0.206 F 
ATOM     81  C   UNL A   1      40.937  35.109  39.223  1.00  0.00     0.022 A 
BRANCH  78  82
ATOM     82  S   UNL A   1      39.301  33.488  40.795  1.00  0.00     0.124 S 
ATOM     83  O   UNL A   1      37.970  33.825  40.297  1.00  0.00    -0.237 OA
ATOM     84  O   UNL A   1      39.561  32.070  41.018  1.00  0.00    -0.237 OA
ATOM     85  O   UNL A   1      39.819  34.387  41.826  1.00  0.00    -0.744 OA
ENDBRANCH  78  82
ENDBRANCH  61  75
BRANCH  62  86
ATOM     86  C   UNL A   1      40.923  27.333  28.995  1.00  0.00     0.023 A 
ATOM     87  C   UNL A   1      41.837  27.584  27.959  1.00  0.00     0.031 A 
ATOM     88  C   UNL A   1      40.004  26.283  28.820  1.00  0.00     0.131 A 
ATOM     89  C   UNL A   1      41.782  26.830  26.777  1.00  0.00     0.055 A 
ATOM     90  C   UNL A   1      39.988  25.499  27.666  1.00  0.00     0.041 A 
ATOM     91  F   UNL A   1      39.111  25.996  29.781  1.00  0.00    -0.206 F 
ATOM     92  C   UNL A   1      40.873  25.779  26.628  1.00  0.00     0.022 A 
BRANCH  89  93
ATOM     93  S   UNL A   1      42.858  27.301  25.395  1.00  0.00     0.124 S 
ATOM     94  O   UNL A   1      44.102  27.624  26.084  1.00  0.00    -0.237 OA
ATOM     95  O   UNL A   1      42.866  26.084  24.590  1.00  0.00    -0.237 OA
ATOM     96  O   UNL A   1      42.163  28.437  24.794  1.00  0.00    -0.744 OA
ENDBRANCH  89  93
ENDBRANCH  62  86
BRANCH  74  97
ATOM     97  C   UNL A   1      45.027  27.726  34.624  1.00  0.00     0.023 A 
ATOM     98  C   UNL A   1      44.887  26.575  35.419  1.00  0.00     0.031 A 
ATOM     99  C   UNL A   1      46.327  28.117  34.254  1.00  0.00     0.131 A 
ATOM    100  C   UNL A   1      46.027  25.889  35.865  1.00  0.00     0.055 A 
ATOM    101  C   UNL A   1      47.454  27.394  34.646  1.00  0.00     0.041 A 
ATOM    102  F   UNL A   1      46.524  29.210  33.498  1.00  0.00    -0.206 F 
ATOM    103  C   UNL A   1      47.308  26.280  35.468  1.00  0.00     0.022 A 
BRANCH 100 104
ATOM    104  S   UNL A   1      45.820  24.532  37.052  1.00  0.00     0.124 S 
ATOM    105  O   UNL A   1      44.513  24.831  37.628  1.00  0.00    -0.237 OA
ATOM    106  O   UNL A   1      45.884  23.355  36.194  1.00  0.00    -0.237 OA
ATOM    107  O   UNL A   1      46.951  24.698  37.962  1.00  0.00    -0.744 OA
ENDBRANCH 100 104
ENDBRANCH  74  97
ENDBRANCH  48  49
ENDBRANCH  40  43
ENDBRANCH  38  39
ENDBRANCH  37  38
ENDBRANCH   1  37
TORSDOF 17
ENDMDL
MODEL 3
REMARK VINA RESULT:     -12.6      5.826      9.541
REMARK SMILES CC1(C)O[C@@H]2C[C@@H]3[C@H]4CCC5=CC(=O)C=C[C@@]5(C)[C@]4(F)[C@H](O)C[C@]3(C)[C@]2(C(=O)NCCCCCCNC(=O)c2ccc(-c3c4nc(c(-c5cc(S(=O)(=O)[O-])ccc5F)c5ccc([nH]5)c(-c5cc(S(=O)(=O)[O-])ccc5F)c5nc(c(-c6cc(S(=O)(=O)[O-])ccc6F)c6ccc3[nH]6)C=C5)C=C4)cc2)O1
REMARK SMILES IDX 33 1 32 2 31 3 30 4 29 5 27 6 28 7 26 9 1 10 2 11 4 12
REMARK SMILES IDX 102 13 3 14 5 15 6 16 24 17 7 18 23 19 25 20 8 21 21 22 9 23
REMARK SMILES IDX 19 24 10 25 17 26 20 27 11 28 16 29 18 30 12 31 15 32 13 33
REMARK SMILES IDX 14 34 22 35 34 37 35 38 36 39 37 40 38 42 39 43 40 44 101 45
REMARK SMILES IDX 41 46 100 47 42 48 43 49 44 50 94 51 45 52 99 53 93 54 95 55
REMARK SMILES IDX 46 56 98 57 92 58 91 59 47 61 79 62 59 63 78 64 60 65 63 66
REMARK SMILES IDX 77 67 96 68 61 69 62 70 76 72 97 73 64 74 48 75 49 76 57 77
REMARK SMILES IDX 50 78 56 79 58 80 55 81 51 82 52 83 53 84 54 85 80 86 81 87
REMARK SMILES IDX 89 88 82 89 88 90 90 91 87 92 83 93 84 94 85 95 86 96 65 97
REMARK SMILES IDX 66 98 74 99 67 100 73 101 75 102 72 103 68 104 69 105 70 106
REMARK SMILES IDX 71 107
REMARK H PARENT 29 8 22 36 36 41 95 60 63 71
REMARK Flexibility Score: inf
ROOT
ATOM      1  C   UNL A   1      39.254  22.812  26.501  1.00  0.00     0.002 C 
ENDROOT
BRANCH   1   2
ATOM      2  C   UNL A   1      37.963  23.581  26.196  1.00  0.00     0.002 C 
BRANCH   2   3
ATOM      3  C   UNL A   1      36.811  22.717  25.691  1.00  0.00     0.021 C 
BRANCH   3   4
ATOM      4  C   UNL A   1      35.497  22.777  26.498  1.00  0.00     0.116 C 
BRANCH   4   5
ATOM      5  N   UNL A   1      34.571  21.711  26.116  1.00  0.00    -0.353 N 
ATOM      6  C   UNL A   1      33.415  21.665  25.384  1.00  0.00     0.255 C 
ATOM      7  O   UNL A   1      32.937  20.536  25.216  1.00  0.00    -0.272 OA
ATOM      8  H   UNL A   1      34.837  20.829  26.465  1.00  0.00     0.163 HD
BRANCH   6   9
ATOM      9  C   UNL A   1      32.729  22.914  24.759  1.00  0.00     0.181 C 
ATOM     10  C   UNL A   1      35.093  22.979  22.345  1.00  0.00     0.075 C 
ATOM     11  C   UNL A   1      33.770  23.600  22.765  1.00  0.00     0.164 C 
ATOM     12  O   UNL A   1      32.710  22.735  22.357  1.00  0.00    -0.344 OA
ATOM     13  O   UNL A   1      33.758  23.793  24.207  1.00  0.00    -0.331 OA
ATOM     14  C   UNL A   1      33.606  24.935  22.011  1.00  0.00     0.075 C 
ATOM     15  C   UNL A   1      31.853  22.563  23.483  1.00  0.00     0.164 C 
ATOM     16  C   UNL A   1      30.653  23.617  23.412  1.00  0.00     0.040 C 
ATOM     17  C   UNL A   1      31.621  23.673  25.618  1.00  0.00     0.014 C 
ATOM     18  C   UNL A   1      31.084  24.611  24.491  1.00  0.00     0.008 C 
ATOM     19  C   UNL A   1      31.892  24.504  26.863  1.00  0.00     0.046 C 
ATOM     20  C   UNL A   1      30.624  22.577  26.133  1.00  0.00     0.015 C 
ATOM     21  C   UNL A   1      31.133  26.174  24.555  1.00  0.00     0.035 C 
ATOM     22  C   UNL A   1      32.486  25.883  26.682  1.00  0.00     0.154 C 
ATOM     23  C   UNL A   1      30.041  26.953  23.840  1.00  0.00     0.012 C 
ATOM     24  C   UNL A   1      31.480  26.791  25.930  1.00  0.00     0.152 C 
ATOM     25  C   UNL A   1      30.581  28.367  23.558  1.00  0.00     0.032 C 
ATOM     26  C   UNL A   1      31.969  28.293  25.797  1.00  0.00     0.044 C 
ATOM     27  F   UNL A   1      30.311  26.785  26.654  1.00  0.00    -0.239 F 
ATOM     28  C   UNL A   1      31.109  29.080  24.785  1.00  0.00    -0.053 C 
ATOM     29  C   UNL A   1      31.950  28.994  27.157  1.00  0.00    -0.009 C 
ATOM     30  C   UNL A   1      33.441  28.409  25.308  1.00  0.00     0.024 C 
ATOM     31  C   UNL A   1      30.903  30.404  24.932  1.00  0.00     0.052 C 
ATOM     32  C   UNL A   1      31.731  30.309  27.305  1.00  0.00     0.048 C 
ATOM     33  C   UNL A   1      31.403  31.125  26.121  1.00  0.00     0.178 C 
ATOM     34  O   UNL A   1      31.502  32.353  26.126  1.00  0.00    -0.290 OA
BRANCH  22  35
ATOM     35  O   UNL A   1      33.769  25.780  26.083  1.00  0.00    -0.390 OA
ATOM     36  H   UNL A   1      33.713  25.219  25.293  1.00  0.00     0.211 HD
ENDBRANCH  22  35
ENDBRANCH   6   9
ENDBRANCH   4   5
ENDBRANCH   3   4
ENDBRANCH   2   3
ENDBRANCH   1   2
BRANCH   1  37
ATOM     37  C   UNL A   1      39.419  21.441  25.824  1.00  0.00     0.021 C 
BRANCH  37  38
ATOM     38  C   UNL A   1      40.039  20.332  26.675  1.00  0.00     0.116 C 
BRANCH  38  39
ATOM     39  N   UNL A   1      41.297  19.855  26.126  1.00  0.00    -0.352 N 
ATOM     40  C   UNL A   1      42.449  20.531  25.817  1.00  0.00     0.251 C 
ATOM     41  H   UNL A   1      41.328  18.887  25.948  1.00  0.00     0.163 HD
ATOM     42  O   UNL A   1      43.308  19.964  25.138  1.00  0.00    -0.269 OA
BRANCH  40  43
ATOM     43  C   UNL A   1      42.672  21.922  26.272  1.00  0.00     0.039 A 
ATOM     44  C   UNL A   1      42.732  22.943  25.317  1.00  0.00     0.014 A 
ATOM     45  C   UNL A   1      42.890  22.221  27.620  1.00  0.00     0.014 A 
ATOM     46  C   UNL A   1      42.955  24.264  25.718  1.00  0.00     0.010 A 
ATOM     47  C   UNL A   1      43.049  23.548  28.025  1.00  0.00     0.010 A 
ATOM     48  C   UNL A   1      43.089  24.584  27.077  1.00  0.00    -0.014 A 
BRANCH  48  49
ATOM     49  C   UNL A   1      43.281  25.992  27.522  1.00  0.00     0.031 A 
ATOM     50  C   UNL A   1      44.654  26.610  27.518  1.00  0.00     0.074 A 
ATOM     51  C   UNL A   1      42.226  26.698  27.978  1.00  0.00     0.049 A 
ATOM     52  N   UNL A   1      45.034  27.792  27.934  1.00  0.00    -0.248 NA
ATOM     53  C   UNL A   1      45.750  25.775  27.004  1.00  0.00     0.031 C 
ATOM     54  C   UNL A   1      40.851  26.201  28.058  1.00  0.00     0.029 A 
ATOM     55  N   UNL A   1      42.142  27.979  28.465  1.00  0.00    -0.354 N 
ATOM     56  C   UNL A   1      46.411  27.840  27.743  1.00  0.00     0.074 A 
ATOM     57  C   UNL A   1      46.804  26.543  27.232  1.00  0.00     0.031 C 
ATOM     58  C   UNL A   1      40.060  27.170  28.543  1.00  0.00     0.029 A 
ATOM     59  C   UNL A   1      40.873  28.341  28.854  1.00  0.00     0.049 A 
ATOM     60  H   UNL A   1      42.919  28.581  28.531  1.00  0.00     0.167 HD
ATOM     61  C   UNL A   1      47.264  28.874  27.954  1.00  0.00     0.034 A 
ATOM     62  C   UNL A   1      40.417  29.482  29.411  1.00  0.00     0.034 A 
ATOM     63  C   UNL A   1      46.852  30.164  28.457  1.00  0.00     0.049 A 
ATOM     64  C   UNL A   1      41.389  30.606  29.669  1.00  0.00     0.074 A 
ATOM     65  C   UNL A   1      47.622  31.296  28.662  1.00  0.00     0.029 A 
ATOM     66  N   UNL A   1      45.558  30.492  28.846  1.00  0.00    -0.354 N 
ATOM     67  N   UNL A   1      42.681  30.651  29.439  1.00  0.00    -0.248 NA
ATOM     68  C   UNL A   1      40.839  31.838  30.249  1.00  0.00     0.031 C 
ATOM     69  C   UNL A   1      46.813  32.280  29.241  1.00  0.00     0.029 A 
ATOM     70  C   UNL A   1      45.518  31.796  29.317  1.00  0.00     0.049 A 
ATOM     71  H   UNL A   1      44.783  29.887  28.792  1.00  0.00     0.167 HD
ATOM     72  C   UNL A   1      43.089  31.928  29.815  1.00  0.00     0.074 A 
ATOM     73  C   UNL A   1      41.904  32.624  30.271  1.00  0.00     0.031 C 
ATOM     74  C   UNL A   1      44.330  32.478  29.778  1.00  0.00     0.034 A 
BRANCH  61  75
ATOM     75  C   UNL A   1      48.730  28.640  27.667  1.00  0.00     0.023 A 
ATOM     76  C   UNL A   1      49.261  28.776  26.373  1.00  0.00     0.031 A 
ATOM     77  C   UNL A   1      49.606  28.252  28.697  1.00  0.00     0.131 A 
ATOM     78  C   UNL A   1      50.604  28.451  26.126  1.00  0.00     0.055 A 
ATOM     79  C   UNL A   1      50.962  28.014  28.462  1.00  0.00     0.041 A 
ATOM     80  F   UNL A   1      49.156  28.084  29.951  1.00  0.00    -0.206 F 
ATOM     81  C   UNL A   1      51.465  28.097  27.168  1.00  0.00     0.022 A 
BRANCH  78  82
ATOM     82  S   UNL A   1      51.170  28.350  24.407  1.00  0.00     0.124 S 
ATOM     83  O   UNL A   1      49.941  27.969  23.714  1.00  0.00    -0.237 OA
ATOM     84  O   UNL A   1      51.653  29.703  24.153  1.00  0.00    -0.237 OA
ATOM     85  O   UNL A   1      52.202  27.315  24.445  1.00  0.00    -0.744 OA
ENDBRANCH  78  82
ENDBRANCH  61  75
BRANCH  62  86
ATOM     86  C   UNL A   1      38.978  29.621  29.778  1.00  0.00     0.023 A 
ATOM     87  C   UNL A   1      38.087  30.333  28.959  1.00  0.00     0.031 A 
ATOM     88  C   UNL A   1      38.478  29.081  30.977  1.00  0.00     0.131 A 
ATOM     89  C   UNL A   1      36.759  30.529  29.370  1.00  0.00     0.055 A 
ATOM     90  C   UNL A   1      37.144  29.230  31.356  1.00  0.00     0.041 A 
ATOM     91  F   UNL A   1      39.286  28.387  31.796  1.00  0.00    -0.206 F 
ATOM     92  C   UNL A   1      36.278  29.970  30.557  1.00  0.00     0.022 A 
BRANCH  89  93
ATOM     93  S   UNL A   1      35.690  31.603  28.374  1.00  0.00     0.124 S 
ATOM     94  O   UNL A   1      34.646  31.952  29.331  1.00  0.00    -0.237 OA
ATOM     95  O   UNL A   1      36.605  32.677  28.001  1.00  0.00    -0.237 OA
ATOM     96  O   UNL A   1      35.267  30.738  27.275  1.00  0.00    -0.744 OA
ENDBRANCH  89  93
ENDBRANCH  62  86
BRANCH  74  97
ATOM     97  C   UNL A   1      44.454  33.924  30.196  1.00  0.00     0.023 A 
ATOM     98  C   UNL A   1      44.214  34.982  29.302  1.00  0.00     0.031 A 
ATOM     99  C   UNL A   1      44.832  34.246  31.512  1.00  0.00     0.131 A 
ATOM    100  C   UNL A   1      44.408  36.308  29.718  1.00  0.00     0.055 A 
ATOM    101  C   UNL A   1      44.960  35.568  31.940  1.00  0.00     0.041 A 
ATOM    102  F   UNL A   1      45.077  33.278  32.410  1.00  0.00    -0.206 F 
ATOM    103  C   UNL A   1      44.761  36.608  31.036  1.00  0.00     0.022 A 
BRANCH 100 104
ATOM    104  S   UNL A   1      44.287  37.636  28.488  1.00  0.00     0.124 S 
ATOM    105  O   UNL A   1      42.855  37.660  28.208  1.00  0.00    -0.237 OA
ATOM    106  O   UNL A   1      44.815  38.784  29.215  1.00  0.00    -0.237 OA
ATOM    107  O   UNL A   1      45.125  37.161  27.388  1.00  0.00    -0.744 OA
ENDBRANCH 100 104
ENDBRANCH  74  97
ENDBRANCH  48  49
ENDBRANCH  40  43
ENDBRANCH  38  39
ENDBRANCH  37  38
ENDBRANCH   1  37
TORSDOF 17
ENDMDL
