MODEL 1
REMARK VINA RESULT:     -12.3      0.000      0.000
REMARK SMILES O=C(NCCCCCCNC(=O)c1cc(-c2cccc(Cl)c2)oc1C(F)(F)F)c1ccc(-c2c3nc(c(-c4cc(S(=O)(=O)[O-])ccc4F)c4ccc([nH]4)c(-c4cc(S(=O)(=O)[O-])ccc4F)c4nc(c(-c5cc(S(=O)(=O)[O-])ccc5F)c5ccc2[nH]5)C=C4)C=C3)cc1
REMARK SMILES IDX 5 1 4 2 3 3 1 4 2 5 29 7 30 8 91 9 31 10 90 11 32 12 33 13
REMARK SMILES IDX 34 14 84 15 35 16 89 17 83 18 85 19 36 20 88 21 82 22 81 23
REMARK SMILES IDX 37 25 69 26 49 27 68 28 50 29 53 30 67 31 86 32 51 33 52 34
REMARK SMILES IDX 66 36 87 37 54 38 38 39 39 40 47 41 40 42 46 43 48 44 45 45
REMARK SMILES IDX 41 46 42 47 43 48 44 49 70 50 71 51 79 52 72 53 78 54 80 55
REMARK SMILES IDX 77 56 73 57 74 58 75 59 76 60 55 61 56 62 64 63 57 64 63 65
REMARK SMILES IDX 65 66 62 67 58 68 59 69 60 70 61 71 6 72 7 73 8 74 9 75
REMARK SMILES IDX 10 76 11 77 12 79 13 80 14 81 24 82 15 83 23 84 25 85 26 86
REMARK SMILES IDX 27 87 28 88 16 89 17 90 22 91 18 92 20 93 19 94 21 95
REMARK H PARENT 3 6 85 24 53 35 10 78
REMARK Flexibility Score: inf
ROOT
ATOM      1  C   UNL A   1      34.873  22.030  26.025  1.00  0.00     0.021 C 
ENDROOT
BRANCH   1   2
ATOM      2  C   UNL A   1      36.321  22.435  25.793  1.00  0.00     0.116 C 
BRANCH   2   3
ATOM      3  N   UNL A   1      37.228  21.299  25.743  1.00  0.00    -0.352 N 
ATOM      4  O   UNL A   1      39.229  20.251  25.748  1.00  0.00    -0.269 OA
ATOM      5  C   UNL A   1      38.585  21.272  25.967  1.00  0.00     0.251 C 
ATOM      6  H   UNL A   1      36.815  20.433  25.518  1.00  0.00     0.163 HD
BRANCH   5   7
ATOM      7  C   UNL A   1      39.262  22.496  26.452  1.00  0.00     0.039 A 
ATOM      8  C   UNL A   1      38.879  23.746  25.966  1.00  0.00     0.014 A 
ATOM      9  C   UNL A   1      40.309  22.393  27.373  1.00  0.00     0.014 A 
ATOM     10  C   UNL A   1      39.644  24.864  26.266  1.00  0.00     0.010 A 
ATOM     11  C   UNL A   1      41.009  23.541  27.762  1.00  0.00     0.010 A 
ATOM     12  C   UNL A   1      40.702  24.784  27.188  1.00  0.00    -0.014 A 
BRANCH  12  13
ATOM     13  C   UNL A   1      41.401  26.040  27.571  1.00  0.00     0.031 A 
ATOM     14  C   UNL A   1      42.773  26.372  27.052  1.00  0.00     0.074 A 
ATOM     15  C   UNL A   1      40.737  26.921  28.347  1.00  0.00     0.049 A 
ATOM     16  N   UNL A   1      43.482  27.457  27.239  1.00  0.00    -0.248 NA
ATOM     17  C   UNL A   1      43.441  25.357  26.225  1.00  0.00     0.031 C 
ATOM     18  C   UNL A   1      39.406  26.693  28.921  1.00  0.00     0.029 A 
ATOM     19  N   UNL A   1      41.058  28.188  28.758  1.00  0.00    -0.354 N 
ATOM     20  C   UNL A   1      44.679  27.259  26.558  1.00  0.00     0.074 A 
ATOM     21  C   UNL A   1      44.615  25.927  25.990  1.00  0.00     0.031 C 
ATOM     22  C   UNL A   1      38.999  27.804  29.548  1.00  0.00     0.029 A 
ATOM     23  C   UNL A   1      40.068  28.793  29.497  1.00  0.00     0.049 A 
ATOM     24  H   UNL A   1      41.915  28.623  28.544  1.00  0.00     0.167 HD
ATOM     25  C   UNL A   1      45.723  28.113  26.413  1.00  0.00     0.034 A 
ATOM     26  C   UNL A   1      40.026  30.001  30.089  1.00  0.00     0.034 A 
ATOM     27  C   UNL A   1      45.770  29.435  26.999  1.00  0.00     0.049 A 
ATOM     28  C   UNL A   1      41.211  30.915  29.935  1.00  0.00     0.074 A 
ATOM     29  C   UNL A   1      46.780  30.380  26.918  1.00  0.00     0.029 A 
ATOM     30  N   UNL A   1      44.767  29.999  27.778  1.00  0.00    -0.354 N 
ATOM     31  N   UNL A   1      42.330  30.710  29.279  1.00  0.00    -0.248 NA
ATOM     32  C   UNL A   1      41.123  32.224  30.591  1.00  0.00     0.031 C 
ATOM     33  C   UNL A   1      46.416  31.485  27.696  1.00  0.00     0.029 A 
ATOM     34  C   UNL A   1      45.144  31.267  28.200  1.00  0.00     0.049 A 
ATOM     35  H   UNL A   1      43.913  29.564  27.997  1.00  0.00     0.167 HD
ATOM     36  C   UNL A   1      43.078  31.871  29.439  1.00  0.00     0.074 A 
ATOM     37  C   UNL A   1      42.262  32.785  30.213  1.00  0.00     0.031 C 
ATOM     38  C   UNL A   1      44.329  32.157  28.996  1.00  0.00     0.034 A 
BRANCH  25  39
ATOM     39  C   UNL A   1      46.914  27.632  25.615  1.00  0.00     0.023 A 
ATOM     40  C   UNL A   1      47.106  28.009  24.274  1.00  0.00     0.031 A 
ATOM     41  C   UNL A   1      47.873  26.785  26.203  1.00  0.00     0.131 A 
ATOM     42  C   UNL A   1      48.194  27.496  23.549  1.00  0.00     0.055 A 
ATOM     43  C   UNL A   1      48.993  26.339  25.498  1.00  0.00     0.041 A 
ATOM     44  F   UNL A   1      47.735  26.375  27.473  1.00  0.00    -0.206 F 
ATOM     45  C   UNL A   1      49.152  26.684  24.159  1.00  0.00     0.022 A 
BRANCH  42  46
ATOM     46  S   UNL A   1      48.271  27.807  21.764  1.00  0.00     0.124 S 
ATOM     47  O   UNL A   1      46.952  28.377  21.503  1.00  0.00    -0.237 OA
ATOM     48  O   UNL A   1      49.396  28.728  21.650  1.00  0.00    -0.237 OA
ATOM     49  O   UNL A   1      48.492  26.480  21.192  1.00  0.00    -0.744 OA
ENDBRANCH  42  46
ENDBRANCH  25  39
BRANCH  26  50
ATOM     50  C   UNL A   1      38.849  30.393  30.917  1.00  0.00     0.023 A 
ATOM     51  C   UNL A   1      37.744  31.049  30.354  1.00  0.00     0.031 A 
ATOM     52  C   UNL A   1      38.833  30.148  32.303  1.00  0.00     0.131 A 
ATOM     53  C   UNL A   1      36.694  31.481  31.179  1.00  0.00     0.055 A 
ATOM     54  C   UNL A   1      37.757  30.519  33.107  1.00  0.00     0.041 A 
ATOM     55  F   UNL A   1      39.863  29.520  32.894  1.00  0.00    -0.206 F 
ATOM     56  C   UNL A   1      36.685  31.205  32.548  1.00  0.00     0.022 A 
BRANCH  53  57
ATOM     57  S   UNL A   1      35.386  32.506  30.453  1.00  0.00     0.124 S 
ATOM     58  O   UNL A   1      36.087  33.763  30.220  1.00  0.00    -0.237 OA
ATOM     59  O   UNL A   1      35.029  31.741  29.263  1.00  0.00    -0.237 OA
ATOM     60  O   UNL A   1      34.365  32.543  31.498  1.00  0.00    -0.744 OA
ENDBRANCH  53  57
ENDBRANCH  26  50
BRANCH  38  61
ATOM     61  C   UNL A   1      44.864  33.527  29.332  1.00  0.00     0.023 A 
ATOM     62  C   UNL A   1      44.698  34.615  28.456  1.00  0.00     0.031 A 
ATOM     63  C   UNL A   1      45.596  33.736  30.513  1.00  0.00     0.131 A 
ATOM     64  C   UNL A   1      45.324  35.838  28.734  1.00  0.00     0.055 A 
ATOM     65  C   UNL A   1      46.158  34.977  30.819  1.00  0.00     0.041 A 
ATOM     66  F   UNL A   1      45.790  32.733  31.384  1.00  0.00    -0.206 F 
ATOM     67  C   UNL A   1      46.040  36.032  29.918  1.00  0.00     0.022 A 
BRANCH  64  68
ATOM     68  S   UNL A   1      45.298  37.136  27.465  1.00  0.00     0.124 S 
ATOM     69  O   UNL A   1      46.201  36.590  26.457  1.00  0.00    -0.237 OA
ATOM     70  O   UNL A   1      43.886  37.183  27.099  1.00  0.00    -0.237 OA
ATOM     71  O   UNL A   1      45.795  38.315  28.171  1.00  0.00    -0.744 OA
ENDBRANCH  64  68
ENDBRANCH  38  61
ENDBRANCH  12  13
ENDBRANCH   5   7
ENDBRANCH   2   3
ENDBRANCH   1   2
BRANCH   1  72
ATOM     72  C   UNL A   1      34.438  20.753  25.310  1.00  0.00     0.002 C 
BRANCH  72  73
ATOM     73  C   UNL A   1      33.363  20.934  24.235  1.00  0.00     0.002 C 
BRANCH  73  74
ATOM     74  C   UNL A   1      32.095  21.670  24.683  1.00  0.00     0.021 C 
BRANCH  74  75
ATOM     75  C   UNL A   1      31.704  22.868  23.822  1.00  0.00     0.116 C 
BRANCH  75  76
ATOM     76  N   UNL A   1      32.857  23.452  23.150  1.00  0.00    -0.352 N 
ATOM     77  C   UNL A   1      33.088  24.761  22.826  1.00  0.00     0.255 C 
ATOM     78  H   UNL A   1      33.566  22.819  22.893  1.00  0.00     0.163 HD
ATOM     79  O   UNL A   1      34.039  25.065  22.104  1.00  0.00    -0.269 OA
BRANCH  77  80
ATOM     80  C   UNL A   1      32.192  25.755  23.365  1.00  0.00     0.091 A 
ATOM     81  C   UNL A   1      31.076  26.368  22.734  1.00  0.00     0.065 A 
ATOM     82  C   UNL A   1      32.258  26.293  24.639  1.00  0.00     0.221 A 
ATOM     83  C   UNL A   1      30.595  27.311  23.612  1.00  0.00     0.135 A 
ATOM     84  O   UNL A   1      31.300  27.269  24.777  1.00  0.00    -0.451 OA
BRANCH  82  85
ATOM     85  C   UNL A   1      33.156  26.053  25.795  1.00  0.00     0.450 C 
ATOM     86  F   UNL A   1      33.041  27.026  26.739  1.00  0.00    -0.163 F 
ATOM     87  F   UNL A   1      32.884  24.875  26.416  1.00  0.00    -0.163 F 
ATOM     88  F   UNL A   1      34.469  26.022  25.452  1.00  0.00    -0.163 F 
ENDBRANCH  82  85
BRANCH  83  89
ATOM     89  C   UNL A   1      29.539  28.298  23.505  1.00  0.00     0.019 A 
ATOM     90  C   UNL A   1      28.217  27.884  23.285  1.00  0.00     0.012 A 
ATOM     91  C   UNL A   1      29.836  29.666  23.516  1.00  0.00     0.032 A 
ATOM     92  C   UNL A   1      27.206  28.820  23.067  1.00  0.00     0.002 A 
ATOM     93  C   UNL A   1      28.823  30.597  23.284  1.00  0.00     0.041 A 
ATOM     94  C   UNL A   1      27.512  30.180  23.056  1.00  0.00     0.020 A 
ATOM     95  Cl  UNL A   1      29.200  32.276  23.254  1.00  0.00    -0.084 Cl
ENDBRANCH  83  89
ENDBRANCH  77  80
ENDBRANCH  75  76
ENDBRANCH  74  75
ENDBRANCH  73  74
ENDBRANCH  72  73
ENDBRANCH   1  72
TORSDOF 18
ENDMDL
MODEL 2
REMARK VINA RESULT:     -12.1      4.973      9.817
REMARK SMILES O=C(NCCCCCCNC(=O)c1cc(-c2cccc(Cl)c2)oc1C(F)(F)F)c1ccc(-c2c3nc(c(-c4cc(S(=O)(=O)[O-])ccc4F)c4ccc([nH]4)c(-c4cc(S(=O)(=O)[O-])ccc4F)c4nc(c(-c5cc(S(=O)(=O)[O-])ccc5F)c5ccc2[nH]5)C=C4)C=C3)cc1
REMARK SMILES IDX 5 1 4 2 3 3 1 4 2 5 29 7 30 8 91 9 31 10 90 11 32 12 33 13
REMARK SMILES IDX 34 14 84 15 35 16 89 17 83 18 85 19 36 20 88 21 82 22 81 23
REMARK SMILES IDX 37 25 69 26 49 27 68 28 50 29 53 30 67 31 86 32 51 33 52 34
REMARK SMILES IDX 66 36 87 37 54 38 38 39 39 40 47 41 40 42 46 43 48 44 45 45
REMARK SMILES IDX 41 46 42 47 43 48 44 49 70 50 71 51 79 52 72 53 78 54 80 55
REMARK SMILES IDX 77 56 73 57 74 58 75 59 76 60 55 61 56 62 64 63 57 64 63 65
REMARK SMILES IDX 65 66 62 67 58 68 59 69 60 70 61 71 6 72 7 73 8 74 9 75
REMARK SMILES IDX 10 76 11 77 12 79 13 80 14 81 24 82 15 83 23 84 25 85 26 86
REMARK SMILES IDX 27 87 28 88 16 89 17 90 22 91 18 92 20 93 19 94 21 95
REMARK H PARENT 3 6 85 24 53 35 10 78
REMARK Flexibility Score: inf
ROOT
ATOM      1  C   UNL A   1      31.537  29.375  26.793  1.00  0.00     0.021 C 
ENDROOT
BRANCH   1   2
ATOM      2  C   UNL A   1      32.564  30.328  26.200  1.00  0.00     0.116 C 
BRANCH   2   3
ATOM      3  N   UNL A   1      32.277  31.724  26.489  1.00  0.00    -0.352 N 
ATOM      4  O   UNL A   1      32.506  33.702  27.556  1.00  0.00    -0.269 OA
ATOM      5  C   UNL A   1      32.961  32.590  27.311  1.00  0.00     0.251 C 
ATOM      6  H   UNL A   1      31.487  32.100  26.037  1.00  0.00     0.163 HD
BRANCH   5   7
ATOM      7  C   UNL A   1      34.241  32.154  27.915  1.00  0.00     0.039 A 
ATOM      8  C   UNL A   1      34.362  30.870  28.446  1.00  0.00     0.014 A 
ATOM      9  C   UNL A   1      35.317  33.045  27.981  1.00  0.00     0.014 A 
ATOM     10  C   UNL A   1      35.486  30.535  29.187  1.00  0.00     0.010 A 
ATOM     11  C   UNL A   1      36.496  32.663  28.634  1.00  0.00     0.010 A 
ATOM     12  C   UNL A   1      36.580  31.415  29.270  1.00  0.00    -0.014 A 
BRANCH  12  13
ATOM     13  C   UNL A   1      37.809  30.950  29.965  1.00  0.00     0.031 A 
ATOM     14  C   UNL A   1      38.119  31.356  31.380  1.00  0.00     0.074 A 
ATOM     15  C   UNL A   1      38.614  30.084  29.315  1.00  0.00     0.049 A 
ATOM     16  N   UNL A   1      39.114  30.977  32.144  1.00  0.00    -0.248 NA
ATOM     17  C   UNL A   1      37.206  32.314  32.018  1.00  0.00     0.031 C 
ATOM     18  C   UNL A   1      38.416  29.636  27.932  1.00  0.00     0.029 A 
ATOM     19  N   UNL A   1      39.726  29.398  29.726  1.00  0.00    -0.354 N 
ATOM     20  C   UNL A   1      38.950  31.649  33.351  1.00  0.00     0.074 A 
ATOM     21  C   UNL A   1      37.783  32.494  33.199  1.00  0.00     0.031 C 
ATOM     22  C   UNL A   1      39.330  28.704  27.635  1.00  0.00     0.029 A 
ATOM     23  C   UNL A   1      40.231  28.546  28.770  1.00  0.00     0.049 A 
ATOM     24  H   UNL A   1      40.126  29.504  30.620  1.00  0.00     0.167 HD
ATOM     25  C   UNL A   1      39.698  31.557  34.480  1.00  0.00     0.034 A 
ATOM     26  C   UNL A   1      41.310  27.742  28.790  1.00  0.00     0.034 A 
ATOM     27  C   UNL A   1      40.867  30.716  34.606  1.00  0.00     0.049 A 
ATOM     28  C   UNL A   1      42.136  27.685  30.046  1.00  0.00     0.074 A 
ATOM     29  C   UNL A   1      41.698  30.550  35.702  1.00  0.00     0.029 A 
ATOM     30  N   UNL A   1      41.374  29.898  33.603  1.00  0.00    -0.354 N 
ATOM     31  N   UNL A   1      41.958  28.323  31.180  1.00  0.00    -0.248 NA
ATOM     32  C   UNL A   1      43.299  26.792  30.028  1.00  0.00     0.031 C 
ATOM     33  C   UNL A   1      42.739  29.687  35.342  1.00  0.00     0.029 A 
ATOM     34  C   UNL A   1      42.517  29.247  34.048  1.00  0.00     0.049 A 
ATOM     35  H   UNL A   1      40.980  29.795  32.708  1.00  0.00     0.167 HD
ATOM     36  C   UNL A   1      42.987  27.901  32.014  1.00  0.00     0.074 A 
ATOM     37  C   UNL A   1      43.751  26.921  31.266  1.00  0.00     0.031 C 
ATOM     38  C   UNL A   1      43.284  28.293  33.280  1.00  0.00     0.034 A 
BRANCH  25  39
ATOM     39  C   UNL A   1      39.292  32.415  35.658  1.00  0.00     0.023 A 
ATOM     40  C   UNL A   1      39.702  33.755  35.773  1.00  0.00     0.031 A 
ATOM     41  C   UNL A   1      38.483  31.886  36.681  1.00  0.00     0.131 A 
ATOM     42  C   UNL A   1      39.352  34.502  36.909  1.00  0.00     0.055 A 
ATOM     43  C   UNL A   1      38.076  32.657  37.772  1.00  0.00     0.041 A 
ATOM     44  F   UNL A   1      38.075  30.608  36.639  1.00  0.00    -0.206 F 
ATOM     45  C   UNL A   1      38.521  33.970  37.897  1.00  0.00     0.022 A 
BRANCH  42  46
ATOM     46  S   UNL A   1      40.100  36.139  37.136  1.00  0.00     0.124 S 
ATOM     47  O   UNL A   1      41.476  35.793  37.483  1.00  0.00    -0.237 OA
ATOM     48  O   UNL A   1      39.909  36.759  35.830  1.00  0.00    -0.237 OA
ATOM     49  O   UNL A   1      39.320  36.725  38.224  1.00  0.00    -0.744 OA
ENDBRANCH  42  46
ENDBRANCH  25  39
BRANCH  26  50
ATOM     50  C   UNL A   1      41.695  26.970  27.574  1.00  0.00     0.023 A 
ATOM     51  C   UNL A   1      41.485  25.586  27.489  1.00  0.00     0.031 A 
ATOM     52  C   UNL A   1      42.319  27.610  26.486  1.00  0.00     0.131 A 
ATOM     53  C   UNL A   1      41.941  24.879  26.365  1.00  0.00     0.055 A 
ATOM     54  C   UNL A   1      42.708  26.913  25.343  1.00  0.00     0.041 A 
ATOM     55  F   UNL A   1      42.541  28.934  26.512  1.00  0.00    -0.206 F 
ATOM     56  C   UNL A   1      42.535  25.535  25.285  1.00  0.00     0.022 A 
BRANCH  53  57
ATOM     57  S   UNL A   1      41.842  23.068  26.381  1.00  0.00     0.124 S 
ATOM     58  O   UNL A   1      40.401  22.848  26.429  1.00  0.00    -0.237 OA
ATOM     59  O   UNL A   1      42.503  22.719  25.127  1.00  0.00    -0.237 OA
ATOM     60  O   UNL A   1      42.572  22.700  27.592  1.00  0.00    -0.744 OA
ENDBRANCH  53  57
ENDBRANCH  26  50
BRANCH  38  61
ATOM     61  C   UNL A   1      44.477  27.631  33.925  1.00  0.00     0.023 A 
ATOM     62  C   UNL A   1      44.344  26.448  34.675  1.00  0.00     0.031 A 
ATOM     63  C   UNL A   1      45.751  28.218  33.838  1.00  0.00     0.131 A 
ATOM     64  C   UNL A   1      45.447  25.936  35.373  1.00  0.00     0.055 A 
ATOM     65  C   UNL A   1      46.860  27.664  34.479  1.00  0.00     0.041 A 
ATOM     66  F   UNL A   1      45.936  29.350  33.139  1.00  0.00    -0.206 F 
ATOM     67  C   UNL A   1      46.708  26.527  35.267  1.00  0.00     0.022 A 
BRANCH  64  68
ATOM     68  S   UNL A   1      45.181  24.559  36.526  1.00  0.00     0.124 S 
ATOM     69  O   UNL A   1      44.024  25.021  37.286  1.00  0.00    -0.237 OA
ATOM     70  O   UNL A   1      44.945  23.439  35.622  1.00  0.00    -0.237 OA
ATOM     71  O   UNL A   1      46.434  24.496  37.278  1.00  0.00    -0.744 OA
ENDBRANCH  64  68
ENDBRANCH  38  61
ENDBRANCH  12  13
ENDBRANCH   5   7
ENDBRANCH   2   3
ENDBRANCH   1   2
BRANCH   1  72
ATOM     72  C   UNL A   1      32.121  28.132  27.462  1.00  0.00     0.002 C 
BRANCH  72  73
ATOM     73  C   UNL A   1      32.118  26.862  26.608  1.00  0.00     0.002 C 
BRANCH  73  74
ATOM     74  C   UNL A   1      33.489  26.400  26.102  1.00  0.00     0.021 C 
BRANCH  74  75
ATOM     75  C   UNL A   1      34.048  27.200  24.927  1.00  0.00     0.116 C 
BRANCH  75  76
ATOM     76  N   UNL A   1      34.124  26.399  23.713  1.00  0.00    -0.352 N 
ATOM     77  C   UNL A   1      33.161  26.183  22.766  1.00  0.00     0.255 C 
ATOM     78  H   UNL A   1      34.987  25.952  23.552  1.00  0.00     0.163 HD
ATOM     79  O   UNL A   1      33.333  25.340  21.885  1.00  0.00    -0.269 OA
BRANCH  77  80
ATOM     80  C   UNL A   1      31.960  26.979  22.836  1.00  0.00     0.091 A 
ATOM     81  C   UNL A   1      31.767  28.320  22.408  1.00  0.00     0.065 A 
ATOM     82  C   UNL A   1      30.741  26.556  23.339  1.00  0.00     0.221 A 
ATOM     83  C   UNL A   1      30.486  28.669  22.766  1.00  0.00     0.135 A 
ATOM     84  O   UNL A   1      29.849  27.602  23.326  1.00  0.00    -0.451 OA
BRANCH  82  85
ATOM     85  C   UNL A   1      30.269  25.267  23.902  1.00  0.00     0.450 C 
ATOM     86  F   UNL A   1      29.374  25.449  24.910  1.00  0.00    -0.163 F 
ATOM     87  F   UNL A   1      29.649  24.499  22.967  1.00  0.00    -0.163 F 
ATOM     88  F   UNL A   1      31.271  24.516  24.425  1.00  0.00    -0.163 F 
ENDBRANCH  82  85
BRANCH  83  89
ATOM     89  C   UNL A   1      29.748  29.914  22.673  1.00  0.00     0.019 A 
ATOM     90  C   UNL A   1      29.442  30.632  23.839  1.00  0.00     0.012 A 
ATOM     91  C   UNL A   1      29.247  30.357  21.444  1.00  0.00     0.032 A 
ATOM     92  C   UNL A   1      28.637  31.769  23.781  1.00  0.00     0.002 A 
ATOM     93  C   UNL A   1      28.433  31.489  21.394  1.00  0.00     0.041 A 
ATOM     94  C   UNL A   1      28.123  32.193  22.557  1.00  0.00     0.020 A 
ATOM     95  Cl  UNL A   1      27.783  32.005  19.887  1.00  0.00    -0.084 Cl
ENDBRANCH  83  89
ENDBRANCH  77  80
ENDBRANCH  75  76
ENDBRANCH  74  75
ENDBRANCH  73  74
ENDBRANCH  72  73
ENDBRANCH   1  72
TORSDOF 18
ENDMDL
MODEL 3
REMARK VINA RESULT:     -12.0      5.489      8.255
REMARK SMILES O=C(NCCCCCCNC(=O)c1cc(-c2cccc(Cl)c2)oc1C(F)(F)F)c1ccc(-c2c3nc(c(-c4cc(S(=O)(=O)[O-])ccc4F)c4ccc([nH]4)c(-c4cc(S(=O)(=O)[O-])ccc4F)c4nc(c(-c5cc(S(=O)(=O)[O-])ccc5F)c5ccc2[nH]5)C=C4)C=C3)cc1
REMARK SMILES IDX 5 1 4 2 3 3 1 4 2 5 29 7 30 8 91 9 31 10 90 11 32 12 33 13
REMARK SMILES IDX 34 14 84 15 35 16 89 17 83 18 85 19 36 20 88 21 82 22 81 23
REMARK SMILES IDX 37 25 69 26 49 27 68 28 50 29 53 30 67 31 86 32 51 33 52 34
REMARK SMILES IDX 66 36 87 37 54 38 38 39 39 40 47 41 40 42 46 43 48 44 45 45
REMARK SMILES IDX 41 46 42 47 43 48 44 49 70 50 71 51 79 52 72 53 78 54 80 55
REMARK SMILES IDX 77 56 73 57 74 58 75 59 76 60 55 61 56 62 64 63 57 64 63 65
REMARK SMILES IDX 65 66 62 67 58 68 59 69 60 70 61 71 6 72 7 73 8 74 9 75
REMARK SMILES IDX 10 76 11 77 12 79 13 80 14 81 24 82 15 83 23 84 25 85 26 86
REMARK SMILES IDX 27 87 28 88 16 89 17 90 22 91 18 92 20 93 19 94 21 95
REMARK H PARENT 3 6 85 24 53 35 10 78
REMARK Flexibility Score: inf
ROOT
ATOM      1  C   UNL A   1      31.503  31.912  26.775  1.00  0.00     0.021 C 
ENDROOT
BRANCH   1   2
ATOM      2  C   UNL A   1      32.818  32.621  27.057  1.00  0.00     0.116 C 
BRANCH   2   3
ATOM      3  N   UNL A   1      32.638  33.942  27.640  1.00  0.00    -0.352 N 
ATOM      4  O   UNL A   1      32.926  35.584  29.165  1.00  0.00    -0.269 OA
ATOM      5  C   UNL A   1      33.295  34.506  28.710  1.00  0.00     0.251 C 
ATOM      6  H   UNL A   1      31.954  34.507  27.213  1.00  0.00     0.163 HD
BRANCH   5   7
ATOM      7  C   UNL A   1      34.437  33.786  29.319  1.00  0.00     0.039 A 
ATOM      8  C   UNL A   1      34.207  32.722  30.190  1.00  0.00     0.014 A 
ATOM      9  C   UNL A   1      35.744  34.198  29.043  1.00  0.00     0.014 A 
ATOM     10  C   UNL A   1      35.263  32.185  30.912  1.00  0.00     0.010 A 
ATOM     11  C   UNL A   1      36.819  33.577  29.691  1.00  0.00     0.010 A 
ATOM     12  C   UNL A   1      36.586  32.584  30.654  1.00  0.00    -0.014 A 
BRANCH  12  13
ATOM     13  C   UNL A   1      37.687  31.879  31.364  1.00  0.00     0.031 A 
ATOM     14  C   UNL A   1      38.507  30.813  30.689  1.00  0.00     0.074 A 
ATOM     15  C   UNL A   1      37.986  32.275  32.618  1.00  0.00     0.049 A 
ATOM     16  N   UNL A   1      39.543  30.159  31.152  1.00  0.00    -0.248 NA
ATOM     17  C   UNL A   1      38.112  30.424  29.329  1.00  0.00     0.031 C 
ATOM     18  C   UNL A   1      37.245  33.289  33.374  1.00  0.00     0.029 A 
ATOM     19  N   UNL A   1      39.001  31.912  33.464  1.00  0.00    -0.354 N 
ATOM     20  C   UNL A   1      39.924  29.279  30.144  1.00  0.00     0.074 A 
ATOM     21  C   UNL A   1      38.978  29.455  29.061  1.00  0.00     0.031 C 
ATOM     22  C   UNL A   1      37.866  33.515  34.538  1.00  0.00     0.029 A 
ATOM     23  C   UNL A   1      38.999  32.606  34.653  1.00  0.00     0.049 A 
ATOM     24  H   UNL A   1      39.666  31.221  33.243  1.00  0.00     0.167 HD
ATOM     25  C   UNL A   1      40.972  28.417  30.123  1.00  0.00     0.034 A 
ATOM     26  C   UNL A   1      39.804  32.510  35.728  1.00  0.00     0.034 A 
ATOM     27  C   UNL A   1      41.899  28.249  31.220  1.00  0.00     0.049 A 
ATOM     28  C   UNL A   1      40.939  31.525  35.686  1.00  0.00     0.074 A 
ATOM     29  C   UNL A   1      42.993  27.403  31.306  1.00  0.00     0.029 A 
ATOM     30  N   UNL A   1      41.843  28.938  32.426  1.00  0.00    -0.354 N 
ATOM     31  N   UNL A   1      41.287  30.708  34.719  1.00  0.00    -0.248 NA
ATOM     32  C   UNL A   1      41.795  31.457  36.875  1.00  0.00     0.031 C 
ATOM     33  C   UNL A   1      43.555  27.533  32.581  1.00  0.00     0.029 A 
ATOM     34  C   UNL A   1      42.865  28.518  33.266  1.00  0.00     0.049 A 
ATOM     35  H   UNL A   1      41.175  29.624  32.652  1.00  0.00     0.167 HD
ATOM     36  C   UNL A   1      42.410  30.032  35.183  1.00  0.00     0.074 A 
ATOM     37  C   UNL A   1      42.704  30.572  36.495  1.00  0.00     0.031 C 
ATOM     38  C   UNL A   1      43.129  29.048  34.585  1.00  0.00     0.034 A 
BRANCH  25  39
ATOM     39  C   UNL A   1      41.153  27.566  28.886  1.00  0.00     0.023 A 
ATOM     40  C   UNL A   1      42.169  27.829  27.949  1.00  0.00     0.031 A 
ATOM     41  C   UNL A   1      40.299  26.475  28.639  1.00  0.00     0.131 A 
ATOM     42  C   UNL A   1      42.269  27.052  26.785  1.00  0.00     0.055 A 
ATOM     43  C   UNL A   1      40.452  25.659  27.515  1.00  0.00     0.041 A 
ATOM     44  F   UNL A   1      39.299  26.184  29.485  1.00  0.00    -0.206 F 
ATOM     45  C   UNL A   1      41.434  25.953  26.574  1.00  0.00     0.022 A 
BRANCH  42  46
ATOM     46  S   UNL A   1      43.430  27.572  25.491  1.00  0.00     0.124 S 
ATOM     47  O   UNL A   1      44.277  26.390  25.358  1.00  0.00    -0.237 OA
ATOM     48  O   UNL A   1      42.546  27.852  24.365  1.00  0.00    -0.237 OA
ATOM     49  O   UNL A   1      44.090  28.740  26.071  1.00  0.00    -0.744 OA
ENDBRANCH  42  46
ENDBRANCH  25  39
BRANCH  26  50
ATOM     50  C   UNL A   1      39.535  33.332  36.943  1.00  0.00     0.023 A 
ATOM     51  C   UNL A   1      38.822  32.814  38.034  1.00  0.00     0.031 A 
ATOM     52  C   UNL A   1      39.961  34.672  37.011  1.00  0.00     0.131 A 
ATOM     53  C   UNL A   1      38.512  33.644  39.122  1.00  0.00     0.055 A 
ATOM     54  C   UNL A   1      39.709  35.472  38.124  1.00  0.00     0.041 A 
ATOM     55  F   UNL A   1      40.650  35.219  35.996  1.00  0.00    -0.206 F 
ATOM     56  C   UNL A   1      38.965  34.964  39.183  1.00  0.00     0.022 A 
BRANCH  53  57
ATOM     57  S   UNL A   1      37.413  33.004  40.416  1.00  0.00     0.124 S 
ATOM     58  O   UNL A   1      37.376  34.119  41.355  1.00  0.00    -0.237 OA
ATOM     59  O   UNL A   1      36.184  32.753  39.670  1.00  0.00    -0.237 OA
ATOM     60  O   UNL A   1      38.108  31.809  40.890  1.00  0.00    -0.744 OA
ENDBRANCH  53  57
ENDBRANCH  26  50
BRANCH  38  61
ATOM     61  C   UNL A   1      44.315  28.520  35.356  1.00  0.00     0.023 A 
ATOM     62  C   UNL A   1      44.177  27.483  36.296  1.00  0.00     0.031 A 
ATOM     63  C   UNL A   1      45.586  29.097  35.190  1.00  0.00     0.131 A 
ATOM     64  C   UNL A   1      45.270  27.111  37.091  1.00  0.00     0.055 A 
ATOM     65  C   UNL A   1      46.687  28.674  35.936  1.00  0.00     0.041 A 
ATOM     66  F   UNL A   1      45.775  30.093  34.310  1.00  0.00    -0.206 F 
ATOM     67  C   UNL A   1      46.529  27.689  36.906  1.00  0.00     0.022 A 
BRANCH  64  68
ATOM     68  S   UNL A   1      44.994  25.951  38.460  1.00  0.00     0.124 S 
ATOM     69  O   UNL A   1      44.253  26.776  39.409  1.00  0.00    -0.237 OA
ATOM     70  O   UNL A   1      44.237  24.884  37.814  1.00  0.00    -0.237 OA
ATOM     71  O   UNL A   1      46.347  25.586  38.877  1.00  0.00    -0.744 OA
ENDBRANCH  64  68
ENDBRANCH  38  61
ENDBRANCH  12  13
ENDBRANCH   5   7
ENDBRANCH   2   3
ENDBRANCH   1   2
BRANCH   1  72
ATOM     72  C   UNL A   1      31.636  30.455  26.337  1.00  0.00     0.002 C 
BRANCH  72  73
ATOM     73  C   UNL A   1      32.530  29.581  27.223  1.00  0.00     0.002 C 
BRANCH  73  74
ATOM     74  C   UNL A   1      32.986  28.257  26.601  1.00  0.00     0.021 C 
BRANCH  74  75
ATOM     75  C   UNL A   1      33.904  28.394  25.389  1.00  0.00     0.116 C 
BRANCH  75  76
ATOM     76  N   UNL A   1      33.891  27.197  24.559  1.00  0.00    -0.352 N 
ATOM     77  C   UNL A   1      32.866  26.681  23.815  1.00  0.00     0.255 C 
ATOM     78  H   UNL A   1      34.735  26.691  24.530  1.00  0.00     0.163 HD
ATOM     79  O   UNL A   1      32.968  25.565  23.305  1.00  0.00    -0.269 OA
BRANCH  77  80
ATOM     80  C   UNL A   1      31.683  27.490  23.649  1.00  0.00     0.091 A 
ATOM     81  C   UNL A   1      31.545  28.710  22.934  1.00  0.00     0.065 A 
ATOM     82  C   UNL A   1      30.431  27.202  24.164  1.00  0.00     0.221 A 
ATOM     83  C   UNL A   1      30.257  29.145  23.140  1.00  0.00     0.135 A 
ATOM     84  O   UNL A   1      29.567  28.233  23.879  1.00  0.00    -0.451 OA
BRANCH  82  85
ATOM     85  C   UNL A   1      29.899  26.070  24.962  1.00  0.00     0.450 C 
ATOM     86  F   UNL A   1      28.540  26.081  25.017  1.00  0.00    -0.163 F 
ATOM     87  F   UNL A   1      30.257  24.866  24.442  1.00  0.00    -0.163 F 
ATOM     88  F   UNL A   1      30.323  26.082  26.252  1.00  0.00    -0.163 F 
ENDBRANCH  82  85
BRANCH  83  89
ATOM     89  C   UNL A   1      29.557  30.351  22.743  1.00  0.00     0.019 A 
ATOM     90  C   UNL A   1      29.264  31.334  23.700  1.00  0.00     0.012 A 
ATOM     91  C   UNL A   1      29.077  30.502  21.437  1.00  0.00     0.032 A 
ATOM     92  C   UNL A   1      28.494  32.447  23.363  1.00  0.00     0.002 A 
ATOM     93  C   UNL A   1      28.296  31.611  21.109  1.00  0.00     0.041 A 
ATOM     94  C   UNL A   1      28.000  32.580  22.066  1.00  0.00     0.020 A 
ATOM     95  Cl  UNL A   1      27.672  31.770  19.514  1.00  0.00    -0.084 Cl
ENDBRANCH  83  89
ENDBRANCH  77  80
ENDBRANCH  75  76
ENDBRANCH  74  75
ENDBRANCH  73  74
ENDBRANCH  72  73
ENDBRANCH   1  72
TORSDOF 18
ENDMDL
