MODEL 1
REMARK VINA RESULT:      -9.5      0.000      0.000
REMARK SMILES CN(C)c1nccnc1N1CCC(Oc2ccc3ccccc3c2)(C(=O)NCCCCCCNC(=O)c2ccc(-c3c4nc(c(-c5cc(S(=O)(=O)[O-])ccc5F)c5ccc([nH]5)c(-c5cc(S(=O)(=O)[O-])ccc5F)c5nc(c(-c6cc(S(=O)(=O)[O-])ccc6F)c6ccc3[nH]6)C=C5)C=C4)cc2)CC1
REMARK SMILES IDX 31 1 30 2 29 3 28 4 27 5 25 6 26 7 13 9 10 10 11 11 101 12
REMARK SMILES IDX 12 13 100 14 9 15 4 16 5 17 6 18 8 19 7 20 2 21 1 22 3 23
REMARK SMILES IDX 14 24 15 25 16 26 24 27 17 28 23 29 18 30 22 31 19 32 21 33
REMARK SMILES IDX 20 34 32 35 33 36 34 37 35 38 36 40 37 41 38 42 99 43 39 44
REMARK SMILES IDX 98 45 40 46 41 47 42 48 92 49 43 50 97 51 91 52 93 53 44 54
REMARK SMILES IDX 96 55 90 56 89 57 45 59 77 60 57 61 76 62 58 63 61 64 75 65
REMARK SMILES IDX 94 66 59 67 60 68 74 70 95 71 62 72 46 73 47 74 55 75 48 76
REMARK SMILES IDX 54 77 56 78 53 79 49 80 50 81 51 82 52 83 78 84 79 85 87 86
REMARK SMILES IDX 80 87 86 88 88 89 85 90 81 91 82 92 83 93 84 94 63 95 64 96
REMARK SMILES IDX 72 97 65 98 71 99 73 100 70 101 66 102 67 103 68 104 69 105
REMARK H PARENT 27 8 34 39 93 58 61 69
REMARK Flexibility Score: inf
ROOT
ATOM      1  C   UNL A   1      42.295  36.618  37.019  1.00  0.00     0.002 C 
ENDROOT
BRANCH   1   2
ATOM      2  C   UNL A   1      41.550  36.046  35.808  1.00  0.00     0.002 C 
BRANCH   2   3
ATOM      3  C   UNL A   1      40.048  35.825  36.025  1.00  0.00     0.021 C 
BRANCH   3   4
ATOM      4  C   UNL A   1      39.412  34.899  34.990  1.00  0.00     0.116 C 
BRANCH   4   5
ATOM      5  N   UNL A   1      38.232  34.266  35.542  1.00  0.00    -0.353 N 
ATOM      6  C   UNL A   1      37.361  33.377  34.984  1.00  0.00     0.264 C 
ATOM      7  O   UNL A   1      36.449  32.985  35.719  1.00  0.00    -0.270 OA
ATOM      8  H   UNL A   1      38.023  34.518  36.472  1.00  0.00     0.163 HD
BRANCH   6   9
ATOM      9  C   UNL A   1      37.528  32.891  33.513  1.00  0.00     0.190 C 
ATOM     10  N   UNL A   1      35.305  34.138  32.226  1.00  0.00    -0.353 N 
ATOM     11  C   UNL A   1      36.455  34.952  32.531  1.00  0.00     0.123 C 
ATOM     12  C   UNL A   1      35.019  32.935  32.994  1.00  0.00     0.123 C 
ATOM     13  C   UNL A   1      37.685  34.072  32.537  1.00  0.00     0.080 C 
ATOM     14  C   UNL A   1      36.279  32.068  33.122  1.00  0.00     0.080 C 
BRANCH  10  15
ATOM     15  C   UNL A   1      34.618  34.353  31.045  1.00  0.00     0.171 A 
ATOM     16  C   UNL A   1      33.451  35.182  30.996  1.00  0.00     0.171 A 
ATOM     17  N   UNL A   1      32.714  35.266  29.857  1.00  0.00    -0.234 NA
ATOM     18  C   UNL A   1      33.175  34.579  28.790  1.00  0.00     0.134 A 
ATOM     19  N   UNL A   1      35.072  33.696  29.947  1.00  0.00    -0.234 NA
ATOM     20  C   UNL A   1      34.327  33.820  28.831  1.00  0.00     0.134 A 
BRANCH  16  21
ATOM     21  N   UNL A   1      33.062  35.972  32.091  1.00  0.00    -0.360 N 
ATOM     22  C   UNL A   1      31.706  35.799  32.564  1.00  0.00     0.145 C 
ATOM     23  C   UNL A   1      33.650  37.305  32.143  1.00  0.00     0.145 C 
ENDBRANCH  16  21
ENDBRANCH  10  15
BRANCH   9  24
ATOM     24  O   UNL A   1      38.698  32.039  33.649  1.00  0.00    -0.477 OA
BRANCH  24  25
ATOM     25  C   UNL A   1      38.805  30.916  32.888  1.00  0.00     0.121 A 
ATOM     26  C   UNL A   1      38.219  29.706  33.244  1.00  0.00     0.047 A 
ATOM     27  C   UNL A   1      39.384  31.056  31.626  1.00  0.00     0.055 A 
ATOM     28  C   UNL A   1      38.325  28.598  32.405  1.00  0.00     0.012 A 
ATOM     29  C   UNL A   1      39.453  29.964  30.744  1.00  0.00    -0.015 A 
ATOM     30  C   UNL A   1      38.943  28.711  31.154  1.00  0.00    -0.018 A 
ATOM     31  C   UNL A   1      40.001  30.088  29.458  1.00  0.00     0.009 A 
ATOM     32  C   UNL A   1      39.031  27.610  30.292  1.00  0.00     0.009 A 
ATOM     33  C   UNL A   1      40.059  28.988  28.600  1.00  0.00     0.001 A 
ATOM     34  C   UNL A   1      39.586  27.748  29.020  1.00  0.00     0.001 A 
ENDBRANCH  24  25
ENDBRANCH   9  24
ENDBRANCH   6   9
ENDBRANCH   4   5
ENDBRANCH   3   4
ENDBRANCH   2   3
ENDBRANCH   1   2
BRANCH   1  35
ATOM     35  C   UNL A   1      41.615  36.368  38.367  1.00  0.00     0.021 C 
BRANCH  35  36
ATOM     36  C   UNL A   1      42.559  35.902  39.469  1.00  0.00     0.116 C 
BRANCH  36  37
ATOM     37  N   UNL A   1      41.957  34.866  40.292  1.00  0.00    -0.352 N 
ATOM     38  C   UNL A   1      41.527  33.615  39.926  1.00  0.00     0.251 C 
ATOM     39  H   UNL A   1      41.842  35.092  41.243  1.00  0.00     0.163 HD
ATOM     40  O   UNL A   1      40.836  32.954  40.697  1.00  0.00    -0.269 OA
BRANCH  38  41
ATOM     41  C   UNL A   1      41.881  33.086  38.592  1.00  0.00     0.039 A 
ATOM     42  C   UNL A   1      43.227  32.959  38.245  1.00  0.00     0.014 A 
ATOM     43  C   UNL A   1      40.882  32.699  37.693  1.00  0.00     0.014 A 
ATOM     44  C   UNL A   1      43.572  32.383  37.020  1.00  0.00     0.010 A 
ATOM     45  C   UNL A   1      41.229  32.057  36.509  1.00  0.00     0.010 A 
ATOM     46  C   UNL A   1      42.577  31.891  36.159  1.00  0.00    -0.014 A 
BRANCH  46  47
ATOM     47  C   UNL A   1      42.926  31.198  34.890  1.00  0.00     0.031 A 
ATOM     48  C   UNL A   1      42.856  31.940  33.583  1.00  0.00     0.074 A 
ATOM     49  C   UNL A   1      43.239  29.887  34.909  1.00  0.00     0.049 A 
ATOM     50  N   UNL A   1      43.030  31.493  32.366  1.00  0.00    -0.248 NA
ATOM     51  C   UNL A   1      42.515  33.369  33.655  1.00  0.00     0.031 C 
ATOM     52  C   UNL A   1      43.307  29.053  36.110  1.00  0.00     0.029 A 
ATOM     53  N   UNL A   1      43.548  29.022  33.889  1.00  0.00    -0.354 N 
ATOM     54  C   UNL A   1      42.809  32.580  31.527  1.00  0.00     0.074 A 
ATOM     55  C   UNL A   1      42.426  33.690  32.373  1.00  0.00     0.031 C 
ATOM     56  C   UNL A   1      43.661  27.805  35.761  1.00  0.00     0.029 A 
ATOM     57  C   UNL A   1      43.790  27.734  34.309  1.00  0.00     0.049 A 
ATOM     58  H   UNL A   1      43.593  29.296  32.945  1.00  0.00     0.167 HD
ATOM     59  C   UNL A   1      42.937  32.649  30.178  1.00  0.00     0.034 A 
ATOM     60  C   UNL A   1      44.064  26.616  33.605  1.00  0.00     0.034 A 
ATOM     61  C   UNL A   1      43.327  31.532  29.352  1.00  0.00     0.049 A 
ATOM     62  C   UNL A   1      44.156  26.709  32.102  1.00  0.00     0.074 A 
ATOM     63  C   UNL A   1      43.537  31.506  27.984  1.00  0.00     0.029 A 
ATOM     64  N   UNL A   1      43.554  30.241  29.812  1.00  0.00    -0.354 N 
ATOM     65  N   UNL A   1      43.992  27.756  31.327  1.00  0.00    -0.248 NA
ATOM     66  C   UNL A   1      44.479  25.471  31.380  1.00  0.00     0.031 C 
ATOM     67  C   UNL A   1      43.810  30.187  27.608  1.00  0.00     0.029 A 
ATOM     68  C   UNL A   1      43.862  29.404  28.750  1.00  0.00     0.049 A 
ATOM     69  H   UNL A   1      43.503  29.960  30.755  1.00  0.00     0.167 HD
ATOM     70  C   UNL A   1      44.226  27.308  30.030  1.00  0.00     0.074 A 
ATOM     71  C   UNL A   1      44.556  25.901  30.129  1.00  0.00     0.031 C 
ATOM     72  C   UNL A   1      44.181  27.998  28.861  1.00  0.00     0.034 A 
BRANCH  59  73
ATOM     73  C   UNL A   1      42.620  33.969  29.515  1.00  0.00     0.023 A 
ATOM     74  C   UNL A   1      43.633  34.851  29.098  1.00  0.00     0.031 A 
ATOM     75  C   UNL A   1      41.285  34.363  29.312  1.00  0.00     0.131 A 
ATOM     76  C   UNL A   1      43.297  36.108  28.573  1.00  0.00     0.055 A 
ATOM     77  C   UNL A   1      40.957  35.578  28.709  1.00  0.00     0.041 A 
ATOM     78  F   UNL A   1      40.273  33.576  29.710  1.00  0.00    -0.206 F 
ATOM     79  C   UNL A   1      41.967  36.467  28.350  1.00  0.00     0.022 A 
BRANCH  76  80
ATOM     80  S   UNL A   1      44.620  37.325  28.332  1.00  0.00     0.124 S 
ATOM     81  O   UNL A   1      45.812  36.522  28.597  1.00  0.00    -0.237 OA
ATOM     82  O   UNL A   1      44.421  37.737  26.947  1.00  0.00    -0.237 OA
ATOM     83  O   UNL A   1      44.331  38.349  29.335  1.00  0.00    -0.744 OA
ENDBRANCH  76  80
ENDBRANCH  59  73
BRANCH  60  84
ATOM     84  C   UNL A   1      44.253  25.310  34.302  1.00  0.00     0.023 A 
ATOM     85  C   UNL A   1      45.531  24.758  34.474  1.00  0.00     0.031 A 
ATOM     86  C   UNL A   1      43.149  24.568  34.762  1.00  0.00     0.131 A 
ATOM     87  C   UNL A   1      45.673  23.484  35.045  1.00  0.00     0.055 A 
ATOM     88  C   UNL A   1      43.300  23.329  35.385  1.00  0.00     0.041 A 
ATOM     89  F   UNL A   1      41.902  25.049  34.624  1.00  0.00    -0.206 F 
ATOM     90  C   UNL A   1      44.569  22.772  35.516  1.00  0.00     0.022 A 
BRANCH  87  91
ATOM     91  S   UNL A   1      47.321  22.724  35.073  1.00  0.00     0.124 S 
ATOM     92  O   UNL A   1      48.096  23.672  34.280  1.00  0.00    -0.237 OA
ATOM     93  O   UNL A   1      47.614  22.690  36.501  1.00  0.00    -0.237 OA
ATOM     94  O   UNL A   1      47.103  21.419  34.450  1.00  0.00    -0.744 OA
ENDBRANCH  87  91
ENDBRANCH  60  84
BRANCH  72  95
ATOM     95  C   UNL A   1      44.547  27.251  27.602  1.00  0.00     0.023 A 
ATOM     96  C   UNL A   1      45.852  27.263  27.081  1.00  0.00     0.031 A 
ATOM     97  C   UNL A   1      43.568  26.511  26.911  1.00  0.00     0.131 A 
ATOM     98  C   UNL A   1      46.132  26.595  25.878  1.00  0.00     0.055 A 
ATOM     99  C   UNL A   1      43.867  25.795  25.752  1.00  0.00     0.041 A 
ATOM    100  F   UNL A   1      42.303  26.469  27.360  1.00  0.00    -0.206 F 
ATOM    101  C   UNL A   1      45.152  25.845  25.223  1.00  0.00     0.022 A 
BRANCH  98 102
ATOM    102  S   UNL A   1      47.772  26.794  25.131  1.00  0.00     0.124 S 
ATOM    103  O   UNL A   1      47.623  26.068  23.873  1.00  0.00    -0.237 OA
ATOM    104  O   UNL A   1      47.891  28.245  25.018  1.00  0.00    -0.237 OA
ATOM    105  O   UNL A   1      48.670  26.174  26.102  1.00  0.00    -0.744 OA
ENDBRANCH  98 102
ENDBRANCH  72  95
ENDBRANCH  46  47
ENDBRANCH  38  41
ENDBRANCH  36  37
ENDBRANCH  35  36
ENDBRANCH   1  35
TORSDOF 20
ENDMDL
MODEL 2
REMARK VINA RESULT:      -9.5      3.964     12.659
REMARK SMILES CN(C)c1nccnc1N1CCC(Oc2ccc3ccccc3c2)(C(=O)NCCCCCCNC(=O)c2ccc(-c3c4nc(c(-c5cc(S(=O)(=O)[O-])ccc5F)c5ccc([nH]5)c(-c5cc(S(=O)(=O)[O-])ccc5F)c5nc(c(-c6cc(S(=O)(=O)[O-])ccc6F)c6ccc3[nH]6)C=C5)C=C4)cc2)CC1
REMARK SMILES IDX 31 1 30 2 29 3 28 4 27 5 25 6 26 7 13 9 10 10 11 11 101 12
REMARK SMILES IDX 12 13 100 14 9 15 4 16 5 17 6 18 8 19 7 20 2 21 1 22 3 23
REMARK SMILES IDX 14 24 15 25 16 26 24 27 17 28 23 29 18 30 22 31 19 32 21 33
REMARK SMILES IDX 20 34 32 35 33 36 34 37 35 38 36 40 37 41 38 42 99 43 39 44
REMARK SMILES IDX 98 45 40 46 41 47 42 48 92 49 43 50 97 51 91 52 93 53 44 54
REMARK SMILES IDX 96 55 90 56 89 57 45 59 77 60 57 61 76 62 58 63 61 64 75 65
REMARK SMILES IDX 94 66 59 67 60 68 74 70 95 71 62 72 46 73 47 74 55 75 48 76
REMARK SMILES IDX 54 77 56 78 53 79 49 80 50 81 51 82 52 83 78 84 79 85 87 86
REMARK SMILES IDX 80 87 86 88 88 89 85 90 81 91 82 92 83 93 84 94 63 95 64 96
REMARK SMILES IDX 72 97 65 98 71 99 73 100 70 101 66 102 67 103 68 104 69 105
REMARK H PARENT 27 8 34 39 93 58 61 69
REMARK Flexibility Score: inf
ROOT
ATOM      1  C   UNL A   1      51.338  25.511  26.885  1.00  0.00     0.002 C 
ENDROOT
BRANCH   1   2
ATOM      2  C   UNL A   1      50.459  25.440  28.139  1.00  0.00     0.002 C 
BRANCH   2   3
ATOM      3  C   UNL A   1      49.112  24.736  27.940  1.00  0.00     0.021 C 
BRANCH   3   4
ATOM      4  C   UNL A   1      47.968  25.689  27.598  1.00  0.00     0.116 C 
BRANCH   4   5
ATOM      5  N   UNL A   1      47.695  25.654  26.177  1.00  0.00    -0.353 N 
ATOM      6  C   UNL A   1      46.513  25.536  25.506  1.00  0.00     0.264 C 
ATOM      7  O   UNL A   1      46.590  25.565  24.273  1.00  0.00    -0.270 OA
ATOM      8  H   UNL A   1      48.490  25.728  25.600  1.00  0.00     0.163 HD
BRANCH   6   9
ATOM      9  C   UNL A   1      45.160  25.384  26.263  1.00  0.00     0.190 C 
ATOM     10  N   UNL A   1      44.457  22.680  25.674  1.00  0.00    -0.353 N 
ATOM     11  C   UNL A   1      45.471  22.914  26.671  1.00  0.00     0.123 C 
ATOM     12  C   UNL A   1      44.200  23.660  24.629  1.00  0.00     0.123 C 
ATOM     13  C   UNL A   1      45.219  24.259  27.314  1.00  0.00     0.080 C 
ATOM     14  C   UNL A   1      44.053  25.063  25.233  1.00  0.00     0.080 C 
BRANCH  10  15
ATOM     15  C   UNL A   1      43.553  21.649  25.857  1.00  0.00     0.171 A 
ATOM     16  C   UNL A   1      42.469  21.758  26.786  1.00  0.00     0.171 A 
ATOM     17  N   UNL A   1      41.678  20.683  27.050  1.00  0.00    -0.234 NA
ATOM     18  C   UNL A   1      41.944  19.556  26.355  1.00  0.00     0.134 A 
ATOM     19  N   UNL A   1      43.777  20.509  25.153  1.00  0.00    -0.234 NA
ATOM     20  C   UNL A   1      42.961  19.473  25.426  1.00  0.00     0.134 A 
BRANCH  16  21
ATOM     21  N   UNL A   1      42.150  22.977  27.408  1.00  0.00    -0.360 N 
ATOM     22  C   UNL A   1      42.242  23.010  28.851  1.00  0.00     0.145 C 
ATOM     23  C   UNL A   1      41.101  23.756  26.761  1.00  0.00     0.145 C 
ENDBRANCH  16  21
ENDBRANCH  10  15
BRANCH   9  24
ATOM     24  O   UNL A   1      45.007  26.727  26.799  1.00  0.00    -0.477 OA
BRANCH  24  25
ATOM     25  C   UNL A   1      43.767  27.281  26.882  1.00  0.00     0.121 A 
ATOM     26  C   UNL A   1      43.170  27.952  25.821  1.00  0.00     0.047 A 
ATOM     27  C   UNL A   1      43.022  27.002  28.028  1.00  0.00     0.055 A 
ATOM     28  C   UNL A   1      41.880  28.463  25.947  1.00  0.00     0.012 A 
ATOM     29  C   UNL A   1      41.701  27.463  28.153  1.00  0.00    -0.015 A 
ATOM     30  C   UNL A   1      41.134  28.231  27.110  1.00  0.00    -0.018 A 
ATOM     31  C   UNL A   1      40.919  27.168  29.281  1.00  0.00     0.009 A 
ATOM     32  C   UNL A   1      39.827  28.718  27.236  1.00  0.00     0.009 A 
ATOM     33  C   UNL A   1      39.608  27.639  29.383  1.00  0.00     0.001 A 
ATOM     34  C   UNL A   1      39.067  28.423  28.367  1.00  0.00     0.001 A 
ENDBRANCH  24  25
ENDBRANCH   9  24
ENDBRANCH   6   9
ENDBRANCH   4   5
ENDBRANCH   3   4
ENDBRANCH   2   3
ENDBRANCH   1   2
BRANCH   1  35
ATOM     35  C   UNL A   1      52.787  25.932  27.141  1.00  0.00     0.021 C 
BRANCH  35  36
ATOM     36  C   UNL A   1      52.933  27.189  27.989  1.00  0.00     0.116 C 
BRANCH  36  37
ATOM     37  N   UNL A   1      53.183  28.365  27.172  1.00  0.00    -0.352 N 
ATOM     38  C   UNL A   1      52.320  29.375  26.825  1.00  0.00     0.251 C 
ATOM     39  H   UNL A   1      54.098  28.450  26.819  1.00  0.00     0.163 HD
ATOM     40  O   UNL A   1      52.630  30.171  25.944  1.00  0.00    -0.269 OA
BRANCH  38  41
ATOM     41  C   UNL A   1      51.010  29.476  27.502  1.00  0.00     0.039 A 
ATOM     42  C   UNL A   1      50.938  30.078  28.760  1.00  0.00     0.014 A 
ATOM     43  C   UNL A   1      49.853  28.991  26.886  1.00  0.00     0.014 A 
ATOM     44  C   UNL A   1      49.694  30.252  29.370  1.00  0.00     0.010 A 
ATOM     45  C   UNL A   1      48.610  29.235  27.461  1.00  0.00     0.010 A 
ATOM     46  C   UNL A   1      48.516  29.869  28.709  1.00  0.00    -0.014 A 
BRANCH  46  47
ATOM     47  C   UNL A   1      47.177  30.123  29.304  1.00  0.00     0.031 A 
ATOM     48  C   UNL A   1      46.504  29.058  30.126  1.00  0.00     0.074 A 
ATOM     49  C   UNL A   1      46.542  31.284  29.047  1.00  0.00     0.049 A 
ATOM     50  N   UNL A   1      45.305  29.051  30.651  1.00  0.00    -0.248 NA
ATOM     51  C   UNL A   1      47.271  27.826  30.364  1.00  0.00     0.031 C 
ATOM     52  C   UNL A   1      47.078  32.379  28.236  1.00  0.00     0.029 A 
ATOM     53  N   UNL A   1      45.303  31.735  29.431  1.00  0.00    -0.354 N 
ATOM     54  C   UNL A   1      45.170  27.813  31.271  1.00  0.00     0.074 A 
ATOM     55  C   UNL A   1      46.385  27.075  31.000  1.00  0.00     0.031 C 
ATOM     56  C   UNL A   1      46.186  33.382  28.205  1.00  0.00     0.029 A 
ATOM     57  C   UNL A   1      44.992  32.984  28.943  1.00  0.00     0.049 A 
ATOM     58  H   UNL A   1      44.693  31.214  30.002  1.00  0.00     0.167 HD
ATOM     59  C   UNL A   1      44.136  27.345  32.014  1.00  0.00     0.034 A 
ATOM     60  C   UNL A   1      43.866  33.717  29.058  1.00  0.00     0.034 A 
ATOM     61  C   UNL A   1      42.935  28.100  32.279  1.00  0.00     0.049 A 
ATOM     62  C   UNL A   1      42.712  33.158  29.854  1.00  0.00     0.074 A 
ATOM     63  C   UNL A   1      41.850  27.743  33.061  1.00  0.00     0.029 A 
ATOM     64  N   UNL A   1      42.652  29.357  31.760  1.00  0.00    -0.354 N 
ATOM     65  N   UNL A   1      42.619  32.004  30.474  1.00  0.00    -0.248 NA
ATOM     66  C   UNL A   1      41.516  34.002  29.970  1.00  0.00     0.031 C 
ATOM     67  C   UNL A   1      40.881  28.745  32.950  1.00  0.00     0.029 A 
ATOM     68  C   UNL A   1      41.394  29.771  32.173  1.00  0.00     0.049 A 
ATOM     69  H   UNL A   1      43.255  29.878  31.182  1.00  0.00     0.167 HD
ATOM     70  C   UNL A   1      41.367  32.001  31.083  1.00  0.00     0.074 A 
ATOM     71  C   UNL A   1      40.748  33.272  30.767  1.00  0.00     0.031 C 
ATOM     72  C   UNL A   1      40.783  31.039  31.843  1.00  0.00     0.034 A 
BRANCH  59  73
ATOM     73  C   UNL A   1      44.251  25.943  32.565  1.00  0.00     0.023 A 
ATOM     74  C   UNL A   1      44.459  25.700  33.935  1.00  0.00     0.031 A 
ATOM     75  C   UNL A   1      44.172  24.832  31.707  1.00  0.00     0.131 A 
ATOM     76  C   UNL A   1      44.656  24.389  34.392  1.00  0.00     0.055 A 
ATOM     77  C   UNL A   1      44.281  23.523  32.182  1.00  0.00     0.041 A 
ATOM     78  F   UNL A   1      43.999  24.999  30.387  1.00  0.00    -0.206 F 
ATOM     79  C   UNL A   1      44.541  23.296  33.530  1.00  0.00     0.022 A 
BRANCH  76  80
ATOM     80  S   UNL A   1      45.217  24.144  36.100  1.00  0.00     0.124 S 
ATOM     81  O   UNL A   1      44.107  24.715  36.859  1.00  0.00    -0.237 OA
ATOM     82  O   UNL A   1      45.367  22.695  36.179  1.00  0.00    -0.237 OA
ATOM     83  O   UNL A   1      46.464  24.905  36.163  1.00  0.00    -0.744 OA
ENDBRANCH  76  80
ENDBRANCH  59  73
BRANCH  60  84
ATOM     84  C   UNL A   1      43.759  35.049  28.395  1.00  0.00     0.023 A 
ATOM     85  C   UNL A   1      44.004  36.235  29.105  1.00  0.00     0.031 A 
ATOM     86  C   UNL A   1      43.361  35.159  27.049  1.00  0.00     0.131 A 
ATOM     87  C   UNL A   1      43.801  37.478  28.485  1.00  0.00     0.055 A 
ATOM     88  C   UNL A   1      43.221  36.396  26.419  1.00  0.00     0.041 A 
ATOM     89  F   UNL A   1      43.115  34.057  26.322  1.00  0.00    -0.206 F 
ATOM     90  C   UNL A   1      43.427  37.567  27.142  1.00  0.00     0.022 A 
BRANCH  87  91
ATOM     91  S   UNL A   1      43.938  38.982  29.489  1.00  0.00     0.124 S 
ATOM     92  O   UNL A   1      43.842  38.443  30.842  1.00  0.00    -0.237 OA
ATOM     93  O   UNL A   1      45.246  39.493  29.093  1.00  0.00    -0.237 OA
ATOM     94  O   UNL A   1      42.797  39.786  29.054  1.00  0.00    -0.744 OA
ENDBRANCH  87  91
ENDBRANCH  60  84
BRANCH  72  95
ATOM     95  C   UNL A   1      39.426  31.347  32.427  1.00  0.00     0.023 A 
ATOM     96  C   UNL A   1      39.270  31.825  33.739  1.00  0.00     0.031 A 
ATOM     97  C   UNL A   1      38.266  31.158  31.651  1.00  0.00     0.131 A 
ATOM     98  C   UNL A   1      37.984  32.048  34.254  1.00  0.00     0.055 A 
ATOM     99  C   UNL A   1      36.994  31.444  32.147  1.00  0.00     0.041 A 
ATOM    100  F   UNL A   1      38.354  30.698  30.393  1.00  0.00    -0.206 F 
ATOM    101  C   UNL A   1      36.847  31.880  33.459  1.00  0.00     0.022 A 
BRANCH  98 102
ATOM    102  S   UNL A   1      37.809  32.473  36.009  1.00  0.00     0.124 S 
ATOM    103  O   UNL A   1      36.601  33.293  36.003  1.00  0.00    -0.237 OA
ATOM    104  O   UNL A   1      37.685  31.162  36.638  1.00  0.00    -0.237 OA
ATOM    105  O   UNL A   1      39.044  33.192  36.313  1.00  0.00    -0.744 OA
ENDBRANCH  98 102
ENDBRANCH  72  95
ENDBRANCH  46  47
ENDBRANCH  38  41
ENDBRANCH  36  37
ENDBRANCH  35  36
ENDBRANCH   1  35
TORSDOF 20
ENDMDL
MODEL 3
REMARK VINA RESULT:      -9.4      6.791     12.174
REMARK SMILES CN(C)c1nccnc1N1CCC(Oc2ccc3ccccc3c2)(C(=O)NCCCCCCNC(=O)c2ccc(-c3c4nc(c(-c5cc(S(=O)(=O)[O-])ccc5F)c5ccc([nH]5)c(-c5cc(S(=O)(=O)[O-])ccc5F)c5nc(c(-c6cc(S(=O)(=O)[O-])ccc6F)c6ccc3[nH]6)C=C5)C=C4)cc2)CC1
REMARK SMILES IDX 31 1 30 2 29 3 28 4 27 5 25 6 26 7 13 9 10 10 11 11 101 12
REMARK SMILES IDX 12 13 100 14 9 15 4 16 5 17 6 18 8 19 7 20 2 21 1 22 3 23
REMARK SMILES IDX 14 24 15 25 16 26 24 27 17 28 23 29 18 30 22 31 19 32 21 33
REMARK SMILES IDX 20 34 32 35 33 36 34 37 35 38 36 40 37 41 38 42 99 43 39 44
REMARK SMILES IDX 98 45 40 46 41 47 42 48 92 49 43 50 97 51 91 52 93 53 44 54
REMARK SMILES IDX 96 55 90 56 89 57 45 59 77 60 57 61 76 62 58 63 61 64 75 65
REMARK SMILES IDX 94 66 59 67 60 68 74 70 95 71 62 72 46 73 47 74 55 75 48 76
REMARK SMILES IDX 54 77 56 78 53 79 49 80 50 81 51 82 52 83 78 84 79 85 87 86
REMARK SMILES IDX 80 87 86 88 88 89 85 90 81 91 82 92 83 93 84 94 63 95 64 96
REMARK SMILES IDX 72 97 65 98 71 99 73 100 70 101 66 102 67 103 68 104 69 105
REMARK H PARENT 27 8 34 39 93 58 61 69
REMARK Flexibility Score: inf
ROOT
ATOM      1  C   UNL A   1      41.064  21.919  26.331  1.00  0.00     0.002 C 
ENDROOT
BRANCH   1   2
ATOM      2  C   UNL A   1      39.673  22.530  26.536  1.00  0.00     0.002 C 
BRANCH   2   3
ATOM      3  C   UNL A   1      38.545  21.830  25.769  1.00  0.00     0.021 C 
BRANCH   3   4
ATOM      4  C   UNL A   1      37.344  22.732  25.490  1.00  0.00     0.116 C 
BRANCH   4   5
ATOM      5  N   UNL A   1      36.330  22.545  26.506  1.00  0.00    -0.353 N 
ATOM      6  C   UNL A   1      34.972  22.654  26.432  1.00  0.00     0.264 C 
ATOM      7  O   UNL A   1      34.356  22.405  27.473  1.00  0.00    -0.270 OA
ATOM      8  H   UNL A   1      36.675  22.300  27.396  1.00  0.00     0.163 HD
BRANCH   6   9
ATOM      9  C   UNL A   1      34.261  23.059  25.106  1.00  0.00     0.190 C 
ATOM     10  N   UNL A   1      33.062  25.550  25.820  1.00  0.00    -0.353 N 
ATOM     11  C   UNL A   1      34.478  25.533  25.547  1.00  0.00     0.123 C 
ATOM     12  C   UNL A   1      32.376  24.348  26.268  1.00  0.00     0.123 C 
ATOM     13  C   UNL A   1      34.772  24.411  24.576  1.00  0.00     0.080 C 
ATOM     14  C   UNL A   1      32.741  23.156  25.373  1.00  0.00     0.080 C 
BRANCH  10  15
ATOM     15  C   UNL A   1      32.307  26.635  25.411  1.00  0.00     0.171 A 
ATOM     16  C   UNL A   1      31.711  26.687  24.110  1.00  0.00     0.171 A 
ATOM     17  N   UNL A   1      31.093  27.819  23.681  1.00  0.00    -0.234 NA
ATOM     18  C   UNL A   1      31.033  28.842  24.560  1.00  0.00     0.134 A 
ATOM     19  N   UNL A   1      32.206  27.671  26.284  1.00  0.00    -0.234 NA
ATOM     20  C   UNL A   1      31.568  28.768  25.831  1.00  0.00     0.134 A 
BRANCH  16  21
ATOM     21  N   UNL A   1      31.694  25.566  23.262  1.00  0.00    -0.360 N 
ATOM     22  C   UNL A   1      32.460  25.669  22.039  1.00  0.00     0.145 C 
ATOM     23  C   UNL A   1      30.443  24.819  23.237  1.00  0.00     0.145 C 
ENDBRANCH  16  21
ENDBRANCH  10  15
BRANCH   9  24
ATOM     24  O   UNL A   1      34.577  21.908  24.276  1.00  0.00    -0.477 OA
BRANCH  24  25
ATOM     25  C   UNL A   1      34.039  20.694  24.577  1.00  0.00     0.121 A 
ATOM     26  C   UNL A   1      32.670  20.486  24.694  1.00  0.00     0.047 A 
ATOM     27  C   UNL A   1      34.906  19.601  24.594  1.00  0.00     0.055 A 
ATOM     28  C   UNL A   1      32.172  19.212  24.962  1.00  0.00     0.012 A 
ATOM     29  C   UNL A   1      34.418  18.302  24.811  1.00  0.00    -0.015 A 
ATOM     30  C   UNL A   1      33.034  18.111  25.028  1.00  0.00    -0.018 A 
ATOM     31  C   UNL A   1      35.265  17.183  24.800  1.00  0.00     0.009 A 
ATOM     32  C   UNL A   1      32.540  16.823  25.270  1.00  0.00     0.009 A 
ATOM     33  C   UNL A   1      34.756  15.901  25.018  1.00  0.00     0.001 A 
ATOM     34  C   UNL A   1      33.397  15.723  25.265  1.00  0.00     0.001 A 
ENDBRANCH  24  25
ENDBRANCH   9  24
ENDBRANCH   6   9
ENDBRANCH   4   5
ENDBRANCH   3   4
ENDBRANCH   2   3
ENDBRANCH   1   2
BRANCH   1  35
ATOM     35  C   UNL A   1      41.077  20.398  26.166  1.00  0.00     0.021 C 
BRANCH  35  36
ATOM     36  C   UNL A   1      42.366  19.729  26.627  1.00  0.00     0.116 C 
BRANCH  36  37
ATOM     37  N   UNL A   1      43.140  19.219  25.507  1.00  0.00    -0.352 N 
ATOM     38  C   UNL A   1      44.013  19.889  24.687  1.00  0.00     0.251 C 
ATOM     39  H   UNL A   1      43.023  18.262  25.311  1.00  0.00     0.163 HD
ATOM     40  O   UNL A   1      44.407  19.362  23.650  1.00  0.00    -0.269 OA
BRANCH  38  41
ATOM     41  C   UNL A   1      44.449  21.254  25.048  1.00  0.00     0.039 A 
ATOM     42  C   UNL A   1      44.031  22.332  24.265  1.00  0.00     0.014 A 
ATOM     43  C   UNL A   1      45.254  21.469  26.171  1.00  0.00     0.014 A 
ATOM     44  C   UNL A   1      44.369  23.633  24.646  1.00  0.00     0.010 A 
ATOM     45  C   UNL A   1      45.524  22.768  26.589  1.00  0.00     0.010 A 
ATOM     46  C   UNL A   1      45.084  23.865  25.833  1.00  0.00    -0.014 A 
BRANCH  46  47
ATOM     47  C   UNL A   1      45.380  25.245  26.300  1.00  0.00     0.031 A 
ATOM     48  C   UNL A   1      44.271  26.117  26.824  1.00  0.00     0.074 A 
ATOM     49  C   UNL A   1      46.631  25.733  26.189  1.00  0.00     0.049 A 
ATOM     50  N   UNL A   1      44.308  27.372  27.191  1.00  0.00    -0.248 NA
ATOM     51  C   UNL A   1      42.939  25.502  26.919  1.00  0.00     0.031 C 
ATOM     52  C   UNL A   1      47.782  24.995  25.666  1.00  0.00     0.029 A 
ATOM     53  N   UNL A   1      47.145  26.968  26.498  1.00  0.00    -0.354 N 
ATOM     54  C   UNL A   1      43.004  27.701  27.549  1.00  0.00     0.074 A 
ATOM     55  C   UNL A   1      42.193  26.530  27.294  1.00  0.00     0.031 C 
ATOM     56  C   UNL A   1      48.870  25.782  25.714  1.00  0.00     0.029 A 
ATOM     57  C   UNL A   1      48.486  27.097  26.217  1.00  0.00     0.049 A 
ATOM     58  H   UNL A   1      46.606  27.695  26.886  1.00  0.00     0.167 HD
ATOM     59  C   UNL A   1      42.535  28.865  28.063  1.00  0.00     0.034 A 
ATOM     60  C   UNL A   1      49.310  28.158  26.330  1.00  0.00     0.034 A 
ATOM     61  C   UNL A   1      43.362  30.020  28.318  1.00  0.00     0.049 A 
ATOM     62  C   UNL A   1      48.755  29.456  26.864  1.00  0.00     0.074 A 
ATOM     63  C   UNL A   1      43.000  31.229  28.885  1.00  0.00     0.029 A 
ATOM     64  N   UNL A   1      44.714  30.116  28.010  1.00  0.00    -0.354 N 
ATOM     65  N   UNL A   1      47.530  29.736  27.244  1.00  0.00    -0.248 NA
ATOM     66  C   UNL A   1      49.695  30.578  26.991  1.00  0.00     0.031 C 
ATOM     67  C   UNL A   1      44.108  32.081  28.846  1.00  0.00     0.029 A 
ATOM     68  C   UNL A   1      45.189  31.377  28.340  1.00  0.00     0.049 A 
ATOM     69  H   UNL A   1      45.255  29.395  27.616  1.00  0.00     0.167 HD
ATOM     70  C   UNL A   1      47.562  31.055  27.687  1.00  0.00     0.074 A 
ATOM     71  C   UNL A   1      48.930  31.509  27.540  1.00  0.00     0.031 C 
ATOM     72  C   UNL A   1      46.555  31.821  28.179  1.00  0.00     0.034 A 
BRANCH  59  73
ATOM     73  C   UNL A   1      41.055  28.952  28.355  1.00  0.00     0.023 A 
ATOM     74  C   UNL A   1      40.548  28.831  29.661  1.00  0.00     0.031 A 
ATOM     75  C   UNL A   1      40.133  29.139  27.309  1.00  0.00     0.131 A 
ATOM     76  C   UNL A   1      39.162  28.821  29.877  1.00  0.00     0.055 A 
ATOM     77  C   UNL A   1      38.758  29.216  27.542  1.00  0.00     0.041 A 
ATOM     78  F   UNL A   1      40.552  29.237  26.038  1.00  0.00    -0.206 F 
ATOM     79  C   UNL A   1      38.265  29.041  28.831  1.00  0.00     0.022 A 
BRANCH  76  80
ATOM     80  S   UNL A   1      38.547  28.364  31.522  1.00  0.00     0.124 S 
ATOM     81  O   UNL A   1      39.553  28.971  32.391  1.00  0.00    -0.237 OA
ATOM     82  O   UNL A   1      37.225  28.978  31.547  1.00  0.00    -0.237 OA
ATOM     83  O   UNL A   1      38.557  26.902  31.496  1.00  0.00    -0.744 OA
ENDBRANCH  76  80
ENDBRANCH  59  73
BRANCH  60  84
ATOM     84  C   UNL A   1      50.740  28.054  25.918  1.00  0.00     0.023 A 
ATOM     85  C   UNL A   1      51.104  28.025  24.563  1.00  0.00     0.031 A 
ATOM     86  C   UNL A   1      51.764  27.931  26.876  1.00  0.00     0.131 A 
ATOM     87  C   UNL A   1      52.446  27.828  24.201  1.00  0.00     0.055 A 
ATOM     88  C   UNL A   1      53.104  27.797  26.512  1.00  0.00     0.041 A 
ATOM     89  F   UNL A   1      51.473  27.952  28.187  1.00  0.00    -0.206 F 
ATOM     90  C   UNL A   1      53.451  27.729  25.166  1.00  0.00     0.022 A 
BRANCH  87  91
ATOM     91  S   UNL A   1      52.849  27.602  22.447  1.00  0.00     0.124 S 
ATOM     92  O   UNL A   1      53.537  28.850  22.139  1.00  0.00    -0.237 OA
ATOM     93  O   UNL A   1      53.678  26.402  22.479  1.00  0.00    -0.237 OA
ATOM     94  O   UNL A   1      51.540  27.437  21.817  1.00  0.00    -0.744 OA
ENDBRANCH  87  91
ENDBRANCH  60  84
BRANCH  72  95
ATOM     95  C   UNL A   1      46.907  33.214  28.643  1.00  0.00     0.023 A 
ATOM     96  C   UNL A   1      46.787  34.332  27.801  1.00  0.00     0.031 A 
ATOM     97  C   UNL A   1      47.372  33.423  29.956  1.00  0.00     0.131 A 
ATOM     98  C   UNL A   1      47.176  35.600  28.262  1.00  0.00     0.055 A 
ATOM     99  C   UNL A   1      47.695  34.695  30.429  1.00  0.00     0.041 A 
ATOM    100  F   UNL A   1      47.512  32.390  30.803  1.00  0.00    -0.206 F 
ATOM    101  C   UNL A   1      47.610  35.790  29.577  1.00  0.00     0.022 A 
BRANCH  98 102
ATOM    102  S   UNL A   1      47.197  36.985  27.091  1.00  0.00     0.124 S 
ATOM    103  O   UNL A   1      46.788  36.338  25.848  1.00  0.00    -0.237 OA
ATOM    104  O   UNL A   1      46.227  37.905  27.678  1.00  0.00    -0.237 OA
ATOM    105  O   UNL A   1      48.584  37.444  27.125  1.00  0.00    -0.744 OA
ENDBRANCH  98 102
ENDBRANCH  72  95
ENDBRANCH  46  47
ENDBRANCH  38  41
ENDBRANCH  36  37
ENDBRANCH  35  36
ENDBRANCH   1  35
TORSDOF 20
ENDMDL
