MODEL 1
REMARK VINA RESULT:     -12.8      0.000      0.000
REMARK SMILES O=C(NCCCCCCNC(=O)[C@H]1[C@H]2CC[C@H](CC2)[C@@H]1C(=O)Nc1ccc(Cc2ccncc2)cc1)c1ccc(-c2c3nc(c(-c4cc(S(=O)(=O)[O-])ccc4F)c4ccc([nH]4)c(-c4cc(S(=O)(=O)[O-])ccc4F)c4nc(c(-c5cc(S(=O)(=O)[O-])ccc5F)c5ccc2[nH]5)C=C4)C=C3)cc1
REMARK SMILES IDX 7 1 6 2 5 3 4 4 3 5 1 6 2 7 37 9 38 10 99 11 39 12 98 13
REMARK SMILES IDX 40 14 41 15 42 16 92 17 43 18 97 19 91 20 93 21 44 22 96 23
REMARK SMILES IDX 90 24 89 25 45 27 77 28 57 29 76 30 58 31 61 32 75 33 94 34
REMARK SMILES IDX 59 35 60 36 74 38 95 39 62 40 46 41 47 42 55 43 48 44 54 45
REMARK SMILES IDX 56 46 53 47 49 48 50 49 51 50 52 51 78 52 79 53 87 54 80 55
REMARK SMILES IDX 86 56 88 57 85 58 81 59 82 60 83 61 84 62 63 63 64 64 72 65
REMARK SMILES IDX 65 66 71 67 73 68 70 69 66 70 67 71 68 72 69 73 8 74 9 75
REMARK SMILES IDX 10 76 11 77 12 79 13 80 14 81 20 82 15 83 19 84 17 85 16 86
REMARK SMILES IDX 18 87 21 88 22 89 23 90 24 92 25 93 36 94 26 95 35 96 27 97
REMARK SMILES IDX 28 98 29 99 30 100 34 101 31 102 33 103 32 104
REMARK H PARENT 3 8 93 26 61 37 10 78 23 91
REMARK Flexibility Score: inf
ROOT
ATOM      1  C   UNL A   1      35.122  24.077  23.762  1.00  0.00     0.002 C 
ENDROOT
BRANCH   1   2
ATOM      2  C   UNL A   1      36.539  23.492  23.778  1.00  0.00     0.002 C 
BRANCH   2   3
ATOM      3  C   UNL A   1      36.628  22.050  24.281  1.00  0.00     0.021 C 
BRANCH   3   4
ATOM      4  C   UNL A   1      37.018  21.926  25.748  1.00  0.00     0.116 C 
BRANCH   4   5
ATOM      5  N   UNL A   1      37.954  20.834  25.965  1.00  0.00    -0.352 N 
ATOM      6  O   UNL A   1      39.986  19.883  26.193  1.00  0.00    -0.269 OA
ATOM      7  C   UNL A   1      39.292  20.895  26.259  1.00  0.00     0.251 C 
ATOM      8  H   UNL A   1      37.575  19.928  25.892  1.00  0.00     0.163 HD
BRANCH   7   9
ATOM      9  C   UNL A   1      39.890  22.187  26.648  1.00  0.00     0.039 A 
ATOM     10  C   UNL A   1      39.524  23.363  25.985  1.00  0.00     0.014 A 
ATOM     11  C   UNL A   1      40.818  22.225  27.690  1.00  0.00     0.014 A 
ATOM     12  C   UNL A   1      40.166  24.557  26.289  1.00  0.00     0.010 A 
ATOM     13  C   UNL A   1      41.403  23.441  28.048  1.00  0.00     0.010 A 
ATOM     14  C   UNL A   1      41.094  24.613  27.340  1.00  0.00    -0.014 A 
BRANCH  14  15
ATOM     15  C   UNL A   1      41.682  25.917  27.736  1.00  0.00     0.031 A 
ATOM     16  C   UNL A   1      40.862  26.945  28.460  1.00  0.00     0.074 A 
ATOM     17  C   UNL A   1      42.962  26.176  27.407  1.00  0.00     0.049 A 
ATOM     18  N   UNL A   1      41.185  28.164  28.809  1.00  0.00    -0.248 NA
ATOM     19  C   UNL A   1      39.494  26.554  28.827  1.00  0.00     0.031 C 
ATOM     20  C   UNL A   1      43.850  25.251  26.699  1.00  0.00     0.029 A 
ATOM     21  N   UNL A   1      43.737  27.289  27.610  1.00  0.00    -0.354 N 
ATOM     22  C   UNL A   1      40.055  28.697  29.420  1.00  0.00     0.074 A 
ATOM     23  C   UNL A   1      39.029  27.676  29.357  1.00  0.00     0.031 C 
ATOM     24  C   UNL A   1      45.047  25.829  26.534  1.00  0.00     0.029 A 
ATOM     25  C   UNL A   1      44.990  27.191  27.054  1.00  0.00     0.049 A 
ATOM     26  H   UNL A   1      43.426  28.081  28.106  1.00  0.00     0.167 HD
ATOM     27  C   UNL A   1      39.899  29.922  29.983  1.00  0.00     0.034 A 
ATOM     28  C   UNL A   1      45.970  28.105  26.927  1.00  0.00     0.034 A 
ATOM     29  C   UNL A   1      40.939  30.925  30.017  1.00  0.00     0.049 A 
ATOM     30  C   UNL A   1      45.755  29.480  27.498  1.00  0.00     0.074 A 
ATOM     31  C   UNL A   1      40.908  32.181  30.599  1.00  0.00     0.029 A 
ATOM     32  N   UNL A   1      42.190  30.798  29.423  1.00  0.00    -0.354 N 
ATOM     33  N   UNL A   1      44.695  29.962  28.104  1.00  0.00    -0.248 NA
ATOM     34  C   UNL A   1      46.865  30.430  27.374  1.00  0.00     0.031 C 
ATOM     35  C   UNL A   1      42.100  32.842  30.282  1.00  0.00     0.029 A 
ATOM     36  C   UNL A   1      42.919  31.968  29.585  1.00  0.00     0.049 A 
ATOM     37  H   UNL A   1      42.512  29.994  28.955  1.00  0.00     0.167 HD
ATOM     38  C   UNL A   1      45.021  31.267  28.456  1.00  0.00     0.074 A 
ATOM     39  C   UNL A   1      46.378  31.493  27.999  1.00  0.00     0.031 C 
ATOM     40  C   UNL A   1      44.267  32.189  29.109  1.00  0.00     0.034 A 
BRANCH  27  41
ATOM     41  C   UNL A   1      38.535  30.258  30.547  1.00  0.00     0.023 A 
ATOM     42  C   UNL A   1      37.565  30.942  29.793  1.00  0.00     0.031 A 
ATOM     43  C   UNL A   1      38.217  29.932  31.879  1.00  0.00     0.131 A 
ATOM     44  C   UNL A   1      36.373  31.364  30.400  1.00  0.00     0.055 A 
ATOM     45  C   UNL A   1      36.988  30.272  32.449  1.00  0.00     0.041 A 
ATOM     46  F   UNL A   1      39.105  29.298  32.660  1.00  0.00    -0.206 F 
ATOM     47  C   UNL A   1      36.065  31.012  31.715  1.00  0.00     0.022 A 
BRANCH  44  48
ATOM     48  S   UNL A   1      35.317  32.538  29.505  1.00  0.00     0.124 S 
ATOM     49  O   UNL A   1      36.302  33.303  28.743  1.00  0.00    -0.237 OA
ATOM     50  O   UNL A   1      34.454  31.657  28.727  1.00  0.00    -0.237 OA
ATOM     51  O   UNL A   1      34.652  33.284  30.571  1.00  0.00    -0.744 OA
ENDBRANCH  44  48
ENDBRANCH  27  41
BRANCH  28  52
ATOM     52  C   UNL A   1      47.208  27.753  26.177  1.00  0.00     0.023 A 
ATOM     53  C   UNL A   1      47.276  27.870  24.782  1.00  0.00     0.031 A 
ATOM     54  C   UNL A   1      48.356  27.314  26.863  1.00  0.00     0.131 A 
ATOM     55  C   UNL A   1      48.464  27.530  24.114  1.00  0.00     0.055 A 
ATOM     56  C   UNL A   1      49.549  27.027  26.200  1.00  0.00     0.041 A 
ATOM     57  F   UNL A   1      48.343  27.192  28.200  1.00  0.00    -0.206 F 
ATOM     58  C   UNL A   1      49.605  27.127  24.814  1.00  0.00     0.022 A 
BRANCH  55  59
ATOM     59  S   UNL A   1      48.482  27.571  22.301  1.00  0.00     0.124 S 
ATOM     60  O   UNL A   1      49.648  28.404  22.035  1.00  0.00    -0.237 OA
ATOM     61  O   UNL A   1      48.613  26.157  21.966  1.00  0.00    -0.237 OA
ATOM     62  O   UNL A   1      47.194  28.173  21.962  1.00  0.00    -0.744 OA
ENDBRANCH  55  59
ENDBRANCH  28  52
BRANCH  40  63
ATOM     63  C   UNL A   1      44.915  33.517  29.416  1.00  0.00     0.023 A 
ATOM     64  C   UNL A   1      44.814  34.616  28.545  1.00  0.00     0.031 A 
ATOM     65  C   UNL A   1      45.628  33.687  30.617  1.00  0.00     0.131 A 
ATOM     66  C   UNL A   1      45.447  35.826  28.873  1.00  0.00     0.055 A 
ATOM     67  C   UNL A   1      46.204  34.909  30.964  1.00  0.00     0.041 A 
ATOM     68  F   UNL A   1      45.761  32.669  31.482  1.00  0.00    -0.206 F 
ATOM     69  C   UNL A   1      46.122  35.985  30.086  1.00  0.00     0.022 A 
BRANCH  66  70
ATOM     70  S   UNL A   1      45.433  37.178  27.662  1.00  0.00     0.124 S 
ATOM     71  O   UNL A   1      45.793  38.326  28.488  1.00  0.00    -0.237 OA
ATOM     72  O   UNL A   1      46.439  36.745  26.697  1.00  0.00    -0.237 OA
ATOM     73  O   UNL A   1      44.058  37.177  27.165  1.00  0.00    -0.744 OA
ENDBRANCH  66  70
ENDBRANCH  40  63
ENDBRANCH  14  15
ENDBRANCH   7   9
ENDBRANCH   4   5
ENDBRANCH   3   4
ENDBRANCH   2   3
ENDBRANCH   1   2
BRANCH   1  74
ATOM     74  C   UNL A   1      34.712  24.801  25.050  1.00  0.00     0.021 C 
BRANCH  74  75
ATOM     75  C   UNL A   1      33.612  25.842  24.840  1.00  0.00     0.116 C 
BRANCH  75  76
ATOM     76  N   UNL A   1      32.965  26.145  26.106  1.00  0.00    -0.356 N 
ATOM     77  C   UNL A   1      31.998  27.064  26.378  1.00  0.00     0.224 C 
ATOM     78  H   UNL A   1      33.266  25.608  26.875  1.00  0.00     0.163 HD
ATOM     79  O   UNL A   1      31.799  27.376  27.552  1.00  0.00    -0.275 OA
BRANCH  77  80
ATOM     80  C   UNL A   1      31.126  27.572  25.243  1.00  0.00     0.094 C 
ATOM     81  C   UNL A   1      31.483  29.054  24.941  1.00  0.00     0.002 C 
ATOM     82  C   UNL A   1      31.244  26.679  23.968  1.00  0.00     0.094 C 
ATOM     83  C   UNL A   1      32.893  29.161  24.337  1.00  0.00     0.005 C 
ATOM     84  C   UNL A   1      30.481  29.574  23.896  1.00  0.00     0.005 C 
ATOM     85  C   UNL A   1      31.628  27.622  22.793  1.00  0.00     0.002 C 
ATOM     86  C   UNL A   1      32.998  28.255  23.111  1.00  0.00     0.005 C 
ATOM     87  C   UNL A   1      30.583  28.736  22.621  1.00  0.00     0.005 C 
BRANCH  82  88
ATOM     88  C   UNL A   1      29.938  25.860  23.830  1.00  0.00     0.228 C 
ATOM     89  O   UNL A   1      28.842  26.414  23.677  1.00  0.00    -0.274 OA
ATOM     90  N   UNL A   1      29.915  24.498  23.859  1.00  0.00    -0.326 N 
ATOM     91  H   UNL A   1      29.055  24.088  23.612  1.00  0.00     0.169 HD
BRANCH  90  92
ATOM     92  C   UNL A   1      30.925  23.600  24.187  1.00  0.00     0.041 A 
ATOM     93  C   UNL A   1      31.040  23.238  25.526  1.00  0.00     0.026 A 
ATOM     94  C   UNL A   1      31.757  23.026  23.225  1.00  0.00     0.026 A 
ATOM     95  C   UNL A   1      31.884  22.191  25.880  1.00  0.00     0.006 A 
ATOM     96  C   UNL A   1      32.643  22.010  23.592  1.00  0.00     0.006 A 
ATOM     97  C   UNL A   1      32.683  21.554  24.918  1.00  0.00    -0.043 A 
BRANCH  97  98
ATOM     98  C   UNL A   1      33.567  20.394  25.313  1.00  0.00     0.071 C 
BRANCH  98  99
ATOM     99  C   UNL A   1      33.450  19.206  24.390  1.00  0.00    -0.041 A 
ATOM    100  C   UNL A   1      34.408  18.187  24.404  1.00  0.00     0.024 A 
ATOM    101  C   UNL A   1      32.395  19.108  23.480  1.00  0.00     0.024 A 
ATOM    102  C   UNL A   1      34.285  17.140  23.505  1.00  0.00     0.111 A 
ATOM    103  C   UNL A   1      32.350  18.011  22.633  1.00  0.00     0.111 A 
ATOM    104  N   UNL A   1      33.273  17.024  22.624  1.00  0.00    -0.265 NA
ENDBRANCH  98  99
ENDBRANCH  97  98
ENDBRANCH  90  92
ENDBRANCH  82  88
ENDBRANCH  77  80
ENDBRANCH  75  76
ENDBRANCH  74  75
ENDBRANCH   1  74
TORSDOF 20
ENDMDL
MODEL 2
REMARK VINA RESULT:     -12.3      1.649      4.768
REMARK SMILES O=C(NCCCCCCNC(=O)[C@H]1[C@H]2CC[C@H](CC2)[C@@H]1C(=O)Nc1ccc(Cc2ccncc2)cc1)c1ccc(-c2c3nc(c(-c4cc(S(=O)(=O)[O-])ccc4F)c4ccc([nH]4)c(-c4cc(S(=O)(=O)[O-])ccc4F)c4nc(c(-c5cc(S(=O)(=O)[O-])ccc5F)c5ccc2[nH]5)C=C4)C=C3)cc1
REMARK SMILES IDX 7 1 6 2 5 3 4 4 3 5 1 6 2 7 37 9 38 10 99 11 39 12 98 13
REMARK SMILES IDX 40 14 41 15 42 16 92 17 43 18 97 19 91 20 93 21 44 22 96 23
REMARK SMILES IDX 90 24 89 25 45 27 77 28 57 29 76 30 58 31 61 32 75 33 94 34
REMARK SMILES IDX 59 35 60 36 74 38 95 39 62 40 46 41 47 42 55 43 48 44 54 45
REMARK SMILES IDX 56 46 53 47 49 48 50 49 51 50 52 51 78 52 79 53 87 54 80 55
REMARK SMILES IDX 86 56 88 57 85 58 81 59 82 60 83 61 84 62 63 63 64 64 72 65
REMARK SMILES IDX 65 66 71 67 73 68 70 69 66 70 67 71 68 72 69 73 8 74 9 75
REMARK SMILES IDX 10 76 11 77 12 79 13 80 14 81 20 82 15 83 19 84 17 85 16 86
REMARK SMILES IDX 18 87 21 88 22 89 23 90 24 92 25 93 36 94 26 95 35 96 27 97
REMARK SMILES IDX 28 98 29 99 30 100 34 101 31 102 33 103 32 104
REMARK H PARENT 3 8 93 26 61 37 10 78 23 91
REMARK Flexibility Score: inf
ROOT
ATOM      1  C   UNL A   1      32.936  22.593  27.977  1.00  0.00     0.002 C 
ENDROOT
BRANCH   1   2
ATOM      2  C   UNL A   1      34.113  21.931  27.251  1.00  0.00     0.002 C 
BRANCH   2   3
ATOM      3  C   UNL A   1      35.435  22.694  27.351  1.00  0.00     0.021 C 
BRANCH   3   4
ATOM      4  C   UNL A   1      36.258  22.681  26.069  1.00  0.00     0.116 C 
BRANCH   4   5
ATOM      5  N   UNL A   1      37.141  21.527  26.009  1.00  0.00    -0.352 N 
ATOM      6  O   UNL A   1      39.113  20.458  25.777  1.00  0.00    -0.269 OA
ATOM      7  C   UNL A   1      38.511  21.491  26.063  1.00  0.00     0.251 C 
ATOM      8  H   UNL A   1      36.695  20.654  25.918  1.00  0.00     0.163 HD
BRANCH   7   9
ATOM      9  C   UNL A   1      39.253  22.703  26.461  1.00  0.00     0.039 A 
ATOM     10  C   UNL A   1      38.974  23.933  25.856  1.00  0.00     0.014 A 
ATOM     11  C   UNL A   1      40.230  22.612  27.454  1.00  0.00     0.014 A 
ATOM     12  C   UNL A   1      39.746  25.047  26.164  1.00  0.00     0.010 A 
ATOM     13  C   UNL A   1      40.950  23.751  27.820  1.00  0.00     0.010 A 
ATOM     14  C   UNL A   1      40.725  24.972  27.166  1.00  0.00    -0.014 A 
BRANCH  14  15
ATOM     15  C   UNL A   1      41.458  26.198  27.572  1.00  0.00     0.031 A 
ATOM     16  C   UNL A   1      40.778  27.278  28.361  1.00  0.00     0.074 A 
ATOM     17  C   UNL A   1      42.743  26.338  27.193  1.00  0.00     0.049 A 
ATOM     18  N   UNL A   1      41.237  28.446  28.730  1.00  0.00    -0.248 NA
ATOM     19  C   UNL A   1      39.395  27.014  28.778  1.00  0.00     0.031 C 
ATOM     20  C   UNL A   1      43.502  25.352  26.419  1.00  0.00     0.029 A 
ATOM     21  N   UNL A   1      43.634  27.360  27.392  1.00  0.00    -0.354 N 
ATOM     22  C   UNL A   1      40.194  29.069  29.406  1.00  0.00     0.074 A 
ATOM     23  C   UNL A   1      39.068  28.159  29.360  1.00  0.00     0.031 C 
ATOM     24  C   UNL A   1      44.743  25.813  26.216  1.00  0.00     0.029 A 
ATOM     25  C   UNL A   1      44.847  27.156  26.777  1.00  0.00     0.049 A 
ATOM     26  H   UNL A   1      43.426  28.163  27.923  1.00  0.00     0.167 HD
ATOM     27  C   UNL A   1      40.187  30.285  30.010  1.00  0.00     0.034 A 
ATOM     28  C   UNL A   1      45.908  27.971  26.632  1.00  0.00     0.034 A 
ATOM     29  C   UNL A   1      41.324  31.177  30.025  1.00  0.00     0.049 A 
ATOM     30  C   UNL A   1      45.858  29.340  27.251  1.00  0.00     0.074 A 
ATOM     31  C   UNL A   1      41.445  32.410  30.644  1.00  0.00     0.029 A 
ATOM     32  N   UNL A   1      42.530  30.945  29.372  1.00  0.00    -0.354 N 
ATOM     33  N   UNL A   1      44.879  29.906  27.918  1.00  0.00    -0.248 NA
ATOM     34  C   UNL A   1      47.053  30.179  27.103  1.00  0.00     0.031 C 
ATOM     35  C   UNL A   1      42.684  32.958  30.292  1.00  0.00     0.029 A 
ATOM     36  C   UNL A   1      43.380  32.030  29.534  1.00  0.00     0.049 A 
ATOM     37  H   UNL A   1      42.749  30.129  28.867  1.00  0.00     0.167 HD
ATOM     38  C   UNL A   1      45.350  31.160  28.292  1.00  0.00     0.074 A 
ATOM     39  C   UNL A   1      46.702  31.264  27.780  1.00  0.00     0.031 C 
ATOM     40  C   UNL A   1      44.722  32.131  29.004  1.00  0.00     0.034 A 
BRANCH  27  41
ATOM     41  C   UNL A   1      38.890  30.737  30.645  1.00  0.00     0.023 A 
ATOM     42  C   UNL A   1      37.835  31.271  29.884  1.00  0.00     0.031 A 
ATOM     43  C   UNL A   1      38.723  30.678  32.041  1.00  0.00     0.131 A 
ATOM     44  C   UNL A   1      36.711  31.815  30.524  1.00  0.00     0.055 A 
ATOM     45  C   UNL A   1      37.561  31.134  32.666  1.00  0.00     0.041 A 
ATOM     46  F   UNL A   1      39.699  30.198  32.828  1.00  0.00    -0.206 F 
ATOM     47  C   UNL A   1      36.554  31.727  31.909  1.00  0.00     0.022 A 
BRANCH  44  48
ATOM     48  S   UNL A   1      35.550  32.803  29.541  1.00  0.00     0.124 S 
ATOM     49  O   UNL A   1      35.427  31.997  28.328  1.00  0.00    -0.237 OA
ATOM     50  O   UNL A   1      34.371  32.851  30.398  1.00  0.00    -0.237 OA
ATOM     51  O   UNL A   1      36.247  34.076  29.364  1.00  0.00    -0.744 OA
ENDBRANCH  44  48
ENDBRANCH  27  41
BRANCH  28  52
ATOM     52  C   UNL A   1      47.071  27.522  25.816  1.00  0.00     0.023 A 
ATOM     53  C   UNL A   1      47.179  27.843  24.457  1.00  0.00     0.031 A 
ATOM     54  C   UNL A   1      48.110  26.778  26.407  1.00  0.00     0.131 A 
ATOM     55  C   UNL A   1      48.293  27.401  23.725  1.00  0.00     0.055 A 
ATOM     56  C   UNL A   1      49.239  26.387  25.689  1.00  0.00     0.041 A 
ATOM     57  F   UNL A   1      48.057  26.451  27.709  1.00  0.00    -0.206 F 
ATOM     58  C   UNL A   1      49.332  26.692  24.335  1.00  0.00     0.022 A 
BRANCH  55  59
ATOM     59  S   UNL A   1      48.344  27.723  21.941  1.00  0.00     0.124 S 
ATOM     60  O   UNL A   1      49.424  28.697  21.846  1.00  0.00    -0.237 OA
ATOM     61  O   UNL A   1      48.624  26.397  21.401  1.00  0.00    -0.237 OA
ATOM     62  O   UNL A   1      47.008  28.241  21.651  1.00  0.00    -0.744 OA
ENDBRANCH  55  59
ENDBRANCH  28  52
BRANCH  40  63
ATOM     63  C   UNL A   1      45.514  33.377  29.319  1.00  0.00     0.023 A 
ATOM     64  C   UNL A   1      45.543  34.482  28.451  1.00  0.00     0.031 A 
ATOM     65  C   UNL A   1      46.233  33.462  30.525  1.00  0.00     0.131 A 
ATOM     66  C   UNL A   1      46.307  35.612  28.786  1.00  0.00     0.055 A 
ATOM     67  C   UNL A   1      46.942  34.611  30.879  1.00  0.00     0.041 A 
ATOM     68  F   UNL A   1      46.245  32.434  31.387  1.00  0.00    -0.206 F 
ATOM     69  C   UNL A   1      46.987  35.691  30.004  1.00  0.00     0.022 A 
BRANCH  66  70
ATOM     70  S   UNL A   1      46.453  36.959  27.579  1.00  0.00     0.124 S 
ATOM     71  O   UNL A   1      45.304  37.793  27.918  1.00  0.00    -0.237 OA
ATOM     72  O   UNL A   1      47.763  37.520  27.893  1.00  0.00    -0.237 OA
ATOM     73  O   UNL A   1      46.366  36.275  26.290  1.00  0.00    -0.744 OA
ENDBRANCH  66  70
ENDBRANCH  40  63
ENDBRANCH  14  15
ENDBRANCH   7   9
ENDBRANCH   4   5
ENDBRANCH   3   4
ENDBRANCH   2   3
ENDBRANCH   1   2
BRANCH   1  74
ATOM     74  C   UNL A   1      31.974  23.367  27.066  1.00  0.00     0.021 C 
BRANCH  74  75
ATOM     75  C   UNL A   1      30.730  22.569  26.675  1.00  0.00     0.116 C 
BRANCH  75  76
ATOM     76  N   UNL A   1      30.215  23.041  25.401  1.00  0.00    -0.356 N 
ATOM     77  C   UNL A   1      30.875  23.668  24.388  1.00  0.00     0.224 C 
ATOM     78  H   UNL A   1      29.255  22.885  25.248  1.00  0.00     0.163 HD
ATOM     79  O   UNL A   1      30.212  24.254  23.531  1.00  0.00    -0.275 OA
BRANCH  77  80
ATOM     80  C   UNL A   1      32.382  23.514  24.286  1.00  0.00     0.094 C 
ATOM     81  C   UNL A   1      32.722  22.089  23.768  1.00  0.00     0.002 C 
ATOM     82  C   UNL A   1      33.025  24.620  23.391  1.00  0.00     0.094 C 
ATOM     83  C   UNL A   1      32.281  21.922  22.305  1.00  0.00     0.005 C 
ATOM     84  C   UNL A   1      34.250  21.923  23.823  1.00  0.00     0.005 C 
ATOM     85  C   UNL A   1      33.856  23.889  22.299  1.00  0.00     0.002 C 
ATOM     86  C   UNL A   1      32.893  23.032  21.453  1.00  0.00     0.005 C 
ATOM     87  C   UNL A   1      34.916  22.977  22.938  1.00  0.00     0.005 C 
BRANCH  82  88
ATOM     88  C   UNL A   1      33.772  25.614  24.314  1.00  0.00     0.228 C 
ATOM     89  O   UNL A   1      34.808  25.288  24.907  1.00  0.00    -0.274 OA
ATOM     90  N   UNL A   1      33.347  26.891  24.520  1.00  0.00    -0.326 N 
ATOM     91  H   UNL A   1      33.980  27.471  25.002  1.00  0.00     0.169 HD
BRANCH  90  92
ATOM     92  C   UNL A   1      32.152  27.500  24.151  1.00  0.00     0.041 A 
ATOM     93  C   UNL A   1      32.153  28.228  22.964  1.00  0.00     0.026 A 
ATOM     94  C   UNL A   1      30.976  27.348  24.886  1.00  0.00     0.026 A 
ATOM     95  C   UNL A   1      30.946  28.675  22.436  1.00  0.00     0.006 A 
ATOM     96  C   UNL A   1      29.773  27.846  24.380  1.00  0.00     0.006 A 
ATOM     97  C   UNL A   1      29.741  28.478  23.129  1.00  0.00    -0.043 A 
BRANCH  97  98
ATOM     98  C   UNL A   1      28.435  28.938  22.525  1.00  0.00     0.071 C 
BRANCH  98  99
ATOM     99  C   UNL A   1      28.350  30.433  22.339  1.00  0.00    -0.041 A 
ATOM    100  C   UNL A   1      28.045  30.986  21.091  1.00  0.00     0.024 A 
ATOM    101  C   UNL A   1      28.600  31.302  23.403  1.00  0.00     0.024 A 
ATOM    102  C   UNL A   1      28.026  32.365  20.956  1.00  0.00     0.111 A 
ATOM    103  C   UNL A   1      28.539  32.668  23.171  1.00  0.00     0.111 A 
ATOM    104  N   UNL A   1      28.259  33.220  21.971  1.00  0.00    -0.265 NA
ENDBRANCH  98  99
ENDBRANCH  97  98
ENDBRANCH  90  92
ENDBRANCH  82  88
ENDBRANCH  77  80
ENDBRANCH  75  76
ENDBRANCH  74  75
ENDBRANCH   1  74
TORSDOF 20
ENDMDL
MODEL 3
REMARK VINA RESULT:     -12.3      1.773      4.656
REMARK SMILES O=C(NCCCCCCNC(=O)[C@H]1[C@H]2CC[C@H](CC2)[C@@H]1C(=O)Nc1ccc(Cc2ccncc2)cc1)c1ccc(-c2c3nc(c(-c4cc(S(=O)(=O)[O-])ccc4F)c4ccc([nH]4)c(-c4cc(S(=O)(=O)[O-])ccc4F)c4nc(c(-c5cc(S(=O)(=O)[O-])ccc5F)c5ccc2[nH]5)C=C4)C=C3)cc1
REMARK SMILES IDX 7 1 6 2 5 3 4 4 3 5 1 6 2 7 37 9 38 10 99 11 39 12 98 13
REMARK SMILES IDX 40 14 41 15 42 16 92 17 43 18 97 19 91 20 93 21 44 22 96 23
REMARK SMILES IDX 90 24 89 25 45 27 77 28 57 29 76 30 58 31 61 32 75 33 94 34
REMARK SMILES IDX 59 35 60 36 74 38 95 39 62 40 46 41 47 42 55 43 48 44 54 45
REMARK SMILES IDX 56 46 53 47 49 48 50 49 51 50 52 51 78 52 79 53 87 54 80 55
REMARK SMILES IDX 86 56 88 57 85 58 81 59 82 60 83 61 84 62 63 63 64 64 72 65
REMARK SMILES IDX 65 66 71 67 73 68 70 69 66 70 67 71 68 72 69 73 8 74 9 75
REMARK SMILES IDX 10 76 11 77 12 79 13 80 14 81 20 82 15 83 19 84 17 85 16 86
REMARK SMILES IDX 18 87 21 88 22 89 23 90 24 92 25 93 36 94 26 95 35 96 27 97
REMARK SMILES IDX 28 98 29 99 30 100 34 101 31 102 33 103 32 104
REMARK H PARENT 3 8 93 26 61 37 10 78 23 91
REMARK Flexibility Score: inf
ROOT
ATOM      1  C   UNL A   1      34.694  19.939  24.935  1.00  0.00     0.002 C 
ENDROOT
BRANCH   1   2
ATOM      2  C   UNL A   1      35.595  21.141  24.628  1.00  0.00     0.002 C 
BRANCH   2   3
ATOM      3  C   UNL A   1      36.583  21.497  25.741  1.00  0.00     0.021 C 
BRANCH   3   4
ATOM      4  C   UNL A   1      38.037  21.545  25.288  1.00  0.00     0.116 C 
BRANCH   4   5
ATOM      5  N   UNL A   1      38.831  20.504  25.922  1.00  0.00    -0.352 N 
ATOM      6  O   UNL A   1      40.679  19.611  26.856  1.00  0.00    -0.269 OA
ATOM      7  C   UNL A   1      40.033  20.617  26.572  1.00  0.00     0.251 C 
ATOM      8  H   UNL A   1      38.454  19.595  25.879  1.00  0.00     0.163 HD
BRANCH   7   9
ATOM      9  C   UNL A   1      40.546  21.957  26.919  1.00  0.00     0.039 A 
ATOM     10  C   UNL A   1      41.412  22.121  28.005  1.00  0.00     0.014 A 
ATOM     11  C   UNL A   1      40.166  23.056  26.147  1.00  0.00     0.014 A 
ATOM     12  C   UNL A   1      41.810  23.398  28.386  1.00  0.00     0.010 A 
ATOM     13  C   UNL A   1      40.632  24.329  26.484  1.00  0.00     0.010 A 
ATOM     14  C   UNL A   1      41.443  24.511  27.615  1.00  0.00    -0.014 A 
BRANCH  14  15
ATOM     15  C   UNL A   1      41.974  25.853  27.960  1.00  0.00     0.031 A 
ATOM     16  C   UNL A   1      41.119  26.862  28.672  1.00  0.00     0.074 A 
ATOM     17  C   UNL A   1      43.233  26.164  27.597  1.00  0.00     0.049 A 
ATOM     18  N   UNL A   1      41.389  28.105  28.978  1.00  0.00    -0.248 NA
ATOM     19  C   UNL A   1      39.780  26.417  29.078  1.00  0.00     0.031 C 
ATOM     20  C   UNL A   1      44.151  25.261  26.897  1.00  0.00     0.029 A 
ATOM     21  N   UNL A   1      43.956  27.318  27.751  1.00  0.00    -0.354 N 
ATOM     22  C   UNL A   1      40.247  28.601  29.597  1.00  0.00     0.074 A 
ATOM     23  C   UNL A   1      39.271  27.531  29.586  1.00  0.00     0.031 C 
ATOM     24  C   UNL A   1      45.315  25.891  26.690  1.00  0.00     0.029 A 
ATOM     25  C   UNL A   1      45.202  27.264  27.171  1.00  0.00     0.049 A 
ATOM     26  H   UNL A   1      43.617  28.109  28.230  1.00  0.00     0.167 HD
ATOM     27  C   UNL A   1      40.043  29.834  30.127  1.00  0.00     0.034 A 
ATOM     28  C   UNL A   1      46.134  28.220  26.997  1.00  0.00     0.034 A 
ATOM     29  C   UNL A   1      41.033  30.886  30.110  1.00  0.00     0.049 A 
ATOM     30  C   UNL A   1      45.864  29.599  27.532  1.00  0.00     0.074 A 
ATOM     31  C   UNL A   1      40.953  32.156  30.656  1.00  0.00     0.029 A 
ATOM     32  N   UNL A   1      42.277  30.801  29.493  1.00  0.00    -0.354 N 
ATOM     33  N   UNL A   1      44.793  30.048  28.147  1.00  0.00    -0.248 NA
ATOM     34  C   UNL A   1      46.923  30.598  27.357  1.00  0.00     0.031 C 
ATOM     35  C   UNL A   1      42.105  32.864  30.295  1.00  0.00     0.029 A 
ATOM     36  C   UNL A   1      42.951  32.010  29.606  1.00  0.00     0.049 A 
ATOM     37  H   UNL A   1      42.629  30.000  29.043  1.00  0.00     0.167 HD
ATOM     38  C   UNL A   1      45.062  31.377  28.454  1.00  0.00     0.074 A 
ATOM     39  C   UNL A   1      46.397  31.655  27.962  1.00  0.00     0.031 C 
ATOM     40  C   UNL A   1      44.277  32.281  29.096  1.00  0.00     0.034 A 
BRANCH  27  41
ATOM     41  C   UNL A   1      38.676  30.121  30.710  1.00  0.00     0.023 A 
ATOM     42  C   UNL A   1      37.686  30.808  29.985  1.00  0.00     0.031 A 
ATOM     43  C   UNL A   1      38.374  29.743  32.032  1.00  0.00     0.131 A 
ATOM     44  C   UNL A   1      36.489  31.183  30.613  1.00  0.00     0.055 A 
ATOM     45  C   UNL A   1      37.142  30.037  32.621  1.00  0.00     0.041 A 
ATOM     46  F   UNL A   1      39.281  29.103  32.786  1.00  0.00    -0.206 F 
ATOM     47  C   UNL A   1      36.198  30.780  31.918  1.00  0.00     0.022 A 
BRANCH  44  48
ATOM     48  S   UNL A   1      35.403  32.363  29.765  1.00  0.00     0.124 S 
ATOM     49  O   UNL A   1      36.295  33.504  29.573  1.00  0.00    -0.237 OA
ATOM     50  O   UNL A   1      35.029  31.636  28.557  1.00  0.00    -0.237 OA
ATOM     51  O   UNL A   1      34.321  32.584  30.722  1.00  0.00    -0.744 OA
ENDBRANCH  44  48
ENDBRANCH  27  41
BRANCH  28  52
ATOM     52  C   UNL A   1      47.372  27.906  26.231  1.00  0.00     0.023 A 
ATOM     53  C   UNL A   1      47.408  27.988  24.833  1.00  0.00     0.031 A 
ATOM     54  C   UNL A   1      48.552  27.539  26.905  1.00  0.00     0.131 A 
ATOM     55  C   UNL A   1      48.597  27.685  24.150  1.00  0.00     0.055 A 
ATOM     56  C   UNL A   1      49.744  27.290  26.225  1.00  0.00     0.041 A 
ATOM     57  F   UNL A   1      48.571  27.453  28.245  1.00  0.00    -0.206 F 
ATOM     58  C   UNL A   1      49.769  27.355  24.836  1.00  0.00     0.022 A 
BRANCH  55  59
ATOM     59  S   UNL A   1      48.578  27.678  22.336  1.00  0.00     0.124 S 
ATOM     60  O   UNL A   1      48.695  26.254  22.044  1.00  0.00    -0.237 OA
ATOM     61  O   UNL A   1      47.287  28.290  22.043  1.00  0.00    -0.237 OA
ATOM     62  O   UNL A   1      49.743  28.487  21.981  1.00  0.00    -0.744 OA
ENDBRANCH  55  59
ENDBRANCH  28  52
BRANCH  40  63
ATOM     63  C   UNL A   1      44.866  33.648  29.350  1.00  0.00     0.023 A 
ATOM     64  C   UNL A   1      45.590  33.943  30.518  1.00  0.00     0.031 A 
ATOM     65  C   UNL A   1      44.714  34.664  28.389  1.00  0.00     0.131 A 
ATOM     66  C   UNL A   1      46.106  35.235  30.710  1.00  0.00     0.055 A 
ATOM     67  C   UNL A   1      45.279  35.928  28.560  1.00  0.00     0.041 A 
ATOM     68  F   UNL A   1      44.027  34.438  27.258  1.00  0.00    -0.206 F 
ATOM     69  C   UNL A   1      45.974  36.222  29.729  1.00  0.00     0.022 A 
BRANCH  66  70
ATOM     70  S   UNL A   1      46.901  35.635  32.291  1.00  0.00     0.124 S 
ATOM     71  O   UNL A   1      47.180  37.058  32.137  1.00  0.00    -0.237 OA
ATOM     72  O   UNL A   1      45.865  35.288  33.259  1.00  0.00    -0.237 OA
ATOM     73  O   UNL A   1      48.079  34.769  32.310  1.00  0.00    -0.744 OA
ENDBRANCH  66  70
ENDBRANCH  40  63
ENDBRANCH  14  15
ENDBRANCH   7   9
ENDBRANCH   4   5
ENDBRANCH   3   4
ENDBRANCH   2   3
ENDBRANCH   1   2
BRANCH   1  74
ATOM     74  C   UNL A   1      33.532  20.236  25.892  1.00  0.00     0.021 C 
BRANCH  74  75
ATOM     75  C   UNL A   1      32.179  20.354  25.190  1.00  0.00     0.116 C 
BRANCH  75  76
ATOM     76  N   UNL A   1      31.375  21.383  25.828  1.00  0.00    -0.356 N 
ATOM     77  C   UNL A   1      31.586  22.727  25.883  1.00  0.00     0.224 C 
ATOM     78  H   UNL A   1      30.562  21.064  26.284  1.00  0.00     0.163 HD
ATOM     79  O   UNL A   1      30.964  23.385  26.718  1.00  0.00    -0.275 OA
BRANCH  77  80
ATOM     80  C   UNL A   1      32.478  23.374  24.839  1.00  0.00     0.094 C 
ATOM     81  C   UNL A   1      32.007  22.948  23.421  1.00  0.00     0.002 C 
ATOM     82  C   UNL A   1      32.523  24.928  24.988  1.00  0.00     0.094 C 
ATOM     83  C   UNL A   1      30.635  23.561  23.097  1.00  0.00     0.005 C 
ATOM     84  C   UNL A   1      33.022  23.498  22.404  1.00  0.00     0.005 C 
ATOM     85  C   UNL A   1      32.130  25.524  23.607  1.00  0.00     0.002 C 
ATOM     86  C   UNL A   1      30.691  25.076  23.281  1.00  0.00     0.005 C 
ATOM     87  C   UNL A   1      33.078  25.023  22.505  1.00  0.00     0.005 C 
BRANCH  82  88
ATOM     88  C   UNL A   1      33.905  25.317  25.568  1.00  0.00     0.228 C 
ATOM     89  O   UNL A   1      34.762  24.460  25.821  1.00  0.00    -0.274 OA
ATOM     90  N   UNL A   1      34.262  26.606  25.822  1.00  0.00    -0.326 N 
ATOM     91  H   UNL A   1      35.211  26.742  26.044  1.00  0.00     0.169 HD
BRANCH  90  92
ATOM     92  C   UNL A   1      33.485  27.760  25.815  1.00  0.00     0.041 A 
ATOM     93  C   UNL A   1      33.646  28.624  24.736  1.00  0.00     0.026 A 
ATOM     94  C   UNL A   1      32.535  28.029  26.801  1.00  0.00     0.026 A 
ATOM     95  C   UNL A   1      32.753  29.676  24.564  1.00  0.00     0.006 A 
ATOM     96  C   UNL A   1      31.673  29.118  26.654  1.00  0.00     0.006 A 
ATOM     97  C   UNL A   1      31.748  29.928  25.511  1.00  0.00    -0.043 A 
BRANCH  97  98
ATOM     98  C   UNL A   1      30.763  31.052  25.291  1.00  0.00     0.071 C 
BRANCH  98  99
ATOM     99  C   UNL A   1      29.798  30.796  24.159  1.00  0.00    -0.041 A 
ATOM    100  C   UNL A   1      28.855  31.759  23.786  1.00  0.00     0.024 A 
ATOM    101  C   UNL A   1      29.806  29.580  23.474  1.00  0.00     0.024 A 
ATOM    102  C   UNL A   1      27.958  31.461  22.774  1.00  0.00     0.111 A 
ATOM    103  C   UNL A   1      28.878  29.383  22.462  1.00  0.00     0.111 A 
ATOM    104  N   UNL A   1      27.952  30.297  22.096  1.00  0.00    -0.265 NA
ENDBRANCH  98  99
ENDBRANCH  97  98
ENDBRANCH  90  92
ENDBRANCH  82  88
ENDBRANCH  77  80
ENDBRANCH  75  76
ENDBRANCH  74  75
ENDBRANCH   1  74
TORSDOF 20
ENDMDL
