MODEL 1
REMARK VINA RESULT:     -11.4      0.000      0.000
REMARK SMILES O=C(C[N@@H+]1CCC[C@@H]1C(=O)NCCCCCCNC(=O)c1ccc(-c2c3nc(c(-c4cc(S(=O)(=O)[O-])ccc4F)c4ccc([nH]4)c(-c4cc(S(=O)(=O)[O-])ccc4F)c4nc(c(-c5cc(S(=O)(=O)[O-])ccc5F)c5ccc2[nH]5)C=C4)C=C3)cc1)NCc1ccc(Cl)cc1
REMARK SMILES IDX 14 1 13 2 12 3 11 4 9 5 10 6 8 8 4 9 5 10 6 12 7 13 3 14
REMARK SMILES IDX 2 15 1 16 84 17 85 19 86 20 87 21 92 22 88 23 91 24 89 25
REMARK SMILES IDX 90 26 15 27 16 28 17 29 18 30 19 31 20 33 21 34 22 35 83 36
REMARK SMILES IDX 23 37 82 38 24 39 25 40 26 41 76 42 27 43 81 44 75 45 77 46
REMARK SMILES IDX 28 47 80 48 74 49 73 50 29 52 61 53 41 54 60 55 42 56 45 57
REMARK SMILES IDX 59 58 78 59 43 60 44 61 58 63 79 64 46 65 30 66 31 67 39 68
REMARK SMILES IDX 32 69 38 70 40 71 37 72 33 73 34 74 35 75 36 76 62 77 63 78
REMARK SMILES IDX 71 79 64 80 70 81 72 82 69 83 65 84 66 85 67 86 68 87 47 88
REMARK SMILES IDX 48 89 56 90 49 91 55 92 57 93 54 94 50 95 51 96 52 97 53 98
REMARK H PARENT 11 7 4 11 84 18 18 32 77 51 45 62
REMARK Flexibility Score: inf
ROOT
ATOM      1  C   UNL A   1      32.458  29.131  27.144  1.00  0.00     0.002 C 
ENDROOT
BRANCH   1   2
ATOM      2  C   UNL A   1      31.767  27.799  27.448  1.00  0.00     0.021 C 
BRANCH   2   3
ATOM      3  C   UNL A   1      32.166  26.665  26.513  1.00  0.00     0.116 C 
BRANCH   3   4
ATOM      4  N   UNL A   1      31.385  25.468  26.754  1.00  0.00    -0.351 N 
ATOM      5  C   UNL A   1      31.767  24.163  26.822  1.00  0.00     0.278 C 
ATOM      6  O   UNL A   1      30.904  23.348  27.168  1.00  0.00    -0.268 OA
ATOM      7  H   UNL A   1      30.422  25.624  26.891  1.00  0.00     0.163 HD
BRANCH   5   8
ATOM      8  C   UNL A   1      33.197  23.677  26.493  1.00  0.00     0.274 C 
ATOM      9  N   UNL A   1      33.411  23.075  25.162  1.00  0.00    -0.317 N 
ATOM     10  C   UNL A   1      33.832  21.689  25.291  1.00  0.00     0.263 C 
ATOM     11  H   UNL A   1      34.210  23.540  24.729  1.00  0.00     0.349 HD
ATOM     12  C   UNL A   1      34.125  21.437  26.764  1.00  0.00     0.068 C 
ATOM     13  C   UNL A   1      33.757  22.702  27.519  1.00  0.00     0.081 C 
BRANCH   9  14
ATOM     14  C   UNL A   1      32.451  23.439  24.116  1.00  0.00     0.364 C 
BRANCH  14  15
ATOM     15  C   UNL A   1      32.870  24.635  23.265  1.00  0.00     0.275 C 
ATOM     16  O   UNL A   1      33.895  24.619  22.588  1.00  0.00    -0.268 OA
ATOM     17  N   UNL A   1      32.003  25.697  23.301  1.00  0.00    -0.347 N 
ATOM     18  H   UNL A   1      31.258  25.682  23.946  1.00  0.00     0.164 HD
BRANCH  17  19
ATOM     19  C   UNL A   1      32.147  26.833  22.424  1.00  0.00     0.151 C 
BRANCH  19  20
ATOM     20  C   UNL A   1      30.965  27.753  22.601  1.00  0.00    -0.029 A 
ATOM     21  C   UNL A   1      31.077  29.119  22.309  1.00  0.00     0.007 A 
ATOM     22  C   UNL A   1      29.760  27.263  23.129  1.00  0.00     0.007 A 
ATOM     23  C   UNL A   1      30.001  29.980  22.533  1.00  0.00     0.021 A 
ATOM     24  C   UNL A   1      28.683  28.123  23.353  1.00  0.00     0.021 A 
ATOM     25  C   UNL A   1      28.810  29.479  23.056  1.00  0.00     0.041 A 
ATOM     26  Cl  UNL A   1      27.491  30.545  23.346  1.00  0.00    -0.084 Cl
ENDBRANCH  19  20
ENDBRANCH  17  19
ENDBRANCH  14  15
ENDBRANCH   9  14
ENDBRANCH   5   8
ENDBRANCH   3   4
ENDBRANCH   2   3
ENDBRANCH   1   2
BRANCH   1  27
ATOM     27  C   UNL A   1      31.843  29.936  25.992  1.00  0.00     0.002 C 
BRANCH  27  28
ATOM     28  C   UNL A   1      31.626  31.425  26.272  1.00  0.00     0.021 C 
BRANCH  28  29
ATOM     29  C   UNL A   1      32.711  32.081  27.120  1.00  0.00     0.116 C 
BRANCH  29  30
ATOM     30  N   UNL A   1      32.453  33.493  27.352  1.00  0.00    -0.352 N 
ATOM     31  C   UNL A   1      33.046  34.335  28.261  1.00  0.00     0.251 C 
ATOM     32  H   UNL A   1      31.761  33.900  26.782  1.00  0.00     0.163 HD
ATOM     33  O   UNL A   1      32.593  35.460  28.450  1.00  0.00    -0.269 OA
BRANCH  31  34
ATOM     34  C   UNL A   1      34.218  33.858  29.024  1.00  0.00     0.039 A 
ATOM     35  C   UNL A   1      34.046  32.860  29.987  1.00  0.00     0.014 A 
ATOM     36  C   UNL A   1      35.489  34.377  28.760  1.00  0.00     0.014 A 
ATOM     37  C   UNL A   1      35.163  32.333  30.640  1.00  0.00     0.010 A 
ATOM     38  C   UNL A   1      36.603  33.809  29.368  1.00  0.00     0.010 A 
ATOM     39  C   UNL A   1      36.453  32.778  30.309  1.00  0.00    -0.014 A 
BRANCH  39  40
ATOM     40  C   UNL A   1      37.668  32.192  30.932  1.00  0.00     0.031 A 
ATOM     41  C   UNL A   1      38.453  31.146  30.191  1.00  0.00     0.074 A 
ATOM     42  C   UNL A   1      38.004  32.528  32.193  1.00  0.00     0.049 A 
ATOM     43  N   UNL A   1      39.433  30.390  30.611  1.00  0.00    -0.248 NA
ATOM     44  C   UNL A   1      38.049  30.895  28.799  1.00  0.00     0.031 C 
ATOM     45  C   UNL A   1      37.302  33.508  33.023  1.00  0.00     0.029 A 
ATOM     46  N   UNL A   1      39.008  32.063  33.006  1.00  0.00    -0.354 N 
ATOM     47  C   UNL A   1      39.754  29.559  29.543  1.00  0.00     0.074 A 
ATOM     48  C   UNL A   1      38.820  29.868  28.478  1.00  0.00     0.031 C 
ATOM     49  C   UNL A   1      37.898  33.573  34.225  1.00  0.00     0.029 A 
ATOM     50  C   UNL A   1      38.991  32.608  34.270  1.00  0.00     0.049 A 
ATOM     51  H   UNL A   1      39.676  31.402  32.713  1.00  0.00     0.167 HD
ATOM     52  C   UNL A   1      40.745  28.637  29.452  1.00  0.00     0.034 A 
ATOM     53  C   UNL A   1      39.752  32.340  35.349  1.00  0.00     0.034 A 
ATOM     54  C   UNL A   1      41.670  28.350  30.522  1.00  0.00     0.049 A 
ATOM     55  C   UNL A   1      40.837  31.298  35.235  1.00  0.00     0.074 A 
ATOM     56  C   UNL A   1      42.734  27.464  30.531  1.00  0.00     0.029 A 
ATOM     57  N   UNL A   1      41.640  28.943  31.778  1.00  0.00    -0.354 N 
ATOM     58  N   UNL A   1      41.145  30.536  34.211  1.00  0.00    -0.248 NA
ATOM     59  C   UNL A   1      41.682  31.088  36.416  1.00  0.00     0.031 C 
ATOM     60  C   UNL A   1      43.309  27.480  31.806  1.00  0.00     0.029 A 
ATOM     61  C   UNL A   1      42.652  28.427  32.574  1.00  0.00     0.049 A 
ATOM     62  H   UNL A   1      40.994  29.629  32.062  1.00  0.00     0.167 HD
ATOM     63  C   UNL A   1      42.239  29.779  34.617  1.00  0.00     0.074 A 
ATOM     64  C   UNL A   1      42.543  30.183  35.975  1.00  0.00     0.031 C 
ATOM     65  C   UNL A   1      42.937  28.838  33.929  1.00  0.00     0.034 A 
BRANCH  52  66
ATOM     66  C   UNL A   1      40.850  27.862  28.160  1.00  0.00     0.023 A 
ATOM     67  C   UNL A   1      40.308  26.571  28.031  1.00  0.00     0.031 A 
ATOM     68  C   UNL A   1      41.542  28.396  27.058  1.00  0.00     0.131 A 
ATOM     69  C   UNL A   1      40.542  25.825  26.866  1.00  0.00     0.055 A 
ATOM     70  C   UNL A   1      41.695  27.682  25.868  1.00  0.00     0.041 A 
ATOM     71  F   UNL A   1      42.100  29.614  27.127  1.00  0.00    -0.206 F 
ATOM     72  C   UNL A   1      41.210  26.381  25.773  1.00  0.00     0.022 A 
BRANCH  69  73
ATOM     73  S   UNL A   1      40.100  24.066  26.864  1.00  0.00     0.124 S 
ATOM     74  O   UNL A   1      38.783  24.094  26.232  1.00  0.00    -0.237 OA
ATOM     75  O   UNL A   1      41.174  23.471  26.078  1.00  0.00    -0.237 OA
ATOM     76  O   UNL A   1      40.093  23.712  28.283  1.00  0.00    -0.744 OA
ENDBRANCH  69  73
ENDBRANCH  52  66
BRANCH  53  77
ATOM     77  C   UNL A   1      39.509  33.049  36.636  1.00  0.00     0.023 A 
ATOM     78  C   UNL A   1      38.653  32.510  37.609  1.00  0.00     0.031 A 
ATOM     79  C   UNL A   1      40.106  34.295  36.898  1.00  0.00     0.131 A 
ATOM     80  C   UNL A   1      38.382  33.235  38.780  1.00  0.00     0.055 A 
ATOM     81  C   UNL A   1      39.872  34.989  38.088  1.00  0.00     0.041 A 
ATOM     82  F   UNL A   1      40.938  34.852  36.004  1.00  0.00    -0.206 F 
ATOM     83  C   UNL A   1      38.995  34.464  39.032  1.00  0.00     0.022 A 
BRANCH  80  84
ATOM     84  S   UNL A   1      37.151  32.579  39.940  1.00  0.00     0.124 S 
ATOM     85  O   UNL A   1      37.122  33.619  40.962  1.00  0.00    -0.237 OA
ATOM     86  O   UNL A   1      35.966  32.476  39.096  1.00  0.00    -0.237 OA
ATOM     87  O   UNL A   1      37.727  31.304  40.361  1.00  0.00    -0.744 OA
ENDBRANCH  80  84
ENDBRANCH  53  77
BRANCH  65  88
ATOM     88  C   UNL A   1      44.130  28.228  34.621  1.00  0.00     0.023 A 
ATOM     89  C   UNL A   1      44.018  27.067  35.408  1.00  0.00     0.031 A 
ATOM     90  C   UNL A   1      45.396  28.824  34.495  1.00  0.00     0.131 A 
ATOM     91  C   UNL A   1      45.145  26.568  36.077  1.00  0.00     0.055 A 
ATOM     92  C   UNL A   1      46.524  28.292  35.119  1.00  0.00     0.041 A 
ATOM     93  F   UNL A   1      45.558  29.934  33.757  1.00  0.00    -0.206 F 
ATOM     94  C   UNL A   1      46.401  27.164  35.926  1.00  0.00     0.022 A 
BRANCH  91  95
ATOM     95  S   UNL A   1      44.936  25.173  37.217  1.00  0.00     0.124 S 
ATOM     96  O   UNL A   1      45.804  24.161  36.622  1.00  0.00    -0.237 OA
ATOM     97  O   UNL A   1      45.389  25.736  38.486  1.00  0.00    -0.237 OA
ATOM     98  O   UNL A   1      43.506  24.882  37.146  1.00  0.00    -0.744 OA
ENDBRANCH  91  95
ENDBRANCH  65  88
ENDBRANCH  39  40
ENDBRANCH  31  34
ENDBRANCH  29  30
ENDBRANCH  28  29
ENDBRANCH  27  28
ENDBRANCH   1  27
TORSDOF 20
ENDMDL
MODEL 2
REMARK VINA RESULT:     -11.3      2.478      7.969
REMARK SMILES O=C(C[N@@H+]1CCC[C@@H]1C(=O)NCCCCCCNC(=O)c1ccc(-c2c3nc(c(-c4cc(S(=O)(=O)[O-])ccc4F)c4ccc([nH]4)c(-c4cc(S(=O)(=O)[O-])ccc4F)c4nc(c(-c5cc(S(=O)(=O)[O-])ccc5F)c5ccc2[nH]5)C=C4)C=C3)cc1)NCc1ccc(Cl)cc1
REMARK SMILES IDX 14 1 13 2 12 3 11 4 9 5 10 6 8 8 4 9 5 10 6 12 7 13 3 14
REMARK SMILES IDX 2 15 1 16 84 17 85 19 86 20 87 21 92 22 88 23 91 24 89 25
REMARK SMILES IDX 90 26 15 27 16 28 17 29 18 30 19 31 20 33 21 34 22 35 83 36
REMARK SMILES IDX 23 37 82 38 24 39 25 40 26 41 76 42 27 43 81 44 75 45 77 46
REMARK SMILES IDX 28 47 80 48 74 49 73 50 29 52 61 53 41 54 60 55 42 56 45 57
REMARK SMILES IDX 59 58 78 59 43 60 44 61 58 63 79 64 46 65 30 66 31 67 39 68
REMARK SMILES IDX 32 69 38 70 40 71 37 72 33 73 34 74 35 75 36 76 62 77 63 78
REMARK SMILES IDX 71 79 64 80 70 81 72 82 69 83 65 84 66 85 67 86 68 87 47 88
REMARK SMILES IDX 48 89 56 90 49 91 55 92 57 93 54 94 50 95 51 96 52 97 53 98
REMARK H PARENT 11 7 4 11 84 18 18 32 77 51 45 62
REMARK Flexibility Score: inf
ROOT
ATOM      1  C   UNL A   1      33.735  26.624  25.959  1.00  0.00     0.002 C 
ENDROOT
BRANCH   1   2
ATOM      2  C   UNL A   1      33.569  25.254  25.297  1.00  0.00     0.021 C 
BRANCH   2   3
ATOM      3  C   UNL A   1      33.414  24.103  26.282  1.00  0.00     0.116 C 
BRANCH   3   4
ATOM      4  N   UNL A   1      32.137  23.434  26.133  1.00  0.00    -0.351 N 
ATOM      5  C   UNL A   1      31.841  22.191  25.665  1.00  0.00     0.278 C 
ATOM      6  O   UNL A   1      30.664  21.824  25.766  1.00  0.00    -0.268 OA
ATOM      7  H   UNL A   1      31.357  23.964  26.417  1.00  0.00     0.163 HD
BRANCH   5   8
ATOM      8  C   UNL A   1      32.890  21.248  25.032  1.00  0.00     0.274 C 
ATOM      9  N   UNL A   1      32.771  20.988  23.584  1.00  0.00    -0.317 N 
ATOM     10  C   UNL A   1      32.528  19.575  23.338  1.00  0.00     0.263 C 
ATOM     11  H   UNL A   1      33.679  21.164  23.155  1.00  0.00     0.349 HD
ATOM     12  C   UNL A   1      32.721  18.842  24.659  1.00  0.00     0.068 C 
ATOM     13  C   UNL A   1      32.984  19.894  25.722  1.00  0.00     0.081 C 
BRANCH   9  14
ATOM     14  C   UNL A   1      32.045  21.988  22.796  1.00  0.00     0.364 C 
BRANCH  14  15
ATOM     15  C   UNL A   1      32.880  23.202  22.396  1.00  0.00     0.275 C 
ATOM     16  O   UNL A   1      34.106  23.147  22.323  1.00  0.00    -0.268 OA
ATOM     17  N   UNL A   1      32.154  24.328  22.104  1.00  0.00    -0.347 N 
ATOM     18  H   UNL A   1      31.185  24.330  22.286  1.00  0.00     0.164 HD
BRANCH  17  19
ATOM     19  C   UNL A   1      32.762  25.506  21.538  1.00  0.00     0.151 C 
BRANCH  19  20
ATOM     20  C   UNL A   1      32.249  26.727  22.257  1.00  0.00    -0.029 A 
ATOM     21  C   UNL A   1      33.085  27.832  22.470  1.00  0.00     0.007 A 
ATOM     22  C   UNL A   1      30.948  26.742  22.785  1.00  0.00     0.007 A 
ATOM     23  C   UNL A   1      32.627  28.936  23.192  1.00  0.00     0.021 A 
ATOM     24  C   UNL A   1      30.490  27.847  23.506  1.00  0.00     0.021 A 
ATOM     25  C   UNL A   1      31.333  28.938  23.709  1.00  0.00     0.041 A 
ATOM     26  Cl  UNL A   1      30.777  30.294  24.610  1.00  0.00    -0.084 Cl
ENDBRANCH  19  20
ENDBRANCH  17  19
ENDBRANCH  14  15
ENDBRANCH   9  14
ENDBRANCH   5   8
ENDBRANCH   3   4
ENDBRANCH   2   3
ENDBRANCH   1   2
BRANCH   1  27
ATOM     27  C   UNL A   1      32.493  27.151  26.689  1.00  0.00     0.002 C 
BRANCH  27  28
ATOM     28  C   UNL A   1      32.572  28.607  27.157  1.00  0.00     0.021 C 
BRANCH  28  29
ATOM     29  C   UNL A   1      33.886  29.312  26.835  1.00  0.00     0.116 C 
BRANCH  29  30
ATOM     30  N   UNL A   1      33.786  30.755  26.975  1.00  0.00    -0.352 N 
ATOM     31  C   UNL A   1      34.552  31.596  27.745  1.00  0.00     0.251 C 
ATOM     32  H   UNL A   1      33.076  31.188  26.448  1.00  0.00     0.163 HD
ATOM     33  O   UNL A   1      34.230  32.771  27.887  1.00  0.00    -0.269 OA
BRANCH  31  34
ATOM     34  C   UNL A   1      35.753  31.059  28.419  1.00  0.00     0.039 A 
ATOM     35  C   UNL A   1      35.603  30.075  29.400  1.00  0.00     0.014 A 
ATOM     36  C   UNL A   1      37.025  31.509  28.055  1.00  0.00     0.014 A 
ATOM     37  C   UNL A   1      36.737  29.491  29.970  1.00  0.00     0.010 A 
ATOM     38  C   UNL A   1      38.152  30.884  28.580  1.00  0.00     0.010 A 
ATOM     39  C   UNL A   1      38.019  29.866  29.537  1.00  0.00    -0.014 A 
BRANCH  39  40
ATOM     40  C   UNL A   1      39.246  29.216  30.069  1.00  0.00     0.031 A 
ATOM     41  C   UNL A   1      39.949  29.814  31.255  1.00  0.00     0.074 A 
ATOM     42  C   UNL A   1      39.774  28.155  29.429  1.00  0.00     0.049 A 
ATOM     43  N   UNL A   1      41.113  29.512  31.770  1.00  0.00    -0.248 NA
ATOM     44  C   UNL A   1      39.262  30.929  31.925  1.00  0.00     0.031 C 
ATOM     45  C   UNL A   1      39.198  27.505  28.250  1.00  0.00     0.029 A 
ATOM     46  N   UNL A   1      40.929  27.451  29.665  1.00  0.00    -0.354 N 
ATOM     47  C   UNL A   1      41.308  30.410  32.814  1.00  0.00     0.074 A 
ATOM     48  C   UNL A   1      40.167  31.303  32.816  1.00  0.00     0.031 C 
ATOM     49  C   UNL A   1      39.999  26.497  27.869  1.00  0.00     0.029 A 
ATOM     50  C   UNL A   1      41.168  26.458  28.742  1.00  0.00     0.049 A 
ATOM     51  H   UNL A   1      41.529  27.638  30.422  1.00  0.00     0.167 HD
ATOM     52  C   UNL A   1      42.334  30.472  33.700  1.00  0.00     0.034 A 
ATOM     53  C   UNL A   1      42.221  25.630  28.600  1.00  0.00     0.034 A 
ATOM     54  C   UNL A   1      43.459  29.567  33.686  1.00  0.00     0.049 A 
ATOM     55  C   UNL A   1      43.361  25.726  29.583  1.00  0.00     0.074 A 
ATOM     56  C   UNL A   1      44.536  29.514  34.552  1.00  0.00     0.029 A 
ATOM     57  N   UNL A   1      43.651  28.555  32.753  1.00  0.00    -0.354 N 
ATOM     58  N   UNL A   1      43.523  26.565  30.580  1.00  0.00    -0.248 NA
ATOM     59  C   UNL A   1      44.455  24.760  29.427  1.00  0.00     0.031 C 
ATOM     60  C   UNL A   1      45.406  28.510  34.112  1.00  0.00     0.029 A 
ATOM     61  C   UNL A   1      44.839  27.888  33.012  1.00  0.00     0.049 A 
ATOM     62  H   UNL A   1      43.035  28.344  32.015  1.00  0.00     0.167 HD
ATOM     63  C   UNL A   1      44.722  26.206  31.188  1.00  0.00     0.074 A 
ATOM     64  C   UNL A   1      45.236  25.069  30.451  1.00  0.00     0.031 C 
ATOM     65  C   UNL A   1      45.340  26.759  32.262  1.00  0.00     0.034 A 
BRANCH  52  66
ATOM     66  C   UNL A   1      42.290  31.575  34.731  1.00  0.00     0.023 A 
ATOM     67  C   UNL A   1      41.360  31.560  35.785  1.00  0.00     0.031 A 
ATOM     68  C   UNL A   1      43.155  32.681  34.634  1.00  0.00     0.131 A 
ATOM     69  C   UNL A   1      41.254  32.665  36.643  1.00  0.00     0.055 A 
ATOM     70  C   UNL A   1      43.104  33.736  35.546  1.00  0.00     0.041 A 
ATOM     71  F   UNL A   1      44.051  32.762  33.639  1.00  0.00    -0.206 F 
ATOM     72  C   UNL A   1      42.138  33.743  36.548  1.00  0.00     0.022 A 
BRANCH  69  73
ATOM     73  S   UNL A   1      39.844  32.742  37.782  1.00  0.00     0.124 S 
ATOM     74  O   UNL A   1      38.953  31.733  37.214  1.00  0.00    -0.237 OA
ATOM     75  O   UNL A   1      40.454  32.409  39.064  1.00  0.00    -0.237 OA
ATOM     76  O   UNL A   1      39.374  34.121  37.652  1.00  0.00    -0.744 OA
ENDBRANCH  69  73
ENDBRANCH  52  66
BRANCH  53  77
ATOM     77  C   UNL A   1      42.262  24.650  27.479  1.00  0.00     0.023 A 
ATOM     78  C   UNL A   1      41.547  23.445  27.544  1.00  0.00     0.031 A 
ATOM     79  C   UNL A   1      43.047  24.891  26.337  1.00  0.00     0.131 A 
ATOM     80  C   UNL A   1      41.663  22.505  26.508  1.00  0.00     0.055 A 
ATOM     81  C   UNL A   1      43.120  23.975  25.285  1.00  0.00     0.041 A 
ATOM     82  F   UNL A   1      43.746  26.031  26.222  1.00  0.00    -0.206 F 
ATOM     83  C   UNL A   1      42.434  22.767  25.374  1.00  0.00     0.022 A 
BRANCH  80  84
ATOM     84  S   UNL A   1      40.849  20.896  26.700  1.00  0.00     0.124 S 
ATOM     85  O   UNL A   1      39.541  21.151  26.107  1.00  0.00    -0.237 OA
ATOM     86  O   UNL A   1      41.735  20.016  25.946  1.00  0.00    -0.237 OA
ATOM     87  O   UNL A   1      40.849  20.686  28.146  1.00  0.00    -0.744 OA
ENDBRANCH  80  84
ENDBRANCH  53  77
BRANCH  65  88
ATOM     88  C   UNL A   1      46.613  26.102  32.734  1.00  0.00     0.023 A 
ATOM     89  C   UNL A   1      46.604  25.050  33.667  1.00  0.00     0.031 A 
ATOM     90  C   UNL A   1      47.855  26.544  32.245  1.00  0.00     0.131 A 
ATOM     91  C   UNL A   1      47.816  24.507  34.118  1.00  0.00     0.055 A 
ATOM     92  C   UNL A   1      49.055  25.965  32.657  1.00  0.00     0.041 A 
ATOM     93  F   UNL A   1      47.921  27.547  31.355  1.00  0.00    -0.206 F 
ATOM     94  C   UNL A   1      49.041  24.948  33.607  1.00  0.00     0.022 A 
BRANCH  91  95
ATOM     95  S   UNL A   1      47.779  23.269  35.444  1.00  0.00     0.124 S 
ATOM     96  O   UNL A   1      49.173  22.839  35.496  1.00  0.00    -0.237 OA
ATOM     97  O   UNL A   1      47.309  24.049  36.584  1.00  0.00    -0.237 OA
ATOM     98  O   UNL A   1      46.838  22.266  34.950  1.00  0.00    -0.744 OA
ENDBRANCH  91  95
ENDBRANCH  65  88
ENDBRANCH  39  40
ENDBRANCH  31  34
ENDBRANCH  29  30
ENDBRANCH  28  29
ENDBRANCH  27  28
ENDBRANCH   1  27
TORSDOF 20
ENDMDL
MODEL 3
REMARK VINA RESULT:     -11.2      2.458      2.985
REMARK SMILES O=C(C[N@@H+]1CCC[C@@H]1C(=O)NCCCCCCNC(=O)c1ccc(-c2c3nc(c(-c4cc(S(=O)(=O)[O-])ccc4F)c4ccc([nH]4)c(-c4cc(S(=O)(=O)[O-])ccc4F)c4nc(c(-c5cc(S(=O)(=O)[O-])ccc5F)c5ccc2[nH]5)C=C4)C=C3)cc1)NCc1ccc(Cl)cc1
REMARK SMILES IDX 14 1 13 2 12 3 11 4 9 5 10 6 8 8 4 9 5 10 6 12 7 13 3 14
REMARK SMILES IDX 2 15 1 16 84 17 85 19 86 20 87 21 92 22 88 23 91 24 89 25
REMARK SMILES IDX 90 26 15 27 16 28 17 29 18 30 19 31 20 33 21 34 22 35 83 36
REMARK SMILES IDX 23 37 82 38 24 39 25 40 26 41 76 42 27 43 81 44 75 45 77 46
REMARK SMILES IDX 28 47 80 48 74 49 73 50 29 52 61 53 41 54 60 55 42 56 45 57
REMARK SMILES IDX 59 58 78 59 43 60 44 61 58 63 79 64 46 65 30 66 31 67 39 68
REMARK SMILES IDX 32 69 38 70 40 71 37 72 33 73 34 74 35 75 36 76 62 77 63 78
REMARK SMILES IDX 71 79 64 80 70 81 72 82 69 83 65 84 66 85 67 86 68 87 47 88
REMARK SMILES IDX 48 89 56 90 49 91 55 92 57 93 54 94 50 95 51 96 52 97 53 98
REMARK H PARENT 11 7 4 11 84 18 18 32 77 51 45 62
REMARK Flexibility Score: inf
ROOT
ATOM      1  C   UNL A   1      33.306  26.667  25.998  1.00  0.00     0.002 C 
ENDROOT
BRANCH   1   2
ATOM      2  C   UNL A   1      33.412  25.340  25.242  1.00  0.00     0.021 C 
BRANCH   2   3
ATOM      3  C   UNL A   1      33.349  24.109  26.137  1.00  0.00     0.116 C 
BRANCH   3   4
ATOM      4  N   UNL A   1      32.080  23.420  26.017  1.00  0.00    -0.351 N 
ATOM      5  C   UNL A   1      31.801  22.146  25.626  1.00  0.00     0.278 C 
ATOM      6  O   UNL A   1      30.626  21.775  25.736  1.00  0.00    -0.268 OA
ATOM      7  H   UNL A   1      31.292  23.960  26.257  1.00  0.00     0.163 HD
BRANCH   5   8
ATOM      8  C   UNL A   1      32.865  21.175  25.067  1.00  0.00     0.274 C 
ATOM      9  N   UNL A   1      32.814  20.885  23.620  1.00  0.00    -0.317 N 
ATOM     10  C   UNL A   1      32.563  19.471  23.392  1.00  0.00     0.263 C 
ATOM     11  H   UNL A   1      33.746  21.038  23.233  1.00  0.00     0.349 HD
ATOM     12  C   UNL A   1      32.678  18.765  24.737  1.00  0.00     0.068 C 
ATOM     13  C   UNL A   1      32.904  19.836  25.789  1.00  0.00     0.081 C 
BRANCH   9  14
ATOM     14  C   UNL A   1      32.144  21.878  22.776  1.00  0.00     0.364 C 
BRANCH  14  15
ATOM     15  C   UNL A   1      32.980  23.121  22.481  1.00  0.00     0.275 C 
ATOM     16  O   UNL A   1      34.203  23.122  22.605  1.00  0.00    -0.268 OA
ATOM     17  N   UNL A   1      32.262  24.206  22.046  1.00  0.00    -0.347 N 
ATOM     18  H   UNL A   1      31.278  24.167  22.072  1.00  0.00     0.164 HD
BRANCH  17  19
ATOM     19  C   UNL A   1      32.903  25.399  21.552  1.00  0.00     0.151 C 
BRANCH  19  20
ATOM     20  C   UNL A   1      32.177  26.610  22.080  1.00  0.00    -0.029 A 
ATOM     21  C   UNL A   1      32.871  27.801  22.336  1.00  0.00     0.007 A 
ATOM     22  C   UNL A   1      30.810  26.536  22.391  1.00  0.00     0.007 A 
ATOM     23  C   UNL A   1      32.209  28.901  22.885  1.00  0.00     0.021 A 
ATOM     24  C   UNL A   1      30.147  27.636  22.939  1.00  0.00     0.021 A 
ATOM     25  C   UNL A   1      30.851  28.813  23.186  1.00  0.00     0.041 A 
ATOM     26  Cl  UNL A   1      30.041  30.166  23.875  1.00  0.00    -0.084 Cl
ENDBRANCH  19  20
ENDBRANCH  17  19
ENDBRANCH  14  15
ENDBRANCH   9  14
ENDBRANCH   5   8
ENDBRANCH   3   4
ENDBRANCH   2   3
ENDBRANCH   1   2
BRANCH   1  27
ATOM     27  C   UNL A   1      31.891  27.050  26.447  1.00  0.00     0.002 C 
BRANCH  27  28
ATOM     28  C   UNL A   1      31.697  28.520  26.833  1.00  0.00     0.021 C 
BRANCH  28  29
ATOM     29  C   UNL A   1      32.755  29.470  26.282  1.00  0.00     0.116 C 
BRANCH  29  30
ATOM     30  N   UNL A   1      32.413  30.865  26.503  1.00  0.00    -0.352 N 
ATOM     31  C   UNL A   1      33.078  31.802  27.256  1.00  0.00     0.251 C 
ATOM     32  H   UNL A   1      31.596  31.182  26.054  1.00  0.00     0.163 HD
ATOM     33  O   UNL A   1      32.565  32.893  27.482  1.00  0.00    -0.269 OA
BRANCH  31  34
ATOM     34  C   UNL A   1      34.407  31.467  27.810  1.00  0.00     0.039 A 
ATOM     35  C   UNL A   1      35.373  32.470  27.922  1.00  0.00     0.014 A 
ATOM     36  C   UNL A   1      34.680  30.168  28.248  1.00  0.00     0.014 A 
ATOM     37  C   UNL A   1      36.595  32.185  28.537  1.00  0.00     0.010 A 
ATOM     38  C   UNL A   1      35.873  29.903  28.913  1.00  0.00     0.010 A 
ATOM     39  C   UNL A   1      36.839  30.910  29.070  1.00  0.00    -0.014 A 
BRANCH  39  40
ATOM     40  C   UNL A   1      38.097  30.590  29.793  1.00  0.00     0.031 A 
ATOM     41  C   UNL A   1      39.071  29.614  29.195  1.00  0.00     0.074 A 
ATOM     42  C   UNL A   1      38.313  31.101  31.021  1.00  0.00     0.049 A 
ATOM     43  N   UNL A   1      40.135  29.071  29.727  1.00  0.00    -0.248 NA
ATOM     44  C   UNL A   1      38.782  29.163  27.825  1.00  0.00     0.031 C 
ATOM     45  C   UNL A   1      37.426  32.035  31.717  1.00  0.00     0.029 A 
ATOM     46  N   UNL A   1      39.334  30.886  31.913  1.00  0.00    -0.354 N 
ATOM     47  C   UNL A   1      40.635  28.199  28.765  1.00  0.00     0.074 A 
ATOM     48  C   UNL A   1      39.719  28.246  27.643  1.00  0.00     0.031 C 
ATOM     49  C   UNL A   1      37.943  32.314  32.924  1.00  0.00     0.029 A 
ATOM     50  C   UNL A   1      39.169  31.546  33.109  1.00  0.00     0.049 A 
ATOM     51  H   UNL A   1      40.111  30.315  31.715  1.00  0.00     0.167 HD
ATOM     52  C   UNL A   1      41.761  27.443  28.808  1.00  0.00     0.034 A 
ATOM     53  C   UNL A   1      39.907  31.513  34.236  1.00  0.00     0.034 A 
ATOM     54  C   UNL A   1      42.664  27.416  29.934  1.00  0.00     0.049 A 
ATOM     55  C   UNL A   1      41.145  30.652  34.272  1.00  0.00     0.074 A 
ATOM     56  C   UNL A   1      43.850  26.717  30.074  1.00  0.00     0.029 A 
ATOM     57  N   UNL A   1      42.478  28.121  31.117  1.00  0.00    -0.354 N 
ATOM     58  N   UNL A   1      41.619  29.850  33.346  1.00  0.00    -0.248 NA
ATOM     59  C   UNL A   1      41.952  30.700  35.497  1.00  0.00     0.031 C 
ATOM     60  C   UNL A   1      44.351  26.953  31.359  1.00  0.00     0.029 A 
ATOM     61  C   UNL A   1      43.517  27.855  31.998  1.00  0.00     0.049 A 
ATOM     62  H   UNL A   1      41.720  28.719  31.304  1.00  0.00     0.167 HD
ATOM     63  C   UNL A   1      42.796  29.322  33.868  1.00  0.00     0.074 A 
ATOM     64  C   UNL A   1      42.964  29.905  35.185  1.00  0.00     0.031 C 
ATOM     65  C   UNL A   1      43.665  28.441  33.310  1.00  0.00     0.034 A 
BRANCH  52  66
ATOM     66  C   UNL A   1      42.050  26.568  27.611  1.00  0.00     0.023 A 
ATOM     67  C   UNL A   1      41.631  25.227  27.562  1.00  0.00     0.031 A 
ATOM     68  C   UNL A   1      42.795  27.063  26.525  1.00  0.00     0.131 A 
ATOM     69  C   UNL A   1      42.034  24.404  26.500  1.00  0.00     0.055 A 
ATOM     70  C   UNL A   1      43.117  26.262  25.428  1.00  0.00     0.041 A 
ATOM     71  F   UNL A   1      43.240  28.329  26.523  1.00  0.00    -0.206 F 
ATOM     72  C   UNL A   1      42.753  24.919  25.418  1.00  0.00     0.022 A 
BRANCH  69  73
ATOM     73  S   UNL A   1      41.743  22.619  26.631  1.00  0.00     0.124 S 
ATOM     74  O   UNL A   1      42.319  22.135  25.379  1.00  0.00    -0.237 OA
ATOM     75  O   UNL A   1      42.469  22.268  27.846  1.00  0.00    -0.237 OA
ATOM     76  O   UNL A   1      40.288  22.514  26.719  1.00  0.00    -0.744 OA
ENDBRANCH  69  73
ENDBRANCH  52  66
BRANCH  53  77
ATOM     77  C   UNL A   1      39.493  32.301  35.431  1.00  0.00     0.023 A 
ATOM     78  C   UNL A   1      39.903  33.632  35.598  1.00  0.00     0.031 A 
ATOM     79  C   UNL A   1      38.705  31.720  36.441  1.00  0.00     0.131 A 
ATOM     80  C   UNL A   1      39.562  34.328  36.769  1.00  0.00     0.055 A 
ATOM     81  C   UNL A   1      38.326  32.432  37.581  1.00  0.00     0.041 A 
ATOM     82  F   UNL A   1      38.281  30.452  36.327  1.00  0.00    -0.206 F 
ATOM     83  C   UNL A   1      38.766  33.741  37.755  1.00  0.00     0.022 A 
BRANCH  80  84
ATOM     84  S   UNL A   1      40.241  35.990  37.019  1.00  0.00     0.124 S 
ATOM     85  O   UNL A   1      41.675  35.740  36.947  1.00  0.00    -0.237 OA
ATOM     86  O   UNL A   1      39.660  36.725  35.901  1.00  0.00    -0.237 OA
ATOM     87  O   UNL A   1      39.738  36.368  38.338  1.00  0.00    -0.744 OA
ENDBRANCH  80  84
ENDBRANCH  53  77
BRANCH  65  88
ATOM     88  C   UNL A   1      44.902  28.102  34.103  1.00  0.00     0.023 A 
ATOM     89  C   UNL A   1      46.087  28.849  33.987  1.00  0.00     0.031 A 
ATOM     90  C   UNL A   1      44.893  27.006  34.984  1.00  0.00     0.131 A 
ATOM     91  C   UNL A   1      47.229  28.462  34.704  1.00  0.00     0.055 A 
ATOM     92  C   UNL A   1      46.015  26.658  35.735  1.00  0.00     0.041 A 
ATOM     93  F   UNL A   1      43.788  26.257  35.131  1.00  0.00    -0.206 F 
ATOM     94  C   UNL A   1      47.196  27.380  35.588  1.00  0.00     0.022 A 
BRANCH  91  95
ATOM     95  S   UNL A   1      48.787  29.342  34.405  1.00  0.00     0.124 S 
ATOM     96  O   UNL A   1      49.723  28.240  34.198  1.00  0.00    -0.237 OA
ATOM     97  O   UNL A   1      48.473  30.141  33.225  1.00  0.00    -0.237 OA
ATOM     98  O   UNL A   1      48.991  30.106  35.634  1.00  0.00    -0.744 OA
ENDBRANCH  91  95
ENDBRANCH  65  88
ENDBRANCH  39  40
ENDBRANCH  31  34
ENDBRANCH  29  30
ENDBRANCH  28  29
ENDBRANCH  27  28
ENDBRANCH   1  27
TORSDOF 20
ENDMDL
