MODEL 1
REMARK VINA RESULT:     -11.5      0.000      0.000
REMARK SMILES Cc1ccc(Cl)c(Nc2ccccc2C(=O)N[C@@H](C)C(=O)NCCCCCCNC(=O)c2ccc(-c3c4nc(c(-c5cc(S(=O)(=O)[O-])ccc5F)c5ccc([nH]5)c(-c5cc(S(=O)(=O)[O-])ccc5F)c5nc(c(-c6cc(S(=O)(=O)[O-])ccc6F)c6ccc3[nH]6)C=C5)C=C4)cc2)c1Cl
REMARK SMILES IDX 25 1 24 2 23 3 22 4 20 5 21 6 18 8 19 9 17 10 15 11 16 12
REMARK SMILES IDX 14 14 9 15 10 16 11 17 13 18 12 19 8 20 7 22 1 23 2 24 3 25
REMARK SMILES IDX 95 26 4 27 96 28 5 29 6 30 26 31 27 32 28 33 29 34 30 35
REMARK SMILES IDX 31 37 32 38 33 39 94 40 34 41 93 42 35 43 36 44 37 45 87 46
REMARK SMILES IDX 38 47 92 48 86 49 88 50 39 51 91 52 85 53 84 54 40 56 72 57
REMARK SMILES IDX 52 58 71 59 53 60 56 61 70 62 89 63 54 64 55 65 69 67 90 68
REMARK SMILES IDX 57 69 41 70 42 71 50 72 43 73 49 74 51 75 48 76 44 77 45 78
REMARK SMILES IDX 46 79 47 80 73 81 74 82 82 83 75 84 81 85 83 86 80 87 76 88
REMARK SMILES IDX 77 89 78 90 79 91 58 92 59 93 67 94 60 95 66 96 68 97 65 98
REMARK SMILES IDX 61 99 62 100 63 101 64 102
REMARK H PARENT 22 7 17 13 8 21 29 36 88 55 56 66
REMARK Flexibility Score: inf
ROOT
ATOM      1  C   UNL A   1      34.787  24.730  25.241  1.00  0.00     0.002 C 
ENDROOT
BRANCH   1   2
ATOM      2  C   UNL A   1      34.067  26.050  24.937  1.00  0.00     0.021 C 
BRANCH   2   3
ATOM      3  C   UNL A   1      33.666  26.880  26.164  1.00  0.00     0.116 C 
BRANCH   3   4
ATOM      4  N   UNL A   1      32.233  27.036  26.290  1.00  0.00    -0.354 N 
ATOM      5  C   UNL A   1      31.746  28.277  25.999  1.00  0.00     0.242 C 
ATOM      6  O   UNL A   1      31.797  29.127  26.888  1.00  0.00    -0.273 OA
ATOM      7  H   UNL A   1      31.648  26.295  26.567  1.00  0.00     0.163 HD
BRANCH   5   8
ATOM      8  C   UNL A   1      31.207  28.562  24.580  1.00  0.00     0.168 C 
ATOM      9  C   UNL A   1      30.737  29.986  24.324  1.00  0.00     0.041 C 
BRANCH   8  10
ATOM     10  N   UNL A   1      30.148  27.581  24.421  1.00  0.00    -0.340 N 
ATOM     11  C   UNL A   1      30.309  26.225  24.233  1.00  0.00     0.254 C 
ATOM     12  O   UNL A   1      29.511  25.495  24.830  1.00  0.00    -0.269 OA
ATOM     13  H   UNL A   1      29.223  27.918  24.450  1.00  0.00     0.164 HD
BRANCH  11  14
ATOM     14  C   UNL A   1      31.157  25.630  23.150  1.00  0.00     0.063 A 
ATOM     15  C   UNL A   1      31.628  24.314  22.949  1.00  0.00     0.051 A 
ATOM     16  C   UNL A   1      32.547  24.094  21.892  1.00  0.00     0.027 A 
ATOM     17  C   UNL A   1      32.926  25.101  21.005  1.00  0.00     0.002 A 
ATOM     18  C   UNL A   1      31.540  26.629  22.216  1.00  0.00     0.016 A 
ATOM     19  C   UNL A   1      32.398  26.368  21.152  1.00  0.00     0.001 A 
BRANCH  15  20
ATOM     20  N   UNL A   1      31.231  23.130  23.602  1.00  0.00    -0.352 N 
ATOM     21  H   UNL A   1      30.286  22.904  23.445  1.00  0.00     0.167 HD
BRANCH  20  22
ATOM     22  C   UNL A   1      31.892  22.187  24.435  1.00  0.00     0.077 A 
ATOM     23  C   UNL A   1      33.747  21.885  27.774  1.00  0.00     0.046 C 
ATOM     24  C   UNL A   1      33.146  21.522  26.441  1.00  0.00    -0.030 A 
ATOM     25  C   UNL A   1      33.603  20.369  25.787  1.00  0.00     0.006 A 
ATOM     26  C   UNL A   1      32.237  22.392  25.788  1.00  0.00     0.069 A 
ATOM     27  C   UNL A   1      33.188  20.087  24.491  1.00  0.00     0.023 A 
ATOM     28  Cl  UNL A   1      31.517  23.668  26.720  1.00  0.00    -0.082 Cl
ATOM     29  C   UNL A   1      32.361  20.993  23.825  1.00  0.00     0.066 A 
ATOM     30  Cl  UNL A   1      31.977  20.638  22.166  1.00  0.00    -0.082 Cl
ENDBRANCH  20  22
ENDBRANCH  15  20
ENDBRANCH  11  14
ENDBRANCH   8  10
ENDBRANCH   5   8
ENDBRANCH   3   4
ENDBRANCH   2   3
ENDBRANCH   1   2
BRANCH   1  31
ATOM     31  C   UNL A   1      35.198  23.907  24.017  1.00  0.00     0.002 C 
BRANCH  31  32
ATOM     32  C   UNL A   1      35.985  22.634  24.323  1.00  0.00     0.021 C 
BRANCH  32  33
ATOM     33  C   UNL A   1      36.639  22.608  25.693  1.00  0.00     0.116 C 
BRANCH  33  34
ATOM     34  N   UNL A   1      37.608  21.538  25.810  1.00  0.00    -0.352 N 
ATOM     35  C   UNL A   1      38.938  21.643  26.141  1.00  0.00     0.251 C 
ATOM     36  H   UNL A   1      37.275  20.629  25.631  1.00  0.00     0.163 HD
ATOM     37  O   UNL A   1      39.687  20.688  25.990  1.00  0.00    -0.269 OA
BRANCH  35  38
ATOM     38  C   UNL A   1      39.449  22.940  26.642  1.00  0.00     0.039 A 
ATOM     39  C   UNL A   1      40.420  22.940  27.643  1.00  0.00     0.014 A 
ATOM     40  C   UNL A   1      38.998  24.147  26.097  1.00  0.00     0.014 A 
ATOM     41  C   UNL A   1      40.966  24.151  28.071  1.00  0.00     0.010 A 
ATOM     42  C   UNL A   1      39.609  25.344  26.459  1.00  0.00     0.010 A 
ATOM     43  C   UNL A   1      40.585  25.361  27.466  1.00  0.00    -0.014 A 
BRANCH  43  44
ATOM     44  C   UNL A   1      41.177  26.653  27.907  1.00  0.00     0.031 A 
ATOM     45  C   UNL A   1      42.615  26.966  27.589  1.00  0.00     0.074 A 
ATOM     46  C   UNL A   1      40.430  27.528  28.610  1.00  0.00     0.049 A 
ATOM     47  N   UNL A   1      43.319  28.027  27.896  1.00  0.00    -0.248 NA
ATOM     48  C   UNL A   1      43.370  25.941  26.853  1.00  0.00     0.031 C 
ATOM     49  C   UNL A   1      39.039  27.316  29.014  1.00  0.00     0.029 A 
ATOM     50  N   UNL A   1      40.733  28.771  29.107  1.00  0.00    -0.354 N 
ATOM     51  C   UNL A   1      44.596  27.791  27.398  1.00  0.00     0.074 A 
ATOM     52  C   UNL A   1      44.588  26.458  26.837  1.00  0.00     0.031 C 
ATOM     53  C   UNL A   1      38.597  28.407  29.659  1.00  0.00     0.029 A 
ATOM     54  C   UNL A   1      39.684  29.375  29.763  1.00  0.00     0.049 A 
ATOM     55  H   UNL A   1      41.617  29.191  29.004  1.00  0.00     0.167 HD
ATOM     56  C   UNL A   1      45.668  28.621  27.384  1.00  0.00     0.034 A 
ATOM     57  C   UNL A   1      39.610  30.570  30.383  1.00  0.00     0.034 A 
ATOM     58  C   UNL A   1      45.656  29.952  27.941  1.00  0.00     0.049 A 
ATOM     59  C   UNL A   1      40.826  31.463  30.384  1.00  0.00     0.074 A 
ATOM     60  C   UNL A   1      46.667  30.897  27.939  1.00  0.00     0.029 A 
ATOM     61  N   UNL A   1      44.581  30.524  28.612  1.00  0.00    -0.354 N 
ATOM     62  N   UNL A   1      42.011  31.248  29.857  1.00  0.00    -0.248 NA
ATOM     63  C   UNL A   1      40.690  32.765  31.049  1.00  0.00     0.031 C 
ATOM     64  C   UNL A   1      46.233  32.003  28.676  1.00  0.00     0.029 A 
ATOM     65  C   UNL A   1      44.919  31.792  29.060  1.00  0.00     0.049 A 
ATOM     66  H   UNL A   1      43.707  30.091  28.750  1.00  0.00     0.167 HD
ATOM     67  C   UNL A   1      42.750  32.404  30.100  1.00  0.00     0.074 A 
ATOM     68  C   UNL A   1      41.870  33.316  30.802  1.00  0.00     0.031 C 
ATOM     69  C   UNL A   1      44.036  32.688  29.769  1.00  0.00     0.034 A 
BRANCH  56  70
ATOM     70  C   UNL A   1      46.947  28.098  26.770  1.00  0.00     0.023 A 
ATOM     71  C   UNL A   1      47.199  28.193  25.389  1.00  0.00     0.031 A 
ATOM     72  C   UNL A   1      47.917  27.470  27.570  1.00  0.00     0.131 A 
ATOM     73  C   UNL A   1      48.346  27.601  24.842  1.00  0.00     0.055 A 
ATOM     74  C   UNL A   1      49.102  26.962  27.031  1.00  0.00     0.041 A 
ATOM     75  F   UNL A   1      47.726  27.327  28.891  1.00  0.00    -0.206 F 
ATOM     76  C   UNL A   1      49.314  27.011  25.657  1.00  0.00     0.022 A 
BRANCH  73  77
ATOM     77  S   UNL A   1      48.479  27.476  23.037  1.00  0.00     0.124 S 
ATOM     78  O   UNL A   1      49.763  28.125  22.789  1.00  0.00    -0.237 OA
ATOM     79  O   UNL A   1      48.437  26.035  22.817  1.00  0.00    -0.237 OA
ATOM     80  O   UNL A   1      47.313  28.215  22.555  1.00  0.00    -0.744 OA
ENDBRANCH  73  77
ENDBRANCH  56  70
BRANCH  57  81
ATOM     81  C   UNL A   1      38.351  30.994  31.063  1.00  0.00     0.023 A 
ATOM     82  C   UNL A   1      37.320  31.631  30.354  1.00  0.00     0.031 A 
ATOM     83  C   UNL A   1      38.180  30.812  32.448  1.00  0.00     0.131 A 
ATOM     84  C   UNL A   1      36.189  32.107  31.037  1.00  0.00     0.055 A 
ATOM     85  C   UNL A   1      37.027  31.232  33.112  1.00  0.00     0.041 A 
ATOM     86  F   UNL A   1      39.133  30.207  33.175  1.00  0.00    -0.206 F 
ATOM     87  C   UNL A   1      36.029  31.898  32.408  1.00  0.00     0.022 A 
BRANCH  84  88
ATOM     88  S   UNL A   1      34.972  33.093  30.122  1.00  0.00     0.124 S 
ATOM     89  O   UNL A   1      35.811  34.137  29.543  1.00  0.00    -0.237 OA
ATOM     90  O   UNL A   1      34.429  32.113  29.188  1.00  0.00    -0.237 OA
ATOM     91  O   UNL A   1      34.048  33.541  31.162  1.00  0.00    -0.744 OA
ENDBRANCH  84  88
ENDBRANCH  57  81
BRANCH  69  92
ATOM     92  C   UNL A   1      44.549  34.063  30.124  1.00  0.00     0.023 A 
ATOM     93  C   UNL A   1      45.203  34.322  31.341  1.00  0.00     0.031 A 
ATOM     94  C   UNL A   1      44.368  35.137  29.232  1.00  0.00     0.131 A 
ATOM     95  C   UNL A   1      45.593  35.632  31.662  1.00  0.00     0.055 A 
ATOM     96  C   UNL A   1      44.823  36.422  29.524  1.00  0.00     0.041 A 
ATOM     97  F   UNL A   1      43.746  34.951  28.056  1.00  0.00    -0.206 F 
ATOM     98  C   UNL A   1      45.426  36.679  30.752  1.00  0.00     0.022 A 
BRANCH  95  99
ATOM     99  S   UNL A   1      46.221  35.969  33.329  1.00  0.00     0.124 S 
ATOM    100  O   UNL A   1      47.476  35.224  33.336  1.00  0.00    -0.237 OA
ATOM    101  O   UNL A   1      46.343  37.423  33.331  1.00  0.00    -0.237 OA
ATOM    102  O   UNL A   1      45.178  35.433  34.203  1.00  0.00    -0.744 OA
ENDBRANCH  95  99
ENDBRANCH  69  92
ENDBRANCH  43  44
ENDBRANCH  35  38
ENDBRANCH  33  34
ENDBRANCH  32  33
ENDBRANCH  31  32
ENDBRANCH   1  31
TORSDOF 20
ENDMDL
MODEL 2
REMARK VINA RESULT:     -11.3      2.952      4.895
REMARK SMILES Cc1ccc(Cl)c(Nc2ccccc2C(=O)N[C@@H](C)C(=O)NCCCCCCNC(=O)c2ccc(-c3c4nc(c(-c5cc(S(=O)(=O)[O-])ccc5F)c5ccc([nH]5)c(-c5cc(S(=O)(=O)[O-])ccc5F)c5nc(c(-c6cc(S(=O)(=O)[O-])ccc6F)c6ccc3[nH]6)C=C5)C=C4)cc2)c1Cl
REMARK SMILES IDX 25 1 24 2 23 3 22 4 20 5 21 6 18 8 19 9 17 10 15 11 16 12
REMARK SMILES IDX 14 14 9 15 10 16 11 17 13 18 12 19 8 20 7 22 1 23 2 24 3 25
REMARK SMILES IDX 95 26 4 27 96 28 5 29 6 30 26 31 27 32 28 33 29 34 30 35
REMARK SMILES IDX 31 37 32 38 33 39 94 40 34 41 93 42 35 43 36 44 37 45 87 46
REMARK SMILES IDX 38 47 92 48 86 49 88 50 39 51 91 52 85 53 84 54 40 56 72 57
REMARK SMILES IDX 52 58 71 59 53 60 56 61 70 62 89 63 54 64 55 65 69 67 90 68
REMARK SMILES IDX 57 69 41 70 42 71 50 72 43 73 49 74 51 75 48 76 44 77 45 78
REMARK SMILES IDX 46 79 47 80 73 81 74 82 82 83 75 84 81 85 83 86 80 87 76 88
REMARK SMILES IDX 77 89 78 90 79 91 58 92 59 93 67 94 60 95 66 96 68 97 65 98
REMARK SMILES IDX 61 99 62 100 63 101 64 102
REMARK H PARENT 22 7 17 13 8 21 29 36 88 55 56 66
REMARK Flexibility Score: inf
ROOT
ATOM      1  C   UNL A   1      40.544  22.816  26.989  1.00  0.00     0.002 C 
ENDROOT
BRANCH   1   2
ATOM      2  C   UNL A   1      39.312  23.623  27.423  1.00  0.00     0.021 C 
BRANCH   2   3
ATOM      3  C   UNL A   1      38.177  23.698  26.392  1.00  0.00     0.116 C 
BRANCH   3   4
ATOM      4  N   UNL A   1      38.397  22.833  25.254  1.00  0.00    -0.354 N 
ATOM      5  C   UNL A   1      37.473  21.846  25.073  1.00  0.00     0.242 C 
ATOM      6  O   UNL A   1      37.609  20.816  25.731  1.00  0.00    -0.273 OA
ATOM      7  H   UNL A   1      39.165  22.949  24.649  1.00  0.00     0.163 HD
BRANCH   5   8
ATOM      8  C   UNL A   1      36.296  22.086  24.102  1.00  0.00     0.168 C 
ATOM      9  C   UNL A   1      36.437  23.283  23.174  1.00  0.00     0.041 C 
BRANCH   8  10
ATOM     10  N   UNL A   1      35.147  22.189  24.984  1.00  0.00    -0.340 N 
ATOM     11  C   UNL A   1      34.371  21.146  25.442  1.00  0.00     0.254 C 
ATOM     12  O   UNL A   1      34.007  21.217  26.621  1.00  0.00    -0.269 OA
ATOM     13  H   UNL A   1      34.899  23.093  25.286  1.00  0.00     0.164 HD
BRANCH  11  14
ATOM     14  C   UNL A   1      33.716  20.139  24.546  1.00  0.00     0.063 A 
ATOM     15  C   UNL A   1      32.569  20.224  23.728  1.00  0.00     0.051 A 
ATOM     16  C   UNL A   1      32.111  19.036  23.104  1.00  0.00     0.027 A 
ATOM     17  C   UNL A   1      32.796  17.826  23.201  1.00  0.00     0.002 A 
ATOM     18  C   UNL A   1      34.407  18.900  24.605  1.00  0.00     0.016 A 
ATOM     19  C   UNL A   1      33.965  17.764  23.933  1.00  0.00     0.001 A 
BRANCH  15  20
ATOM     20  N   UNL A   1      31.845  21.372  23.346  1.00  0.00    -0.352 N 
ATOM     21  H   UNL A   1      31.145  21.179  22.680  1.00  0.00     0.167 HD
BRANCH  20  22
ATOM     22  C   UNL A   1      31.898  22.745  23.707  1.00  0.00     0.077 A 
ATOM     23  C   UNL A   1      30.191  25.350  25.939  1.00  0.00     0.046 C 
ATOM     24  C   UNL A   1      31.120  24.731  24.927  1.00  0.00    -0.030 A 
ATOM     25  C   UNL A   1      31.756  25.566  23.997  1.00  0.00     0.006 A 
ATOM     26  C   UNL A   1      31.251  23.323  24.819  1.00  0.00     0.069 A 
ATOM     27  C   UNL A   1      32.495  25.019  22.955  1.00  0.00     0.023 A 
ATOM     28  Cl  UNL A   1      30.650  22.347  26.124  1.00  0.00    -0.082 Cl
ATOM     29  C   UNL A   1      32.547  23.632  22.806  1.00  0.00     0.066 A 
ATOM     30  Cl  UNL A   1      33.388  23.019  21.414  1.00  0.00    -0.082 Cl
ENDBRANCH  20  22
ENDBRANCH  15  20
ENDBRANCH  11  14
ENDBRANCH   8  10
ENDBRANCH   5   8
ENDBRANCH   3   4
ENDBRANCH   2   3
ENDBRANCH   1   2
BRANCH   1  31
ATOM     31  C   UNL A   1      41.092  21.840  28.033  1.00  0.00     0.002 C 
BRANCH  31  32
ATOM     32  C   UNL A   1      41.461  20.457  27.499  1.00  0.00     0.021 C 
BRANCH  32  33
ATOM     33  C   UNL A   1      41.329  20.303  25.994  1.00  0.00     0.116 C 
BRANCH  33  34
ATOM     34  N   UNL A   1      42.482  19.647  25.415  1.00  0.00    -0.352 N 
ATOM     35  C   UNL A   1      43.688  20.213  25.073  1.00  0.00     0.251 C 
ATOM     36  H   UNL A   1      42.393  18.680  25.246  1.00  0.00     0.163 HD
ATOM     37  O   UNL A   1      44.491  19.588  24.396  1.00  0.00    -0.269 OA
BRANCH  35  38
ATOM     38  C   UNL A   1      43.972  21.601  25.506  1.00  0.00     0.039 A 
ATOM     39  C   UNL A   1      43.596  22.656  24.675  1.00  0.00     0.014 A 
ATOM     40  C   UNL A   1      44.572  21.857  26.744  1.00  0.00     0.014 A 
ATOM     41  C   UNL A   1      43.788  23.970  25.103  1.00  0.00     0.010 A 
ATOM     42  C   UNL A   1      44.677  23.166  27.207  1.00  0.00     0.010 A 
ATOM     43  C   UNL A   1      44.305  24.238  26.382  1.00  0.00    -0.014 A 
BRANCH  43  44
ATOM     44  C   UNL A   1      44.495  25.638  26.850  1.00  0.00     0.031 A 
ATOM     45  C   UNL A   1      45.858  26.275  26.774  1.00  0.00     0.074 A 
ATOM     46  C   UNL A   1      43.452  26.321  27.362  1.00  0.00     0.049 A 
ATOM     47  N   UNL A   1      46.232  27.474  27.142  1.00  0.00    -0.248 NA
ATOM     48  C   UNL A   1      46.949  25.446  26.239  1.00  0.00     0.031 C 
ATOM     49  C   UNL A   1      42.096  25.795  27.525  1.00  0.00     0.029 A 
ATOM     50  N   UNL A   1      43.367  27.607  27.836  1.00  0.00    -0.354 N 
ATOM     51  C   UNL A   1      47.599  27.538  26.891  1.00  0.00     0.074 A 
ATOM     52  C   UNL A   1      47.998  26.234  26.411  1.00  0.00     0.031 C 
ATOM     53  C   UNL A   1      41.306  26.760  28.022  1.00  0.00     0.029 A 
ATOM     54  C   UNL A   1      42.106  27.956  28.263  1.00  0.00     0.049 A 
ATOM     55  H   UNL A   1      44.135  28.221  27.868  1.00  0.00     0.167 HD
ATOM     56  C   UNL A   1      48.437  28.596  27.021  1.00  0.00     0.034 A 
ATOM     57  C   UNL A   1      41.649  29.108  28.794  1.00  0.00     0.034 A 
ATOM     58  C   UNL A   1      48.020  29.893  27.494  1.00  0.00     0.049 A 
ATOM     59  C   UNL A   1      42.607  30.261  28.961  1.00  0.00     0.074 A 
ATOM     60  C   UNL A   1      48.771  31.048  27.619  1.00  0.00     0.029 A 
ATOM     61  N   UNL A   1      46.738  30.205  27.933  1.00  0.00    -0.354 N 
ATOM     62  N   UNL A   1      43.887  30.323  28.664  1.00  0.00    -0.248 NA
ATOM     63  C   UNL A   1      42.058  31.503  29.520  1.00  0.00     0.031 C 
ATOM     64  C   UNL A   1      47.969  32.031  28.207  1.00  0.00     0.029 A 
ATOM     65  C   UNL A   1      46.690  31.522  28.363  1.00  0.00     0.049 A 
ATOM     66  H   UNL A   1      45.976  29.581  27.937  1.00  0.00     0.167 HD
ATOM     67  C   UNL A   1      44.285  31.622  28.970  1.00  0.00     0.074 A 
ATOM     68  C   UNL A   1      43.106  32.312  29.455  1.00  0.00     0.031 C 
ATOM     69  C   UNL A   1      45.510  32.195  28.856  1.00  0.00     0.034 A 
BRANCH  56  70
ATOM     70  C   UNL A   1      49.892  28.379  26.671  1.00  0.00     0.023 A 
ATOM     71  C   UNL A   1      50.389  28.629  25.379  1.00  0.00     0.031 A 
ATOM     72  C   UNL A   1      50.791  27.889  27.634  1.00  0.00     0.131 A 
ATOM     73  C   UNL A   1      51.719  28.314  25.065  1.00  0.00     0.055 A 
ATOM     74  C   UNL A   1      52.138  27.663  27.339  1.00  0.00     0.041 A 
ATOM     75  F   UNL A   1      50.375  27.607  28.878  1.00  0.00    -0.206 F 
ATOM     76  C   UNL A   1      52.605  27.860  26.043  1.00  0.00     0.022 A 
BRANCH  73  77
ATOM     77  S   UNL A   1      52.231  28.360  23.325  1.00  0.00     0.124 S 
ATOM     78  O   UNL A   1      50.977  28.697  22.657  1.00  0.00    -0.237 OA
ATOM     79  O   UNL A   1      53.254  29.398  23.324  1.00  0.00    -0.237 OA
ATOM     80  O   UNL A   1      52.717  27.004  23.074  1.00  0.00    -0.744 OA
ENDBRANCH  73  77
ENDBRANCH  56  70
BRANCH  57  81
ATOM     81  C   UNL A   1      40.223  29.234  29.217  1.00  0.00     0.023 A 
ATOM     82  C   UNL A   1      39.856  29.161  30.571  1.00  0.00     0.031 A 
ATOM     83  C   UNL A   1      39.196  29.383  28.267  1.00  0.00     0.131 A 
ATOM     84  C   UNL A   1      38.500  29.184  30.933  1.00  0.00     0.055 A 
ATOM     85  C   UNL A   1      37.853  29.466  28.636  1.00  0.00     0.041 A 
ATOM     86  F   UNL A   1      39.489  29.461  26.959  1.00  0.00    -0.206 F 
ATOM     87  C   UNL A   1      37.497  29.352  29.975  1.00  0.00     0.022 A 
BRANCH  84  88
ATOM     88  S   UNL A   1      38.057  28.892  32.667  1.00  0.00     0.124 S 
ATOM     89  O   UNL A   1      38.177  27.441  32.764  1.00  0.00    -0.237 OA
ATOM     90  O   UNL A   1      39.070  29.669  33.373  1.00  0.00    -0.237 OA
ATOM     91  O   UNL A   1      36.695  29.414  32.763  1.00  0.00    -0.744 OA
ENDBRANCH  84  88
ENDBRANCH  57  81
BRANCH  69  92
ATOM     92  C   UNL A   1      45.623  33.657  29.221  1.00  0.00     0.023 A 
ATOM     93  C   UNL A   1      45.281  34.678  28.318  1.00  0.00     0.031 A 
ATOM     94  C   UNL A   1      46.093  34.033  30.493  1.00  0.00     0.131 A 
ATOM     95  C   UNL A   1      45.476  36.021  28.673  1.00  0.00     0.055 A 
ATOM     96  C   UNL A   1      46.215  35.371  30.868  1.00  0.00     0.041 A 
ATOM     97  F   UNL A   1      46.438  33.102  31.397  1.00  0.00    -0.206 F 
ATOM     98  C   UNL A   1      45.921  36.374  29.949  1.00  0.00     0.022 A 
BRANCH  95  99
ATOM     99  S   UNL A   1      45.246  37.298  27.406  1.00  0.00     0.124 S 
ATOM    100  O   UNL A   1      46.346  37.017  26.489  1.00  0.00    -0.237 OA
ATOM    101  O   UNL A   1      43.907  37.005  26.905  1.00  0.00    -0.237 OA
ATOM    102  O   UNL A   1      45.367  38.549  28.154  1.00  0.00    -0.744 OA
ENDBRANCH  95  99
ENDBRANCH  69  92
ENDBRANCH  43  44
ENDBRANCH  35  38
ENDBRANCH  33  34
ENDBRANCH  32  33
ENDBRANCH  31  32
ENDBRANCH   1  31
TORSDOF 20
ENDMDL
MODEL 3
REMARK VINA RESULT:     -11.1      5.103      9.727
REMARK SMILES Cc1ccc(Cl)c(Nc2ccccc2C(=O)N[C@@H](C)C(=O)NCCCCCCNC(=O)c2ccc(-c3c4nc(c(-c5cc(S(=O)(=O)[O-])ccc5F)c5ccc([nH]5)c(-c5cc(S(=O)(=O)[O-])ccc5F)c5nc(c(-c6cc(S(=O)(=O)[O-])ccc6F)c6ccc3[nH]6)C=C5)C=C4)cc2)c1Cl
REMARK SMILES IDX 25 1 24 2 23 3 22 4 20 5 21 6 18 8 19 9 17 10 15 11 16 12
REMARK SMILES IDX 14 14 9 15 10 16 11 17 13 18 12 19 8 20 7 22 1 23 2 24 3 25
REMARK SMILES IDX 95 26 4 27 96 28 5 29 6 30 26 31 27 32 28 33 29 34 30 35
REMARK SMILES IDX 31 37 32 38 33 39 94 40 34 41 93 42 35 43 36 44 37 45 87 46
REMARK SMILES IDX 38 47 92 48 86 49 88 50 39 51 91 52 85 53 84 54 40 56 72 57
REMARK SMILES IDX 52 58 71 59 53 60 56 61 70 62 89 63 54 64 55 65 69 67 90 68
REMARK SMILES IDX 57 69 41 70 42 71 50 72 43 73 49 74 51 75 48 76 44 77 45 78
REMARK SMILES IDX 46 79 47 80 73 81 74 82 82 83 75 84 81 85 83 86 80 87 76 88
REMARK SMILES IDX 77 89 78 90 79 91 58 92 59 93 67 94 60 95 66 96 68 97 65 98
REMARK SMILES IDX 61 99 62 100 63 101 64 102
REMARK H PARENT 22 7 17 13 8 21 29 36 88 55 56 66
REMARK Flexibility Score: inf
ROOT
ATOM      1  C   UNL A   1      34.433  30.253  27.586  1.00  0.00     0.002 C 
ENDROOT
BRANCH   1   2
ATOM      2  C   UNL A   1      33.200  30.110  26.684  1.00  0.00     0.021 C 
BRANCH   2   3
ATOM      3  C   UNL A   1      33.280  28.997  25.630  1.00  0.00     0.116 C 
BRANCH   3   4
ATOM      4  N   UNL A   1      33.353  27.676  26.215  1.00  0.00    -0.354 N 
ATOM      5  C   UNL A   1      32.194  26.957  26.197  1.00  0.00     0.242 C 
ATOM      6  O   UNL A   1      31.377  27.178  27.090  1.00  0.00    -0.273 OA
ATOM      7  H   UNL A   1      34.185  27.320  26.602  1.00  0.00     0.163 HD
BRANCH   5   8
ATOM      8  C   UNL A   1      31.950  25.951  25.050  1.00  0.00     0.168 C 
ATOM      9  C   UNL A   1      31.090  26.454  23.900  1.00  0.00     0.041 C 
BRANCH   8  10
ATOM     10  N   UNL A   1      31.370  24.804  25.727  1.00  0.00    -0.340 N 
ATOM     11  C   UNL A   1      32.023  23.946  26.585  1.00  0.00     0.254 C 
ATOM     12  O   UNL A   1      31.381  23.574  27.574  1.00  0.00    -0.269 OA
ATOM     13  H   UNL A   1      30.418  24.622  25.557  1.00  0.00     0.164 HD
BRANCH  11  14
ATOM     14  C   UNL A   1      33.291  23.225  26.238  1.00  0.00     0.063 A 
ATOM     15  C   UNL A   1      33.540  21.870  25.930  1.00  0.00     0.051 A 
ATOM     16  C   UNL A   1      34.891  21.461  25.788  1.00  0.00     0.027 A 
ATOM     17  C   UNL A   1      35.957  22.356  25.856  1.00  0.00     0.002 A 
ATOM     18  C   UNL A   1      34.394  24.118  26.276  1.00  0.00     0.016 A 
ATOM     19  C   UNL A   1      35.705  23.697  26.074  1.00  0.00     0.001 A 
BRANCH  15  20
ATOM     20  N   UNL A   1      32.613  20.851  25.634  1.00  0.00    -0.352 N 
ATOM     21  H   UNL A   1      31.913  20.759  26.320  1.00  0.00     0.167 HD
BRANCH  20  22
ATOM     22  C   UNL A   1      32.461  19.927  24.565  1.00  0.00     0.077 A 
ATOM     23  C   UNL A   1      33.358  16.355  23.509  1.00  0.00     0.046 C 
ATOM     24  C   UNL A   1      32.814  17.759  23.463  1.00  0.00    -0.030 A 
ATOM     25  C   UNL A   1      32.541  18.336  22.214  1.00  0.00     0.006 A 
ATOM     26  C   UNL A   1      32.706  18.540  24.642  1.00  0.00     0.069 A 
ATOM     27  C   UNL A   1      32.187  19.676  22.124  1.00  0.00     0.023 A 
ATOM     28  Cl  UNL A   1      32.818  17.726  26.172  1.00  0.00    -0.082 Cl
ATOM     29  C   UNL A   1      32.167  20.459  23.280  1.00  0.00     0.066 A 
ATOM     30  Cl  UNL A   1      31.834  22.154  23.080  1.00  0.00    -0.082 Cl
ENDBRANCH  20  22
ENDBRANCH  15  20
ENDBRANCH  11  14
ENDBRANCH   8  10
ENDBRANCH   5   8
ENDBRANCH   3   4
ENDBRANCH   2   3
ENDBRANCH   1   2
BRANCH   1  31
ATOM     31  C   UNL A   1      34.683  31.657  28.141  1.00  0.00     0.002 C 
BRANCH  31  32
ATOM     32  C   UNL A   1      33.507  32.625  28.015  1.00  0.00     0.021 C 
BRANCH  32  33
ATOM     33  C   UNL A   1      33.890  34.094  28.046  1.00  0.00     0.116 C 
BRANCH  33  34
ATOM     34  N   UNL A   1      33.193  34.813  29.092  1.00  0.00    -0.352 N 
ATOM     35  C   UNL A   1      33.442  34.779  30.443  1.00  0.00     0.251 C 
ATOM     36  H   UNL A   1      32.453  35.394  28.801  1.00  0.00     0.163 HD
ATOM     37  O   UNL A   1      32.641  35.265  31.229  1.00  0.00    -0.269 OA
BRANCH  35  38
ATOM     38  C   UNL A   1      34.673  34.110  30.925  1.00  0.00     0.039 A 
ATOM     39  C   UNL A   1      34.554  32.950  31.690  1.00  0.00     0.014 A 
ATOM     40  C   UNL A   1      35.937  34.608  30.591  1.00  0.00     0.014 A 
ATOM     41  C   UNL A   1      35.704  32.267  32.086  1.00  0.00     0.010 A 
ATOM     42  C   UNL A   1      37.077  33.876  30.908  1.00  0.00     0.010 A 
ATOM     43  C   UNL A   1      36.975  32.708  31.678  1.00  0.00    -0.014 A 
BRANCH  43  44
ATOM     44  C   UNL A   1      38.204  31.973  32.083  1.00  0.00     0.031 A 
ATOM     45  C   UNL A   1      38.907  32.339  33.364  1.00  0.00     0.074 A 
ATOM     46  C   UNL A   1      38.695  30.999  31.291  1.00  0.00     0.049 A 
ATOM     47  N   UNL A   1      39.995  31.830  33.884  1.00  0.00    -0.248 NA
ATOM     48  C   UNL A   1      38.327  33.439  34.148  1.00  0.00     0.031 C 
ATOM     49  C   UNL A   1      38.124  30.586  30.008  1.00  0.00     0.029 A 
ATOM     50  N   UNL A   1      39.783  30.177  31.449  1.00  0.00    -0.354 N 
ATOM     51  C   UNL A   1      40.232  32.553  35.049  1.00  0.00     0.074 A 
ATOM     52  C   UNL A   1      39.218  33.581  35.117  1.00  0.00     0.031 C 
ATOM     53  C   UNL A   1      38.841  29.563  29.516  1.00  0.00     0.029 A 
ATOM     54  C   UNL A   1      39.952  29.280  30.419  1.00  0.00     0.049 A 
ATOM     55  H   UNL A   1      40.386  30.225  32.225  1.00  0.00     0.167 HD
ATOM     56  C   UNL A   1      41.188  32.358  35.990  1.00  0.00     0.034 A 
ATOM     57  C   UNL A   1      40.900  28.341  30.221  1.00  0.00     0.034 A 
ATOM     58  C   UNL A   1      42.188  31.321  35.910  1.00  0.00     0.049 A 
ATOM     59  C   UNL A   1      41.974  28.164  31.265  1.00  0.00     0.074 A 
ATOM     60  C   UNL A   1      43.173  31.000  36.827  1.00  0.00     0.029 A 
ATOM     61  N   UNL A   1      42.339  30.441  34.844  1.00  0.00    -0.354 N 
ATOM     62  N   UNL A   1      42.150  28.820  32.391  1.00  0.00    -0.248 NA
ATOM     63  C   UNL A   1      42.969  27.113  31.020  1.00  0.00     0.031 C 
ATOM     64  C   UNL A   1      43.966  29.986  36.282  1.00  0.00     0.029 A 
ATOM     65  C   UNL A   1      43.423  29.606  35.065  1.00  0.00     0.049 A 
ATOM     66  H   UNL A   1      41.760  30.416  34.047  1.00  0.00     0.167 HD
ATOM     67  C   UNL A   1      43.256  28.234  33.003  1.00  0.00     0.074 A 
ATOM     68  C   UNL A   1      43.693  27.164  32.129  1.00  0.00     0.031 C 
ATOM     69  C   UNL A   1      43.855  28.549  34.180  1.00  0.00     0.034 A 
BRANCH  56  70
ATOM     70  C   UNL A   1      41.211  33.305  37.168  1.00  0.00     0.023 A 
ATOM     71  C   UNL A   1      40.580  32.989  38.385  1.00  0.00     0.031 A 
ATOM     72  C   UNL A   1      41.847  34.554  37.067  1.00  0.00     0.131 A 
ATOM     73  C   UNL A   1      40.531  33.936  39.418  1.00  0.00     0.055 A 
ATOM     74  C   UNL A   1      41.872  35.458  38.131  1.00  0.00     0.041 A 
ATOM     75  F   UNL A   1      42.446  34.926  35.925  1.00  0.00    -0.206 F 
ATOM     76  C   UNL A   1      41.197  35.158  39.310  1.00  0.00     0.022 A 
BRANCH  73  77
ATOM     77  S   UNL A   1      39.452  33.611  40.840  1.00  0.00     0.124 S 
ATOM     78  O   UNL A   1      39.247  32.169  40.731  1.00  0.00    -0.237 OA
ATOM     79  O   UNL A   1      40.268  34.058  41.963  1.00  0.00    -0.237 OA
ATOM     80  O   UNL A   1      38.268  34.423  40.565  1.00  0.00    -0.744 OA
ENDBRANCH  73  77
ENDBRANCH  56  70
BRANCH  57  81
ATOM     81  C   UNL A   1      40.889  27.501  28.988  1.00  0.00     0.023 A 
ATOM     82  C   UNL A   1      41.822  27.705  27.959  1.00  0.00     0.031 A 
ATOM     83  C   UNL A   1      39.910  26.507  28.798  1.00  0.00     0.131 A 
ATOM     84  C   UNL A   1      41.727  26.967  26.769  1.00  0.00     0.055 A 
ATOM     85  C   UNL A   1      39.857  25.733  27.639  1.00  0.00     0.041 A 
ATOM     86  F   UNL A   1      38.994  26.266  29.750  1.00  0.00    -0.206 F 
ATOM     87  C   UNL A   1      40.761  25.971  26.608  1.00  0.00     0.022 A 
BRANCH  84  88
ATOM     88  S   UNL A   1      42.826  27.394  25.391  1.00  0.00     0.124 S 
ATOM     89  O   UNL A   1      44.047  27.776  26.092  1.00  0.00    -0.237 OA
ATOM     90  O   UNL A   1      42.878  26.142  24.645  1.00  0.00    -0.237 OA
ATOM     91  O   UNL A   1      42.123  28.487  24.722  1.00  0.00    -0.744 OA
ENDBRANCH  84  88
ENDBRANCH  57  81
BRANCH  69  92
ATOM     92  C   UNL A   1      45.019  27.689  34.611  1.00  0.00     0.023 A 
ATOM     93  C   UNL A   1      44.836  26.478  35.300  1.00  0.00     0.031 A 
ATOM     94  C   UNL A   1      46.338  28.097  34.336  1.00  0.00     0.131 A 
ATOM     95  C   UNL A   1      45.949  25.752  35.750  1.00  0.00     0.055 A 
ATOM     96  C   UNL A   1      47.441  27.334  34.721  1.00  0.00     0.041 A 
ATOM     97  F   UNL A   1      46.576  29.246  33.684  1.00  0.00    -0.206 F 
ATOM     98  C   UNL A   1      47.250  26.162  35.446  1.00  0.00     0.022 A 
BRANCH  95  99
ATOM     99  S   UNL A   1      45.676  24.323  36.833  1.00  0.00     0.124 S 
ATOM    100  O   UNL A   1      44.220  24.244  36.868  1.00  0.00    -0.237 OA
ATOM    101  O   UNL A   1      46.356  23.251  36.114  1.00  0.00    -0.237 OA
ATOM    102  O   UNL A   1      46.306  24.722  38.091  1.00  0.00    -0.744 OA
ENDBRANCH  95  99
ENDBRANCH  69  92
ENDBRANCH  43  44
ENDBRANCH  35  38
ENDBRANCH  33  34
ENDBRANCH  32  33
ENDBRANCH  31  32
ENDBRANCH   1  31
TORSDOF 20
ENDMDL
