MODEL 1
REMARK VINA RESULT:     -12.2      0.000      0.000
REMARK SMILES O=C(NCCCCCCNC(=O)c1cc(N2Cc3ccccc3CC2=O)ccn1)c1ccc(-c2c3nc(c(-c4cc(S(=O)(=O)[O-])ccc4F)c4ccc([nH]4)c(-c4cc(S(=O)(=O)[O-])ccc4F)c4nc(c(-c5cc(S(=O)(=O)[O-])ccc5F)c5ccc2[nH]5)C=C4)C=C3)cc1
REMARK SMILES IDX 5 1 4 2 3 3 1 4 2 5 30 7 31 8 92 9 32 10 91 11 33 12 34 13
REMARK SMILES IDX 35 14 85 15 36 16 90 17 84 18 86 19 37 20 89 21 83 22 82 23
REMARK SMILES IDX 38 25 70 26 50 27 69 28 51 29 54 30 68 31 87 32 52 33 53 34
REMARK SMILES IDX 67 36 88 37 55 38 39 39 40 40 48 41 41 42 47 43 49 44 46 45
REMARK SMILES IDX 42 46 43 47 44 48 45 49 71 50 72 51 80 52 73 53 79 54 81 55
REMARK SMILES IDX 78 56 74 57 75 58 76 59 77 60 56 61 57 62 65 63 58 64 64 65
REMARK SMILES IDX 66 66 63 67 59 68 60 69 61 70 62 71 6 72 7 73 8 74 9 75
REMARK SMILES IDX 10 76 11 77 12 79 13 80 14 81 29 82 15 83 28 84 27 85 16 86
REMARK SMILES IDX 17 87 25 88 18 89 24 90 26 91 19 92 23 93 20 94 22 95 21 96
REMARK H PARENT 3 6 86 24 54 35 10 78
REMARK Flexibility Score: inf
ROOT
ATOM      1  C   UNL A   1      31.391  32.214  26.543  1.00  0.00     0.021 C 
ENDROOT
BRANCH   1   2
ATOM      2  C   UNL A   1      32.735  32.752  27.020  1.00  0.00     0.116 C 
BRANCH   2   3
ATOM      3  N   UNL A   1      32.642  34.097  27.563  1.00  0.00    -0.352 N 
ATOM      4  O   UNL A   1      33.041  35.780  29.010  1.00  0.00    -0.269 OA
ATOM      5  C   UNL A   1      33.359  34.670  28.585  1.00  0.00     0.251 C 
ATOM      6  H   UNL A   1      31.971  34.680  27.137  1.00  0.00     0.163 HD
BRANCH   5   7
ATOM      7  C   UNL A   1      34.499  33.944  29.187  1.00  0.00     0.039 A 
ATOM      8  C   UNL A   1      34.286  32.920  30.114  1.00  0.00     0.014 A 
ATOM      9  C   UNL A   1      35.802  34.283  28.807  1.00  0.00     0.014 A 
ATOM     10  C   UNL A   1      35.370  32.324  30.750  1.00  0.00     0.010 A 
ATOM     11  C   UNL A   1      36.891  33.627  29.390  1.00  0.00     0.010 A 
ATOM     12  C   UNL A   1      36.684  32.657  30.385  1.00  0.00    -0.014 A 
BRANCH  12  13
ATOM     13  C   UNL A   1      37.822  31.931  31.007  1.00  0.00     0.031 A 
ATOM     14  C   UNL A   1      38.595  30.892  30.242  1.00  0.00     0.074 A 
ATOM     15  C   UNL A   1      38.167  32.238  32.274  1.00  0.00     0.049 A 
ATOM     16  N   UNL A   1      39.613  30.168  30.633  1.00  0.00    -0.248 NA
ATOM     17  C   UNL A   1      38.166  30.627  28.861  1.00  0.00     0.031 C 
ATOM     18  C   UNL A   1      37.484  33.226  33.114  1.00  0.00     0.029 A 
ATOM     19  N   UNL A   1      39.176  31.766  33.073  1.00  0.00    -0.354 N 
ATOM     20  C   UNL A   1      39.941  29.350  29.557  1.00  0.00     0.074 A 
ATOM     21  C   UNL A   1      38.990  29.649  28.504  1.00  0.00     0.031 C 
ATOM     22  C   UNL A   1      38.116  33.314  34.293  1.00  0.00     0.029 A 
ATOM     23  C   UNL A   1      39.204  32.344  34.322  1.00  0.00     0.049 A 
ATOM     24  H   UNL A   1      39.821  31.082  32.782  1.00  0.00     0.167 HD
ATOM     25  C   UNL A   1      40.944  28.442  29.457  1.00  0.00     0.034 A 
ATOM     26  C   UNL A   1      39.997  32.104  35.383  1.00  0.00     0.034 A 
ATOM     27  C   UNL A   1      41.881  28.157  30.519  1.00  0.00     0.049 A 
ATOM     28  C   UNL A   1      41.076  31.061  35.258  1.00  0.00     0.074 A 
ATOM     29  C   UNL A   1      42.952  27.279  30.511  1.00  0.00     0.029 A 
ATOM     30  N   UNL A   1      41.855  28.735  31.783  1.00  0.00    -0.354 N 
ATOM     31  N   UNL A   1      41.384  30.314  34.222  1.00  0.00    -0.248 NA
ATOM     32  C   UNL A   1      41.914  30.833  36.440  1.00  0.00     0.031 C 
ATOM     33  C   UNL A   1      43.531  27.278  31.785  1.00  0.00     0.029 A 
ATOM     34  C   UNL A   1      42.872  28.210  32.569  1.00  0.00     0.049 A 
ATOM     35  H   UNL A   1      41.210  29.418  32.078  1.00  0.00     0.167 HD
ATOM     36  C   UNL A   1      42.468  29.541  34.626  1.00  0.00     0.074 A 
ATOM     37  C   UNL A   1      42.772  29.931  35.987  1.00  0.00     0.031 C 
ATOM     38  C   UNL A   1      43.153  28.597  33.932  1.00  0.00     0.034 A 
BRANCH  25  39
ATOM     39  C   UNL A   1      41.053  27.658  28.171  1.00  0.00     0.023 A 
ATOM     40  C   UNL A   1      40.661  26.311  28.088  1.00  0.00     0.031 A 
ATOM     41  C   UNL A   1      41.556  28.271  27.009  1.00  0.00     0.131 A 
ATOM     42  C   UNL A   1      40.830  25.604  26.885  1.00  0.00     0.055 A 
ATOM     43  C   UNL A   1      41.657  27.583  25.798  1.00  0.00     0.041 A 
ATOM     44  F   UNL A   1      41.964  29.549  27.032  1.00  0.00    -0.206 F 
ATOM     45  C   UNL A   1      41.304  26.238  25.734  1.00  0.00     0.022 A 
BRANCH  42  46
ATOM     46  S   UNL A   1      40.532  23.815  26.881  1.00  0.00     0.124 S 
ATOM     47  O   UNL A   1      40.653  23.489  28.300  1.00  0.00    -0.237 OA
ATOM     48  O   UNL A   1      39.190  23.718  26.318  1.00  0.00    -0.237 OA
ATOM     49  O   UNL A   1      41.603  23.291  26.035  1.00  0.00    -0.744 OA
ENDBRANCH  42  46
ENDBRANCH  25  39
BRANCH  26  50
ATOM     50  C   UNL A   1      39.781  32.834  36.664  1.00  0.00     0.023 A 
ATOM     51  C   UNL A   1      38.843  32.384  37.605  1.00  0.00     0.031 A 
ATOM     52  C   UNL A   1      40.490  34.015  36.950  1.00  0.00     0.131 A 
ATOM     53  C   UNL A   1      38.607  33.135  38.769  1.00  0.00     0.055 A 
ATOM     54  C   UNL A   1      40.293  34.726  38.133  1.00  0.00     0.041 A 
ATOM     55  F   UNL A   1      41.401  34.486  36.083  1.00  0.00    -0.206 F 
ATOM     56  C   UNL A   1      39.336  34.294  39.045  1.00  0.00     0.022 A 
BRANCH  53  57
ATOM     57  S   UNL A   1      37.269  32.618  39.876  1.00  0.00     0.124 S 
ATOM     58  O   UNL A   1      37.743  31.314  40.329  1.00  0.00    -0.237 OA
ATOM     59  O   UNL A   1      37.273  33.683  40.873  1.00  0.00    -0.237 OA
ATOM     60  O   UNL A   1      36.098  32.588  39.003  1.00  0.00    -0.744 OA
ENDBRANCH  53  57
ENDBRANCH  26  50
BRANCH  38  61
ATOM     61  C   UNL A   1      44.323  27.955  34.634  1.00  0.00     0.023 A 
ATOM     62  C   UNL A   1      44.189  26.746  35.340  1.00  0.00     0.031 A 
ATOM     63  C   UNL A   1      45.584  28.578  34.620  1.00  0.00     0.131 A 
ATOM     64  C   UNL A   1      45.280  26.229  36.053  1.00  0.00     0.055 A 
ATOM     65  C   UNL A   1      46.681  28.027  35.282  1.00  0.00     0.041 A 
ATOM     66  F   UNL A   1      45.767  29.735  33.964  1.00  0.00    -0.206 F 
ATOM     67  C   UNL A   1      46.530  26.854  36.015  1.00  0.00     0.022 A 
BRANCH  64  68
ATOM     68  S   UNL A   1      45.022  24.778  37.109  1.00  0.00     0.124 S 
ATOM     69  O   UNL A   1      44.229  23.910  36.244  1.00  0.00    -0.237 OA
ATOM     70  O   UNL A   1      46.388  24.338  37.374  1.00  0.00    -0.237 OA
ATOM     71  O   UNL A   1      44.311  25.317  38.266  1.00  0.00    -0.744 OA
ENDBRANCH  64  68
ENDBRANCH  38  61
ENDBRANCH  12  13
ENDBRANCH   5   7
ENDBRANCH   2   3
ENDBRANCH   1   2
BRANCH   1  72
ATOM     72  C   UNL A   1      31.355  30.713  26.251  1.00  0.00     0.002 C 
BRANCH  72  73
ATOM     73  C   UNL A   1      32.267  29.843  27.120  1.00  0.00     0.002 C 
BRANCH  73  74
ATOM     74  C   UNL A   1      31.700  28.481  27.531  1.00  0.00     0.021 C 
BRANCH  74  75
ATOM     75  C   UNL A   1      32.141  27.301  26.668  1.00  0.00     0.116 C 
BRANCH  75  76
ATOM     76  N   UNL A   1      31.385  27.204  25.430  1.00  0.00    -0.351 N 
ATOM     77  C   UNL A   1      30.884  26.078  24.809  1.00  0.00     0.269 C 
ATOM     78  H   UNL A   1      31.208  28.057  24.972  1.00  0.00     0.163 HD
ATOM     79  O   UNL A   1      30.341  26.175  23.711  1.00  0.00    -0.268 OA
BRANCH  77  80
ATOM     80  C   UNL A   1      31.010  24.758  25.488  1.00  0.00     0.130 A 
ATOM     81  C   UNL A   1      32.023  23.890  25.107  1.00  0.00     0.060 A 
ATOM     82  N   UNL A   1      30.042  24.453  26.387  1.00  0.00    -0.251 NA
ATOM     83  C   UNL A   1      32.001  22.589  25.605  1.00  0.00     0.048 A 
ATOM     84  C   UNL A   1      30.085  23.213  26.908  1.00  0.00     0.114 A 
ATOM     85  C   UNL A   1      31.013  22.253  26.535  1.00  0.00     0.046 A 
BRANCH  83  86
ATOM     86  N   UNL A   1      32.926  21.604  25.140  1.00  0.00    -0.308 N 
ATOM     87  C   UNL A   1      32.540  20.806  23.969  1.00  0.00     0.161 C 
ATOM     88  C   UNL A   1      34.248  21.554  25.603  1.00  0.00     0.231 C 
ATOM     89  C   UNL A   1      33.110  19.420  24.015  1.00  0.00    -0.024 A 
ATOM     90  C   UNL A   1      35.147  20.488  24.985  1.00  0.00     0.136 C 
ATOM     91  O   UNL A   1      34.707  22.307  26.466  1.00  0.00    -0.274 OA
ATOM     92  C   UNL A   1      32.424  18.320  23.489  1.00  0.00     0.006 A 
ATOM     93  C   UNL A   1      34.407  19.262  24.520  1.00  0.00    -0.034 A 
ATOM     94  C   UNL A   1      33.024  17.063  23.488  1.00  0.00     0.000 A 
ATOM     95  C   UNL A   1      35.007  18.000  24.506  1.00  0.00     0.004 A 
ATOM     96  C   UNL A   1      34.312  16.902  23.997  1.00  0.00     0.000 A 
ENDBRANCH  83  86
ENDBRANCH  77  80
ENDBRANCH  75  76
ENDBRANCH  74  75
ENDBRANCH  73  74
ENDBRANCH  72  73
ENDBRANCH   1  72
TORSDOF 17
ENDMDL
MODEL 2
REMARK VINA RESULT:     -12.2      1.666      2.252
REMARK SMILES O=C(NCCCCCCNC(=O)c1cc(N2Cc3ccccc3CC2=O)ccn1)c1ccc(-c2c3nc(c(-c4cc(S(=O)(=O)[O-])ccc4F)c4ccc([nH]4)c(-c4cc(S(=O)(=O)[O-])ccc4F)c4nc(c(-c5cc(S(=O)(=O)[O-])ccc5F)c5ccc2[nH]5)C=C4)C=C3)cc1
REMARK SMILES IDX 5 1 4 2 3 3 1 4 2 5 30 7 31 8 92 9 32 10 91 11 33 12 34 13
REMARK SMILES IDX 35 14 85 15 36 16 90 17 84 18 86 19 37 20 89 21 83 22 82 23
REMARK SMILES IDX 38 25 70 26 50 27 69 28 51 29 54 30 68 31 87 32 52 33 53 34
REMARK SMILES IDX 67 36 88 37 55 38 39 39 40 40 48 41 41 42 47 43 49 44 46 45
REMARK SMILES IDX 42 46 43 47 44 48 45 49 71 50 72 51 80 52 73 53 79 54 81 55
REMARK SMILES IDX 78 56 74 57 75 58 76 59 77 60 56 61 57 62 65 63 58 64 64 65
REMARK SMILES IDX 66 66 63 67 59 68 60 69 61 70 62 71 6 72 7 73 8 74 9 75
REMARK SMILES IDX 10 76 11 77 12 79 13 80 14 81 29 82 15 83 28 84 27 85 16 86
REMARK SMILES IDX 17 87 25 88 18 89 24 90 26 91 19 92 23 93 20 94 22 95 21 96
REMARK H PARENT 3 6 86 24 54 35 10 78
REMARK Flexibility Score: inf
ROOT
ATOM      1  C   UNL A   1      31.372  32.218  26.688  1.00  0.00     0.021 C 
ENDROOT
BRANCH   1   2
ATOM      2  C   UNL A   1      32.669  32.817  27.219  1.00  0.00     0.116 C 
BRANCH   2   3
ATOM      3  N   UNL A   1      32.495  34.163  27.740  1.00  0.00    -0.352 N 
ATOM      4  O   UNL A   1      32.760  35.877  29.181  1.00  0.00    -0.269 OA
ATOM      5  C   UNL A   1      33.144  34.778  28.784  1.00  0.00     0.251 C 
ATOM      6  H   UNL A   1      31.818  34.710  27.280  1.00  0.00     0.163 HD
BRANCH   5   7
ATOM      7  C   UNL A   1      34.288  34.109  29.442  1.00  0.00     0.039 A 
ATOM      8  C   UNL A   1      34.081  33.162  30.448  1.00  0.00     0.014 A 
ATOM      9  C   UNL A   1      35.588  34.424  29.034  1.00  0.00     0.014 A 
ATOM     10  C   UNL A   1      35.169  32.625  31.130  1.00  0.00     0.010 A 
ATOM     11  C   UNL A   1      36.682  33.824  29.668  1.00  0.00     0.010 A 
ATOM     12  C   UNL A   1      36.481  32.936  30.738  1.00  0.00    -0.014 A 
BRANCH  12  13
ATOM     13  C   UNL A   1      37.624  32.269  31.416  1.00  0.00     0.031 A 
ATOM     14  C   UNL A   1      38.381  31.154  30.750  1.00  0.00     0.074 A 
ATOM     15  C   UNL A   1      37.987  32.700  32.641  1.00  0.00     0.049 A 
ATOM     16  N   UNL A   1      39.400  30.466  31.200  1.00  0.00    -0.248 NA
ATOM     17  C   UNL A   1      37.933  30.753  29.408  1.00  0.00     0.031 C 
ATOM     18  C   UNL A   1      37.319  33.772  33.385  1.00  0.00     0.029 A 
ATOM     19  N   UNL A   1      39.003  32.305  33.471  1.00  0.00    -0.354 N 
ATOM     20  C   UNL A   1      39.710  29.542  30.207  1.00  0.00     0.074 A 
ATOM     21  C   UNL A   1      38.747  29.740  29.142  1.00  0.00     0.031 C 
ATOM     22  C   UNL A   1      37.967  33.974  34.541  1.00  0.00     0.029 A 
ATOM     23  C   UNL A   1      39.050  33.005  34.655  1.00  0.00     0.049 A 
ATOM     24  H   UNL A   1      39.640  31.591  33.242  1.00  0.00     0.167 HD
ATOM     25  C   UNL A   1      40.707  28.622  30.187  1.00  0.00     0.034 A 
ATOM     26  C   UNL A   1      39.856  32.868  35.725  1.00  0.00     0.034 A 
ATOM     27  C   UNL A   1      41.656  28.440  31.260  1.00  0.00     0.049 A 
ATOM     28  C   UNL A   1      40.928  31.812  35.692  1.00  0.00     0.074 A 
ATOM     29  C   UNL A   1      42.723  27.559  31.327  1.00  0.00     0.029 A 
ATOM     30  N   UNL A   1      41.650  29.143  32.459  1.00  0.00    -0.354 N 
ATOM     31  N   UNL A   1      41.218  30.962  34.733  1.00  0.00    -0.248 NA
ATOM     32  C   UNL A   1      41.780  31.698  36.881  1.00  0.00     0.031 C 
ATOM     33  C   UNL A   1      43.318  27.683  32.588  1.00  0.00     0.029 A 
ATOM     34  C   UNL A   1      42.674  28.693  33.281  1.00  0.00     0.049 A 
ATOM     35  H   UNL A   1      41.012  29.856  32.692  1.00  0.00     0.167 HD
ATOM     36  C   UNL A   1      42.304  30.227  35.199  1.00  0.00     0.074 A 
ATOM     37  C   UNL A   1      42.628  30.750  36.510  1.00  0.00     0.031 C 
ATOM     38  C   UNL A   1      42.975  29.213  34.596  1.00  0.00     0.034 A 
BRANCH  25  39
ATOM     39  C   UNL A   1      40.795  27.712  28.985  1.00  0.00     0.023 A 
ATOM     40  C   UNL A   1      41.738  27.923  27.963  1.00  0.00     0.031 A 
ATOM     41  C   UNL A   1      39.923  26.617  28.860  1.00  0.00     0.131 A 
ATOM     42  C   UNL A   1      41.750  27.085  26.836  1.00  0.00     0.055 A 
ATOM     43  C   UNL A   1      39.986  25.745  27.770  1.00  0.00     0.041 A 
ATOM     44  F   UNL A   1      38.989  26.376  29.793  1.00  0.00    -0.206 F 
ATOM     45  C   UNL A   1      40.896  25.983  26.744  1.00  0.00     0.022 A 
BRANCH  42  46
ATOM     46  S   UNL A   1      42.820  27.524  25.439  1.00  0.00     0.124 S 
ATOM     47  O   UNL A   1      42.934  26.247  24.738  1.00  0.00    -0.237 OA
ATOM     48  O   UNL A   1      42.046  28.556  24.759  1.00  0.00    -0.237 OA
ATOM     49  O   UNL A   1      44.050  27.986  26.080  1.00  0.00    -0.744 OA
ENDBRANCH  42  46
ENDBRANCH  25  39
BRANCH  26  50
ATOM     50  C   UNL A   1      39.660  33.725  36.929  1.00  0.00     0.023 A 
ATOM     51  C   UNL A   1      39.145  33.194  38.120  1.00  0.00     0.031 A 
ATOM     52  C   UNL A   1      39.956  35.100  36.891  1.00  0.00     0.131 A 
ATOM     53  C   UNL A   1      38.901  34.041  39.213  1.00  0.00     0.055 A 
ATOM     54  C   UNL A   1      39.765  35.927  37.998  1.00  0.00     0.041 A 
ATOM     55  F   UNL A   1      40.454  35.657  35.775  1.00  0.00    -0.206 F 
ATOM     56  C   UNL A   1      39.221  35.401  39.164  1.00  0.00     0.022 A 
BRANCH  53  57
ATOM     57  S   UNL A   1      38.074  33.355  40.673  1.00  0.00     0.124 S 
ATOM     58  O   UNL A   1      38.736  32.061  40.809  1.00  0.00    -0.237 OA
ATOM     59  O   UNL A   1      38.392  34.347  41.695  1.00  0.00    -0.237 OA
ATOM     60  O   UNL A   1      36.670  33.300  40.274  1.00  0.00    -0.744 OA
ENDBRANCH  53  57
ENDBRANCH  26  50
BRANCH  38  61
ATOM     61  C   UNL A   1      44.151  28.638  35.344  1.00  0.00     0.023 A 
ATOM     62  C   UNL A   1      43.999  27.583  36.260  1.00  0.00     0.031 A 
ATOM     63  C   UNL A   1      45.438  29.174  35.158  1.00  0.00     0.131 A 
ATOM     64  C   UNL A   1      45.103  27.137  37.000  1.00  0.00     0.055 A 
ATOM     65  C   UNL A   1      46.543  28.686  35.854  1.00  0.00     0.041 A 
ATOM     66  F   UNL A   1      45.639  30.185  34.298  1.00  0.00    -0.206 F 
ATOM     67  C   UNL A   1      46.378  27.671  36.791  1.00  0.00     0.022 A 
BRANCH  64  68
ATOM     68  S   UNL A   1      44.836  25.912  38.311  1.00  0.00     0.124 S 
ATOM     69  O   UNL A   1      46.176  25.361  38.490  1.00  0.00    -0.237 OA
ATOM     70  O   UNL A   1      44.332  26.732  39.407  1.00  0.00    -0.237 OA
ATOM     71  O   UNL A   1      43.862  24.992  37.728  1.00  0.00    -0.744 OA
ENDBRANCH  64  68
ENDBRANCH  38  61
ENDBRANCH  12  13
ENDBRANCH   5   7
ENDBRANCH   2   3
ENDBRANCH   1   2
BRANCH   1  72
ATOM     72  C   UNL A   1      31.533  30.945  25.855  1.00  0.00     0.002 C 
BRANCH  72  73
ATOM     73  C   UNL A   1      31.904  29.681  26.635  1.00  0.00     0.002 C 
BRANCH  73  74
ATOM     74  C   UNL A   1      32.008  28.393  25.813  1.00  0.00     0.021 C 
BRANCH  74  75
ATOM     75  C   UNL A   1      32.097  27.103  26.625  1.00  0.00     0.116 C 
BRANCH  75  76
ATOM     76  N   UNL A   1      30.792  26.521  26.889  1.00  0.00    -0.351 N 
ATOM     77  C   UNL A   1      30.152  25.495  26.226  1.00  0.00     0.269 C 
ATOM     78  H   UNL A   1      30.296  26.914  27.644  1.00  0.00     0.163 HD
ATOM     79  O   UNL A   1      29.002  25.189  26.534  1.00  0.00    -0.268 OA
BRANCH  77  80
ATOM     80  C   UNL A   1      30.874  24.770  25.143  1.00  0.00     0.130 A 
ATOM     81  C   UNL A   1      31.653  23.667  25.463  1.00  0.00     0.060 A 
ATOM     82  N   UNL A   1      30.793  25.313  23.903  1.00  0.00    -0.251 NA
ATOM     83  C   UNL A   1      32.477  23.131  24.476  1.00  0.00     0.048 A 
ATOM     84  C   UNL A   1      31.546  24.732  22.951  1.00  0.00     0.114 A 
ATOM     85  C   UNL A   1      32.409  23.674  23.190  1.00  0.00     0.046 A 
BRANCH  83  86
ATOM     86  N   UNL A   1      33.411  22.092  24.778  1.00  0.00    -0.308 N 
ATOM     87  C   UNL A   1      34.507  22.408  25.703  1.00  0.00     0.161 C 
ATOM     88  C   UNL A   1      33.173  20.758  24.421  1.00  0.00     0.231 C 
ATOM     89  C   UNL A   1      35.754  21.637  25.389  1.00  0.00    -0.024 A 
ATOM     90  C   UNL A   1      34.224  19.740  24.850  1.00  0.00     0.136 C 
ATOM     91  O   UNL A   1      32.184  20.377  23.789  1.00  0.00    -0.274 OA
ATOM     92  C   UNL A   1      37.028  22.175  25.597  1.00  0.00     0.006 A 
ATOM     93  C   UNL A   1      35.613  20.309  24.965  1.00  0.00    -0.034 A 
ATOM     94  C   UNL A   1      38.158  21.396  25.361  1.00  0.00     0.000 A 
ATOM     95  C   UNL A   1      36.751  19.530  24.741  1.00  0.00     0.004 A 
ATOM     96  C   UNL A   1      38.021  20.076  24.931  1.00  0.00     0.000 A 
ENDBRANCH  83  86
ENDBRANCH  77  80
ENDBRANCH  75  76
ENDBRANCH  74  75
ENDBRANCH  73  74
ENDBRANCH  72  73
ENDBRANCH   1  72
TORSDOF 17
ENDMDL
MODEL 3
REMARK VINA RESULT:     -12.2      1.881      2.174
REMARK SMILES O=C(NCCCCCCNC(=O)c1cc(N2Cc3ccccc3CC2=O)ccn1)c1ccc(-c2c3nc(c(-c4cc(S(=O)(=O)[O-])ccc4F)c4ccc([nH]4)c(-c4cc(S(=O)(=O)[O-])ccc4F)c4nc(c(-c5cc(S(=O)(=O)[O-])ccc5F)c5ccc2[nH]5)C=C4)C=C3)cc1
REMARK SMILES IDX 5 1 4 2 3 3 1 4 2 5 30 7 31 8 92 9 32 10 91 11 33 12 34 13
REMARK SMILES IDX 35 14 85 15 36 16 90 17 84 18 86 19 37 20 89 21 83 22 82 23
REMARK SMILES IDX 38 25 70 26 50 27 69 28 51 29 54 30 68 31 87 32 52 33 53 34
REMARK SMILES IDX 67 36 88 37 55 38 39 39 40 40 48 41 41 42 47 43 49 44 46 45
REMARK SMILES IDX 42 46 43 47 44 48 45 49 71 50 72 51 80 52 73 53 79 54 81 55
REMARK SMILES IDX 78 56 74 57 75 58 76 59 77 60 56 61 57 62 65 63 58 64 64 65
REMARK SMILES IDX 66 66 63 67 59 68 60 69 61 70 62 71 6 72 7 73 8 74 9 75
REMARK SMILES IDX 10 76 11 77 12 79 13 80 14 81 29 82 15 83 28 84 27 85 16 86
REMARK SMILES IDX 17 87 25 88 18 89 24 90 26 91 19 92 23 93 20 94 22 95 21 96
REMARK H PARENT 3 6 86 24 54 35 10 78
REMARK Flexibility Score: inf
ROOT
ATOM      1  C   UNL A   1      31.648  32.011  26.800  1.00  0.00     0.021 C 
ENDROOT
BRANCH   1   2
ATOM      2  C   UNL A   1      32.933  32.763  27.121  1.00  0.00     0.116 C 
BRANCH   2   3
ATOM      3  N   UNL A   1      32.689  34.056  27.740  1.00  0.00    -0.352 N 
ATOM      4  O   UNL A   1      32.837  35.657  29.320  1.00  0.00    -0.269 OA
ATOM      5  C   UNL A   1      33.276  34.608  28.853  1.00  0.00     0.251 C 
ATOM      6  H   UNL A   1      32.008  34.614  27.299  1.00  0.00     0.163 HD
BRANCH   5   7
ATOM      7  C   UNL A   1      34.422  33.930  29.499  1.00  0.00     0.039 A 
ATOM      8  C   UNL A   1      34.216  32.909  30.431  1.00  0.00     0.014 A 
ATOM      9  C   UNL A   1      35.723  34.311  29.154  1.00  0.00     0.014 A 
ATOM     10  C   UNL A   1      35.301  32.360  31.108  1.00  0.00     0.010 A 
ATOM     11  C   UNL A   1      36.816  33.701  29.779  1.00  0.00     0.010 A 
ATOM     12  C   UNL A   1      36.613  32.736  30.779  1.00  0.00    -0.014 A 
BRANCH  12  13
ATOM     13  C   UNL A   1      37.756  32.059  31.445  1.00  0.00     0.031 A 
ATOM     14  C   UNL A   1      38.513  30.954  30.761  1.00  0.00     0.074 A 
ATOM     15  C   UNL A   1      38.121  32.470  32.677  1.00  0.00     0.049 A 
ATOM     16  N   UNL A   1      39.532  30.259  31.198  1.00  0.00    -0.248 NA
ATOM     17  C   UNL A   1      38.064  30.575  29.413  1.00  0.00     0.031 C 
ATOM     18  C   UNL A   1      37.454  33.529  33.439  1.00  0.00     0.029 A 
ATOM     19  N   UNL A   1      39.138  32.062  33.499  1.00  0.00    -0.354 N 
ATOM     20  C   UNL A   1      39.841  29.351  30.191  1.00  0.00     0.074 A 
ATOM     21  C   UNL A   1      38.878  29.566  29.130  1.00  0.00     0.031 C 
ATOM     22  C   UNL A   1      38.103  33.713  34.597  1.00  0.00     0.029 A 
ATOM     23  C   UNL A   1      39.186  32.742  34.695  1.00  0.00     0.049 A 
ATOM     24  H   UNL A   1      39.775  31.351  33.258  1.00  0.00     0.167 HD
ATOM     25  C   UNL A   1      40.838  28.432  30.155  1.00  0.00     0.034 A 
ATOM     26  C   UNL A   1      39.993  32.588  35.761  1.00  0.00     0.034 A 
ATOM     27  C   UNL A   1      41.789  28.232  31.224  1.00  0.00     0.049 A 
ATOM     28  C   UNL A   1      41.065  31.532  35.710  1.00  0.00     0.074 A 
ATOM     29  C   UNL A   1      42.856  27.350  31.276  1.00  0.00     0.029 A 
ATOM     30  N   UNL A   1      41.784  28.916  32.435  1.00  0.00    -0.354 N 
ATOM     31  N   UNL A   1      41.354  30.698  34.738  1.00  0.00    -0.248 NA
ATOM     32  C   UNL A   1      41.918  31.400  36.896  1.00  0.00     0.031 C 
ATOM     33  C   UNL A   1      43.452  27.454  32.538  1.00  0.00     0.029 A 
ATOM     34  C   UNL A   1      42.808  28.453  33.248  1.00  0.00     0.049 A 
ATOM     35  H   UNL A   1      41.146  29.625  32.679  1.00  0.00     0.167 HD
ATOM     36  C   UNL A   1      42.440  29.956  35.190  1.00  0.00     0.074 A 
ATOM     37  C   UNL A   1      42.766  30.457  36.510  1.00  0.00     0.031 C 
ATOM     38  C   UNL A   1      43.110  28.952  34.570  1.00  0.00     0.034 A 
BRANCH  25  39
ATOM     39  C   UNL A   1      40.926  27.541  28.938  1.00  0.00     0.023 A 
ATOM     40  C   UNL A   1      41.902  27.736  27.946  1.00  0.00     0.031 A 
ATOM     41  C   UNL A   1      40.018  26.481  28.770  1.00  0.00     0.131 A 
ATOM     42  C   UNL A   1      41.914  26.918  26.803  1.00  0.00     0.055 A 
ATOM     43  C   UNL A   1      40.078  25.627  27.666  1.00  0.00     0.041 A 
ATOM     44  F   UNL A   1      39.052  26.257  29.674  1.00  0.00    -0.206 F 
ATOM     45  C   UNL A   1      41.023  25.851  26.668  1.00  0.00     0.022 A 
BRANCH  42  46
ATOM     46  S   UNL A   1      43.035  27.344  25.443  1.00  0.00     0.124 S 
ATOM     47  O   UNL A   1      43.194  26.055  24.774  1.00  0.00    -0.237 OA
ATOM     48  O   UNL A   1      42.277  28.351  24.709  1.00  0.00    -0.237 OA
ATOM     49  O   UNL A   1      44.231  27.836  26.125  1.00  0.00    -0.744 OA
ENDBRANCH  42  46
ENDBRANCH  25  39
BRANCH  26  50
ATOM     50  C   UNL A   1      39.798  33.426  36.979  1.00  0.00     0.023 A 
ATOM     51  C   UNL A   1      40.646  34.507  37.259  1.00  0.00     0.031 A 
ATOM     52  C   UNL A   1      38.775  33.132  37.899  1.00  0.00     0.131 A 
ATOM     53  C   UNL A   1      40.484  35.230  38.451  1.00  0.00     0.055 A 
ATOM     54  C   UNL A   1      38.582  33.889  39.054  1.00  0.00     0.041 A 
ATOM     55  F   UNL A   1      37.934  32.109  37.676  1.00  0.00    -0.206 F 
ATOM     56  C   UNL A   1      39.449  34.938  39.343  1.00  0.00     0.022 A 
BRANCH  53  57
ATOM     57  S   UNL A   1      41.703  36.506  38.863  1.00  0.00     0.124 S 
ATOM     58  O   UNL A   1      42.812  35.706  39.373  1.00  0.00    -0.237 OA
ATOM     59  O   UNL A   1      41.917  37.148  37.570  1.00  0.00    -0.237 OA
ATOM     60  O   UNL A   1      41.016  37.326  39.857  1.00  0.00    -0.744 OA
ENDBRANCH  53  57
ENDBRANCH  26  50
BRANCH  38  61
ATOM     61  C   UNL A   1      44.287  28.365  35.308  1.00  0.00     0.023 A 
ATOM     62  C   UNL A   1      44.124  27.366  36.284  1.00  0.00     0.031 A 
ATOM     63  C   UNL A   1      45.588  28.834  35.051  1.00  0.00     0.131 A 
ATOM     64  C   UNL A   1      45.234  26.910  37.009  1.00  0.00     0.055 A 
ATOM     65  C   UNL A   1      46.697  28.334  35.734  1.00  0.00     0.041 A 
ATOM     66  F   UNL A   1      45.801  29.788  34.132  1.00  0.00    -0.206 F 
ATOM     67  C   UNL A   1      46.522  27.376  36.729  1.00  0.00     0.022 A 
BRANCH  64  68
ATOM     68  S   UNL A   1      44.963  25.768  38.391  1.00  0.00     0.124 S 
ATOM     69  O   UNL A   1      46.306  25.639  38.947  1.00  0.00    -0.237 OA
ATOM     70  O   UNL A   1      44.000  26.494  39.212  1.00  0.00    -0.237 OA
ATOM     71  O   UNL A   1      44.442  24.565  37.745  1.00  0.00    -0.744 OA
ENDBRANCH  64  68
ENDBRANCH  38  61
ENDBRANCH  12  13
ENDBRANCH   5   7
ENDBRANCH   2   3
ENDBRANCH   1   2
BRANCH   1  72
ATOM     72  C   UNL A   1      31.748  30.486  26.870  1.00  0.00     0.002 C 
BRANCH  72  73
ATOM     73  C   UNL A   1      33.154  29.903  26.703  1.00  0.00     0.002 C 
BRANCH  73  74
ATOM     74  C   UNL A   1      33.230  28.386  26.509  1.00  0.00     0.021 C 
BRANCH  74  75
ATOM     75  C   UNL A   1      31.902  27.643  26.628  1.00  0.00     0.116 C 
BRANCH  75  76
ATOM     76  N   UNL A   1      31.233  27.490  25.347  1.00  0.00    -0.351 N 
ATOM     77  C   UNL A   1      30.812  26.334  24.723  1.00  0.00     0.269 C 
ATOM     78  H   UNL A   1      31.058  28.326  24.856  1.00  0.00     0.163 HD
ATOM     79  O   UNL A   1      30.340  26.387  23.590  1.00  0.00    -0.268 OA
BRANCH  77  80
ATOM     80  C   UNL A   1      30.937  25.036  25.442  1.00  0.00     0.130 A 
ATOM     81  C   UNL A   1      31.942  24.150  25.079  1.00  0.00     0.060 A 
ATOM     82  N   UNL A   1      29.975  24.764  26.359  1.00  0.00    -0.251 NA
ATOM     83  C   UNL A   1      31.917  22.866  25.619  1.00  0.00     0.048 A 
ATOM     84  C   UNL A   1      30.016  23.541  26.918  1.00  0.00     0.114 A 
ATOM     85  C   UNL A   1      30.936  22.565  26.567  1.00  0.00     0.046 A 
BRANCH  83  86
ATOM     86  N   UNL A   1      32.833  21.861  25.176  1.00  0.00    -0.308 N 
ATOM     87  C   UNL A   1      32.529  21.170  23.917  1.00  0.00     0.161 C 
ATOM     88  C   UNL A   1      34.095  21.700  25.765  1.00  0.00     0.231 C 
ATOM     89  C   UNL A   1      33.018  19.752  23.916  1.00  0.00    -0.024 A 
ATOM     90  C   UNL A   1      34.996  20.627  25.163  1.00  0.00     0.136 C 
ATOM     91  O   UNL A   1      34.500  22.363  26.723  1.00  0.00    -0.274 OA
ATOM     92  C   UNL A   1      32.334  18.734  23.244  1.00  0.00     0.006 A 
ATOM     93  C   UNL A   1      34.245  19.482  24.536  1.00  0.00    -0.034 A 
ATOM     94  C   UNL A   1      32.863  17.446  23.209  1.00  0.00     0.000 A 
ATOM     95  C   UNL A   1      34.776  18.190  24.488  1.00  0.00     0.004 A 
ATOM     96  C   UNL A   1      34.081  17.174  23.832  1.00  0.00     0.000 A 
ENDBRANCH  83  86
ENDBRANCH  77  80
ENDBRANCH  75  76
ENDBRANCH  74  75
ENDBRANCH  73  74
ENDBRANCH  72  73
ENDBRANCH   1  72
TORSDOF 17
ENDMDL
