MODEL 1
REMARK VINA RESULT:     -11.9      0.000      0.000
REMARK SMILES Cc1nn(C)c(=O)c(C(=O)N2CC[C@@H](C(=O)NCCCCCCNC(=O)c3ccc(-c4c5nc(c(-c6cc(S(=O)(=O)[O-])ccc6F)c6ccc([nH]6)c(-c6cc(S(=O)(=O)[O-])ccc6F)c6nc(c(-c7cc(S(=O)(=O)[O-])ccc7F)c7ccc4[nH]7)C=C6)C=C5)cc3)[C@@H]2C)c1C
REMARK SMILES IDX 21 1 20 2 19 3 18 4 17 5 15 6 16 7 14 9 11 10 12 11 90 12
REMARK SMILES IDX 13 13 91 14 9 15 10 16 8 17 1 18 2 19 3 20 92 21 4 22 93 23
REMARK SMILES IDX 5 24 6 25 7 26 22 27 23 28 24 29 25 30 26 32 27 33 28 34
REMARK SMILES IDX 89 35 29 36 88 37 30 38 31 39 32 40 82 41 33 42 87 43 81 44
REMARK SMILES IDX 83 45 34 46 86 47 80 48 79 49 35 51 67 52 47 53 66 54 48 55
REMARK SMILES IDX 51 56 65 57 84 58 49 59 50 60 64 62 85 63 52 64 36 65 37 66
REMARK SMILES IDX 45 67 38 68 44 69 46 70 43 71 39 72 40 73 41 74 42 75 68 76
REMARK SMILES IDX 69 77 77 78 70 79 76 80 78 81 75 82 71 83 72 84 73 85 74 86
REMARK SMILES IDX 53 87 54 88 62 89 55 90 61 91 63 92 60 93 56 94 57 95 58 96
REMARK SMILES IDX 59 97
REMARK H PARENT 17 8 24 31 83 50 51 61
REMARK Flexibility Score: inf
ROOT
ATOM      1  C   UNL A   1      31.678  30.667  26.796  1.00  0.00     0.002 C 
ENDROOT
BRANCH   1   2
ATOM      2  C   UNL A   1      31.798  29.995  25.426  1.00  0.00     0.002 C 
BRANCH   2   3
ATOM      3  C   UNL A   1      33.088  29.223  25.154  1.00  0.00     0.021 C 
BRANCH   3   4
ATOM      4  C   UNL A   1      33.626  28.341  26.285  1.00  0.00     0.116 C 
BRANCH   4   5
ATOM      5  N   UNL A   1      32.639  27.369  26.732  1.00  0.00    -0.356 N 
ATOM      6  C   UNL A   1      31.872  26.456  26.080  1.00  0.00     0.225 C 
ATOM      7  O   UNL A   1      31.101  25.795  26.789  1.00  0.00    -0.275 OA
ATOM      8  H   UNL A   1      32.497  27.374  27.705  1.00  0.00     0.163 HD
BRANCH   6   9
ATOM      9  C   UNL A   1      31.836  26.243  24.565  1.00  0.00     0.102 C 
ATOM     10  N   UNL A   1      32.509  24.158  23.633  1.00  0.00    -0.335 N 
ATOM     11  C   UNL A   1      31.169  24.410  23.125  1.00  0.00     0.121 C 
ATOM     12  C   UNL A   1      33.054  25.452  24.069  1.00  0.00     0.094 C 
ATOM     13  C   UNL A   1      30.611  25.554  23.969  1.00  0.00     0.037 C 
ATOM     14  C   UNL A   1      33.812  26.202  22.966  1.00  0.00     0.032 C 
BRANCH  10  15
ATOM     15  C   UNL A   1      33.299  23.249  22.920  1.00  0.00     0.260 C 
ATOM     16  O   UNL A   1      33.329  23.256  21.691  1.00  0.00    -0.269 OA
BRANCH  15  17
ATOM     17  C   UNL A   1      34.047  22.215  23.721  1.00  0.00     0.111 A 
ATOM     18  C   UNL A   1      37.368  21.407  25.334  1.00  0.00     0.069 C 
ATOM     19  C   UNL A   1      35.983  21.206  24.760  1.00  0.00     0.062 A 
ATOM     20  N   UNL A   1      35.396  20.097  25.054  1.00  0.00    -0.175 NA
ATOM     21  C   UNL A   1      35.379  22.277  23.921  1.00  0.00    -0.010 A 
ATOM     22  N   UNL A   1      34.105  19.935  24.644  1.00  0.00    -0.232 N 
ATOM     23  C   UNL A   1      36.309  23.254  23.292  1.00  0.00     0.047 C 
ATOM     24  C   UNL A   1      33.542  18.620  24.906  1.00  0.00     0.178 C 
ATOM     25  C   UNL A   1      33.320  20.963  24.125  1.00  0.00     0.279 A 
ATOM     26  O   UNL A   1      32.105  20.862  23.970  1.00  0.00    -0.267 OA
ENDBRANCH  15  17
ENDBRANCH  10  15
ENDBRANCH   6   9
ENDBRANCH   4   5
ENDBRANCH   3   4
ENDBRANCH   2   3
ENDBRANCH   1   2
BRANCH   1  27
ATOM     27  C   UNL A   1      31.575  32.196  26.809  1.00  0.00     0.021 C 
BRANCH  27  28
ATOM     28  C   UNL A   1      32.818  32.964  27.257  1.00  0.00     0.116 C 
BRANCH  28  29
ATOM     29  N   UNL A   1      32.519  34.254  27.851  1.00  0.00    -0.352 N 
ATOM     30  C   UNL A   1      33.132  34.907  28.894  1.00  0.00     0.251 C 
ATOM     31  H   UNL A   1      31.762  34.736  27.445  1.00  0.00     0.163 HD
ATOM     32  O   UNL A   1      32.655  35.960  29.311  1.00  0.00    -0.269 OA
BRANCH  30  33
ATOM     33  C   UNL A   1      34.332  34.330  29.540  1.00  0.00     0.039 A 
ATOM     34  C   UNL A   1      34.160  33.534  30.675  1.00  0.00     0.014 A 
ATOM     35  C   UNL A   1      35.617  34.574  29.043  1.00  0.00     0.014 A 
ATOM     36  C   UNL A   1      35.268  32.925  31.271  1.00  0.00     0.010 A 
ATOM     37  C   UNL A   1      36.715  33.921  29.606  1.00  0.00     0.010 A 
ATOM     38  C   UNL A   1      36.551  33.087  30.722  1.00  0.00    -0.014 A 
BRANCH  38  39
ATOM     39  C   UNL A   1      37.717  32.379  31.311  1.00  0.00     0.031 A 
ATOM     40  C   UNL A   1      38.264  32.795  32.647  1.00  0.00     0.074 A 
ATOM     41  C   UNL A   1      38.296  31.368  30.633  1.00  0.00     0.049 A 
ATOM     42  N   UNL A   1      39.276  32.302  33.317  1.00  0.00    -0.248 NA
ATOM     43  C   UNL A   1      37.595  33.923  33.311  1.00  0.00     0.031 C 
ATOM     44  C   UNL A   1      37.869  30.883  29.319  1.00  0.00     0.029 A 
ATOM     45  N   UNL A   1      39.358  30.561  30.957  1.00  0.00    -0.354 N 
ATOM     46  C   UNL A   1      39.364  33.056  34.481  1.00  0.00     0.074 A 
ATOM     47  C   UNL A   1      38.339  34.077  34.397  1.00  0.00     0.031 C 
ATOM     48  C   UNL A   1      38.637  29.839  28.967  1.00  0.00     0.029 A 
ATOM     49  C   UNL A   1      39.631  29.603  30.009  1.00  0.00     0.049 A 
ATOM     50  H   UNL A   1      39.874  30.658  31.789  1.00  0.00     0.167 HD
ATOM     51  C   UNL A   1      40.203  32.897  35.534  1.00  0.00     0.034 A 
ATOM     52  C   UNL A   1      40.576  28.642  29.979  1.00  0.00     0.034 A 
ATOM     53  C   UNL A   1      41.219  31.877  35.608  1.00  0.00     0.049 A 
ATOM     54  C   UNL A   1      41.533  28.515  31.133  1.00  0.00     0.074 A 
ATOM     55  C   UNL A   1      42.097  31.609  36.644  1.00  0.00     0.029 A 
ATOM     56  N   UNL A   1      41.501  30.960  34.604  1.00  0.00    -0.354 N 
ATOM     57  N   UNL A   1      41.595  29.227  32.233  1.00  0.00    -0.248 NA
ATOM     58  C   UNL A   1      42.547  27.457  31.042  1.00  0.00     0.031 C 
ATOM     59  C   UNL A   1      42.948  30.573  36.243  1.00  0.00     0.029 A 
ATOM     60  C   UNL A   1      42.559  30.147  34.983  1.00  0.00     0.049 A 
ATOM     61  H   UNL A   1      41.020  30.895  33.747  1.00  0.00     0.167 HD
ATOM     62  C   UNL A   1      42.645  28.694  32.973  1.00  0.00     0.074 A 
ATOM     63  C   UNL A   1      43.186  27.596  32.196  1.00  0.00     0.031 C 
ATOM     64  C   UNL A   1      43.110  29.075  34.189  1.00  0.00     0.034 A 
BRANCH  51  65
ATOM     65  C   UNL A   1      40.067  33.870  36.678  1.00  0.00     0.023 A 
ATOM     66  C   UNL A   1      39.474  33.491  37.895  1.00  0.00     0.031 A 
ATOM     67  C   UNL A   1      40.514  35.196  36.546  1.00  0.00     0.131 A 
ATOM     68  C   UNL A   1      39.285  34.443  38.908  1.00  0.00     0.055 A 
ATOM     69  C   UNL A   1      40.389  36.120  37.584  1.00  0.00     0.041 A 
ATOM     70  F   UNL A   1      41.071  35.617  35.400  1.00  0.00    -0.206 F 
ATOM     71  C   UNL A   1      39.760  35.749  38.769  1.00  0.00     0.022 A 
BRANCH  68  72
ATOM     72  S   UNL A   1      38.304  33.980  40.361  1.00  0.00     0.124 S 
ATOM     73  O   UNL A   1      38.118  35.274  41.014  1.00  0.00    -0.237 OA
ATOM     74  O   UNL A   1      37.114  33.387  39.763  1.00  0.00    -0.237 OA
ATOM     75  O   UNL A   1      39.173  33.048  41.078  1.00  0.00    -0.744 OA
ENDBRANCH  68  72
ENDBRANCH  51  65
BRANCH  52  76
ATOM     76  C   UNL A   1      40.654  27.724  28.811  1.00  0.00     0.023 A 
ATOM     77  C   UNL A   1      41.594  27.933  27.791  1.00  0.00     0.031 A 
ATOM     78  C   UNL A   1      39.811  26.602  28.720  1.00  0.00     0.131 A 
ATOM     79  C   UNL A   1      41.665  27.035  26.715  1.00  0.00     0.055 A 
ATOM     80  C   UNL A   1      39.905  25.695  27.663  1.00  0.00     0.041 A 
ATOM     81  F   UNL A   1      38.908  26.354  29.681  1.00  0.00    -0.206 F 
ATOM     82  C   UNL A   1      40.837  25.911  26.651  1.00  0.00     0.022 A 
BRANCH  79  83
ATOM     83  S   UNL A   1      42.868  27.347  25.392  1.00  0.00     0.124 S 
ATOM     84  O   UNL A   1      42.211  28.410  24.640  1.00  0.00    -0.237 OA
ATOM     85  O   UNL A   1      44.058  27.732  26.144  1.00  0.00    -0.237 OA
ATOM     86  O   UNL A   1      42.960  26.060  24.708  1.00  0.00    -0.744 OA
ENDBRANCH  79  83
ENDBRANCH  52  76
BRANCH  64  87
ATOM     87  C   UNL A   1      44.258  28.289  34.769  1.00  0.00     0.023 A 
ATOM     88  C   UNL A   1      44.045  27.122  35.520  1.00  0.00     0.031 A 
ATOM     89  C   UNL A   1      45.583  28.693  34.528  1.00  0.00     0.131 A 
ATOM     90  C   UNL A   1      45.141  26.410  36.029  1.00  0.00     0.055 A 
ATOM     91  C   UNL A   1      46.671  27.956  34.998  1.00  0.00     0.041 A 
ATOM     92  F   UNL A   1      45.841  29.801  33.815  1.00  0.00    -0.206 F 
ATOM     93  C   UNL A   1      46.453  26.811  35.757  1.00  0.00     0.022 A 
BRANCH  90  94
ATOM     94  S   UNL A   1      44.835  24.967  37.084  1.00  0.00     0.124 S 
ATOM     95  O   UNL A   1      43.897  25.504  38.064  1.00  0.00    -0.237 OA
ATOM     96  O   UNL A   1      44.287  23.997  36.141  1.00  0.00    -0.237 OA
ATOM     97  O   UNL A   1      46.159  24.638  37.608  1.00  0.00    -0.744 OA
ENDBRANCH  90  94
ENDBRANCH  64  87
ENDBRANCH  38  39
ENDBRANCH  30  33
ENDBRANCH  28  29
ENDBRANCH  27  28
ENDBRANCH   1  27
TORSDOF 18
ENDMDL
MODEL 2
REMARK VINA RESULT:     -11.8      0.749      7.672
REMARK SMILES Cc1nn(C)c(=O)c(C(=O)N2CC[C@@H](C(=O)NCCCCCCNC(=O)c3ccc(-c4c5nc(c(-c6cc(S(=O)(=O)[O-])ccc6F)c6ccc([nH]6)c(-c6cc(S(=O)(=O)[O-])ccc6F)c6nc(c(-c7cc(S(=O)(=O)[O-])ccc7F)c7ccc4[nH]7)C=C6)C=C5)cc3)[C@@H]2C)c1C
REMARK SMILES IDX 21 1 20 2 19 3 18 4 17 5 15 6 16 7 14 9 11 10 12 11 90 12
REMARK SMILES IDX 13 13 91 14 9 15 10 16 8 17 1 18 2 19 3 20 92 21 4 22 93 23
REMARK SMILES IDX 5 24 6 25 7 26 22 27 23 28 24 29 25 30 26 32 27 33 28 34
REMARK SMILES IDX 89 35 29 36 88 37 30 38 31 39 32 40 82 41 33 42 87 43 81 44
REMARK SMILES IDX 83 45 34 46 86 47 80 48 79 49 35 51 67 52 47 53 66 54 48 55
REMARK SMILES IDX 51 56 65 57 84 58 49 59 50 60 64 62 85 63 52 64 36 65 37 66
REMARK SMILES IDX 45 67 38 68 44 69 46 70 43 71 39 72 40 73 41 74 42 75 68 76
REMARK SMILES IDX 69 77 77 78 70 79 76 80 78 81 75 82 71 83 72 84 73 85 74 86
REMARK SMILES IDX 53 87 54 88 62 89 55 90 61 91 63 92 60 93 56 94 57 95 58 96
REMARK SMILES IDX 59 97
REMARK H PARENT 17 8 24 31 83 50 51 61
REMARK Flexibility Score: inf
ROOT
ATOM      1  C   UNL A   1      31.441  30.637  26.728  1.00  0.00     0.002 C 
ENDROOT
BRANCH   1   2
ATOM      2  C   UNL A   1      31.761  29.841  25.460  1.00  0.00     0.002 C 
BRANCH   2   3
ATOM      3  C   UNL A   1      33.229  29.491  25.225  1.00  0.00     0.021 C 
BRANCH   3   4
ATOM      4  C   UNL A   1      33.820  28.354  26.065  1.00  0.00     0.116 C 
BRANCH   4   5
ATOM      5  N   UNL A   1      32.787  27.469  26.583  1.00  0.00    -0.356 N 
ATOM      6  C   UNL A   1      31.925  26.600  25.993  1.00  0.00     0.225 C 
ATOM      7  O   UNL A   1      31.143  26.015  26.754  1.00  0.00    -0.275 OA
ATOM      8  H   UNL A   1      32.693  27.508  27.562  1.00  0.00     0.163 HD
BRANCH   6   9
ATOM      9  C   UNL A   1      31.801  26.355  24.487  1.00  0.00     0.102 C 
ATOM     10  N   UNL A   1      32.551  24.301  23.544  1.00  0.00    -0.335 N 
ATOM     11  C   UNL A   1      31.165  24.452  23.125  1.00  0.00     0.121 C 
ATOM     12  C   UNL A   1      33.034  25.637  23.921  1.00  0.00     0.094 C 
ATOM     13  C   UNL A   1      30.589  25.573  23.988  1.00  0.00     0.037 C 
ATOM     14  C   UNL A   1      33.662  26.413  22.757  1.00  0.00     0.032 C 
BRANCH  10  15
ATOM     15  C   UNL A   1      33.350  23.433  22.792  1.00  0.00     0.260 C 
ATOM     16  O   UNL A   1      33.378  23.491  21.565  1.00  0.00    -0.269 OA
BRANCH  15  17
ATOM     17  C   UNL A   1      34.114  22.376  23.548  1.00  0.00     0.111 A 
ATOM     18  C   UNL A   1      33.962  18.831  24.849  1.00  0.00     0.069 C 
ATOM     19  C   UNL A   1      34.422  20.263  24.680  1.00  0.00     0.062 A 
ATOM     20  N   UNL A   1      35.583  20.551  25.159  1.00  0.00    -0.175 NA
ATOM     21  C   UNL A   1      33.541  21.232  23.975  1.00  0.00    -0.010 A 
ATOM     22  N   UNL A   1      36.071  21.804  24.924  1.00  0.00    -0.232 N 
ATOM     23  C   UNL A   1      32.091  20.905  23.899  1.00  0.00     0.047 C 
ATOM     24  C   UNL A   1      37.331  22.102  25.588  1.00  0.00     0.178 C 
ATOM     25  C   UNL A   1      35.500  22.705  24.027  1.00  0.00     0.279 A 
ATOM     26  O   UNL A   1      36.067  23.732  23.660  1.00  0.00    -0.267 OA
ENDBRANCH  15  17
ENDBRANCH  10  15
ENDBRANCH   6   9
ENDBRANCH   4   5
ENDBRANCH   3   4
ENDBRANCH   2   3
ENDBRANCH   1   2
BRANCH   1  27
ATOM     27  C   UNL A   1      31.531  32.164  26.626  1.00  0.00     0.021 C 
BRANCH  27  28
ATOM     28  C   UNL A   1      32.733  32.828  27.297  1.00  0.00     0.116 C 
BRANCH  28  29
ATOM     29  N   UNL A   1      32.489  34.204  27.690  1.00  0.00    -0.352 N 
ATOM     30  C   UNL A   1      33.112  34.969  28.647  1.00  0.00     0.251 C 
ATOM     31  H   UNL A   1      31.769  34.658  27.197  1.00  0.00     0.163 HD
ATOM     32  O   UNL A   1      32.683  36.093  28.894  1.00  0.00    -0.269 OA
BRANCH  30  33
ATOM     33  C   UNL A   1      34.265  34.433  29.405  1.00  0.00     0.039 A 
ATOM     34  C   UNL A   1      34.019  33.758  30.603  1.00  0.00     0.014 A 
ATOM     35  C   UNL A   1      35.578  34.598  28.950  1.00  0.00     0.014 A 
ATOM     36  C   UNL A   1      35.081  33.187  31.309  1.00  0.00     0.010 A 
ATOM     37  C   UNL A   1      36.630  33.980  29.628  1.00  0.00     0.010 A 
ATOM     38  C   UNL A   1      36.392  33.264  30.811  1.00  0.00    -0.014 A 
BRANCH  38  39
ATOM     39  C   UNL A   1      37.510  32.593  31.523  1.00  0.00     0.031 A 
ATOM     40  C   UNL A   1      38.232  31.438  30.888  1.00  0.00     0.074 A 
ATOM     41  C   UNL A   1      37.868  33.015  32.752  1.00  0.00     0.049 A 
ATOM     42  N   UNL A   1      39.225  30.725  31.357  1.00  0.00    -0.248 NA
ATOM     43  C   UNL A   1      37.765  31.020  29.558  1.00  0.00     0.031 C 
ATOM     44  C   UNL A   1      37.232  34.114  33.482  1.00  0.00     0.029 A 
ATOM     45  N   UNL A   1      38.856  32.580  33.599  1.00  0.00    -0.354 N 
ATOM     46  C   UNL A   1      39.506  29.777  30.380  1.00  0.00     0.074 A 
ATOM     47  C   UNL A   1      38.538  29.970  29.320  1.00  0.00     0.031 C 
ATOM     48  C   UNL A   1      37.871  34.291  34.650  1.00  0.00     0.029 A 
ATOM     49  C   UNL A   1      38.935  33.299  34.770  1.00  0.00     0.049 A 
ATOM     50  H   UNL A   1      39.452  31.826  33.390  1.00  0.00     0.167 HD
ATOM     51  C   UNL A   1      40.493  28.849  30.357  1.00  0.00     0.034 A 
ATOM     52  C   UNL A   1      39.768  33.174  35.822  1.00  0.00     0.034 A 
ATOM     53  C   UNL A   1      41.453  28.666  31.418  1.00  0.00     0.049 A 
ATOM     54  C   UNL A   1      40.824  32.103  35.802  1.00  0.00     0.074 A 
ATOM     55  C   UNL A   1      42.514  27.778  31.476  1.00  0.00     0.029 A 
ATOM     56  N   UNL A   1      41.466  29.376  32.611  1.00  0.00    -0.354 N 
ATOM     57  N   UNL A   1      41.085  31.222  34.864  1.00  0.00    -0.248 NA
ATOM     58  C   UNL A   1      41.696  32.008  36.979  1.00  0.00     0.031 C 
ATOM     59  C   UNL A   1      43.128  27.909  32.726  1.00  0.00     0.029 A 
ATOM     60  C   UNL A   1      42.495  28.926  33.424  1.00  0.00     0.049 A 
ATOM     61  H   UNL A   1      40.836  30.096  32.846  1.00  0.00     0.167 HD
ATOM     62  C   UNL A   1      42.162  30.477  35.332  1.00  0.00     0.074 A 
ATOM     63  C   UNL A   1      42.506  31.015  36.634  1.00  0.00     0.031 C 
ATOM     64  C   UNL A   1      42.811  29.448  34.731  1.00  0.00     0.034 A 
BRANCH  51  65
ATOM     65  C   UNL A   1      40.564  27.946  29.151  1.00  0.00     0.023 A 
ATOM     66  C   UNL A   1      41.498  28.168  28.123  1.00  0.00     0.031 A 
ATOM     67  C   UNL A   1      39.677  26.865  29.015  1.00  0.00     0.131 A 
ATOM     68  C   UNL A   1      41.480  27.362  26.976  1.00  0.00     0.055 A 
ATOM     69  C   UNL A   1      39.712  26.021  27.904  1.00  0.00     0.041 A 
ATOM     70  F   UNL A   1      38.753  26.617  29.957  1.00  0.00    -0.206 F 
ATOM     71  C   UNL A   1      40.609  26.275  26.870  1.00  0.00     0.022 A 
BRANCH  68  72
ATOM     72  S   UNL A   1      42.532  27.826  25.573  1.00  0.00     0.124 S 
ATOM     73  O   UNL A   1      43.814  28.058  26.232  1.00  0.00    -0.237 OA
ATOM     74  O   UNL A   1      42.455  26.647  24.718  1.00  0.00    -0.237 OA
ATOM     75  O   UNL A   1      41.885  29.024  25.043  1.00  0.00    -0.744 OA
ENDBRANCH  68  72
ENDBRANCH  51  65
BRANCH  52  76
ATOM     76  C   UNL A   1      39.631  34.097  36.981  1.00  0.00     0.023 A 
ATOM     77  C   UNL A   1      39.023  33.673  38.172  1.00  0.00     0.031 A 
ATOM     78  C   UNL A   1      40.142  35.406  36.922  1.00  0.00     0.131 A 
ATOM     79  C   UNL A   1      38.934  34.556  39.260  1.00  0.00     0.055 A 
ATOM     80  C   UNL A   1      40.077  36.270  38.016  1.00  0.00     0.041 A 
ATOM     81  F   UNL A   1      40.746  35.848  35.808  1.00  0.00    -0.206 F 
ATOM     82  C   UNL A   1      39.468  35.846  39.194  1.00  0.00     0.022 A 
BRANCH  79  83
ATOM     83  S   UNL A   1      38.114  33.994  40.777  1.00  0.00     0.124 S 
ATOM     84  O   UNL A   1      36.889  33.402  40.251  1.00  0.00    -0.237 OA
ATOM     85  O   UNL A   1      39.093  33.063  41.329  1.00  0.00    -0.237 OA
ATOM     86  O   UNL A   1      37.935  35.227  41.542  1.00  0.00    -0.744 OA
ENDBRANCH  79  83
ENDBRANCH  52  76
BRANCH  64  87
ATOM     87  C   UNL A   1      43.975  28.838  35.470  1.00  0.00     0.023 A 
ATOM     88  C   UNL A   1      43.848  27.627  36.169  1.00  0.00     0.031 A 
ATOM     89  C   UNL A   1      45.236  29.459  35.436  1.00  0.00     0.131 A 
ATOM     90  C   UNL A   1      44.961  27.084  36.830  1.00  0.00     0.055 A 
ATOM     91  C   UNL A   1      46.349  28.891  36.057  1.00  0.00     0.041 A 
ATOM     92  F   UNL A   1      45.409  30.618  34.780  1.00  0.00    -0.206 F 
ATOM     93  C   UNL A   1      46.214  27.701  36.763  1.00  0.00     0.022 A 
BRANCH  90  94
ATOM     94  S   UNL A   1      44.744  25.575  37.813  1.00  0.00     0.124 S 
ATOM     95  O   UNL A   1      43.310  25.336  37.686  1.00  0.00    -0.237 OA
ATOM     96  O   UNL A   1      45.613  24.624  37.127  1.00  0.00    -0.237 OA
ATOM     97  O   UNL A   1      45.192  25.968  39.148  1.00  0.00    -0.744 OA
ENDBRANCH  90  94
ENDBRANCH  64  87
ENDBRANCH  38  39
ENDBRANCH  30  33
ENDBRANCH  28  29
ENDBRANCH  27  28
ENDBRANCH   1  27
TORSDOF 18
ENDMDL
MODEL 3
REMARK VINA RESULT:     -11.7      5.466      9.901
REMARK SMILES Cc1nn(C)c(=O)c(C(=O)N2CC[C@@H](C(=O)NCCCCCCNC(=O)c3ccc(-c4c5nc(c(-c6cc(S(=O)(=O)[O-])ccc6F)c6ccc([nH]6)c(-c6cc(S(=O)(=O)[O-])ccc6F)c6nc(c(-c7cc(S(=O)(=O)[O-])ccc7F)c7ccc4[nH]7)C=C6)C=C5)cc3)[C@@H]2C)c1C
REMARK SMILES IDX 21 1 20 2 19 3 18 4 17 5 15 6 16 7 14 9 11 10 12 11 90 12
REMARK SMILES IDX 13 13 91 14 9 15 10 16 8 17 1 18 2 19 3 20 92 21 4 22 93 23
REMARK SMILES IDX 5 24 6 25 7 26 22 27 23 28 24 29 25 30 26 32 27 33 28 34
REMARK SMILES IDX 89 35 29 36 88 37 30 38 31 39 32 40 82 41 33 42 87 43 81 44
REMARK SMILES IDX 83 45 34 46 86 47 80 48 79 49 35 51 67 52 47 53 66 54 48 55
REMARK SMILES IDX 51 56 65 57 84 58 49 59 50 60 64 62 85 63 52 64 36 65 37 66
REMARK SMILES IDX 45 67 38 68 44 69 46 70 43 71 39 72 40 73 41 74 42 75 68 76
REMARK SMILES IDX 69 77 77 78 70 79 76 80 78 81 75 82 71 83 72 84 73 85 74 86
REMARK SMILES IDX 53 87 54 88 62 89 55 90 61 91 63 92 60 93 56 94 57 95 58 96
REMARK SMILES IDX 59 97
REMARK H PARENT 17 8 24 31 83 50 51 61
REMARK Flexibility Score: inf
ROOT
ATOM      1  C   UNL A   1      37.317  21.597  24.650  1.00  0.00     0.002 C 
ENDROOT
BRANCH   1   2
ATOM      2  C   UNL A   1      35.795  21.495  24.515  1.00  0.00     0.002 C 
BRANCH   2   3
ATOM      3  C   UNL A   1      35.015  21.190  25.793  1.00  0.00     0.021 C 
BRANCH   3   4
ATOM      4  C   UNL A   1      33.644  20.525  25.634  1.00  0.00     0.116 C 
BRANCH   4   5
ATOM      5  N   UNL A   1      32.579  21.337  26.203  1.00  0.00    -0.356 N 
ATOM      6  C   UNL A   1      31.638  22.151  25.659  1.00  0.00     0.225 C 
ATOM      7  O   UNL A   1      30.887  22.721  26.461  1.00  0.00    -0.275 OA
ATOM      8  H   UNL A   1      32.530  21.285  27.185  1.00  0.00     0.163 HD
BRANCH   6   9
ATOM      9  C   UNL A   1      31.490  22.468  24.169  1.00  0.00     0.102 C 
ATOM     10  N   UNL A   1      32.789  24.203  23.180  1.00  0.00    -0.335 N 
ATOM     11  C   UNL A   1      33.045  23.009  22.388  1.00  0.00     0.121 C 
ATOM     12  C   UNL A   1      31.526  23.979  23.898  1.00  0.00     0.094 C 
ATOM     13  C   UNL A   1      32.493  21.841  23.203  1.00  0.00     0.037 C 
ATOM     14  C   UNL A   1      30.288  24.449  23.124  1.00  0.00     0.032 C 
BRANCH  10  15
ATOM     15  C   UNL A   1      33.065  25.435  22.579  1.00  0.00     0.260 C 
ATOM     16  O   UNL A   1      33.501  25.503  21.432  1.00  0.00    -0.269 OA
BRANCH  15  17
ATOM     17  C   UNL A   1      32.877  26.668  23.425  1.00  0.00     0.111 A 
ATOM     18  C   UNL A   1      34.187  28.547  26.432  1.00  0.00     0.069 C 
ATOM     19  C   UNL A   1      33.253  28.122  25.320  1.00  0.00     0.062 A 
ATOM     20  N   UNL A   1      32.282  28.925  25.049  1.00  0.00    -0.175 NA
ATOM     21  C   UNL A   1      33.505  26.841  24.606  1.00  0.00    -0.010 A 
ATOM     22  N   UNL A   1      31.490  28.623  23.979  1.00  0.00    -0.232 N 
ATOM     23  C   UNL A   1      34.338  25.825  25.304  1.00  0.00     0.047 C 
ATOM     24  C   UNL A   1      30.347  29.504  23.799  1.00  0.00     0.178 C 
ATOM     25  C   UNL A   1      31.792  27.635  23.044  1.00  0.00     0.279 A 
ATOM     26  O   UNL A   1      31.195  27.524  21.975  1.00  0.00    -0.267 OA
ENDBRANCH  15  17
ENDBRANCH  10  15
ENDBRANCH   6   9
ENDBRANCH   4   5
ENDBRANCH   3   4
ENDBRANCH   2   3
ENDBRANCH   1   2
BRANCH   1  27
ATOM     27  C   UNL A   1      38.070  20.302  24.974  1.00  0.00     0.021 C 
BRANCH  27  28
ATOM     28  C   UNL A   1      39.108  20.373  26.094  1.00  0.00     0.116 C 
BRANCH  28  29
ATOM     29  N   UNL A   1      40.131  19.347  26.001  1.00  0.00    -0.352 N 
ATOM     30  C   UNL A   1      41.498  19.458  26.079  1.00  0.00     0.251 C 
ATOM     31  H   UNL A   1      39.794  18.433  25.861  1.00  0.00     0.163 HD
ATOM     32  O   UNL A   1      42.197  18.469  25.874  1.00  0.00    -0.269 OA
BRANCH  30  33
ATOM     33  C   UNL A   1      42.131  20.764  26.367  1.00  0.00     0.039 A 
ATOM     34  C   UNL A   1      42.442  21.606  25.296  1.00  0.00     0.014 A 
ATOM     35  C   UNL A   1      42.427  21.159  27.677  1.00  0.00     0.014 A 
ATOM     36  C   UNL A   1      42.982  22.871  25.540  1.00  0.00     0.010 A 
ATOM     37  C   UNL A   1      42.916  22.444  27.921  1.00  0.00     0.010 A 
ATOM     38  C   UNL A   1      43.193  23.314  26.856  1.00  0.00    -0.014 A 
BRANCH  38  39
ATOM     39  C   UNL A   1      43.698  24.687  27.118  1.00  0.00     0.031 A 
ATOM     40  C   UNL A   1      42.772  25.753  27.633  1.00  0.00     0.074 A 
ATOM     41  C   UNL A   1      44.991  24.980  26.877  1.00  0.00     0.049 A 
ATOM     42  N   UNL A   1      43.028  27.005  27.914  1.00  0.00    -0.248 NA
ATOM     43  C   UNL A   1      41.370  25.362  27.844  1.00  0.00     0.031 C 
ATOM     44  C   UNL A   1      45.984  24.037  26.359  1.00  0.00     0.029 A 
ATOM     45  N   UNL A   1      45.695  26.146  27.044  1.00  0.00    -0.354 N 
ATOM     46  C   UNL A   1      41.823  27.553  28.339  1.00  0.00     0.074 A 
ATOM     47  C   UNL A   1      40.825  26.509  28.221  1.00  0.00     0.031 C 
ATOM     48  C   UNL A   1      47.176  24.652  26.287  1.00  0.00     0.029 A 
ATOM     49  C   UNL A   1      47.026  26.039  26.717  1.00  0.00     0.049 A 
ATOM     50  H   UNL A   1      45.285  26.981  27.367  1.00  0.00     0.167 HD
ATOM     51  C   UNL A   1      41.576  28.801  28.808  1.00  0.00     0.034 A 
ATOM     52  C   UNL A   1      48.016  26.953  26.757  1.00  0.00     0.034 A 
ATOM     53  C   UNL A   1      42.578  29.832  28.922  1.00  0.00     0.049 A 
ATOM     54  C   UNL A   1      47.712  28.348  27.230  1.00  0.00     0.074 A 
ATOM     55  C   UNL A   1      42.438  31.117  29.417  1.00  0.00     0.029 A 
ATOM     56  N   UNL A   1      43.903  29.701  28.529  1.00  0.00    -0.354 N 
ATOM     57  N   UNL A   1      46.569  28.846  27.641  1.00  0.00    -0.248 NA
ATOM     58  C   UNL A   1      48.827  29.303  27.244  1.00  0.00     0.031 C 
ATOM     59  C   UNL A   1      43.660  31.781  29.267  1.00  0.00     0.029 A 
ATOM     60  C   UNL A   1      44.583  30.891  28.741  1.00  0.00     0.049 A 
ATOM     61  H   UNL A   1      44.303  28.883  28.155  1.00  0.00     0.167 HD
ATOM     62  C   UNL A   1      46.831  30.170  27.977  1.00  0.00     0.074 A 
ATOM     63  C   UNL A   1      48.242  30.392  27.725  1.00  0.00     0.031 C 
ATOM     64  C   UNL A   1      45.981  31.111  28.459  1.00  0.00     0.034 A 
BRANCH  51  65
ATOM     65  C   UNL A   1      40.157  29.119  29.208  1.00  0.00     0.023 A 
ATOM     66  C   UNL A   1      39.767  29.151  30.558  1.00  0.00     0.031 A 
ATOM     67  C   UNL A   1      39.179  29.374  28.232  1.00  0.00     0.131 A 
ATOM     68  C   UNL A   1      38.422  29.366  30.892  1.00  0.00     0.055 A 
ATOM     69  C   UNL A   1      37.857  29.659  28.573  1.00  0.00     0.041 A 
ATOM     70  F   UNL A   1      39.492  29.339  26.927  1.00  0.00    -0.206 F 
ATOM     71  C   UNL A   1      37.468  29.644  29.910  1.00  0.00     0.022 A 
BRANCH  68  72
ATOM     72  S   UNL A   1      37.914  29.161  32.621  1.00  0.00     0.124 S 
ATOM     73  O   UNL A   1      37.801  27.708  32.724  1.00  0.00    -0.237 OA
ATOM     74  O   UNL A   1      39.020  29.770  33.350  1.00  0.00    -0.237 OA
ATOM     75  O   UNL A   1      36.646  29.884  32.693  1.00  0.00    -0.744 OA
ENDBRANCH  68  72
ENDBRANCH  51  65
BRANCH  52  76
ATOM     76  C   UNL A   1      49.391  26.566  26.338  1.00  0.00     0.023 A 
ATOM     77  C   UNL A   1      49.910  26.978  25.102  1.00  0.00     0.031 A 
ATOM     78  C   UNL A   1      50.216  25.809  27.188  1.00  0.00     0.131 A 
ATOM     79  C   UNL A   1      51.220  26.623  24.744  1.00  0.00     0.055 A 
ATOM     80  C   UNL A   1      51.528  25.483  26.841  1.00  0.00     0.041 A 
ATOM     81  F   UNL A   1      49.767  25.407  28.387  1.00  0.00    -0.206 F 
ATOM     82  C   UNL A   1      52.036  25.890  25.610  1.00  0.00     0.022 A 
BRANCH  79  83
ATOM     83  S   UNL A   1      51.855  27.140  23.125  1.00  0.00     0.124 S 
ATOM     84  O   UNL A   1      52.934  26.182  22.910  1.00  0.00    -0.237 OA
ATOM     85  O   UNL A   1      50.681  26.990  22.271  1.00  0.00    -0.237 OA
ATOM     86  O   UNL A   1      52.279  28.520  23.353  1.00  0.00    -0.744 OA
ENDBRANCH  79  83
ENDBRANCH  52  76
BRANCH  64  87
ATOM     87  C   UNL A   1      46.554  32.472  28.763  1.00  0.00     0.023 A 
ATOM     88  C   UNL A   1      46.565  33.496  27.801  1.00  0.00     0.031 A 
ATOM     89  C   UNL A   1      47.056  32.757  30.045  1.00  0.00     0.131 A 
ATOM     90  C   UNL A   1      47.093  34.754  28.129  1.00  0.00     0.055 A 
ATOM     91  C   UNL A   1      47.539  34.023  30.378  1.00  0.00     0.041 A 
ATOM     92  F   UNL A   1      47.068  31.813  30.999  1.00  0.00    -0.206 F 
ATOM     93  C   UNL A   1      47.563  35.028  29.416  1.00  0.00     0.022 A 
BRANCH  90  94
ATOM     94  S   UNL A   1      47.192  36.024  26.838  1.00  0.00     0.124 S 
ATOM     95  O   UNL A   1      45.783  36.308  26.586  1.00  0.00    -0.237 OA
ATOM     96  O   UNL A   1      47.948  37.085  27.496  1.00  0.00    -0.237 OA
ATOM     97  O   UNL A   1      47.894  35.352  25.747  1.00  0.00    -0.744 OA
ENDBRANCH  90  94
ENDBRANCH  64  87
ENDBRANCH  38  39
ENDBRANCH  30  33
ENDBRANCH  28  29
ENDBRANCH  27  28
ENDBRANCH   1  27
TORSDOF 18
ENDMDL
