MODEL 1
REMARK VINA RESULT:     -12.2      0.000      0.000
REMARK SMILES O=C(NCCCCCCNC(=O)[C@@H]1[C@H](C(=O)Nc2ccccc2Cc2ccccc2)[C@H]2C=C[C@@H]1O2)c1ccc(-c2c3nc(c(-c4cc(S(=O)(=O)[O-])ccc4F)c4ccc([nH]4)c(-c4cc(S(=O)(=O)[O-])ccc4F)c4nc(c(-c5cc(S(=O)(=O)[O-])ccc5F)c5ccc2[nH]5)C=C4)C=C3)cc1
REMARK SMILES IDX 7 1 6 2 5 3 4 4 3 5 1 6 2 7 36 9 37 10 98 11 38 12 97 13
REMARK SMILES IDX 39 14 40 15 41 16 91 17 42 18 96 19 90 20 92 21 43 22 95 23
REMARK SMILES IDX 89 24 88 25 44 27 76 28 56 29 75 30 57 31 60 32 74 33 93 34
REMARK SMILES IDX 58 35 59 36 73 38 94 39 61 40 45 41 46 42 54 43 47 44 53 45
REMARK SMILES IDX 55 46 52 47 48 48 49 49 50 50 51 51 77 52 78 53 86 54 79 55
REMARK SMILES IDX 85 56 87 57 84 58 80 59 81 60 82 61 83 62 62 63 63 64 71 65
REMARK SMILES IDX 64 66 70 67 72 68 69 69 65 70 66 71 67 72 68 73 8 74 9 75
REMARK SMILES IDX 10 76 11 77 12 79 13 80 14 81 34 82 31 83 33 84 35 85 32 86
REMARK SMILES IDX 15 87 16 88 17 89 18 91 19 92 23 93 20 94 22 95 21 96 24 97
REMARK SMILES IDX 25 98 26 99 30 100 27 101 29 102 28 103
REMARK H PARENT 3 8 92 26 60 37 10 78 17 90
REMARK Flexibility Score: inf
ROOT
ATOM      1  C   UNL A   1      33.383  30.289  27.659  1.00  0.00     0.002 C 
ENDROOT
BRANCH   1   2
ATOM      2  C   UNL A   1      32.219  30.736  26.771  1.00  0.00     0.002 C 
BRANCH   2   3
ATOM      3  C   UNL A   1      31.771  32.184  26.908  1.00  0.00     0.021 C 
BRANCH   3   4
ATOM      4  C   UNL A   1      32.897  33.190  27.045  1.00  0.00     0.116 C 
BRANCH   4   5
ATOM      5  N   UNL A   1      32.520  34.357  27.816  1.00  0.00    -0.352 N 
ATOM      6  O   UNL A   1      32.619  35.715  29.626  1.00  0.00    -0.269 OA
ATOM      7  C   UNL A   1      33.099  34.785  28.987  1.00  0.00     0.251 C 
ATOM      8  H   UNL A   1      31.775  34.898  27.467  1.00  0.00     0.163 HD
BRANCH   7   9
ATOM      9  C   UNL A   1      34.302  34.073  29.471  1.00  0.00     0.039 A 
ATOM     10  C   UNL A   1      35.573  34.477  29.046  1.00  0.00     0.014 A 
ATOM     11  C   UNL A   1      34.151  32.968  30.309  1.00  0.00     0.014 A 
ATOM     12  C   UNL A   1      36.687  33.720  29.387  1.00  0.00     0.010 A 
ATOM     13  C   UNL A   1      35.282  32.259  30.721  1.00  0.00     0.010 A 
ATOM     14  C   UNL A   1      36.557  32.632  30.264  1.00  0.00    -0.014 A 
BRANCH  14  15
ATOM     15  C   UNL A   1      37.777  32.005  30.830  1.00  0.00     0.031 A 
ATOM     16  C   UNL A   1      38.552  30.964  30.075  1.00  0.00     0.074 A 
ATOM     17  C   UNL A   1      38.146  32.379  32.073  1.00  0.00     0.049 A 
ATOM     18  N   UNL A   1      39.588  30.271  30.470  1.00  0.00    -0.248 NA
ATOM     19  C   UNL A   1      38.107  30.655  28.709  1.00  0.00     0.031 C 
ATOM     20  C   UNL A   1      37.447  33.376  32.891  1.00  0.00     0.029 A 
ATOM     21  N   UNL A   1      39.181  31.969  32.871  1.00  0.00    -0.354 N 
ATOM     22  C   UNL A   1      39.908  29.424  29.415  1.00  0.00     0.074 A 
ATOM     23  C   UNL A   1      38.949  29.688  28.363  1.00  0.00     0.031 C 
ATOM     24  C   UNL A   1      38.082  33.512  34.062  1.00  0.00     0.029 A 
ATOM     25  C   UNL A   1      39.176  32.554  34.117  1.00  0.00     0.049 A 
ATOM     26  H   UNL A   1      39.863  31.319  32.582  1.00  0.00     0.167 HD
ATOM     27  C   UNL A   1      40.909  28.511  29.347  1.00  0.00     0.034 A 
ATOM     28  C   UNL A   1      39.931  32.311  35.204  1.00  0.00     0.034 A 
ATOM     29  C   UNL A   1      41.855  28.280  30.413  1.00  0.00     0.049 A 
ATOM     30  C   UNL A   1      40.995  31.253  35.109  1.00  0.00     0.074 A 
ATOM     31  C   UNL A   1      42.961  27.445  30.414  1.00  0.00     0.029 A 
ATOM     32  N   UNL A   1      41.798  28.861  31.672  1.00  0.00    -0.354 N 
ATOM     33  N   UNL A   1      41.323  30.506  34.081  1.00  0.00    -0.248 NA
ATOM     34  C   UNL A   1      41.786  31.000  36.320  1.00  0.00     0.031 C 
ATOM     35  C   UNL A   1      43.521  27.462  31.696  1.00  0.00     0.029 A 
ATOM     36  C   UNL A   1      42.813  28.362  32.475  1.00  0.00     0.049 A 
ATOM     37  H   UNL A   1      41.134  29.531  31.954  1.00  0.00     0.167 HD
ATOM     38  C   UNL A   1      42.366  29.699  34.520  1.00  0.00     0.074 A 
ATOM     39  C   UNL A   1      42.632  30.075  35.893  1.00  0.00     0.031 C 
ATOM     40  C   UNL A   1      43.041  28.731  33.851  1.00  0.00     0.034 A 
BRANCH  27  41
ATOM     41  C   UNL A   1      41.011  27.653  28.111  1.00  0.00     0.023 A 
ATOM     42  C   UNL A   1      40.508  26.342  28.065  1.00  0.00     0.031 A 
ATOM     43  C   UNL A   1      41.584  28.182  26.939  1.00  0.00     0.131 A 
ATOM     44  C   UNL A   1      40.614  25.594  26.880  1.00  0.00     0.055 A 
ATOM     45  C   UNL A   1      41.635  27.455  25.749  1.00  0.00     0.041 A 
ATOM     46  F   UNL A   1      42.096  29.423  26.931  1.00  0.00    -0.206 F 
ATOM     47  C   UNL A   1      41.153  26.150  25.716  1.00  0.00     0.022 A 
BRANCH  44  48
ATOM     48  S   UNL A   1      40.108  23.852  26.899  1.00  0.00     0.124 S 
ATOM     49  O   UNL A   1      41.136  23.235  26.064  1.00  0.00    -0.237 OA
ATOM     50  O   UNL A   1      40.158  23.523  28.319  1.00  0.00    -0.237 OA
ATOM     51  O   UNL A   1      38.770  23.876  26.310  1.00  0.00    -0.744 OA
ENDBRANCH  44  48
ENDBRANCH  27  41
BRANCH  28  52
ATOM     52  C   UNL A   1      39.657  33.018  36.487  1.00  0.00     0.023 A 
ATOM     53  C   UNL A   1      38.783  32.477  37.441  1.00  0.00     0.031 A 
ATOM     54  C   UNL A   1      40.230  34.276  36.757  1.00  0.00     0.131 A 
ATOM     55  C   UNL A   1      38.468  33.211  38.594  1.00  0.00     0.055 A 
ATOM     56  C   UNL A   1      39.964  34.972  37.935  1.00  0.00     0.041 A 
ATOM     57  F   UNL A   1      41.072  34.842  35.878  1.00  0.00    -0.206 F 
ATOM     58  C   UNL A   1      39.064  34.447  38.855  1.00  0.00     0.022 A 
BRANCH  55  59
ATOM     59  S   UNL A   1      37.171  32.577  39.692  1.00  0.00     0.124 S 
ATOM     60  O   UNL A   1      37.653  31.230  39.975  1.00  0.00    -0.237 OA
ATOM     61  O   UNL A   1      37.229  33.524  40.802  1.00  0.00    -0.237 OA
ATOM     62  O   UNL A   1      35.964  32.651  38.871  1.00  0.00    -0.744 OA
ENDBRANCH  55  59
ENDBRANCH  28  52
BRANCH  40  63
ATOM     63  C   UNL A   1      44.137  28.030  34.610  1.00  0.00     0.023 A 
ATOM     64  C   UNL A   1      43.885  26.847  35.329  1.00  0.00     0.031 A 
ATOM     65  C   UNL A   1      45.437  28.561  34.638  1.00  0.00     0.131 A 
ATOM     66  C   UNL A   1      44.908  26.263  36.088  1.00  0.00     0.055 A 
ATOM     67  C   UNL A   1      46.467  27.940  35.347  1.00  0.00     0.041 A 
ATOM     68  F   UNL A   1      45.728  29.690  33.973  1.00  0.00    -0.206 F 
ATOM     69  C   UNL A   1      46.201  26.792  36.087  1.00  0.00     0.022 A 
BRANCH  66  70
ATOM     70  S   UNL A   1      44.506  24.844  37.142  1.00  0.00     0.124 S 
ATOM     71  O   UNL A   1      45.564  23.901  36.797  1.00  0.00    -0.237 OA
ATOM     72  O   UNL A   1      44.576  25.419  38.482  1.00  0.00    -0.237 OA
ATOM     73  O   UNL A   1      43.165  24.460  36.703  1.00  0.00    -0.744 OA
ENDBRANCH  66  70
ENDBRANCH  40  63
ENDBRANCH  14  15
ENDBRANCH   7   9
ENDBRANCH   4   5
ENDBRANCH   3   4
ENDBRANCH   2   3
ENDBRANCH   1   2
BRANCH   1  74
ATOM     74  C   UNL A   1      34.443  29.332  27.078  1.00  0.00     0.021 C 
BRANCH  74  75
ATOM     75  C   UNL A   1      34.007  28.299  26.031  1.00  0.00     0.116 C 
BRANCH  75  76
ATOM     76  N   UNL A   1      33.243  27.223  26.612  1.00  0.00    -0.356 N 
ATOM     77  C   UNL A   1      31.884  27.258  26.580  1.00  0.00     0.227 C 
ATOM     78  H   UNL A   1      33.705  26.462  27.033  1.00  0.00     0.163 HD
ATOM     79  O   UNL A   1      31.343  27.410  27.667  1.00  0.00    -0.275 OA
BRANCH  77  80
ATOM     80  C   UNL A   1      31.192  27.198  25.233  1.00  0.00     0.127 C 
ATOM     81  C   UNL A   1      30.507  25.852  24.982  1.00  0.00     0.127 C 
ATOM     82  C   UNL A   1      32.029  27.320  23.935  1.00  0.00     0.155 C 
ATOM     83  C   UNL A   1      30.856  25.529  23.540  1.00  0.00     0.155 C 
ATOM     84  C   UNL A   1      31.094  27.679  22.812  1.00  0.00     0.004 C 
ATOM     85  O   UNL A   1      32.243  25.931  23.543  1.00  0.00    -0.365 OA
ATOM     86  C   UNL A   1      30.332  26.593  22.607  1.00  0.00     0.004 C 
BRANCH  81  87
ATOM     87  C   UNL A   1      30.819  24.736  25.950  1.00  0.00     0.231 C 
ATOM     88  O   UNL A   1      30.010  24.626  26.896  1.00  0.00    -0.274 OA
ATOM     89  N   UNL A   1      31.755  23.773  25.961  1.00  0.00    -0.325 N 
ATOM     90  H   UNL A   1      31.552  23.219  26.749  1.00  0.00     0.169 HD
BRANCH  89  91
ATOM     91  C   UNL A   1      32.900  23.178  25.366  1.00  0.00     0.044 A 
ATOM     92  C   UNL A   1      34.010  24.029  25.666  1.00  0.00     0.026 A 
ATOM     93  C   UNL A   1      33.171  22.040  24.554  1.00  0.00    -0.020 A 
ATOM     94  C   UNL A   1      35.321  23.779  25.273  1.00  0.00     0.002 A 
ATOM     95  C   UNL A   1      34.534  21.799  24.203  1.00  0.00     0.006 A 
ATOM     96  C   UNL A   1      35.586  22.647  24.541  1.00  0.00     0.000 A 
BRANCH  93  97
ATOM     97  C   UNL A   1      32.245  20.968  23.980  1.00  0.00     0.073 C 
BRANCH  97  98
ATOM     98  C   UNL A   1      32.527  19.457  24.098  1.00  0.00    -0.044 A 
ATOM     99  C   UNL A   1      32.640  18.874  25.379  1.00  0.00     0.004 A 
ATOM    100  C   UNL A   1      32.849  18.627  23.018  1.00  0.00     0.004 A 
ATOM    101  C   UNL A   1      32.940  17.523  25.579  1.00  0.00     0.000 A 
ATOM    102  C   UNL A   1      33.200  17.277  23.213  1.00  0.00     0.000 A 
ATOM    103  C   UNL A   1      33.225  16.720  24.488  1.00  0.00     0.000 A 
ENDBRANCH  97  98
ENDBRANCH  93  97
ENDBRANCH  89  91
ENDBRANCH  81  87
ENDBRANCH  77  80
ENDBRANCH  75  76
ENDBRANCH  74  75
ENDBRANCH   1  74
TORSDOF 20
ENDMDL
MODEL 2
REMARK VINA RESULT:     -11.9      1.880      2.193
REMARK SMILES O=C(NCCCCCCNC(=O)[C@@H]1[C@H](C(=O)Nc2ccccc2Cc2ccccc2)[C@H]2C=C[C@@H]1O2)c1ccc(-c2c3nc(c(-c4cc(S(=O)(=O)[O-])ccc4F)c4ccc([nH]4)c(-c4cc(S(=O)(=O)[O-])ccc4F)c4nc(c(-c5cc(S(=O)(=O)[O-])ccc5F)c5ccc2[nH]5)C=C4)C=C3)cc1
REMARK SMILES IDX 7 1 6 2 5 3 4 4 3 5 1 6 2 7 36 9 37 10 98 11 38 12 97 13
REMARK SMILES IDX 39 14 40 15 41 16 91 17 42 18 96 19 90 20 92 21 43 22 95 23
REMARK SMILES IDX 89 24 88 25 44 27 76 28 56 29 75 30 57 31 60 32 74 33 93 34
REMARK SMILES IDX 58 35 59 36 73 38 94 39 61 40 45 41 46 42 54 43 47 44 53 45
REMARK SMILES IDX 55 46 52 47 48 48 49 49 50 50 51 51 77 52 78 53 86 54 79 55
REMARK SMILES IDX 85 56 87 57 84 58 80 59 81 60 82 61 83 62 62 63 63 64 71 65
REMARK SMILES IDX 64 66 70 67 72 68 69 69 65 70 66 71 67 72 68 73 8 74 9 75
REMARK SMILES IDX 10 76 11 77 12 79 13 80 14 81 34 82 31 83 33 84 35 85 32 86
REMARK SMILES IDX 15 87 16 88 17 89 18 91 19 92 23 93 20 94 22 95 21 96 24 97
REMARK SMILES IDX 25 98 26 99 30 100 27 101 29 102 28 103
REMARK H PARENT 3 8 92 26 60 37 10 78 17 90
REMARK Flexibility Score: inf
ROOT
ATOM      1  C   UNL A   1      32.524  29.471  27.375  1.00  0.00     0.002 C 
ENDROOT
BRANCH   1   2
ATOM      2  C   UNL A   1      31.885  30.319  26.272  1.00  0.00     0.002 C 
BRANCH   2   3
ATOM      3  C   UNL A   1      31.648  31.789  26.590  1.00  0.00     0.021 C 
BRANCH   3   4
ATOM      4  C   UNL A   1      32.784  32.474  27.322  1.00  0.00     0.116 C 
BRANCH   4   5
ATOM      5  N   UNL A   1      32.485  33.849  27.669  1.00  0.00    -0.352 N 
ATOM      6  O   UNL A   1      32.708  35.724  28.921  1.00  0.00    -0.269 OA
ATOM      7  C   UNL A   1      33.125  34.611  28.617  1.00  0.00     0.251 C 
ATOM      8  H   UNL A   1      31.750  34.280  27.177  1.00  0.00     0.163 HD
BRANCH   7   9
ATOM      9  C   UNL A   1      34.316  34.040  29.284  1.00  0.00     0.039 A 
ATOM     10  C   UNL A   1      34.159  33.159  30.361  1.00  0.00     0.014 A 
ATOM     11  C   UNL A   1      35.588  34.429  28.863  1.00  0.00     0.014 A 
ATOM     12  C   UNL A   1      35.274  32.738  31.075  1.00  0.00     0.010 A 
ATOM     13  C   UNL A   1      36.712  33.935  29.530  1.00  0.00     0.010 A 
ATOM     14  C   UNL A   1      36.562  33.085  30.638  1.00  0.00    -0.014 A 
BRANCH  14  15
ATOM     15  C   UNL A   1      37.740  32.414  31.242  1.00  0.00     0.031 A 
ATOM     16  C   UNL A   1      38.448  31.287  30.548  1.00  0.00     0.074 A 
ATOM     17  C   UNL A   1      38.131  32.830  32.464  1.00  0.00     0.049 A 
ATOM     18  N   UNL A   1      39.438  30.552  30.984  1.00  0.00    -0.248 NA
ATOM     19  C   UNL A   1      37.986  30.933  29.198  1.00  0.00     0.031 C 
ATOM     20  C   UNL A   1      37.495  33.912  33.224  1.00  0.00     0.029 A 
ATOM     21  N   UNL A   1      39.137  32.399  33.288  1.00  0.00    -0.354 N 
ATOM     22  C   UNL A   1      39.704  29.631  29.978  1.00  0.00     0.074 A 
ATOM     23  C   UNL A   1      38.765  29.898  28.908  1.00  0.00     0.031 C 
ATOM     24  C   UNL A   1      38.136  34.071  34.389  1.00  0.00     0.029 A 
ATOM     25  C   UNL A   1      39.167  33.050  34.500  1.00  0.00     0.049 A 
ATOM     26  H   UNL A   1      39.776  31.693  33.037  1.00  0.00     0.167 HD
ATOM     27  C   UNL A   1      40.645  28.654  29.963  1.00  0.00     0.034 A 
ATOM     28  C   UNL A   1      39.904  32.819  35.603  1.00  0.00     0.034 A 
ATOM     29  C   UNL A   1      41.574  28.421  31.044  1.00  0.00     0.049 A 
ATOM     30  C   UNL A   1      40.899  31.692  35.570  1.00  0.00     0.074 A 
ATOM     31  C   UNL A   1      42.625  27.519  31.095  1.00  0.00     0.029 A 
ATOM     32  N   UNL A   1      41.553  29.073  32.270  1.00  0.00    -0.354 N 
ATOM     33  N   UNL A   1      41.181  30.872  34.585  1.00  0.00    -0.248 NA
ATOM     34  C   UNL A   1      41.671  31.455  36.795  1.00  0.00     0.031 C 
ATOM     35  C   UNL A   1      43.183  27.570  32.376  1.00  0.00     0.029 A 
ATOM     36  C   UNL A   1      42.533  28.554  33.103  1.00  0.00     0.049 A 
ATOM     37  H   UNL A   1      40.933  29.797  32.513  1.00  0.00     0.167 HD
ATOM     38  C   UNL A   1      42.170  30.025  35.071  1.00  0.00     0.074 A 
ATOM     39  C   UNL A   1      42.457  30.457  36.423  1.00  0.00     0.031 C 
ATOM     40  C   UNL A   1      42.783  28.982  34.458  1.00  0.00     0.034 A 
BRANCH  27  41
ATOM     41  C   UNL A   1      40.695  27.726  28.775  1.00  0.00     0.023 A 
ATOM     42  C   UNL A   1      41.677  27.839  27.777  1.00  0.00     0.031 A 
ATOM     43  C   UNL A   1      39.764  26.676  28.670  1.00  0.00     0.131 A 
ATOM     44  C   UNL A   1      41.687  26.935  26.700  1.00  0.00     0.055 A 
ATOM     45  C   UNL A   1      39.814  25.747  27.629  1.00  0.00     0.041 A 
ATOM     46  F   UNL A   1      38.793  26.531  29.586  1.00  0.00    -0.206 F 
ATOM     47  C   UNL A   1      40.777  25.877  26.634  1.00  0.00     0.022 A 
BRANCH  44  48
ATOM     48  S   UNL A   1      42.860  27.205  25.344  1.00  0.00     0.124 S 
ATOM     49  O   UNL A   1      42.849  25.905  24.678  1.00  0.00    -0.237 OA
ATOM     50  O   UNL A   1      42.245  28.304  24.607  1.00  0.00    -0.237 OA
ATOM     51  O   UNL A   1      44.108  27.535  26.028  1.00  0.00    -0.744 OA
ENDBRANCH  44  48
ENDBRANCH  27  41
BRANCH  28  52
ATOM     52  C   UNL A   1      39.674  33.611  36.844  1.00  0.00     0.023 A 
ATOM     53  C   UNL A   1      39.000  33.056  37.942  1.00  0.00     0.031 A 
ATOM     54  C   UNL A   1      40.084  34.955  36.932  1.00  0.00     0.131 A 
ATOM     55  C   UNL A   1      38.712  33.855  39.059  1.00  0.00     0.055 A 
ATOM     56  C   UNL A   1      39.852  35.726  38.071  1.00  0.00     0.041 A 
ATOM     57  F   UNL A   1      40.731  35.536  35.910  1.00  0.00    -0.206 F 
ATOM     58  C   UNL A   1      39.146  35.181  39.137  1.00  0.00     0.022 A 
BRANCH  55  59
ATOM     59  S   UNL A   1      37.652  33.169  40.360  1.00  0.00     0.124 S 
ATOM     60  O   UNL A   1      38.466  32.064  40.855  1.00  0.00    -0.237 OA
ATOM     61  O   UNL A   1      37.504  34.309  41.260  1.00  0.00    -0.237 OA
ATOM     62  O   UNL A   1      36.440  32.780  39.642  1.00  0.00    -0.744 OA
ENDBRANCH  55  59
ENDBRANCH  28  52
BRANCH  40  63
ATOM     63  C   UNL A   1      43.831  28.254  35.259  1.00  0.00     0.023 A 
ATOM     64  C   UNL A   1      45.177  28.661  35.240  1.00  0.00     0.031 A 
ATOM     65  C   UNL A   1      43.487  27.130  36.027  1.00  0.00     0.131 A 
ATOM     66  C   UNL A   1      46.140  27.917  35.934  1.00  0.00     0.055 A 
ATOM     67  C   UNL A   1      44.441  26.427  36.765  1.00  0.00     0.041 A 
ATOM     68  F   UNL A   1      42.217  26.697  36.075  1.00  0.00    -0.206 F 
ATOM     69  C   UNL A   1      45.777  26.813  36.711  1.00  0.00     0.022 A 
BRANCH  66  70
ATOM     70  S   UNL A   1      47.887  28.363  35.745  1.00  0.00     0.124 S 
ATOM     71  O   UNL A   1      48.197  27.817  34.428  1.00  0.00    -0.237 OA
ATOM     72  O   UNL A   1      47.851  29.818  35.839  1.00  0.00    -0.237 OA
ATOM     73  O   UNL A   1      48.537  27.686  36.867  1.00  0.00    -0.744 OA
ENDBRANCH  66  70
ENDBRANCH  40  63
ENDBRANCH  14  15
ENDBRANCH   7   9
ENDBRANCH   4   5
ENDBRANCH   3   4
ENDBRANCH   2   3
ENDBRANCH   1   2
BRANCH   1  74
ATOM     74  C   UNL A   1      33.930  28.885  27.147  1.00  0.00     0.021 C 
BRANCH  74  75
ATOM     75  C   UNL A   1      34.148  27.928  25.966  1.00  0.00     0.116 C 
BRANCH  75  76
ATOM     76  N   UNL A   1      33.674  26.596  26.251  1.00  0.00    -0.356 N 
ATOM     77  C   UNL A   1      32.443  26.205  25.825  1.00  0.00     0.227 C 
ATOM     78  H   UNL A   1      34.243  25.968  26.754  1.00  0.00     0.163 HD
ATOM     79  O   UNL A   1      31.620  26.025  26.712  1.00  0.00    -0.275 OA
BRANCH  77  80
ATOM     80  C   UNL A   1      32.189  26.119  24.334  1.00  0.00     0.127 C 
ATOM     81  C   UNL A   1      31.472  24.827  23.932  1.00  0.00     0.127 C 
ATOM     82  C   UNL A   1      33.387  26.077  23.352  1.00  0.00     0.155 C 
ATOM     83  C   UNL A   1      32.204  24.379  22.680  1.00  0.00     0.155 C 
ATOM     84  C   UNL A   1      32.880  26.445  21.984  1.00  0.00     0.004 C 
ATOM     85  O   UNL A   1      33.559  24.652  23.094  1.00  0.00    -0.365 OA
ATOM     86  C   UNL A   1      32.104  25.421  21.594  1.00  0.00     0.004 C 
BRANCH  81  87
ATOM     87  C   UNL A   1      31.355  23.755  24.987  1.00  0.00     0.231 C 
ATOM     88  O   UNL A   1      30.234  23.684  25.536  1.00  0.00    -0.274 OA
ATOM     89  N   UNL A   1      32.194  22.794  25.409  1.00  0.00    -0.325 N 
ATOM     90  H   UNL A   1      31.685  22.275  26.073  1.00  0.00     0.169 HD
BRANCH  89  91
ATOM     91  C   UNL A   1      33.472  22.177  25.345  1.00  0.00     0.044 A 
ATOM     92  C   UNL A   1      34.394  23.069  25.976  1.00  0.00     0.026 A 
ATOM     93  C   UNL A   1      34.018  20.983  24.791  1.00  0.00    -0.020 A 
ATOM     94  C   UNL A   1      35.753  22.814  26.133  1.00  0.00     0.002 A 
ATOM     95  C   UNL A   1      35.409  20.742  25.005  1.00  0.00     0.006 A 
ATOM     96  C   UNL A   1      36.263  21.633  25.650  1.00  0.00     0.000 A 
BRANCH  93  97
ATOM     97  C   UNL A   1      33.368  19.853  23.994  1.00  0.00     0.073 C 
BRANCH  97  98
ATOM     98  C   UNL A   1      33.482  18.367  24.390  1.00  0.00    -0.044 A 
ATOM     99  C   UNL A   1      32.474  17.786  25.191  1.00  0.00     0.004 A 
ATOM    100  C   UNL A   1      34.608  17.571  24.153  1.00  0.00     0.004 A 
ATOM    101  C   UNL A   1      32.521  16.461  25.635  1.00  0.00     0.000 A 
ATOM    102  C   UNL A   1      34.686  16.251  24.637  1.00  0.00     0.000 A 
ATOM    103  C   UNL A   1      33.636  15.689  25.359  1.00  0.00     0.000 A 
ENDBRANCH  97  98
ENDBRANCH  93  97
ENDBRANCH  89  91
ENDBRANCH  81  87
ENDBRANCH  77  80
ENDBRANCH  75  76
ENDBRANCH  74  75
ENDBRANCH   1  74
TORSDOF 20
ENDMDL
MODEL 3
REMARK VINA RESULT:     -11.9      6.278     11.621
REMARK SMILES O=C(NCCCCCCNC(=O)[C@@H]1[C@H](C(=O)Nc2ccccc2Cc2ccccc2)[C@H]2C=C[C@@H]1O2)c1ccc(-c2c3nc(c(-c4cc(S(=O)(=O)[O-])ccc4F)c4ccc([nH]4)c(-c4cc(S(=O)(=O)[O-])ccc4F)c4nc(c(-c5cc(S(=O)(=O)[O-])ccc5F)c5ccc2[nH]5)C=C4)C=C3)cc1
REMARK SMILES IDX 7 1 6 2 5 3 4 4 3 5 1 6 2 7 36 9 37 10 98 11 38 12 97 13
REMARK SMILES IDX 39 14 40 15 41 16 91 17 42 18 96 19 90 20 92 21 43 22 95 23
REMARK SMILES IDX 89 24 88 25 44 27 76 28 56 29 75 30 57 31 60 32 74 33 93 34
REMARK SMILES IDX 58 35 59 36 73 38 94 39 61 40 45 41 46 42 54 43 47 44 53 45
REMARK SMILES IDX 55 46 52 47 48 48 49 49 50 50 51 51 77 52 78 53 86 54 79 55
REMARK SMILES IDX 85 56 87 57 84 58 80 59 81 60 82 61 83 62 62 63 63 64 71 65
REMARK SMILES IDX 64 66 70 67 72 68 69 69 65 70 66 71 67 72 68 73 8 74 9 75
REMARK SMILES IDX 10 76 11 77 12 79 13 80 14 81 34 82 31 83 33 84 35 85 32 86
REMARK SMILES IDX 15 87 16 88 17 89 18 91 19 92 23 93 20 94 22 95 21 96 24 97
REMARK SMILES IDX 25 98 26 99 30 100 27 101 29 102 28 103
REMARK H PARENT 3 8 92 26 60 37 10 78 17 90
REMARK Flexibility Score: inf
ROOT
ATOM      1  C   UNL A   1      39.959  22.055  26.565  1.00  0.00     0.002 C 
ENDROOT
BRANCH   1   2
ATOM      2  C   UNL A   1      41.192  21.212  26.899  1.00  0.00     0.002 C 
BRANCH   2   3
ATOM      3  C   UNL A   1      41.380  19.929  26.102  1.00  0.00     0.021 C 
BRANCH   3   4
ATOM      4  C   UNL A   1      42.700  19.222  26.332  1.00  0.00     0.116 C 
BRANCH   4   5
ATOM      5  N   UNL A   1      43.445  19.005  25.108  1.00  0.00    -0.352 N 
ATOM      6  O   UNL A   1      44.654  19.685  23.317  1.00  0.00    -0.269 OA
ATOM      7  C   UNL A   1      44.166  19.946  24.412  1.00  0.00     0.251 C 
ATOM      8  H   UNL A   1      43.434  18.093  24.738  1.00  0.00     0.163 HD
BRANCH   7   9
ATOM      9  C   UNL A   1      44.311  21.293  25.005  1.00  0.00     0.039 A 
ATOM     10  C   UNL A   1      45.026  21.458  26.198  1.00  0.00     0.014 A 
ATOM     11  C   UNL A   1      43.686  22.380  24.394  1.00  0.00     0.014 A 
ATOM     12  C   UNL A   1      45.039  22.697  26.826  1.00  0.00     0.010 A 
ATOM     13  C   UNL A   1      43.774  23.643  24.985  1.00  0.00     0.010 A 
ATOM     14  C   UNL A   1      44.453  23.810  26.203  1.00  0.00    -0.014 A 
BRANCH  14  15
ATOM     15  C   UNL A   1      44.707  25.166  26.749  1.00  0.00     0.031 A 
ATOM     16  C   UNL A   1      43.615  25.982  27.376  1.00  0.00     0.074 A 
ATOM     17  C   UNL A   1      45.957  25.659  26.626  1.00  0.00     0.049 A 
ATOM     18  N   UNL A   1      43.666  27.210  27.823  1.00  0.00    -0.248 NA
ATOM     19  C   UNL A   1      42.296  25.347  27.513  1.00  0.00     0.031 C 
ATOM     20  C   UNL A   1      47.085  24.943  26.019  1.00  0.00     0.029 A 
ATOM     21  N   UNL A   1      46.493  26.866  26.988  1.00  0.00    -0.354 N 
ATOM     22  C   UNL A   1      42.384  27.508  28.272  1.00  0.00     0.074 A 
ATOM     23  C   UNL A   1      41.575  26.331  28.038  1.00  0.00     0.031 C 
ATOM     24  C   UNL A   1      48.178  25.715  26.068  1.00  0.00     0.029 A 
ATOM     25  C   UNL A   1      47.813  27.009  26.625  1.00  0.00     0.049 A 
ATOM     26  H   UNL A   1      45.984  27.564  27.462  1.00  0.00     0.167 HD
ATOM     27  C   UNL A   1      41.937  28.665  28.823  1.00  0.00     0.034 A 
ATOM     28  C   UNL A   1      48.629  28.078  26.683  1.00  0.00     0.034 A 
ATOM     29  C   UNL A   1      42.775  29.818  29.053  1.00  0.00     0.049 A 
ATOM     30  C   UNL A   1      48.083  29.360  27.249  1.00  0.00     0.074 A 
ATOM     31  C   UNL A   1      42.447  31.007  29.685  1.00  0.00     0.029 A 
ATOM     32  N   UNL A   1      44.095  29.942  28.640  1.00  0.00    -0.354 N 
ATOM     33  N   UNL A   1      46.885  29.604  27.727  1.00  0.00    -0.248 NA
ATOM     34  C   UNL A   1      48.993  30.511  27.277  1.00  0.00     0.031 C 
ATOM     35  C   UNL A   1      43.540  31.874  29.582  1.00  0.00     0.029 A 
ATOM     36  C   UNL A   1      44.577  31.205  28.952  1.00  0.00     0.049 A 
ATOM     37  H   UNL A   1      44.614  29.236  28.191  1.00  0.00     0.167 HD
ATOM     38  C   UNL A   1      46.902  30.936  28.122  1.00  0.00     0.074 A 
ATOM     39  C   UNL A   1      48.237  31.431  27.856  1.00  0.00     0.031 C 
ATOM     40  C   UNL A   1      45.903  31.686  28.652  1.00  0.00     0.034 A 
BRANCH  27  41
ATOM     41  C   UNL A   1      40.473  28.773  29.170  1.00  0.00     0.023 A 
ATOM     42  C   UNL A   1      40.012  28.718  30.496  1.00  0.00     0.031 A 
ATOM     43  C   UNL A   1      39.527  28.984  28.150  1.00  0.00     0.131 A 
ATOM     44  C   UNL A   1      38.638  28.842  30.763  1.00  0.00     0.055 A 
ATOM     45  C   UNL A   1      38.171  29.164  28.426  1.00  0.00     0.041 A 
ATOM     46  F   UNL A   1      39.910  29.028  26.864  1.00  0.00    -0.206 F 
ATOM     47  C   UNL A   1      37.719  29.088  29.740  1.00  0.00     0.022 A 
BRANCH  44  48
ATOM     48  S   UNL A   1      38.054  28.601  32.464  1.00  0.00     0.124 S 
ATOM     49  O   UNL A   1      39.061  29.331  33.230  1.00  0.00    -0.237 OA
ATOM     50  O   UNL A   1      36.723  29.198  32.429  1.00  0.00    -0.237 OA
ATOM     51  O   UNL A   1      38.083  27.150  32.636  1.00  0.00    -0.744 OA
ENDBRANCH  44  48
ENDBRANCH  27  41
BRANCH  28  52
ATOM     52  C   UNL A   1      50.008  28.006  26.122  1.00  0.00     0.023 A 
ATOM     53  C   UNL A   1      50.270  28.375  24.795  1.00  0.00     0.031 A 
ATOM     54  C   UNL A   1      51.080  27.521  26.896  1.00  0.00     0.131 A 
ATOM     55  C   UNL A   1      51.558  28.204  24.265  1.00  0.00     0.055 A 
ATOM     56  C   UNL A   1      52.372  27.415  26.384  1.00  0.00     0.041 A 
ATOM     57  F   UNL A   1      50.885  27.153  28.172  1.00  0.00    -0.206 F 
ATOM     58  C   UNL A   1      52.614  27.741  25.055  1.00  0.00     0.022 A 
BRANCH  55  59
ATOM     59  S   UNL A   1      51.806  28.482  22.491  1.00  0.00     0.124 S 
ATOM     60  O   UNL A   1      52.807  29.543  22.493  1.00  0.00    -0.237 OA
ATOM     61  O   UNL A   1      52.263  27.170  22.042  1.00  0.00    -0.237 OA
ATOM     62  O   UNL A   1      50.479  28.875  22.020  1.00  0.00    -0.744 OA
ENDBRANCH  55  59
ENDBRANCH  28  52
BRANCH  40  63
ATOM     63  C   UNL A   1      46.241  33.116  28.983  1.00  0.00     0.023 A 
ATOM     64  C   UNL A   1      46.015  34.152  28.059  1.00  0.00     0.031 A 
ATOM     65  C   UNL A   1      46.817  33.444  30.222  1.00  0.00     0.131 A 
ATOM     66  C   UNL A   1      46.411  35.460  28.368  1.00  0.00     0.055 A 
ATOM     67  C   UNL A   1      47.154  34.758  30.547  1.00  0.00     0.041 A 
ATOM     68  F   UNL A   1      47.058  32.491  31.136  1.00  0.00    -0.206 F 
ATOM     69  C   UNL A   1      46.963  35.772  29.613  1.00  0.00     0.022 A 
BRANCH  66  70
ATOM     70  S   UNL A   1      46.269  36.736  27.089  1.00  0.00     0.124 S 
ATOM     71  O   UNL A   1      46.935  37.872  27.719  1.00  0.00    -0.237 OA
ATOM     72  O   UNL A   1      46.972  36.131  25.962  1.00  0.00    -0.237 OA
ATOM     73  O   UNL A   1      44.826  36.884  26.911  1.00  0.00    -0.744 OA
ENDBRANCH  66  70
ENDBRANCH  40  63
ENDBRANCH  14  15
ENDBRANCH   7   9
ENDBRANCH   4   5
ENDBRANCH   3   4
ENDBRANCH   2   3
ENDBRANCH   1   2
BRANCH   1  74
ATOM     74  C   UNL A   1      38.818  21.421  25.745  1.00  0.00     0.021 C 
BRANCH  74  75
ATOM     75  C   UNL A   1      37.640  22.304  25.316  1.00  0.00     0.116 C 
BRANCH  75  76
ATOM     76  N   UNL A   1      36.679  22.485  26.376  1.00  0.00    -0.356 N 
ATOM     77  C   UNL A   1      35.368  22.688  26.080  1.00  0.00     0.227 C 
ATOM     78  H   UNL A   1      36.973  22.461  27.316  1.00  0.00     0.163 HD
ATOM     79  O   UNL A   1      34.945  23.806  26.338  1.00  0.00    -0.275 OA
BRANCH  77  80
ATOM     80  C   UNL A   1      34.601  21.574  25.396  1.00  0.00     0.127 C 
ATOM     81  C   UNL A   1      34.216  21.922  23.955  1.00  0.00     0.127 C 
ATOM     82  C   UNL A   1      33.218  21.145  25.947  1.00  0.00     0.155 C 
ATOM     83  C   UNL A   1      32.782  21.439  23.835  1.00  0.00     0.155 C 
ATOM     84  C   UNL A   1      32.902  19.780  25.397  1.00  0.00     0.004 C 
ATOM     85  O   UNL A   1      32.280  21.887  25.111  1.00  0.00    -0.365 OA
ATOM     86  C   UNL A   1      32.689  19.954  24.083  1.00  0.00     0.004 C 
BRANCH  81  87
ATOM     87  C   UNL A   1      34.418  23.353  23.522  1.00  0.00     0.231 C 
ATOM     88  O   UNL A   1      35.435  23.548  22.822  1.00  0.00    -0.274 OA
ATOM     89  N   UNL A   1      33.676  24.463  23.667  1.00  0.00    -0.325 N 
ATOM     90  H   UNL A   1      34.156  25.166  23.172  1.00  0.00     0.169 HD
BRANCH  89  91
ATOM     91  C   UNL A   1      32.522  25.098  24.202  1.00  0.00     0.044 A 
ATOM     92  C   UNL A   1      31.426  24.747  23.353  1.00  0.00     0.026 A 
ATOM     93  C   UNL A   1      32.234  25.983  25.281  1.00  0.00    -0.020 A 
ATOM     94  C   UNL A   1      30.113  25.159  23.553  1.00  0.00     0.002 A 
ATOM     95  C   UNL A   1      30.868  26.352  25.473  1.00  0.00     0.006 A 
ATOM     96  C   UNL A   1      29.830  25.963  24.630  1.00  0.00     0.000 A 
BRANCH  93  97
ATOM     97  C   UNL A   1      33.143  26.623  26.329  1.00  0.00     0.073 C 
BRANCH  97  98
ATOM     98  C   UNL A   1      33.183  28.140  26.598  1.00  0.00    -0.044 A 
ATOM     99  C   UNL A   1      34.371  28.724  27.091  1.00  0.00     0.004 A 
ATOM    100  C   UNL A   1      32.064  28.981  26.548  1.00  0.00     0.004 A 
ATOM    101  C   UNL A   1      34.481  30.081  27.406  1.00  0.00     0.000 A 
ATOM    102  C   UNL A   1      32.153  30.339  26.911  1.00  0.00     0.000 A 
ATOM    103  C   UNL A   1      33.363  30.894  27.318  1.00  0.00     0.000 A 
ENDBRANCH  97  98
ENDBRANCH  93  97
ENDBRANCH  89  91
ENDBRANCH  81  87
ENDBRANCH  77  80
ENDBRANCH  75  76
ENDBRANCH  74  75
ENDBRANCH   1  74
TORSDOF 20
ENDMDL
