MODEL 1
REMARK VINA RESULT:     -11.2      0.000      0.000
REMARK SMILES Cc1cccc(/C=C(/F)C(=O)NCCCCCCNC(=O)c2ccc(-c3c4nc(c(-c5cc(S(=O)(=O)[O-])ccc5F)c5ccc([nH]5)c(-c5cc(S(=O)(=O)[O-])ccc5F)c5nc(c(-c6cc(S(=O)(=O)[O-])ccc6F)c6ccc3[nH]6)C=C5)C=C4)cc2)c1C
REMARK SMILES IDX 16 1 15 2 14 3 13 4 12 5 10 6 11 7 8 9 7 10 9 11 6 12 1 13
REMARK SMILES IDX 2 14 3 15 85 16 4 17 86 18 5 19 17 20 18 21 19 22 20 23
REMARK SMILES IDX 21 25 22 26 23 27 84 28 24 29 83 30 25 31 26 32 27 33 77 34
REMARK SMILES IDX 28 35 82 36 76 37 78 38 29 39 81 40 75 41 74 42 30 44 62 45
REMARK SMILES IDX 42 46 61 47 43 48 46 49 60 50 79 51 44 52 45 53 59 55 80 56
REMARK SMILES IDX 47 57 31 58 32 59 40 60 33 61 39 62 41 63 38 64 34 65 35 66
REMARK SMILES IDX 36 67 37 68 63 69 64 70 72 71 65 72 71 73 73 74 70 75 66 76
REMARK SMILES IDX 67 77 68 78 69 79 48 80 49 81 57 82 50 83 56 84 58 85 55 86
REMARK SMILES IDX 51 87 52 88 53 89 54 90
REMARK H PARENT 12 8 19 24 78 43 46 54
REMARK Flexibility Score: inf
ROOT
ATOM      1  C   UNL A   1      32.349  26.934  25.538  1.00  0.00     0.002 C 
ENDROOT
BRANCH   1   2
ATOM      2  C   UNL A   1      33.617  26.868  24.682  1.00  0.00     0.002 C 
BRANCH   2   3
ATOM      3  C   UNL A   1      33.432  26.249  23.285  1.00  0.00     0.021 C 
BRANCH   3   4
ATOM      4  C   UNL A   1      31.975  25.968  22.904  1.00  0.00     0.116 C 
BRANCH   4   5
ATOM      5  N   UNL A   1      31.871  24.597  22.439  1.00  0.00    -0.350 N 
ATOM      6  C   UNL A   1      32.409  23.495  23.037  1.00  0.00     0.280 C 
ATOM      7  O   UNL A   1      33.039  22.683  22.363  1.00  0.00    -0.267 OA
ATOM      8  H   UNL A   1      31.363  24.447  21.609  1.00  0.00     0.163 HD
BRANCH   6   9
ATOM      9  C   UNL A   1      31.990  23.229  24.434  1.00  0.00     0.188 C 
ATOM     10  C   UNL A   1      32.812  22.828  25.415  1.00  0.00     0.053 C 
ATOM     11  F   UNL A   1      30.667  23.328  24.688  1.00  0.00    -0.201 F 
BRANCH  10  12
ATOM     12  C   UNL A   1      34.276  22.610  25.404  1.00  0.00    -0.019 A 
ATOM     13  C   UNL A   1      37.148  20.134  24.761  1.00  0.00     0.044 C 
ATOM     14  C   UNL A   1      36.375  21.370  25.145  1.00  0.00    -0.048 A 
ATOM     15  C   UNL A   1      37.092  22.526  25.482  1.00  0.00     0.004 A 
ATOM     16  C   UNL A   1      34.953  21.387  25.165  1.00  0.00    -0.041 A 
ATOM     17  C   UNL A   1      36.427  23.703  25.792  1.00  0.00     0.001 A 
ATOM     18  C   UNL A   1      34.224  20.092  24.903  1.00  0.00     0.045 C 
ATOM     19  C   UNL A   1      35.036  23.748  25.737  1.00  0.00     0.008 A 
ENDBRANCH  10  12
ENDBRANCH   6   9
ENDBRANCH   4   5
ENDBRANCH   3   4
ENDBRANCH   2   3
ENDBRANCH   1   2
BRANCH   1  20
ATOM     20  C   UNL A   1      31.838  28.347  25.822  1.00  0.00     0.021 C 
BRANCH  20  21
ATOM     21  C   UNL A   1      32.825  29.464  25.498  1.00  0.00     0.116 C 
BRANCH  21  22
ATOM     22  N   UNL A   1      32.351  30.769  25.927  1.00  0.00    -0.352 N 
ATOM     23  C   UNL A   1      32.863  31.581  26.909  1.00  0.00     0.251 C 
ATOM     24  H   UNL A   1      31.561  31.116  25.453  1.00  0.00     0.163 HD
ATOM     25  O   UNL A   1      32.250  32.592  27.252  1.00  0.00    -0.269 OA
BRANCH  23  26
ATOM     26  C   UNL A   1      34.133  31.215  27.573  1.00  0.00     0.039 A 
ATOM     27  C   UNL A   1      35.065  32.220  27.849  1.00  0.00     0.014 A 
ATOM     28  C   UNL A   1      34.394  29.893  27.944  1.00  0.00     0.014 A 
ATOM     29  C   UNL A   1      36.230  31.907  28.552  1.00  0.00     0.010 A 
ATOM     30  C   UNL A   1      35.526  29.595  28.699  1.00  0.00     0.010 A 
ATOM     31  C   UNL A   1      36.455  30.599  29.013  1.00  0.00    -0.014 A 
BRANCH  31  32
ATOM     32  C   UNL A   1      37.658  30.263  29.818  1.00  0.00     0.031 A 
ATOM     33  C   UNL A   1      38.714  29.354  29.251  1.00  0.00     0.074 A 
ATOM     34  C   UNL A   1      37.770  30.726  31.079  1.00  0.00     0.049 A 
ATOM     35  N   UNL A   1      39.794  28.883  29.820  1.00  0.00    -0.248 NA
ATOM     36  C   UNL A   1      38.510  28.892  27.870  1.00  0.00     0.031 C 
ATOM     37  C   UNL A   1      36.792  31.583  31.754  1.00  0.00     0.029 A 
ATOM     38  N   UNL A   1      38.748  30.533  32.023  1.00  0.00    -0.354 N 
ATOM     39  C   UNL A   1      40.392  28.059  28.873  1.00  0.00     0.074 A 
ATOM     40  C   UNL A   1      39.522  28.053  27.715  1.00  0.00     0.031 C 
ATOM     41  C   UNL A   1      37.229  31.855  32.995  1.00  0.00     0.029 A 
ATOM     42  C   UNL A   1      38.493  31.160  33.220  1.00  0.00     0.049 A 
ATOM     43  H   UNL A   1      39.556  29.995  31.858  1.00  0.00     0.167 HD
ATOM     44  C   UNL A   1      41.569  27.387  28.954  1.00  0.00     0.034 A 
ATOM     45  C   UNL A   1      39.193  31.167  34.373  1.00  0.00     0.034 A 
ATOM     46  C   UNL A   1      42.433  27.415  30.108  1.00  0.00     0.049 A 
ATOM     47  C   UNL A   1      40.488  30.399  34.444  1.00  0.00     0.074 A 
ATOM     48  C   UNL A   1      43.674  26.823  30.272  1.00  0.00     0.029 A 
ATOM     49  N   UNL A   1      42.144  28.065  31.301  1.00  0.00    -0.354 N 
ATOM     50  N   UNL A   1      41.065  29.666  33.521  1.00  0.00    -0.248 NA
ATOM     51  C   UNL A   1      41.230  30.467  35.711  1.00  0.00     0.031 C 
ATOM     52  C   UNL A   1      44.106  27.064  31.580  1.00  0.00     0.029 A 
ATOM     53  C   UNL A   1      43.167  27.862  32.214  1.00  0.00     0.049 A 
ATOM     54  H   UNL A   1      41.330  28.591  31.474  1.00  0.00     0.167 HD
ATOM     55  C   UNL A   1      42.251  29.207  34.089  1.00  0.00     0.074 A 
ATOM     56  C   UNL A   1      42.312  29.759  35.427  1.00  0.00     0.031 C 
ATOM     57  C   UNL A   1      43.206  28.406  33.552  1.00  0.00     0.034 A 
BRANCH  44  58
ATOM     58  C   UNL A   1      41.969  26.549  27.763  1.00  0.00     0.023 A 
ATOM     59  C   UNL A   1      41.732  25.163  27.722  1.00  0.00     0.031 A 
ATOM     60  C   UNL A   1      42.623  27.137  26.666  1.00  0.00     0.131 A 
ATOM     61  C   UNL A   1      42.212  24.402  26.646  1.00  0.00     0.055 A 
ATOM     62  C   UNL A   1      43.028  26.386  25.561  1.00  0.00     0.041 A 
ATOM     63  F   UNL A   1      42.894  28.452  26.656  1.00  0.00    -0.206 F 
ATOM     64  C   UNL A   1      42.837  25.007  25.553  1.00  0.00     0.022 A 
BRANCH  61  65
ATOM     65  S   UNL A   1      42.131  22.594  26.761  1.00  0.00     0.124 S 
ATOM     66  O   UNL A   1      41.004  22.408  27.673  1.00  0.00    -0.237 OA
ATOM     67  O   UNL A   1      41.903  22.198  25.376  1.00  0.00    -0.237 OA
ATOM     68  O   UNL A   1      43.434  22.226  27.310  1.00  0.00    -0.744 OA
ENDBRANCH  61  65
ENDBRANCH  44  58
BRANCH  45  69
ATOM     69  C   UNL A   1      38.685  31.909  35.561  1.00  0.00     0.023 A 
ATOM     70  C   UNL A   1      38.151  31.227  36.665  1.00  0.00     0.031 A 
ATOM     71  C   UNL A   1      38.687  33.315  35.590  1.00  0.00     0.131 A 
ATOM     72  C   UNL A   1      37.599  31.951  37.734  1.00  0.00     0.055 A 
ATOM     73  C   UNL A   1      38.182  34.030  36.677  1.00  0.00     0.041 A 
ATOM     74  F   UNL A   1      39.193  34.014  34.562  1.00  0.00    -0.206 F 
ATOM     75  C   UNL A   1      37.621  33.348  37.752  1.00  0.00     0.022 A 
BRANCH  72  76
ATOM     76  S   UNL A   1      36.780  31.038  39.070  1.00  0.00     0.124 S 
ATOM     77  O   UNL A   1      36.654  29.706  38.487  1.00  0.00    -0.237 OA
ATOM     78  O   UNL A   1      37.738  31.175  40.161  1.00  0.00    -0.237 OA
ATOM     79  O   UNL A   1      35.523  31.760  39.253  1.00  0.00    -0.744 OA
ENDBRANCH  72  76
ENDBRANCH  45  69
BRANCH  57  80
ATOM     80  C   UNL A   1      44.413  28.115  34.408  1.00  0.00     0.023 A 
ATOM     81  C   UNL A   1      44.469  26.986  35.244  1.00  0.00     0.031 A 
ATOM     82  C   UNL A   1      45.515  28.988  34.397  1.00  0.00     0.131 A 
ATOM     83  C   UNL A   1      45.582  26.786  36.074  1.00  0.00     0.055 A 
ATOM     84  C   UNL A   1      46.643  28.755  35.183  1.00  0.00     0.041 A 
ATOM     85  F   UNL A   1      45.511  30.081  33.617  1.00  0.00    -0.206 F 
ATOM     86  C   UNL A   1      46.676  27.656  36.037  1.00  0.00     0.022 A 
BRANCH  83  87
ATOM     87  S   UNL A   1      45.550  25.416  37.261  1.00  0.00     0.124 S 
ATOM     88  O   UNL A   1      45.180  24.289  36.412  1.00  0.00    -0.237 OA
ATOM     89  O   UNL A   1      46.918  25.409  37.769  1.00  0.00    -0.237 OA
ATOM     90  O   UNL A   1      44.532  25.825  38.228  1.00  0.00    -0.744 OA
ENDBRANCH  83  87
ENDBRANCH  57  80
ENDBRANCH  31  32
ENDBRANCH  23  26
ENDBRANCH  21  22
ENDBRANCH  20  21
ENDBRANCH   1  20
TORSDOF 17
ENDMDL
MODEL 2
REMARK VINA RESULT:     -11.2      2.380      3.287
REMARK SMILES Cc1cccc(/C=C(/F)C(=O)NCCCCCCNC(=O)c2ccc(-c3c4nc(c(-c5cc(S(=O)(=O)[O-])ccc5F)c5ccc([nH]5)c(-c5cc(S(=O)(=O)[O-])ccc5F)c5nc(c(-c6cc(S(=O)(=O)[O-])ccc6F)c6ccc3[nH]6)C=C5)C=C4)cc2)c1C
REMARK SMILES IDX 16 1 15 2 14 3 13 4 12 5 10 6 11 7 8 9 7 10 9 11 6 12 1 13
REMARK SMILES IDX 2 14 3 15 85 16 4 17 86 18 5 19 17 20 18 21 19 22 20 23
REMARK SMILES IDX 21 25 22 26 23 27 84 28 24 29 83 30 25 31 26 32 27 33 77 34
REMARK SMILES IDX 28 35 82 36 76 37 78 38 29 39 81 40 75 41 74 42 30 44 62 45
REMARK SMILES IDX 42 46 61 47 43 48 46 49 60 50 79 51 44 52 45 53 59 55 80 56
REMARK SMILES IDX 47 57 31 58 32 59 40 60 33 61 39 62 41 63 38 64 34 65 35 66
REMARK SMILES IDX 36 67 37 68 63 69 64 70 72 71 65 72 71 73 73 74 70 75 66 76
REMARK SMILES IDX 67 77 68 78 69 79 48 80 49 81 57 82 50 83 56 84 58 85 55 86
REMARK SMILES IDX 51 87 52 88 53 89 54 90
REMARK H PARENT 12 8 19 24 78 43 46 54
REMARK Flexibility Score: inf
ROOT
ATOM      1  C   UNL A   1      31.959  30.369  26.182  1.00  0.00     0.002 C 
ENDROOT
BRANCH   1   2
ATOM      2  C   UNL A   1      31.146  29.998  24.938  1.00  0.00     0.002 C 
BRANCH   2   3
ATOM      3  C   UNL A   1      31.344  28.558  24.433  1.00  0.00     0.021 C 
BRANCH   3   4
ATOM      4  C   UNL A   1      30.866  28.318  22.997  1.00  0.00     0.116 C 
BRANCH   4   5
ATOM      5  N   UNL A   1      32.026  28.169  22.139  1.00  0.00    -0.350 N 
ATOM      6  C   UNL A   1      32.781  27.043  21.982  1.00  0.00     0.280 C 
ATOM      7  O   UNL A   1      34.006  27.119  22.040  1.00  0.00    -0.267 OA
ATOM      8  H   UNL A   1      32.297  28.960  21.617  1.00  0.00     0.163 HD
BRANCH   6   9
ATOM      9  C   UNL A   1      32.070  25.830  21.513  1.00  0.00     0.188 C 
ATOM     10  C   UNL A   1      31.792  24.763  22.278  1.00  0.00     0.053 C 
ATOM     11  F   UNL A   1      31.763  25.790  20.198  1.00  0.00    -0.201 F 
BRANCH  10  12
ATOM     12  C   UNL A   1      32.042  24.530  23.718  1.00  0.00    -0.019 A 
ATOM     13  C   UNL A   1      34.590  23.500  26.408  1.00  0.00     0.044 C 
ATOM     14  C   UNL A   1      33.310  23.905  25.719  1.00  0.00    -0.048 A 
ATOM     15  C   UNL A   1      32.186  24.178  26.510  1.00  0.00     0.004 A 
ATOM     16  C   UNL A   1      33.227  24.019  24.304  1.00  0.00    -0.041 A 
ATOM     17  C   UNL A   1      31.002  24.604  25.928  1.00  0.00     0.001 A 
ATOM     18  C   UNL A   1      34.427  23.609  23.487  1.00  0.00     0.045 C 
ATOM     19  C   UNL A   1      30.937  24.794  24.550  1.00  0.00     0.008 A 
ENDBRANCH  10  12
ENDBRANCH   6   9
ENDBRANCH   4   5
ENDBRANCH   3   4
ENDBRANCH   2   3
ENDBRANCH   1   2
BRANCH   1  20
ATOM     20  C   UNL A   1      31.641  31.744  26.771  1.00  0.00     0.021 C 
BRANCH  20  21
ATOM     21  C   UNL A   1      32.833  32.472  27.384  1.00  0.00     0.116 C 
BRANCH  21  22
ATOM     22  N   UNL A   1      32.562  33.878  27.633  1.00  0.00    -0.352 N 
ATOM     23  C   UNL A   1      33.148  34.709  28.555  1.00  0.00     0.251 C 
ATOM     24  H   UNL A   1      31.867  34.286  27.067  1.00  0.00     0.163 HD
ATOM     25  O   UNL A   1      32.694  35.838  28.739  1.00  0.00    -0.269 OA
BRANCH  23  26
ATOM     26  C   UNL A   1      34.301  34.227  29.346  1.00  0.00     0.039 A 
ATOM     27  C   UNL A   1      34.064  33.423  30.465  1.00  0.00     0.014 A 
ATOM     28  C   UNL A   1      35.610  34.546  28.974  1.00  0.00     0.014 A 
ATOM     29  C   UNL A   1      35.142  32.888  31.173  1.00  0.00     0.010 A 
ATOM     30  C   UNL A   1      36.683  33.961  29.643  1.00  0.00     0.010 A 
ATOM     31  C   UNL A   1      36.460  33.124  30.749  1.00  0.00    -0.014 A 
BRANCH  31  32
ATOM     32  C   UNL A   1      37.617  32.511  31.452  1.00  0.00     0.031 A 
ATOM     33  C   UNL A   1      38.358  31.363  30.823  1.00  0.00     0.074 A 
ATOM     34  C   UNL A   1      37.958  32.946  32.681  1.00  0.00     0.049 A 
ATOM     35  N   UNL A   1      39.340  30.647  31.308  1.00  0.00    -0.248 NA
ATOM     36  C   UNL A   1      37.916  30.951  29.482  1.00  0.00     0.031 C 
ATOM     37  C   UNL A   1      37.289  34.024  33.413  1.00  0.00     0.029 A 
ATOM     38  N   UNL A   1      38.946  32.527  33.539  1.00  0.00    -0.354 N 
ATOM     39  C   UNL A   1      39.625  29.691  30.339  1.00  0.00     0.074 A 
ATOM     40  C   UNL A   1      38.673  29.887  29.265  1.00  0.00     0.031 C 
ATOM     41  C   UNL A   1      37.896  34.193  34.599  1.00  0.00     0.029 A 
ATOM     42  C   UNL A   1      38.968  33.211  34.733  1.00  0.00     0.049 A 
ATOM     43  H   UNL A   1      39.578  31.805  33.320  1.00  0.00     0.167 HD
ATOM     44  C   UNL A   1      40.604  28.750  30.336  1.00  0.00     0.034 A 
ATOM     45  C   UNL A   1      39.755  33.057  35.816  1.00  0.00     0.034 A 
ATOM     46  C   UNL A   1      41.555  28.577  31.406  1.00  0.00     0.049 A 
ATOM     47  C   UNL A   1      40.824  31.994  35.796  1.00  0.00     0.074 A 
ATOM     48  C   UNL A   1      42.624  27.699  31.477  1.00  0.00     0.029 A 
ATOM     49  N   UNL A   1      41.550  29.291  32.597  1.00  0.00    -0.354 N 
ATOM     50  N   UNL A   1      41.113  31.132  34.850  1.00  0.00    -0.248 NA
ATOM     51  C   UNL A   1      41.678  31.891  36.988  1.00  0.00     0.031 C 
ATOM     52  C   UNL A   1      43.226  27.840  32.732  1.00  0.00     0.029 A 
ATOM     53  C   UNL A   1      42.576  28.852  33.421  1.00  0.00     0.049 A 
ATOM     54  H   UNL A   1      40.910  30.004  32.825  1.00  0.00     0.167 HD
ATOM     55  C   UNL A   1      42.200  30.401  35.323  1.00  0.00     0.074 A 
ATOM     56  C   UNL A   1      42.522  30.935  36.631  1.00  0.00     0.031 C 
ATOM     57  C   UNL A   1      42.874  29.384  34.730  1.00  0.00     0.034 A 
BRANCH  44  58
ATOM     58  C   UNL A   1      40.672  27.827  29.143  1.00  0.00     0.023 A 
ATOM     59  C   UNL A   1      41.607  28.020  28.111  1.00  0.00     0.031 A 
ATOM     60  C   UNL A   1      39.770  26.755  29.021  1.00  0.00     0.131 A 
ATOM     61  C   UNL A   1      41.570  27.205  26.970  1.00  0.00     0.055 A 
ATOM     62  C   UNL A   1      39.790  25.899  27.918  1.00  0.00     0.041 A 
ATOM     63  F   UNL A   1      38.841  26.532  29.964  1.00  0.00    -0.206 F 
ATOM     64  C   UNL A   1      40.684  26.130  26.877  1.00  0.00     0.022 A 
BRANCH  61  65
ATOM     65  S   UNL A   1      42.604  27.658  25.551  1.00  0.00     0.124 S 
ATOM     66  O   UNL A   1      42.492  26.466  24.713  1.00  0.00    -0.237 OA
ATOM     67  O   UNL A   1      41.943  28.856  25.046  1.00  0.00    -0.237 OA
ATOM     68  O   UNL A   1      43.923  27.873  26.142  1.00  0.00    -0.744 OA
ENDBRANCH  61  65
ENDBRANCH  44  58
BRANCH  45  69
ATOM     69  C   UNL A   1      39.560  33.914  37.020  1.00  0.00     0.023 A 
ATOM     70  C   UNL A   1      38.932  33.413  38.170  1.00  0.00     0.031 A 
ATOM     71  C   UNL A   1      39.962  35.261  37.020  1.00  0.00     0.131 A 
ATOM     72  C   UNL A   1      38.682  34.264  39.258  1.00  0.00     0.055 A 
ATOM     73  C   UNL A   1      39.755  36.092  38.123  1.00  0.00     0.041 A 
ATOM     74  F   UNL A   1      40.573  35.787  35.946  1.00  0.00    -0.206 F 
ATOM     75  C   UNL A   1      39.099  35.598  39.246  1.00  0.00     0.022 A 
BRANCH  72  76
ATOM     76  S   UNL A   1      37.731  33.623  40.662  1.00  0.00     0.124 S 
ATOM     77  O   UNL A   1      36.605  32.981  39.992  1.00  0.00    -0.237 OA
ATOM     78  O   UNL A   1      38.694  32.729  41.296  1.00  0.00    -0.237 OA
ATOM     79  O   UNL A   1      37.400  34.823  41.426  1.00  0.00    -0.744 OA
ENDBRANCH  72  76
ENDBRANCH  45  69
BRANCH  57  80
ATOM     80  C   UNL A   1      44.049  28.813  35.483  1.00  0.00     0.023 A 
ATOM     81  C   UNL A   1      43.904  27.730  36.367  1.00  0.00     0.031 A 
ATOM     82  C   UNL A   1      45.330  29.372  35.323  1.00  0.00     0.131 A 
ATOM     83  C   UNL A   1      45.010  27.271  37.098  1.00  0.00     0.055 A 
ATOM     84  C   UNL A   1      46.438  28.877  36.012  1.00  0.00     0.041 A 
ATOM     85  F   UNL A   1      45.523  30.409  34.493  1.00  0.00    -0.206 F 
ATOM     86  C   UNL A   1      46.279  27.828  36.914  1.00  0.00     0.022 A 
BRANCH  83  87
ATOM     87  S   UNL A   1      44.755  25.987  38.351  1.00  0.00     0.124 S 
ATOM     88  O   UNL A   1      46.061  25.338  38.391  1.00  0.00    -0.237 OA
ATOM     89  O   UNL A   1      44.393  26.767  39.530  1.00  0.00    -0.237 OA
ATOM     90  O   UNL A   1      43.675  25.172  37.792  1.00  0.00    -0.744 OA
ENDBRANCH  83  87
ENDBRANCH  57  80
ENDBRANCH  31  32
ENDBRANCH  23  26
ENDBRANCH  21  22
ENDBRANCH  20  21
ENDBRANCH   1  20
TORSDOF 17
ENDMDL
MODEL 3
REMARK VINA RESULT:     -11.1      3.110      4.375
REMARK SMILES Cc1cccc(/C=C(/F)C(=O)NCCCCCCNC(=O)c2ccc(-c3c4nc(c(-c5cc(S(=O)(=O)[O-])ccc5F)c5ccc([nH]5)c(-c5cc(S(=O)(=O)[O-])ccc5F)c5nc(c(-c6cc(S(=O)(=O)[O-])ccc6F)c6ccc3[nH]6)C=C5)C=C4)cc2)c1C
REMARK SMILES IDX 16 1 15 2 14 3 13 4 12 5 10 6 11 7 8 9 7 10 9 11 6 12 1 13
REMARK SMILES IDX 2 14 3 15 85 16 4 17 86 18 5 19 17 20 18 21 19 22 20 23
REMARK SMILES IDX 21 25 22 26 23 27 84 28 24 29 83 30 25 31 26 32 27 33 77 34
REMARK SMILES IDX 28 35 82 36 76 37 78 38 29 39 81 40 75 41 74 42 30 44 62 45
REMARK SMILES IDX 42 46 61 47 43 48 46 49 60 50 79 51 44 52 45 53 59 55 80 56
REMARK SMILES IDX 47 57 31 58 32 59 40 60 33 61 39 62 41 63 38 64 34 65 35 66
REMARK SMILES IDX 36 67 37 68 63 69 64 70 72 71 65 72 71 73 73 74 70 75 66 76
REMARK SMILES IDX 67 77 68 78 69 79 48 80 49 81 57 82 50 83 56 84 58 85 55 86
REMARK SMILES IDX 51 87 52 88 53 89 54 90
REMARK H PARENT 12 8 19 24 78 43 46 54
REMARK Flexibility Score: inf
ROOT
ATOM      1  C   UNL A   1      32.824  30.357  27.249  1.00  0.00     0.002 C 
ENDROOT
BRANCH   1   2
ATOM      2  C   UNL A   1      31.886  29.157  27.405  1.00  0.00     0.002 C 
BRANCH   2   3
ATOM      3  C   UNL A   1      31.714  28.292  26.145  1.00  0.00     0.021 C 
BRANCH   3   4
ATOM      4  C   UNL A   1      32.434  26.940  26.200  1.00  0.00     0.116 C 
BRANCH   4   5
ATOM      5  N   UNL A   1      31.508  25.939  26.695  1.00  0.00    -0.350 N 
ATOM      6  C   UNL A   1      30.421  25.442  26.034  1.00  0.00     0.280 C 
ATOM      7  O   UNL A   1      29.340  25.369  26.612  1.00  0.00    -0.267 OA
ATOM      8  H   UNL A   1      31.679  25.582  27.597  1.00  0.00     0.163 HD
BRANCH   6   9
ATOM      9  C   UNL A   1      30.680  24.796  24.726  1.00  0.00     0.188 C 
ATOM     10  C   UNL A   1      30.574  25.409  23.537  1.00  0.00     0.053 C 
ATOM     11  F   UNL A   1      30.965  23.476  24.759  1.00  0.00    -0.201 F 
BRANCH  10  12
ATOM     12  C   UNL A   1      30.249  26.816  23.215  1.00  0.00    -0.019 A 
ATOM     13  C   UNL A   1      27.588  29.592  23.277  1.00  0.00     0.044 C 
ATOM     14  C   UNL A   1      28.866  28.832  23.030  1.00  0.00    -0.048 A 
ATOM     15  C   UNL A   1      29.956  29.522  22.483  1.00  0.00     0.004 A 
ATOM     16  C   UNL A   1      28.987  27.450  23.342  1.00  0.00    -0.041 A 
ATOM     17  C   UNL A   1      31.170  28.880  22.285  1.00  0.00     0.001 A 
ATOM     18  C   UNL A   1      27.757  26.721  23.825  1.00  0.00     0.045 C 
ATOM     19  C   UNL A   1      31.318  27.548  22.663  1.00  0.00     0.008 A 
ENDBRANCH  10  12
ENDBRANCH   6   9
ENDBRANCH   4   5
ENDBRANCH   3   4
ENDBRANCH   2   3
ENDBRANCH   1   2
BRANCH   1  20
ATOM     20  C   UNL A   1      32.130  31.718  27.235  1.00  0.00     0.021 C 
BRANCH  20  21
ATOM     21  C   UNL A   1      33.037  32.899  26.903  1.00  0.00     0.116 C 
BRANCH  21  22
ATOM     22  N   UNL A   1      32.690  34.097  27.649  1.00  0.00    -0.352 N 
ATOM     23  C   UNL A   1      33.221  34.548  28.833  1.00  0.00     0.251 C 
ATOM     24  H   UNL A   1      31.983  34.657  27.255  1.00  0.00     0.163 HD
ATOM     25  O   UNL A   1      32.707  35.506  29.410  1.00  0.00    -0.269 OA
BRANCH  23  26
ATOM     26  C   UNL A   1      34.387  33.855  29.423  1.00  0.00     0.039 A 
ATOM     27  C   UNL A   1      35.671  34.318  29.122  1.00  0.00     0.014 A 
ATOM     28  C   UNL A   1      34.215  32.770  30.287  1.00  0.00     0.014 A 
ATOM     29  C   UNL A   1      36.779  33.731  29.738  1.00  0.00     0.010 A 
ATOM     30  C   UNL A   1      35.315  32.228  30.947  1.00  0.00     0.010 A 
ATOM     31  C   UNL A   1      36.609  32.704  30.681  1.00  0.00    -0.014 A 
BRANCH  31  32
ATOM     32  C   UNL A   1      37.772  32.113  31.393  1.00  0.00     0.031 A 
ATOM     33  C   UNL A   1      38.572  31.016  30.746  1.00  0.00     0.074 A 
ATOM     34  C   UNL A   1      38.068  32.520  32.643  1.00  0.00     0.049 A 
ATOM     35  N   UNL A   1      39.570  30.322  31.232  1.00  0.00    -0.248 NA
ATOM     36  C   UNL A   1      38.178  30.631  29.383  1.00  0.00     0.031 C 
ATOM     37  C   UNL A   1      37.340  33.548  33.392  1.00  0.00     0.029 A 
ATOM     38  N   UNL A   1      39.051  32.112  33.511  1.00  0.00    -0.354 N 
ATOM     39  C   UNL A   1      39.915  29.410  30.240  1.00  0.00     0.074 A 
ATOM     40  C   UNL A   1      38.981  29.605  29.150  1.00  0.00     0.031 C 
ATOM     41  C   UNL A   1      37.912  33.701  34.598  1.00  0.00     0.029 A 
ATOM     42  C   UNL A   1      39.019  32.757  34.726  1.00  0.00     0.049 A 
ATOM     43  H   UNL A   1      39.716  31.423  33.285  1.00  0.00     0.167 HD
ATOM     44  C   UNL A   1      40.929  28.509  30.231  1.00  0.00     0.034 A 
ATOM     45  C   UNL A   1      39.786  32.598  35.823  1.00  0.00     0.034 A 
ATOM     46  C   UNL A   1      41.862  28.338  31.318  1.00  0.00     0.049 A 
ATOM     47  C   UNL A   1      40.896  31.579  35.795  1.00  0.00     0.074 A 
ATOM     48  C   UNL A   1      42.962  27.500  31.387  1.00  0.00     0.029 A 
ATOM     49  N   UNL A   1      41.801  29.011  32.531  1.00  0.00    -0.354 N 
ATOM     50  N   UNL A   1      41.241  30.760  34.829  1.00  0.00    -0.248 NA
ATOM     51  C   UNL A   1      41.726  31.470  37.003  1.00  0.00     0.031 C 
ATOM     52  C   UNL A   1      43.529  27.623  32.660  1.00  0.00     0.029 A 
ATOM     53  C   UNL A   1      42.824  28.585  33.364  1.00  0.00     0.049 A 
ATOM     54  H   UNL A   1      41.129  29.691  32.765  1.00  0.00     0.167 HD
ATOM     55  C   UNL A   1      42.345  30.056  35.305  1.00  0.00     0.074 A 
ATOM     56  C   UNL A   1      42.615  30.559  36.637  1.00  0.00     0.031 C 
ATOM     57  C   UNL A   1      43.071  29.085  34.696  1.00  0.00     0.034 A 
BRANCH  44  58
ATOM     58  C   UNL A   1      41.061  27.628  29.012  1.00  0.00     0.023 A 
ATOM     59  C   UNL A   1      42.044  27.862  28.034  1.00  0.00     0.031 A 
ATOM     60  C   UNL A   1      40.173  26.556  28.808  1.00  0.00     0.131 A 
ATOM     61  C   UNL A   1      42.067  27.087  26.865  1.00  0.00     0.055 A 
ATOM     62  C   UNL A   1      40.251  25.739  27.679  1.00  0.00     0.041 A 
ATOM     63  F   UNL A   1      39.201  26.296  29.697  1.00  0.00    -0.206 F 
ATOM     64  C   UNL A   1      41.193  26.012  26.691  1.00  0.00     0.022 A 
BRANCH  61  65
ATOM     65  S   UNL A   1      43.165  27.594  25.514  1.00  0.00     0.124 S 
ATOM     66  O   UNL A   1      44.138  28.424  26.220  1.00  0.00    -0.237 OA
ATOM     67  O   UNL A   1      43.661  26.317  25.012  1.00  0.00    -0.237 OA
ATOM     68  O   UNL A   1      42.280  28.320  24.606  1.00  0.00    -0.744 OA
ENDBRANCH  61  65
ENDBRANCH  44  58
BRANCH  45  69
ATOM     69  C   UNL A   1      39.530  33.407  37.048  1.00  0.00     0.023 A 
ATOM     70  C   UNL A   1      40.212  34.611  37.274  1.00  0.00     0.031 A 
ATOM     71  C   UNL A   1      38.628  32.963  38.032  1.00  0.00     0.131 A 
ATOM     72  C   UNL A   1      40.018  35.311  38.476  1.00  0.00     0.055 A 
ATOM     73  C   UNL A   1      38.402  33.686  39.204  1.00  0.00     0.041 A 
ATOM     74  F   UNL A   1      37.945  31.820  37.860  1.00  0.00    -0.206 F 
ATOM     75  C   UNL A   1      39.109  34.861  39.438  1.00  0.00     0.022 A 
BRANCH  72  76
ATOM     76  S   UNL A   1      41.032  36.779  38.802  1.00  0.00     0.124 S 
ATOM     77  O   UNL A   1      41.784  36.366  39.982  1.00  0.00    -0.237 OA
ATOM     78  O   UNL A   1      41.795  36.898  37.564  1.00  0.00    -0.237 OA
ATOM     79  O   UNL A   1      40.045  37.831  39.027  1.00  0.00    -0.744 OA
ENDBRANCH  72  76
ENDBRANCH  45  69
BRANCH  57  80
ATOM     80  C   UNL A   1      44.250  28.536  35.459  1.00  0.00     0.023 A 
ATOM     81  C   UNL A   1      44.101  27.518  36.416  1.00  0.00     0.031 A 
ATOM     82  C   UNL A   1      45.540  29.051  35.235  1.00  0.00     0.131 A 
ATOM     83  C   UNL A   1      45.213  27.080  37.151  1.00  0.00     0.055 A 
ATOM     84  C   UNL A   1      46.652  28.574  35.929  1.00  0.00     0.041 A 
ATOM     85  F   UNL A   1      45.737  30.026  34.333  1.00  0.00    -0.206 F 
ATOM     86  C   UNL A   1      46.490  27.592  36.902  1.00  0.00     0.022 A 
BRANCH  83  87
ATOM     87  S   UNL A   1      44.957  25.888  38.493  1.00  0.00     0.124 S 
ATOM     88  O   UNL A   1      46.265  25.872  39.138  1.00  0.00    -0.237 OA
ATOM     89  O   UNL A   1      43.876  26.503  39.257  1.00  0.00    -0.237 OA
ATOM     90  O   UNL A   1      44.596  24.656  37.792  1.00  0.00    -0.744 OA
ENDBRANCH  83  87
ENDBRANCH  57  80
ENDBRANCH  31  32
ENDBRANCH  23  26
ENDBRANCH  21  22
ENDBRANCH  20  21
ENDBRANCH   1  20
TORSDOF 17
ENDMDL
