MODEL 1
REMARK VINA RESULT:     -10.8      0.000      0.000
REMARK SMILES CCN(C[C@H](C)C(=O)NCCCCCCNC(=O)c1ccc(-c2c3nc(c(-c4cc(S(=O)(=O)[O-])ccc4F)c4ccc([nH]4)c(-c4cc(S(=O)(=O)[O-])ccc4F)c4nc(c(-c5cc(S(=O)(=O)[O-])ccc5F)c5ccc2[nH]5)C=C4)C=C3)cc1)c1ccc(C(=O)NC)nn1
REMARK SMILES IDX 12 1 11 2 10 3 9 4 7 5 8 6 5 8 6 9 4 10 3 11 2 12 1 13 82 14
REMARK SMILES IDX 83 15 91 16 84 17 90 18 85 19 86 20 87 21 88 22 89 23 13 25
REMARK SMILES IDX 14 26 15 27 16 28 17 29 18 31 19 32 20 33 81 34 21 35 80 36
REMARK SMILES IDX 22 37 23 38 24 39 74 40 25 41 79 42 73 43 75 44 26 45 78 46
REMARK SMILES IDX 72 47 71 48 27 50 59 51 39 52 58 53 40 54 43 55 57 56 76 57
REMARK SMILES IDX 41 58 42 59 56 61 77 62 44 63 28 64 29 65 37 66 30 67 36 68
REMARK SMILES IDX 38 69 35 70 31 71 32 72 33 73 34 74 60 75 61 76 69 77 62 78
REMARK SMILES IDX 68 79 70 80 67 81 63 82 64 83 65 84 66 85 45 86 46 87 54 88
REMARK SMILES IDX 47 89 53 90 55 91 52 92 48 93 49 94 50 95 51 96
REMARK H PARENT 9 7 88 24 16 30 75 49 43 60
REMARK Flexibility Score: inf
ROOT
ATOM      1  C   UNL A   1      33.469  29.585  27.073  1.00  0.00     0.002 C 
ENDROOT
BRANCH   1   2
ATOM      2  C   UNL A   1      33.832  28.310  26.303  1.00  0.00     0.021 C 
BRANCH   2   3
ATOM      3  C   UNL A   1      32.623  27.586  25.719  1.00  0.00     0.116 C 
BRANCH   3   4
ATOM      4  N   UNL A   1      32.876  27.219  24.339  1.00  0.00    -0.356 N 
ATOM      5  C   UNL A   1      32.972  25.996  23.752  1.00  0.00     0.224 C 
ATOM      6  O   UNL A   1      33.617  25.928  22.703  1.00  0.00    -0.275 OA
ATOM      7  H   UNL A   1      32.997  27.980  23.726  1.00  0.00     0.163 HD
BRANCH   5   8
ATOM      8  C   UNL A   1      32.395  24.746  24.399  1.00  0.00     0.095 C 
ATOM      9  C   UNL A   1      31.220  24.245  23.549  1.00  0.00     0.020 C 
BRANCH   8  10
ATOM     10  C   UNL A   1      33.451  23.662  24.691  1.00  0.00     0.131 C 
BRANCH  10  11
ATOM     11  N   UNL A   1      32.959  22.505  25.450  1.00  0.00    -0.355 N 
BRANCH  11  12
ATOM     12  C   UNL A   1      32.366  22.683  26.767  1.00  0.00     0.115 C 
ATOM     13  C   UNL A   1      33.418  22.690  27.868  1.00  0.00     0.027 C 
ENDBRANCH  11  12
BRANCH  11  14
ATOM     14  C   UNL A   1      33.146  21.231  24.948  1.00  0.00     0.151 A 
ATOM     15  C   UNL A   1      34.300  20.509  25.229  1.00  0.00     0.051 A 
ATOM     16  N   UNL A   1      32.195  20.649  24.201  1.00  0.00    -0.132 NA
ATOM     17  C   UNL A   1      34.454  19.194  24.769  1.00  0.00     0.040 A 
ATOM     18  N   UNL A   1      32.334  19.345  23.732  1.00  0.00    -0.143 NA
ATOM     19  C   UNL A   1      33.445  18.632  24.009  1.00  0.00     0.150 A 
BRANCH  19  20
ATOM     20  C   UNL A   1      33.424  17.214  23.539  1.00  0.00     0.271 C 
ATOM     21  O   UNL A   1      33.802  16.937  22.399  1.00  0.00    -0.267 OA
ATOM     22  N   UNL A   1      32.989  16.159  24.308  1.00  0.00    -0.354 N 
ATOM     23  C   UNL A   1      32.636  16.041  25.702  1.00  0.00     0.143 C 
ATOM     24  H   UNL A   1      32.904  15.315  23.808  1.00  0.00     0.163 HD
ENDBRANCH  19  20
ENDBRANCH  11  14
ENDBRANCH  10  11
ENDBRANCH   8  10
ENDBRANCH   5   8
ENDBRANCH   3   4
ENDBRANCH   2   3
ENDBRANCH   1   2
BRANCH   1  25
ATOM     25  C   UNL A   1      31.994  29.993  26.972  1.00  0.00     0.002 C 
BRANCH  25  26
ATOM     26  C   UNL A   1      31.756  31.499  26.855  1.00  0.00     0.021 C 
BRANCH  26  27
ATOM     27  C   UNL A   1      33.020  32.343  26.970  1.00  0.00     0.116 C 
BRANCH  27  28
ATOM     28  N   UNL A   1      32.743  33.655  27.530  1.00  0.00    -0.352 N 
ATOM     29  C   UNL A   1      33.276  34.246  28.649  1.00  0.00     0.251 C 
ATOM     30  H   UNL A   1      32.083  34.195  27.039  1.00  0.00     0.163 HD
ATOM     31  O   UNL A   1      32.765  35.261  29.106  1.00  0.00    -0.269 OA
BRANCH  29  32
ATOM     32  C   UNL A   1      34.453  33.633  29.303  1.00  0.00     0.039 A 
ATOM     33  C   UNL A   1      35.720  34.168  29.056  1.00  0.00     0.014 A 
ATOM     34  C   UNL A   1      34.307  32.534  30.155  1.00  0.00     0.014 A 
ATOM     35  C   UNL A   1      36.833  33.628  29.701  1.00  0.00     0.010 A 
ATOM     36  C   UNL A   1      35.405  32.052  30.859  1.00  0.00     0.010 A 
ATOM     37  C   UNL A   1      36.682  32.584  30.630  1.00  0.00    -0.014 A 
BRANCH  37  38
ATOM     38  C   UNL A   1      37.855  32.013  31.342  1.00  0.00     0.031 A 
ATOM     39  C   UNL A   1      38.662  30.917  30.698  1.00  0.00     0.074 A 
ATOM     40  C   UNL A   1      38.165  32.445  32.580  1.00  0.00     0.049 A 
ATOM     41  N   UNL A   1      39.674  30.241  31.178  1.00  0.00    -0.248 NA
ATOM     42  C   UNL A   1      38.254  30.507  29.345  1.00  0.00     0.031 C 
ATOM     43  C   UNL A   1      37.440  33.480  33.320  1.00  0.00     0.029 A 
ATOM     44  N   UNL A   1      39.167  32.067  33.439  1.00  0.00    -0.354 N 
ATOM     45  C   UNL A   1      40.017  29.321  30.191  1.00  0.00     0.074 A 
ATOM     46  C   UNL A   1      39.057  29.479  29.120  1.00  0.00     0.031 C 
ATOM     47  C   UNL A   1      38.040  33.677  34.505  1.00  0.00     0.029 A 
ATOM     48  C   UNL A   1      39.159  32.749  34.634  1.00  0.00     0.049 A 
ATOM     49  H   UNL A   1      39.832  31.374  33.218  1.00  0.00     0.167 HD
ATOM     50  C   UNL A   1      41.053  28.446  30.169  1.00  0.00     0.034 A 
ATOM     51  C   UNL A   1      39.955  32.629  35.716  1.00  0.00     0.034 A 
ATOM     52  C   UNL A   1      42.005  28.309  31.244  1.00  0.00     0.049 A 
ATOM     53  C   UNL A   1      41.077  31.620  35.685  1.00  0.00     0.074 A 
ATOM     54  C   UNL A   1      43.113  27.482  31.313  1.00  0.00     0.029 A 
ATOM     55  N   UNL A   1      41.960  29.009  32.444  1.00  0.00    -0.354 N 
ATOM     56  N   UNL A   1      41.411  30.784  34.729  1.00  0.00    -0.248 NA
ATOM     57  C   UNL A   1      41.936  31.551  36.873  1.00  0.00     0.031 C 
ATOM     58  C   UNL A   1      43.689  27.625  32.579  1.00  0.00     0.029 A 
ATOM     59  C   UNL A   1      43.001  28.611  33.268  1.00  0.00     0.049 A 
ATOM     60  H   UNL A   1      41.286  29.688  32.674  1.00  0.00     0.167 HD
ATOM     61  C   UNL A   1      42.548  30.120  35.186  1.00  0.00     0.074 A 
ATOM     62  C   UNL A   1      42.843  30.663  36.497  1.00  0.00     0.031 C 
ATOM     63  C   UNL A   1      43.284  29.157  34.576  1.00  0.00     0.034 A 
BRANCH  50  64
ATOM     64  C   UNL A   1      41.186  27.556  28.954  1.00  0.00     0.023 A 
ATOM     65  C   UNL A   1      42.199  27.756  27.999  1.00  0.00     0.031 A 
ATOM     66  C   UNL A   1      40.271  26.513  28.730  1.00  0.00     0.131 A 
ATOM     67  C   UNL A   1      42.220  26.984  26.827  1.00  0.00     0.055 A 
ATOM     68  C   UNL A   1      40.355  25.687  27.607  1.00  0.00     0.041 A 
ATOM     69  F   UNL A   1      39.268  26.285  29.593  1.00  0.00    -0.206 F 
ATOM     70  C   UNL A   1      41.323  25.931  26.638  1.00  0.00     0.022 A 
BRANCH  67  71
ATOM     71  S   UNL A   1      43.334  27.481  25.485  1.00  0.00     0.124 S 
ATOM     72  O   UNL A   1      42.395  28.038  24.514  1.00  0.00    -0.237 OA
ATOM     73  O   UNL A   1      44.215  28.438  26.144  1.00  0.00    -0.237 OA
ATOM     74  O   UNL A   1      43.966  26.226  25.081  1.00  0.00    -0.744 OA
ENDBRANCH  67  71
ENDBRANCH  50  64
BRANCH  51  75
ATOM     75  C   UNL A   1      39.726  33.476  36.923  1.00  0.00     0.023 A 
ATOM     76  C   UNL A   1      39.103  32.954  38.068  1.00  0.00     0.031 A 
ATOM     77  C   UNL A   1      40.080  34.838  36.931  1.00  0.00     0.131 A 
ATOM     78  C   UNL A   1      38.804  33.797  39.149  1.00  0.00     0.055 A 
ATOM     79  C   UNL A   1      39.836  35.658  38.034  1.00  0.00     0.041 A 
ATOM     80  F   UNL A   1      40.681  35.391  35.865  1.00  0.00    -0.206 F 
ATOM     81  C   UNL A   1      39.180  35.142  39.146  1.00  0.00     0.022 A 
BRANCH  78  82
ATOM     82  S   UNL A   1      37.822  33.133  40.522  1.00  0.00     0.124 S 
ATOM     83  O   UNL A   1      37.898  34.217  41.492  1.00  0.00    -0.237 OA
ATOM     84  O   UNL A   1      36.523  32.925  39.891  1.00  0.00    -0.237 OA
ATOM     85  O   UNL A   1      38.536  31.911  40.890  1.00  0.00    -0.744 OA
ENDBRANCH  78  82
ENDBRANCH  51  75
BRANCH  63  86
ATOM     86  C   UNL A   1      44.524  28.677  35.294  1.00  0.00     0.023 A 
ATOM     87  C   UNL A   1      44.550  27.471  36.015  1.00  0.00     0.031 A 
ATOM     88  C   UNL A   1      45.698  29.452  35.263  1.00  0.00     0.131 A 
ATOM     89  C   UNL A   1      45.703  27.106  36.727  1.00  0.00     0.055 A 
ATOM     90  C   UNL A   1      46.864  29.049  35.914  1.00  0.00     0.041 A 
ATOM     91  F   UNL A   1      45.732  30.616  34.594  1.00  0.00    -0.206 F 
ATOM     92  C   UNL A   1      46.866  27.878  36.665  1.00  0.00     0.022 A 
BRANCH  89  93
ATOM     93  S   UNL A   1      45.628  25.667  37.830  1.00  0.00     0.124 S 
ATOM     94  O   UNL A   1      45.431  24.572  36.887  1.00  0.00    -0.237 OA
ATOM     95  O   UNL A   1      46.928  25.714  38.491  1.00  0.00    -0.237 OA
ATOM     96  O   UNL A   1      44.483  25.957  38.692  1.00  0.00    -0.744 OA
ENDBRANCH  89  93
ENDBRANCH  63  86
ENDBRANCH  37  38
ENDBRANCH  29  32
ENDBRANCH  27  28
ENDBRANCH  26  27
ENDBRANCH  25  26
ENDBRANCH   1  25
TORSDOF 21
ENDMDL
MODEL 2
REMARK VINA RESULT:     -10.6      1.793      7.816
REMARK SMILES CCN(C[C@H](C)C(=O)NCCCCCCNC(=O)c1ccc(-c2c3nc(c(-c4cc(S(=O)(=O)[O-])ccc4F)c4ccc([nH]4)c(-c4cc(S(=O)(=O)[O-])ccc4F)c4nc(c(-c5cc(S(=O)(=O)[O-])ccc5F)c5ccc2[nH]5)C=C4)C=C3)cc1)c1ccc(C(=O)NC)nn1
REMARK SMILES IDX 12 1 11 2 10 3 9 4 7 5 8 6 5 8 6 9 4 10 3 11 2 12 1 13 82 14
REMARK SMILES IDX 83 15 91 16 84 17 90 18 85 19 86 20 87 21 88 22 89 23 13 25
REMARK SMILES IDX 14 26 15 27 16 28 17 29 18 31 19 32 20 33 81 34 21 35 80 36
REMARK SMILES IDX 22 37 23 38 24 39 74 40 25 41 79 42 73 43 75 44 26 45 78 46
REMARK SMILES IDX 72 47 71 48 27 50 59 51 39 52 58 53 40 54 43 55 57 56 76 57
REMARK SMILES IDX 41 58 42 59 56 61 77 62 44 63 28 64 29 65 37 66 30 67 36 68
REMARK SMILES IDX 38 69 35 70 31 71 32 72 33 73 34 74 60 75 61 76 69 77 62 78
REMARK SMILES IDX 68 79 70 80 67 81 63 82 64 83 65 84 66 85 45 86 46 87 54 88
REMARK SMILES IDX 47 89 53 90 55 91 52 92 48 93 49 94 50 95 51 96
REMARK H PARENT 9 7 88 24 16 30 75 49 43 60
REMARK Flexibility Score: inf
ROOT
ATOM      1  C   UNL A   1      32.307  29.986  27.157  1.00  0.00     0.002 C 
ENDROOT
BRANCH   1   2
ATOM      2  C   UNL A   1      31.803  28.582  27.509  1.00  0.00     0.021 C 
BRANCH   2   3
ATOM      3  C   UNL A   1      32.502  27.472  26.730  1.00  0.00     0.116 C 
BRANCH   3   4
ATOM      4  N   UNL A   1      33.359  28.040  25.708  1.00  0.00    -0.356 N 
ATOM      5  C   UNL A   1      33.232  28.056  24.354  1.00  0.00     0.224 C 
ATOM      6  O   UNL A   1      34.266  28.190  23.695  1.00  0.00    -0.275 OA
ATOM      7  H   UNL A   1      34.166  28.490  26.050  1.00  0.00     0.163 HD
BRANCH   5   8
ATOM      8  C   UNL A   1      31.892  27.825  23.670  1.00  0.00     0.095 C 
ATOM      9  C   UNL A   1      31.651  28.952  22.657  1.00  0.00     0.020 C 
BRANCH   8  10
ATOM     10  C   UNL A   1      31.745  26.413  23.069  1.00  0.00     0.131 C 
BRANCH  10  11
ATOM     11  N   UNL A   1      31.363  25.368  24.028  1.00  0.00    -0.355 N 
BRANCH  11  12
ATOM     12  C   UNL A   1      30.101  25.453  24.748  1.00  0.00     0.115 C 
ATOM     13  C   UNL A   1      29.059  26.252  23.978  1.00  0.00     0.027 C 
ENDBRANCH  11  12
BRANCH  11  14
ATOM     14  C   UNL A   1      32.251  24.349  24.316  1.00  0.00     0.151 A 
ATOM     15  C   UNL A   1      32.767  24.184  25.595  1.00  0.00     0.051 A 
ATOM     16  N   UNL A   1      32.610  23.472  23.364  1.00  0.00    -0.132 NA
ATOM     17  C   UNL A   1      33.618  23.110  25.894  1.00  0.00     0.040 A 
ATOM     18  N   UNL A   1      33.457  22.404  23.643  1.00  0.00    -0.143 NA
ATOM     19  C   UNL A   1      33.954  22.228  24.884  1.00  0.00     0.150 A 
BRANCH  19  20
ATOM     20  C   UNL A   1      34.763  20.986  25.075  1.00  0.00     0.271 C 
ATOM     21  O   UNL A   1      35.991  21.056  25.147  1.00  0.00    -0.267 OA
ATOM     22  N   UNL A   1      34.219  19.725  25.171  1.00  0.00    -0.354 N 
ATOM     23  C   UNL A   1      32.862  19.249  25.298  1.00  0.00     0.143 C 
ATOM     24  H   UNL A   1      34.889  19.004  25.152  1.00  0.00     0.163 HD
ENDBRANCH  19  20
ENDBRANCH  11  14
ENDBRANCH  10  11
ENDBRANCH   8  10
ENDBRANCH   5   8
ENDBRANCH   3   4
ENDBRANCH   2   3
ENDBRANCH   1   2
BRANCH   1  25
ATOM     25  C   UNL A   1      31.351  30.807  26.284  1.00  0.00     0.002 C 
BRANCH  25  26
ATOM     26  C   UNL A   1      31.376  32.313  26.552  1.00  0.00     0.021 C 
BRANCH  26  27
ATOM     27  C   UNL A   1      32.738  32.849  26.977  1.00  0.00     0.116 C 
BRANCH  27  28
ATOM     28  N   UNL A   1      32.626  34.125  27.663  1.00  0.00    -0.352 N 
ATOM     29  C   UNL A   1      33.286  34.563  28.784  1.00  0.00     0.251 C 
ATOM     30  H   UNL A   1      31.987  34.763  27.270  1.00  0.00     0.163 HD
ATOM     31  O   UNL A   1      32.905  35.574  29.361  1.00  0.00    -0.269 OA
BRANCH  29  32
ATOM     32  C   UNL A   1      34.441  33.792  29.294  1.00  0.00     0.039 A 
ATOM     33  C   UNL A   1      35.733  34.226  28.989  1.00  0.00     0.014 A 
ATOM     34  C   UNL A   1      34.248  32.644  30.069  1.00  0.00     0.014 A 
ATOM     35  C   UNL A   1      36.831  33.534  29.501  1.00  0.00     0.010 A 
ATOM     36  C   UNL A   1      35.341  32.006  30.646  1.00  0.00     0.010 A 
ATOM     37  C   UNL A   1      36.645  32.436  30.357  1.00  0.00    -0.014 A 
BRANCH  37  38
ATOM     38  C   UNL A   1      37.804  31.701  30.929  1.00  0.00     0.031 A 
ATOM     39  C   UNL A   1      38.265  32.005  32.331  1.00  0.00     0.074 A 
ATOM     40  C   UNL A   1      38.467  30.801  30.177  1.00  0.00     0.049 A 
ATOM     41  N   UNL A   1      39.291  31.528  32.987  1.00  0.00    -0.248 NA
ATOM     42  C   UNL A   1      37.484  33.001  33.080  1.00  0.00     0.031 C 
ATOM     43  C   UNL A   1      38.133  30.444  28.797  1.00  0.00     0.029 A 
ATOM     44  N   UNL A   1      39.560  30.022  30.464  1.00  0.00    -0.354 N 
ATOM     45  C   UNL A   1      39.284  32.172  34.220  1.00  0.00     0.074 A 
ATOM     46  C   UNL A   1      38.196  33.124  34.189  1.00  0.00     0.031 C 
ATOM     47  C   UNL A   1      38.982  29.496  28.370  1.00  0.00     0.029 A 
ATOM     48  C   UNL A   1      39.953  29.213  29.422  1.00  0.00     0.049 A 
ATOM     49  H   UNL A   1      40.020  30.041  31.335  1.00  0.00     0.167 HD
ATOM     50  C   UNL A   1      40.093  31.967  35.290  1.00  0.00     0.034 A 
ATOM     51  C   UNL A   1      40.985  28.351  29.324  1.00  0.00     0.034 A 
ATOM     52  C   UNL A   1      41.168  31.006  35.306  1.00  0.00     0.049 A 
ATOM     53  C   UNL A   1      41.895  28.169  30.513  1.00  0.00     0.074 A 
ATOM     54  C   UNL A   1      42.026  30.689  36.345  1.00  0.00     0.029 A 
ATOM     55  N   UNL A   1      41.542  30.210  34.229  1.00  0.00    -0.354 N 
ATOM     56  N   UNL A   1      41.853  28.758  31.686  1.00  0.00    -0.248 NA
ATOM     57  C   UNL A   1      42.984  27.195  30.368  1.00  0.00     0.031 C 
ATOM     58  C   UNL A   1      42.962  29.763  35.875  1.00  0.00     0.029 A 
ATOM     59  C   UNL A   1      42.634  29.428  34.571  1.00  0.00     0.049 A 
ATOM     60  H   UNL A   1      41.096  30.204  33.352  1.00  0.00     0.167 HD
ATOM     61  C   UNL A   1      42.884  28.192  32.433  1.00  0.00     0.074 A 
ATOM     62  C   UNL A   1      43.520  27.209  31.579  1.00  0.00     0.031 C 
ATOM     63  C   UNL A   1      43.264  28.452  33.709  1.00  0.00     0.034 A 
BRANCH  50  64
ATOM     64  C   UNL A   1      39.855  32.820  36.515  1.00  0.00     0.023 A 
ATOM     65  C   UNL A   1      39.030  32.387  37.570  1.00  0.00     0.031 A 
ATOM     66  C   UNL A   1      40.434  34.097  36.619  1.00  0.00     0.131 A 
ATOM     67  C   UNL A   1      38.740  33.253  38.635  1.00  0.00     0.055 A 
ATOM     68  C   UNL A   1      40.216  34.918  37.728  1.00  0.00     0.041 A 
ATOM     69  F   UNL A   1      41.211  34.578  35.636  1.00  0.00    -0.206 F 
ATOM     70  C   UNL A   1      39.351  34.504  38.737  1.00  0.00     0.022 A 
BRANCH  67  71
ATOM     71  S   UNL A   1      37.432  32.782  39.799  1.00  0.00     0.124 S 
ATOM     72  O   UNL A   1      37.961  31.536  40.348  1.00  0.00    -0.237 OA
ATOM     73  O   UNL A   1      37.398  33.919  40.712  1.00  0.00    -0.237 OA
ATOM     74  O   UNL A   1      36.254  32.630  38.948  1.00  0.00    -0.744 OA
ENDBRANCH  67  71
ENDBRANCH  50  64
BRANCH  51  75
ATOM     75  C   UNL A   1      41.222  27.595  28.059  1.00  0.00     0.023 A 
ATOM     76  C   UNL A   1      40.930  26.225  27.967  1.00  0.00     0.031 A 
ATOM     77  C   UNL A   1      41.794  28.222  26.936  1.00  0.00     0.131 A 
ATOM     78  C   UNL A   1      41.260  25.514  26.803  1.00  0.00     0.055 A 
ATOM     79  C   UNL A   1      42.063  27.523  25.758  1.00  0.00     0.041 A 
ATOM     80  F   UNL A   1      42.091  29.531  26.966  1.00  0.00    -0.206 F 
ATOM     81  C   UNL A   1      41.811  26.158  25.693  1.00  0.00     0.022 A 
BRANCH  78  82
ATOM     82  S   UNL A   1      41.054  23.712  26.799  1.00  0.00     0.124 S 
ATOM     83  O   UNL A   1      39.636  23.577  26.492  1.00  0.00    -0.237 OA
ATOM     84  O   UNL A   1      41.981  23.305  25.748  1.00  0.00    -0.237 OA
ATOM     85  O   UNL A   1      41.441  23.323  28.153  1.00  0.00    -0.744 OA
ENDBRANCH  78  82
ENDBRANCH  51  75
BRANCH  63  86
ATOM     86  C   UNL A   1      44.381  27.613  34.283  1.00  0.00     0.023 A 
ATOM     87  C   UNL A   1      44.149  26.352  34.859  1.00  0.00     0.031 A 
ATOM     88  C   UNL A   1      45.703  28.094  34.261  1.00  0.00     0.131 A 
ATOM     89  C   UNL A   1      45.210  25.646  35.446  1.00  0.00     0.055 A 
ATOM     90  C   UNL A   1      46.765  27.355  34.782  1.00  0.00     0.041 A 
ATOM     91  F   UNL A   1      45.985  29.294  33.727  1.00  0.00    -0.206 F 
ATOM     92  C   UNL A   1      46.519  26.130  35.394  1.00  0.00     0.022 A 
BRANCH  89  93
ATOM     93  S   UNL A   1      44.839  24.135  36.381  1.00  0.00     0.124 S 
ATOM     94  O   UNL A   1      46.071  23.371  36.223  1.00  0.00    -0.237 OA
ATOM     95  O   UNL A   1      44.579  24.655  37.720  1.00  0.00    -0.237 OA
ATOM     96  O   UNL A   1      43.674  23.584  35.692  1.00  0.00    -0.744 OA
ENDBRANCH  89  93
ENDBRANCH  63  86
ENDBRANCH  37  38
ENDBRANCH  29  32
ENDBRANCH  27  28
ENDBRANCH  26  27
ENDBRANCH  25  26
ENDBRANCH   1  25
TORSDOF 21
ENDMDL
MODEL 3
REMARK VINA RESULT:     -10.6      6.180     11.431
REMARK SMILES CCN(C[C@H](C)C(=O)NCCCCCCNC(=O)c1ccc(-c2c3nc(c(-c4cc(S(=O)(=O)[O-])ccc4F)c4ccc([nH]4)c(-c4cc(S(=O)(=O)[O-])ccc4F)c4nc(c(-c5cc(S(=O)(=O)[O-])ccc5F)c5ccc2[nH]5)C=C4)C=C3)cc1)c1ccc(C(=O)NC)nn1
REMARK SMILES IDX 12 1 11 2 10 3 9 4 7 5 8 6 5 8 6 9 4 10 3 11 2 12 1 13 82 14
REMARK SMILES IDX 83 15 91 16 84 17 90 18 85 19 86 20 87 21 88 22 89 23 13 25
REMARK SMILES IDX 14 26 15 27 16 28 17 29 18 31 19 32 20 33 81 34 21 35 80 36
REMARK SMILES IDX 22 37 23 38 24 39 74 40 25 41 79 42 73 43 75 44 26 45 78 46
REMARK SMILES IDX 72 47 71 48 27 50 59 51 39 52 58 53 40 54 43 55 57 56 76 57
REMARK SMILES IDX 41 58 42 59 56 61 77 62 44 63 28 64 29 65 37 66 30 67 36 68
REMARK SMILES IDX 38 69 35 70 31 71 32 72 33 73 34 74 60 75 61 76 69 77 62 78
REMARK SMILES IDX 68 79 70 80 67 81 63 82 64 83 65 84 66 85 45 86 46 87 54 88
REMARK SMILES IDX 47 89 53 90 55 91 52 92 48 93 49 94 50 95 51 96
REMARK H PARENT 9 7 88 24 16 30 75 49 43 60
REMARK Flexibility Score: inf
ROOT
ATOM      1  C   UNL A   1      35.717  20.836  25.362  1.00  0.00     0.002 C 
ENDROOT
BRANCH   1   2
ATOM      2  C   UNL A   1      34.660  19.857  24.838  1.00  0.00     0.021 C 
BRANCH   2   3
ATOM      3  C   UNL A   1      33.232  20.252  25.201  1.00  0.00     0.116 C 
BRANCH   3   4
ATOM      4  N   UNL A   1      33.210  20.922  26.488  1.00  0.00    -0.356 N 
ATOM      5  C   UNL A   1      32.733  22.146  26.840  1.00  0.00     0.224 C 
ATOM      6  O   UNL A   1      33.214  22.665  27.850  1.00  0.00    -0.275 OA
ATOM      7  H   UNL A   1      33.604  20.406  27.228  1.00  0.00     0.163 HD
BRANCH   5   8
ATOM      8  C   UNL A   1      31.720  22.891  25.983  1.00  0.00     0.095 C 
ATOM      9  C   UNL A   1      30.428  23.076  26.789  1.00  0.00     0.020 C 
BRANCH   8  10
ATOM     10  C   UNL A   1      32.268  24.202  25.386  1.00  0.00     0.131 C 
BRANCH  10  11
ATOM     11  N   UNL A   1      31.998  24.392  23.955  1.00  0.00    -0.355 N 
BRANCH  11  12
ATOM     12  C   UNL A   1      32.573  23.489  22.969  1.00  0.00     0.115 C 
ATOM     13  C   UNL A   1      34.077  23.333  23.148  1.00  0.00     0.027 C 
ENDBRANCH  11  12
BRANCH  11  14
ATOM     14  C   UNL A   1      31.272  25.491  23.538  1.00  0.00     0.151 A 
ATOM     15  C   UNL A   1      30.151  25.921  24.238  1.00  0.00     0.051 A 
ATOM     16  N   UNL A   1      31.657  26.190  22.457  1.00  0.00    -0.132 NA
ATOM     17  C   UNL A   1      29.456  27.074  23.844  1.00  0.00     0.040 A 
ATOM     18  N   UNL A   1      30.976  27.333  22.050  1.00  0.00    -0.143 NA
ATOM     19  C   UNL A   1      29.894  27.765  22.730  1.00  0.00     0.150 A 
BRANCH  19  20
ATOM     20  C   UNL A   1      29.320  29.061  22.254  1.00  0.00     0.271 C 
ATOM     21  O   UNL A   1      29.991  29.805  21.537  1.00  0.00    -0.267 OA
ATOM     22  N   UNL A   1      28.057  29.502  22.576  1.00  0.00    -0.354 N 
ATOM     23  C   UNL A   1      26.935  28.874  23.231  1.00  0.00     0.143 C 
ATOM     24  H   UNL A   1      27.883  30.433  22.304  1.00  0.00     0.163 HD
ENDBRANCH  19  20
ENDBRANCH  11  14
ENDBRANCH  10  11
ENDBRANCH   8  10
ENDBRANCH   5   8
ENDBRANCH   3   4
ENDBRANCH   2   3
ENDBRANCH   1   2
BRANCH   1  25
ATOM     25  C   UNL A   1      37.020  20.862  24.554  1.00  0.00     0.002 C 
BRANCH  25  26
ATOM     26  C   UNL A   1      38.036  19.789  24.948  1.00  0.00     0.021 C 
BRANCH  26  27
ATOM     27  C   UNL A   1      39.162  20.293  25.842  1.00  0.00     0.116 C 
BRANCH  27  28
ATOM     28  N   UNL A   1      40.234  19.318  25.961  1.00  0.00    -0.352 N 
ATOM     29  C   UNL A   1      41.580  19.532  26.125  1.00  0.00     0.251 C 
ATOM     30  H   UNL A   1      39.956  18.375  25.918  1.00  0.00     0.163 HD
ATOM     31  O   UNL A   1      42.368  18.606  25.977  1.00  0.00    -0.269 OA
BRANCH  29  32
ATOM     32  C   UNL A   1      42.065  20.889  26.457  1.00  0.00     0.039 A 
ATOM     33  C   UNL A   1      42.351  21.779  25.419  1.00  0.00     0.014 A 
ATOM     34  C   UNL A   1      42.237  21.281  27.789  1.00  0.00     0.014 A 
ATOM     35  C   UNL A   1      42.765  23.077  25.719  1.00  0.00     0.010 A 
ATOM     36  C   UNL A   1      42.570  22.599  28.085  1.00  0.00     0.010 A 
ATOM     37  C   UNL A   1      42.851  23.508  27.054  1.00  0.00    -0.014 A 
BRANCH  37  38
ATOM     38  C   UNL A   1      43.269  24.894  27.390  1.00  0.00     0.031 A 
ATOM     39  C   UNL A   1      42.275  25.850  27.996  1.00  0.00     0.074 A 
ATOM     40  C   UNL A   1      44.521  25.304  27.110  1.00  0.00     0.049 A 
ATOM     41  N   UNL A   1      42.420  27.115  28.297  1.00  0.00    -0.248 NA
ATOM     42  C   UNL A   1      40.931  25.318  28.268  1.00  0.00     0.031 C 
ATOM     43  C   UNL A   1      45.564  24.479  26.497  1.00  0.00     0.029 A 
ATOM     44  N   UNL A   1      45.132  26.519  27.301  1.00  0.00    -0.354 N 
ATOM     45  C   UNL A   1      41.185  27.531  28.785  1.00  0.00     0.074 A 
ATOM     46  C   UNL A   1      40.287  26.403  28.668  1.00  0.00     0.031 C 
ATOM     47  C   UNL A   1      46.692  25.200  26.393  1.00  0.00     0.029 A 
ATOM     48  C   UNL A   1      46.442  26.553  26.881  1.00  0.00     0.049 A 
ATOM     49  H   UNL A   1      44.675  27.293  27.703  1.00  0.00     0.167 HD
ATOM     50  C   UNL A   1      40.840  28.734  29.308  1.00  0.00     0.034 A 
ATOM     51  C   UNL A   1      47.335  27.562  26.877  1.00  0.00     0.034 A 
ATOM     52  C   UNL A   1      41.752  29.846  29.423  1.00  0.00     0.049 A 
ATOM     53  C   UNL A   1      46.917  28.904  27.427  1.00  0.00     0.074 A 
ATOM     54  C   UNL A   1      41.522  31.096  29.969  1.00  0.00     0.029 A 
ATOM     55  N   UNL A   1      43.069  29.846  28.978  1.00  0.00    -0.354 N 
ATOM     56  N   UNL A   1      45.757  29.271  27.920  1.00  0.00    -0.248 NA
ATOM     57  C   UNL A   1      47.935  29.962  27.433  1.00  0.00     0.031 C 
ATOM     58  C   UNL A   1      42.669  31.874  29.785  1.00  0.00     0.029 A 
ATOM     59  C   UNL A   1      43.650  31.083  29.210  1.00  0.00     0.049 A 
ATOM     60  H   UNL A   1      43.522  29.079  28.559  1.00  0.00     0.167 HD
ATOM     61  C   UNL A   1      45.920  30.591  28.334  1.00  0.00     0.074 A 
ATOM     62  C   UNL A   1      47.294  30.948  28.041  1.00  0.00     0.031 C 
ATOM     63  C   UNL A   1      45.022  31.429  28.911  1.00  0.00     0.034 A 
BRANCH  50  64
ATOM     64  C   UNL A   1      39.410  28.909  29.765  1.00  0.00     0.023 A 
ATOM     65  C   UNL A   1      38.423  29.447  28.918  1.00  0.00     0.031 A 
ATOM     66  C   UNL A   1      39.031  28.563  31.074  1.00  0.00     0.131 A 
ATOM     67  C   UNL A   1      37.136  29.701  29.414  1.00  0.00     0.055 A 
ATOM     68  C   UNL A   1      37.722  28.733  31.532  1.00  0.00     0.041 A 
ATOM     69  F   UNL A   1      39.931  28.067  31.938  1.00  0.00    -0.206 F 
ATOM     70  C   UNL A   1      36.770  29.321  30.706  1.00  0.00     0.022 A 
BRANCH  67  71
ATOM     71  S   UNL A   1      35.997  30.682  28.398  1.00  0.00     0.124 S 
ATOM     72  O   UNL A   1      35.137  31.281  29.417  1.00  0.00    -0.237 OA
ATOM     73  O   UNL A   1      36.898  31.594  27.704  1.00  0.00    -0.237 OA
ATOM     74  O   UNL A   1      35.345  29.684  27.552  1.00  0.00    -0.744 OA
ENDBRANCH  67  71
ENDBRANCH  50  64
BRANCH  51  75
ATOM     75  C   UNL A   1      48.710  27.356  26.335  1.00  0.00     0.023 A 
ATOM     76  C   UNL A   1      49.015  27.658  24.998  1.00  0.00     0.031 A 
ATOM     77  C   UNL A   1      49.730  26.806  27.133  1.00  0.00     0.131 A 
ATOM     78  C   UNL A   1      50.286  27.357  24.484  1.00  0.00     0.055 A 
ATOM     79  C   UNL A   1      51.011  26.566  26.633  1.00  0.00     0.041 A 
ATOM     80  F   UNL A   1      49.496  26.501  28.420  1.00  0.00    -0.206 F 
ATOM     81  C   UNL A   1      51.290  26.827  25.297  1.00  0.00     0.022 A 
BRANCH  78  82
ATOM     82  S   UNL A   1      50.576  27.573  22.706  1.00  0.00     0.124 S 
ATOM     83  O   UNL A   1      51.774  26.768  22.503  1.00  0.00    -0.237 OA
ATOM     84  O   UNL A   1      49.342  27.047  22.132  1.00  0.00    -0.237 OA
ATOM     85  O   UNL A   1      50.761  29.016  22.566  1.00  0.00    -0.744 OA
ENDBRANCH  78  82
ENDBRANCH  51  75
BRANCH  63  86
ATOM     86  C   UNL A   1      45.518  32.794  29.327  1.00  0.00     0.023 A 
ATOM     87  C   UNL A   1      45.520  33.889  28.445  1.00  0.00     0.031 A 
ATOM     88  C   UNL A   1      46.008  32.997  30.630  1.00  0.00     0.131 A 
ATOM     89  C   UNL A   1      46.061  35.117  28.856  1.00  0.00     0.055 A 
ATOM     90  C   UNL A   1      46.479  34.239  31.055  1.00  0.00     0.041 A 
ATOM     91  F   UNL A   1      46.034  31.987  31.515  1.00  0.00    -0.206 F 
ATOM     92  C   UNL A   1      46.523  35.304  30.161  1.00  0.00     0.022 A 
BRANCH  89  93
ATOM     93  S   UNL A   1      46.260  36.436  27.626  1.00  0.00     0.124 S 
ATOM     94  O   UNL A   1      45.316  36.031  26.591  1.00  0.00    -0.237 OA
ATOM     95  O   UNL A   1      45.900  37.628  28.388  1.00  0.00    -0.237 OA
ATOM     96  O   UNL A   1      47.670  36.344  27.251  1.00  0.00    -0.744 OA
ENDBRANCH  89  93
ENDBRANCH  63  86
ENDBRANCH  37  38
ENDBRANCH  29  32
ENDBRANCH  27  28
ENDBRANCH  26  27
ENDBRANCH  25  26
ENDBRANCH   1  25
TORSDOF 21
ENDMDL
