MODEL 1
REMARK VINA RESULT:     -10.4      0.000      0.000
REMARK SMILES CN(CC(=O)NCCCCCCNC(=O)c1ccc(-c2c3nc(c(-c4cc(S(=O)(=O)[O-])ccc4F)c4ccc([nH]4)c(-c4cc(S(=O)(=O)[O-])ccc4F)c4nc(c(-c5cc(S(=O)(=O)[O-])ccc5F)c5ccc2[nH]5)C=C4)C=C3)cc1)c1ncc(-c2nnnn2-c2ccccc2)c(-c2ccc(Cl)cc2)n1
REMARK SMILES IDX 9 1 8 2 7 3 6 4 4 5 5 6 3 8 2 9 1 10 79 11 80 12 102 13
REMARK SMILES IDX 81 14 94 15 82 16 95 17 96 18 101 19 97 20 100 21 98 22
REMARK SMILES IDX 99 23 83 24 84 25 87 26 85 27 86 28 88 29 89 30 93 31 90 32
REMARK SMILES IDX 92 33 91 34 10 35 11 36 12 37 13 38 14 39 15 41 16 42 17 43
REMARK SMILES IDX 78 44 18 45 77 46 19 47 20 48 21 49 71 50 22 51 76 52 70 53
REMARK SMILES IDX 72 54 23 55 75 56 69 57 68 58 24 60 56 61 36 62 55 63 37 64
REMARK SMILES IDX 40 65 54 66 73 67 38 68 39 69 53 71 74 72 41 73 25 74 26 75
REMARK SMILES IDX 34 76 27 77 33 78 35 79 32 80 28 81 29 82 30 83 31 84 57 85
REMARK SMILES IDX 58 86 66 87 59 88 65 89 67 90 64 91 60 92 61 93 62 94 63 95
REMARK SMILES IDX 42 96 43 97 51 98 44 99 50 100 52 101 49 102 45 103 46 104
REMARK SMILES IDX 47 105 48 106
REMARK H PARENT 6 7 13 40 72 59 40 70
REMARK Flexibility Score: inf
ROOT
ATOM      1  C   UNL A   1      39.453  28.763  28.923  1.00  0.00     0.002 C 
ENDROOT
BRANCH   1   2
ATOM      2  C   UNL A   1      39.452  27.235  28.779  1.00  0.00     0.021 C 
BRANCH   2   3
ATOM      3  C   UNL A   1      40.130  26.732  27.505  1.00  0.00     0.116 C 
BRANCH   3   4
ATOM      4  N   UNL A   1      40.812  25.475  27.727  1.00  0.00    -0.355 N 
ATOM      5  C   UNL A   1      40.297  24.209  27.688  1.00  0.00     0.239 C 
ATOM      6  O   UNL A   1      41.065  23.265  27.898  1.00  0.00    -0.273 OA
ATOM      7  H   UNL A   1      41.773  25.541  27.933  1.00  0.00     0.163 HD
BRANCH   5   8
ATOM      8  C   UNL A   1      38.844  23.982  27.247  1.00  0.00     0.219 C 
BRANCH   8   9
ATOM      9  N   UNL A   1      38.658  22.986  26.190  1.00  0.00    -0.335 N 
ATOM     10  C   UNL A   1      39.289  21.688  26.299  1.00  0.00     0.147 C 
BRANCH   9  11
ATOM     11  C   UNL A   1      37.515  23.076  25.427  1.00  0.00     0.226 A 
ATOM     12  N   UNL A   1      37.465  22.396  24.279  1.00  0.00    -0.221 NA
ATOM     13  N   UNL A   1      36.488  23.825  25.861  1.00  0.00    -0.212 NA
ATOM     14  C   UNL A   1      36.319  22.435  23.578  1.00  0.00     0.129 A 
ATOM     15  C   UNL A   1      35.359  23.892  25.112  1.00  0.00     0.087 A 
ATOM     16  C   UNL A   1      35.203  23.153  23.953  1.00  0.00     0.066 A 
BRANCH  15  17
ATOM     17  C   UNL A   1      34.356  24.844  25.621  1.00  0.00     0.001 A 
ATOM     18  C   UNL A   1      34.627  26.226  25.588  1.00  0.00     0.012 A 
ATOM     19  C   UNL A   1      33.116  24.429  26.133  1.00  0.00     0.012 A 
ATOM     20  C   UNL A   1      33.681  27.160  26.019  1.00  0.00     0.021 A 
ATOM     21  C   UNL A   1      32.167  25.362  26.565  1.00  0.00     0.021 A 
ATOM     22  C   UNL A   1      32.451  26.723  26.500  1.00  0.00     0.041 A 
ATOM     23  Cl  UNL A   1      31.276  27.870  27.014  1.00  0.00    -0.084 Cl
ENDBRANCH  15  17
BRANCH  16  24
ATOM     24  C   UNL A   1      34.005  23.121  23.134  1.00  0.00     0.190 A 
ATOM     25  N   UNL A   1      33.660  24.018  22.229  1.00  0.00    -0.108 NA
ATOM     26  N   UNL A   1      33.122  22.051  23.034  1.00  0.00    -0.193 N 
ATOM     27  N   UNL A   1      32.642  23.462  21.502  1.00  0.00    -0.023 NA
ATOM     28  N   UNL A   1      32.361  22.242  21.932  1.00  0.00    -0.040 NA
BRANCH  26  29
ATOM     29  C   UNL A   1      32.972  20.908  23.854  1.00  0.00     0.069 A 
ATOM     30  C   UNL A   1      32.548  19.703  23.279  1.00  0.00     0.028 A 
ATOM     31  C   UNL A   1      33.231  20.967  25.231  1.00  0.00     0.028 A 
ATOM     32  C   UNL A   1      32.434  18.558  24.069  1.00  0.00     0.002 A 
ATOM     33  C   UNL A   1      33.081  19.824  26.019  1.00  0.00     0.002 A 
ATOM     34  C   UNL A   1      32.697  18.620  25.437  1.00  0.00     0.000 A 
ENDBRANCH  26  29
ENDBRANCH  16  24
ENDBRANCH   9  11
ENDBRANCH   8   9
ENDBRANCH   5   8
ENDBRANCH   3   4
ENDBRANCH   2   3
ENDBRANCH   1   2
BRANCH   1  35
ATOM     35  C   UNL A   1      38.452  29.503  28.028  1.00  0.00     0.002 C 
BRANCH  35  36
ATOM     36  C   UNL A   1      37.353  30.264  28.775  1.00  0.00     0.021 C 
BRANCH  36  37
ATOM     37  C   UNL A   1      36.644  29.456  29.857  1.00  0.00     0.116 C 
BRANCH  37  38
ATOM     38  N   UNL A   1      36.378  30.254  31.043  1.00  0.00    -0.352 N 
ATOM     39  C   UNL A   1      37.104  30.351  32.202  1.00  0.00     0.251 C 
ATOM     40  H   UNL A   1      35.561  30.801  31.009  1.00  0.00     0.163 HD
ATOM     41  O   UNL A   1      36.606  30.911  33.181  1.00  0.00    -0.269 OA
BRANCH  39  42
ATOM     42  C   UNL A   1      38.465  29.778  32.284  1.00  0.00     0.039 A 
ATOM     43  C   UNL A   1      39.567  30.632  32.177  1.00  0.00     0.014 A 
ATOM     44  C   UNL A   1      38.661  28.401  32.428  1.00  0.00     0.014 A 
ATOM     45  C   UNL A   1      40.860  30.109  32.250  1.00  0.00     0.010 A 
ATOM     46  C   UNL A   1      39.949  27.892  32.574  1.00  0.00     0.010 A 
ATOM     47  C   UNL A   1      41.064  28.737  32.467  1.00  0.00    -0.014 A 
BRANCH  47  48
ATOM     48  C   UNL A   1      42.433  28.160  32.529  1.00  0.00     0.031 A 
ATOM     49  C   UNL A   1      43.083  27.922  33.868  1.00  0.00     0.074 A 
ATOM     50  C   UNL A   1      43.107  27.895  31.391  1.00  0.00     0.049 A 
ATOM     51  N   UNL A   1      44.292  27.504  34.141  1.00  0.00    -0.248 NA
ATOM     52  C   UNL A   1      42.270  28.221  35.058  1.00  0.00     0.031 C 
ATOM     53  C   UNL A   1      42.595  28.111  30.036  1.00  0.00     0.029 A 
ATOM     54  N   UNL A   1      44.369  27.392  31.191  1.00  0.00    -0.354 N 
ATOM     55  C   UNL A   1      44.392  27.510  35.528  1.00  0.00     0.074 A 
ATOM     56  C   UNL A   1      43.141  28.030  36.037  1.00  0.00     0.031 C 
ATOM     57  C   UNL A   1      43.526  27.723  29.148  1.00  0.00     0.029 A 
ATOM     58  C   UNL A   1      44.715  27.275  29.865  1.00  0.00     0.049 A 
ATOM     59  H   UNL A   1      44.970  27.140  31.929  1.00  0.00     0.167 HD
ATOM     60  C   UNL A   1      45.422  27.097  36.308  1.00  0.00     0.034 A 
ATOM     61  C   UNL A   1      45.865  26.863  29.292  1.00  0.00     0.034 A 
ATOM     62  C   UNL A   1      46.653  26.556  35.786  1.00  0.00     0.049 A 
ATOM     63  C   UNL A   1      47.002  26.418  30.183  1.00  0.00     0.074 A 
ATOM     64  C   UNL A   1      47.742  26.063  36.484  1.00  0.00     0.029 A 
ATOM     65  N   UNL A   1      46.961  26.437  34.437  1.00  0.00    -0.354 N 
ATOM     66  N   UNL A   1      47.063  26.391  31.494  1.00  0.00    -0.248 NA
ATOM     67  C   UNL A   1      48.216  25.934  29.514  1.00  0.00     0.031 C 
ATOM     68  C   UNL A   1      48.731  25.710  35.561  1.00  0.00     0.029 A 
ATOM     69  C   UNL A   1      48.230  25.902  34.284  1.00  0.00     0.049 A 
ATOM     70  H   UNL A   1      46.365  26.695  33.697  1.00  0.00     0.167 HD
ATOM     71  C   UNL A   1      48.305  25.844  31.804  1.00  0.00     0.074 A 
ATOM     72  C   UNL A   1      48.952  25.545  30.545  1.00  0.00     0.031 C 
ATOM     73  C   UNL A   1      48.861  25.603  33.020  1.00  0.00     0.034 A 
BRANCH  60  74
ATOM     74  C   UNL A   1      45.268  27.237  37.804  1.00  0.00     0.023 A 
ATOM     75  C   UNL A   1      45.675  28.397  38.487  1.00  0.00     0.031 A 
ATOM     76  C   UNL A   1      44.715  26.190  38.562  1.00  0.00     0.131 A 
ATOM     77  C   UNL A   1      45.588  28.455  39.886  1.00  0.00     0.055 A 
ATOM     78  C   UNL A   1      44.552  26.288  39.946  1.00  0.00     0.041 A 
ATOM     79  F   UNL A   1      44.328  25.049  37.971  1.00  0.00    -0.206 F 
ATOM     80  C   UNL A   1      45.002  27.420  40.618  1.00  0.00     0.022 A 
BRANCH  77  81
ATOM     81  S   UNL A   1      46.370  29.846  40.747  1.00  0.00     0.124 S 
ATOM     82  O   UNL A   1      45.705  29.797  42.048  1.00  0.00    -0.237 OA
ATOM     83  O   UNL A   1      47.780  29.472  40.736  1.00  0.00    -0.237 OA
ATOM     84  O   UNL A   1      46.022  31.000  39.921  1.00  0.00    -0.744 OA
ENDBRANCH  77  81
ENDBRANCH  60  74
BRANCH  61  85
ATOM     85  C   UNL A   1      46.019  26.854  27.807  1.00  0.00     0.023 A 
ATOM     86  C   UNL A   1      45.877  25.666  27.073  1.00  0.00     0.031 A 
ATOM     87  C   UNL A   1      46.376  28.020  27.108  1.00  0.00     0.131 A 
ATOM     88  C   UNL A   1      46.157  25.655  25.697  1.00  0.00     0.055 A 
ATOM     89  C   UNL A   1      46.592  28.018  25.728  1.00  0.00     0.041 A 
ATOM     90  F   UNL A   1      46.522  29.186  27.758  1.00  0.00    -0.206 F 
ATOM     91  C   UNL A   1      46.500  26.825  25.017  1.00  0.00     0.022 A 
BRANCH  88  92
ATOM     92  S   UNL A   1      46.179  24.062  24.829  1.00  0.00     0.124 S 
ATOM     93  O   UNL A   1      46.564  23.147  25.899  1.00  0.00    -0.237 OA
ATOM     94  O   UNL A   1      44.802  23.955  24.359  1.00  0.00    -0.237 OA
ATOM     95  O   UNL A   1      47.181  24.258  23.784  1.00  0.00    -0.744 OA
ENDBRANCH  88  92
ENDBRANCH  61  85
BRANCH  73  96
ATOM     96  C   UNL A   1      50.206  24.919  33.039  1.00  0.00     0.023 A 
ATOM     97  C   UNL A   1      50.334  23.526  33.180  1.00  0.00     0.031 A 
ATOM     98  C   UNL A   1      51.383  25.682  32.925  1.00  0.00     0.131 A 
ATOM     99  C   UNL A   1      51.609  22.947  33.266  1.00  0.00     0.055 A 
ATOM    100  C   UNL A   1      52.647  25.092  32.944  1.00  0.00     0.041 A 
ATOM    101  F   UNL A   1      51.322  27.017  32.789  1.00  0.00    -0.206 F 
ATOM    102  C   UNL A   1      52.766  23.718  33.132  1.00  0.00     0.022 A 
BRANCH  99 103
ATOM    103  S   UNL A   1      51.738  21.182  33.662  1.00  0.00     0.124 S 
ATOM    104  O   UNL A   1      53.079  20.861  33.184  1.00  0.00    -0.237 OA
ATOM    105  O   UNL A   1      51.559  21.174  35.110  1.00  0.00    -0.237 OA
ATOM    106  O   UNL A   1      50.646  20.577  32.901  1.00  0.00    -0.744 OA
ENDBRANCH  99 103
ENDBRANCH  73  96
ENDBRANCH  47  48
ENDBRANCH  39  42
ENDBRANCH  37  38
ENDBRANCH  36  37
ENDBRANCH  35  36
ENDBRANCH   1  35
TORSDOF 21
ENDMDL
MODEL 2
REMARK VINA RESULT:     -10.3      4.778     10.391
REMARK SMILES CN(CC(=O)NCCCCCCNC(=O)c1ccc(-c2c3nc(c(-c4cc(S(=O)(=O)[O-])ccc4F)c4ccc([nH]4)c(-c4cc(S(=O)(=O)[O-])ccc4F)c4nc(c(-c5cc(S(=O)(=O)[O-])ccc5F)c5ccc2[nH]5)C=C4)C=C3)cc1)c1ncc(-c2nnnn2-c2ccccc2)c(-c2ccc(Cl)cc2)n1
REMARK SMILES IDX 9 1 8 2 7 3 6 4 4 5 5 6 3 8 2 9 1 10 79 11 80 12 102 13
REMARK SMILES IDX 81 14 94 15 82 16 95 17 96 18 101 19 97 20 100 21 98 22
REMARK SMILES IDX 99 23 83 24 84 25 87 26 85 27 86 28 88 29 89 30 93 31 90 32
REMARK SMILES IDX 92 33 91 34 10 35 11 36 12 37 13 38 14 39 15 41 16 42 17 43
REMARK SMILES IDX 78 44 18 45 77 46 19 47 20 48 21 49 71 50 22 51 76 52 70 53
REMARK SMILES IDX 72 54 23 55 75 56 69 57 68 58 24 60 56 61 36 62 55 63 37 64
REMARK SMILES IDX 40 65 54 66 73 67 38 68 39 69 53 71 74 72 41 73 25 74 26 75
REMARK SMILES IDX 34 76 27 77 33 78 35 79 32 80 28 81 29 82 30 83 31 84 57 85
REMARK SMILES IDX 58 86 66 87 59 88 65 89 67 90 64 91 60 92 61 93 62 94 63 95
REMARK SMILES IDX 42 96 43 97 51 98 44 99 50 100 52 101 49 102 45 103 46 104
REMARK SMILES IDX 47 105 48 106
REMARK H PARENT 6 7 13 40 72 59 40 70
REMARK Flexibility Score: inf
ROOT
ATOM      1  C   UNL A   1      33.091  27.606  25.972  1.00  0.00     0.002 C 
ENDROOT
BRANCH   1   2
ATOM      2  C   UNL A   1      33.539  26.650  24.859  1.00  0.00     0.021 C 
BRANCH   2   3
ATOM      3  C   UNL A   1      34.327  25.440  25.359  1.00  0.00     0.116 C 
BRANCH   3   4
ATOM      4  N   UNL A   1      33.762  24.200  24.875  1.00  0.00    -0.355 N 
ATOM      5  C   UNL A   1      34.254  22.931  25.009  1.00  0.00     0.239 C 
ATOM      6  O   UNL A   1      33.601  22.002  24.523  1.00  0.00    -0.273 OA
ATOM      7  H   UNL A   1      32.912  24.280  24.384  1.00  0.00     0.163 HD
BRANCH   5   8
ATOM      8  C   UNL A   1      35.501  22.675  25.867  1.00  0.00     0.219 C 
BRANCH   8   9
ATOM      9  N   UNL A   1      36.769  22.633  25.134  1.00  0.00    -0.335 N 
ATOM     10  C   UNL A   1      36.783  22.837  23.702  1.00  0.00     0.147 C 
BRANCH   9  11
ATOM     11  C   UNL A   1      37.916  22.938  25.833  1.00  0.00     0.226 A 
ATOM     12  N   UNL A   1      37.923  24.037  26.589  1.00  0.00    -0.221 NA
ATOM     13  N   UNL A   1      38.979  22.121  25.746  1.00  0.00    -0.212 NA
ATOM     14  C   UNL A   1      39.022  24.287  27.322  1.00  0.00     0.129 A 
ATOM     15  C   UNL A   1      40.098  22.420  26.453  1.00  0.00     0.087 A 
ATOM     16  C   UNL A   1      40.152  23.497  27.320  1.00  0.00     0.066 A 
BRANCH  15  17
ATOM     17  C   UNL A   1      41.238  21.528  26.177  1.00  0.00     0.001 A 
ATOM     18  C   UNL A   1      41.101  20.140  26.372  1.00  0.00     0.012 A 
ATOM     19  C   UNL A   1      42.472  22.007  25.705  1.00  0.00     0.012 A 
ATOM     20  C   UNL A   1      42.144  19.260  26.077  1.00  0.00     0.021 A 
ATOM     21  C   UNL A   1      43.519  21.128  25.408  1.00  0.00     0.021 A 
ATOM     22  C   UNL A   1      43.348  19.758  25.588  1.00  0.00     0.041 A 
ATOM     23  Cl  UNL A   1      44.631  18.677  25.205  1.00  0.00    -0.084 Cl
ENDBRANCH  15  17
BRANCH  16  24
ATOM     24  C   UNL A   1      41.286  23.842  28.156  1.00  0.00     0.190 A 
ATOM     25  N   UNL A   1      41.884  23.044  29.022  1.00  0.00    -0.108 NA
ATOM     26  N   UNL A   1      42.046  25.003  28.051  1.00  0.00    -0.193 N 
ATOM     27  N   UNL A   1      43.059  23.656  29.366  1.00  0.00    -0.023 NA
ATOM     28  N   UNL A   1      43.202  24.806  28.725  1.00  0.00    -0.040 NA
BRANCH  26  29
ATOM     29  C   UNL A   1      41.777  26.215  27.371  1.00  0.00     0.069 A 
ATOM     30  C   UNL A   1      40.952  27.170  27.976  1.00  0.00     0.028 A 
ATOM     31  C   UNL A   1      42.315  26.465  26.100  1.00  0.00     0.028 A 
ATOM     32  C   UNL A   1      40.710  28.387  27.335  1.00  0.00     0.002 A 
ATOM     33  C   UNL A   1      42.039  27.670  25.451  1.00  0.00     0.002 A 
ATOM     34  C   UNL A   1      41.250  28.634  26.073  1.00  0.00     0.000 A 
ENDBRANCH  26  29
ENDBRANCH  16  24
ENDBRANCH   9  11
ENDBRANCH   8   9
ENDBRANCH   5   8
ENDBRANCH   3   4
ENDBRANCH   2   3
ENDBRANCH   1   2
BRANCH   1  35
ATOM     35  C   UNL A   1      34.028  28.791  26.231  1.00  0.00     0.002 C 
BRANCH  35  36
ATOM     36  C   UNL A   1      33.402  29.958  27.000  1.00  0.00     0.021 C 
BRANCH  36  37
ATOM     37  C   UNL A   1      34.409  30.905  27.645  1.00  0.00     0.116 C 
BRANCH  37  38
ATOM     38  N   UNL A   1      33.831  32.212  27.910  1.00  0.00    -0.352 N 
ATOM     39  C   UNL A   1      34.126  33.103  28.910  1.00  0.00     0.251 C 
ATOM     40  H   UNL A   1      33.128  32.497  27.284  1.00  0.00     0.163 HD
ATOM     41  O   UNL A   1      33.378  34.065  29.101  1.00  0.00    -0.269 OA
BRANCH  39  42
ATOM     42  C   UNL A   1      35.319  32.907  29.760  1.00  0.00     0.039 A 
ATOM     43  C   UNL A   1      36.404  33.776  29.616  1.00  0.00     0.014 A 
ATOM     44  C   UNL A   1      35.389  31.850  30.672  1.00  0.00     0.014 A 
ATOM     45  C   UNL A   1      37.542  33.606  30.409  1.00  0.00     0.010 A 
ATOM     46  C   UNL A   1      36.493  31.727  31.513  1.00  0.00     0.010 A 
ATOM     47  C   UNL A   1      37.590  32.591  31.377  1.00  0.00    -0.014 A 
BRANCH  47  48
ATOM     48  C   UNL A   1      38.799  32.383  32.218  1.00  0.00     0.031 A 
ATOM     49  C   UNL A   1      40.054  31.827  31.594  1.00  0.00     0.074 A 
ATOM     50  C   UNL A   1      38.758  32.647  33.539  1.00  0.00     0.049 A 
ATOM     51  N   UNL A   1      41.186  31.496  32.161  1.00  0.00    -0.248 NA
ATOM     52  C   UNL A   1      40.018  31.584  30.143  1.00  0.00     0.031 C 
ATOM     53  C   UNL A   1      37.593  33.159  34.262  1.00  0.00     0.029 A 
ATOM     54  N   UNL A   1      39.718  32.515  34.512  1.00  0.00    -0.354 N 
ATOM     55  C   UNL A   1      41.987  30.989  31.142  1.00  0.00     0.074 A 
ATOM     56  C   UNL A   1      41.189  31.002  29.936  1.00  0.00     0.031 C 
ATOM     57  C   UNL A   1      37.914  33.319  35.557  1.00  0.00     0.029 A 
ATOM     58  C   UNL A   1      39.289  32.878  35.768  1.00  0.00     0.049 A 
ATOM     59  H   UNL A   1      40.630  32.190  34.327  1.00  0.00     0.167 HD
ATOM     60  C   UNL A   1      43.277  30.575  31.203  1.00  0.00     0.034 A 
ATOM     61  C   UNL A   1      39.928  32.847  36.955  1.00  0.00     0.034 A 
ATOM     62  C   UNL A   1      44.068  30.595  32.409  1.00  0.00     0.049 A 
ATOM     63  C   UNL A   1      41.362  32.372  36.997  1.00  0.00     0.074 A 
ATOM     64  C   UNL A   1      45.397  30.245  32.573  1.00  0.00     0.029 A 
ATOM     65  N   UNL A   1      43.604  30.985  33.658  1.00  0.00    -0.354 N 
ATOM     66  N   UNL A   1      42.117  31.936  36.015  1.00  0.00    -0.248 NA
ATOM     67  C   UNL A   1      42.031  32.402  38.303  1.00  0.00     0.031 C 
ATOM     68  C   UNL A   1      45.716  30.359  33.930  1.00  0.00     0.029 A 
ATOM     69  C   UNL A   1      44.613  30.861  34.601  1.00  0.00     0.049 A 
ATOM     70  H   UNL A   1      42.691  31.304  33.848  1.00  0.00     0.167 HD
ATOM     71  C   UNL A   1      43.364  31.683  36.582  1.00  0.00     0.074 A 
ATOM     72  C   UNL A   1      43.260  32.027  37.984  1.00  0.00     0.031 C 
ATOM     73  C   UNL A   1      44.496  31.215  35.996  1.00  0.00     0.034 A 
BRANCH  60  74
ATOM     74  C   UNL A   1      43.903  30.047  29.934  1.00  0.00     0.023 A 
ATOM     75  C   UNL A   1      44.475  30.903  28.976  1.00  0.00     0.031 A 
ATOM     76  C   UNL A   1      43.921  28.665  29.673  1.00  0.00     0.131 A 
ATOM     77  C   UNL A   1      44.976  30.377  27.775  1.00  0.00     0.055 A 
ATOM     78  C   UNL A   1      44.498  28.141  28.513  1.00  0.00     0.041 A 
ATOM     79  F   UNL A   1      43.372  27.798  30.538  1.00  0.00    -0.206 F 
ATOM     80  C   UNL A   1      45.017  29.001  27.549  1.00  0.00     0.022 A 
BRANCH  77  81
ATOM     81  S   UNL A   1      45.451  31.528  26.457  1.00  0.00     0.124 S 
ATOM     82  O   UNL A   1      44.149  31.884  25.895  1.00  0.00    -0.237 OA
ATOM     83  O   UNL A   1      46.140  32.584  27.190  1.00  0.00    -0.237 OA
ATOM     84  O   UNL A   1      46.297  30.719  25.583  1.00  0.00    -0.744 OA
ENDBRANCH  77  81
ENDBRANCH  60  74
BRANCH  61  85
ATOM     85  C   UNL A   1      39.232  33.267  38.208  1.00  0.00     0.023 A 
ATOM     86  C   UNL A   1      38.388  32.383  38.897  1.00  0.00     0.031 A 
ATOM     87  C   UNL A   1      39.350  34.580  38.697  1.00  0.00     0.131 A 
ATOM     88  C   UNL A   1      37.641  32.840  39.995  1.00  0.00     0.055 A 
ATOM     89  C   UNL A   1      38.654  35.012  39.828  1.00  0.00     0.041 A 
ATOM     90  F   UNL A   1      40.146  35.467  38.080  1.00  0.00    -0.206 F 
ATOM     91  C   UNL A   1      37.778  34.144  40.473  1.00  0.00     0.022 A 
BRANCH  88  92
ATOM     92  S   UNL A   1      36.398  31.734  40.719  1.00  0.00     0.124 S 
ATOM     93  O   UNL A   1      37.233  30.676  41.278  1.00  0.00    -0.237 OA
ATOM     94  O   UNL A   1      35.741  32.609  41.683  1.00  0.00    -0.237 OA
ATOM     95  O   UNL A   1      35.581  31.345  39.572  1.00  0.00    -0.744 OA
ENDBRANCH  88  92
ENDBRANCH  61  85
BRANCH  73  96
ATOM     96  C   UNL A   1      45.730  31.118  36.860  1.00  0.00     0.023 A 
ATOM     97  C   UNL A   1      46.041  29.957  37.589  1.00  0.00     0.031 A 
ATOM     98  C   UNL A   1      46.604  32.215  36.961  1.00  0.00     0.131 A 
ATOM     99  C   UNL A   1      47.160  29.942  38.435  1.00  0.00     0.055 A 
ATOM    100  C   UNL A   1      47.753  32.171  37.751  1.00  0.00     0.041 A 
ATOM    101  F   UNL A   1      46.357  33.351  36.287  1.00  0.00    -0.206 F 
ATOM    102  C   UNL A   1      48.028  31.035  38.507  1.00  0.00     0.022 A 
BRANCH  99 103
ATOM    103  S   UNL A   1      47.412  28.512  39.521  1.00  0.00     0.124 S 
ATOM    104  O   UNL A   1      48.800  28.687  39.937  1.00  0.00    -0.237 OA
ATOM    105  O   UNL A   1      46.406  28.727  40.556  1.00  0.00    -0.237 OA
ATOM    106  O   UNL A   1      47.165  27.367  38.646  1.00  0.00    -0.744 OA
ENDBRANCH  99 103
ENDBRANCH  73  96
ENDBRANCH  47  48
ENDBRANCH  39  42
ENDBRANCH  37  38
ENDBRANCH  36  37
ENDBRANCH  35  36
ENDBRANCH   1  35
TORSDOF 21
ENDMDL
MODEL 3
REMARK VINA RESULT:     -10.1      1.609      2.712
REMARK SMILES CN(CC(=O)NCCCCCCNC(=O)c1ccc(-c2c3nc(c(-c4cc(S(=O)(=O)[O-])ccc4F)c4ccc([nH]4)c(-c4cc(S(=O)(=O)[O-])ccc4F)c4nc(c(-c5cc(S(=O)(=O)[O-])ccc5F)c5ccc2[nH]5)C=C4)C=C3)cc1)c1ncc(-c2nnnn2-c2ccccc2)c(-c2ccc(Cl)cc2)n1
REMARK SMILES IDX 9 1 8 2 7 3 6 4 4 5 5 6 3 8 2 9 1 10 79 11 80 12 102 13
REMARK SMILES IDX 81 14 94 15 82 16 95 17 96 18 101 19 97 20 100 21 98 22
REMARK SMILES IDX 99 23 83 24 84 25 87 26 85 27 86 28 88 29 89 30 93 31 90 32
REMARK SMILES IDX 92 33 91 34 10 35 11 36 12 37 13 38 14 39 15 41 16 42 17 43
REMARK SMILES IDX 78 44 18 45 77 46 19 47 20 48 21 49 71 50 22 51 76 52 70 53
REMARK SMILES IDX 72 54 23 55 75 56 69 57 68 58 24 60 56 61 36 62 55 63 37 64
REMARK SMILES IDX 40 65 54 66 73 67 38 68 39 69 53 71 74 72 41 73 25 74 26 75
REMARK SMILES IDX 34 76 27 77 33 78 35 79 32 80 28 81 29 82 30 83 31 84 57 85
REMARK SMILES IDX 58 86 66 87 59 88 65 89 67 90 64 91 60 92 61 93 62 94 63 95
REMARK SMILES IDX 42 96 43 97 51 98 44 99 50 100 52 101 49 102 45 103 46 104
REMARK SMILES IDX 47 105 48 106
REMARK H PARENT 6 7 13 40 72 59 40 70
REMARK Flexibility Score: inf
ROOT
ATOM      1  C   UNL A   1      39.695  28.555  28.843  1.00  0.00     0.002 C 
ENDROOT
BRANCH   1   2
ATOM      2  C   UNL A   1      39.791  27.060  28.514  1.00  0.00     0.021 C 
BRANCH   2   3
ATOM      3  C   UNL A   1      40.109  26.766  27.048  1.00  0.00     0.116 C 
BRANCH   3   4
ATOM      4  N   UNL A   1      40.640  25.432  26.876  1.00  0.00    -0.355 N 
ATOM      5  C   UNL A   1      39.968  24.241  26.885  1.00  0.00     0.239 C 
ATOM      6  O   UNL A   1      40.619  23.207  26.707  1.00  0.00    -0.273 OA
ATOM      7  H   UNL A   1      41.613  25.373  26.735  1.00  0.00     0.163 HD
BRANCH   5   8
ATOM      8  C   UNL A   1      38.435  24.223  26.966  1.00  0.00     0.219 C 
BRANCH   8   9
ATOM      9  N   UNL A   1      37.768  23.326  26.019  1.00  0.00    -0.335 N 
ATOM     10  C   UNL A   1      38.425  22.112  25.587  1.00  0.00     0.147 C 
BRANCH   9  11
ATOM     11  C   UNL A   1      36.391  23.354  25.981  1.00  0.00     0.226 A 
ATOM     12  N   UNL A   1      35.719  22.914  27.046  1.00  0.00    -0.221 NA
ATOM     13  N   UNL A   1      35.770  23.833  24.890  1.00  0.00    -0.212 NA
ATOM     14  C   UNL A   1      34.379  23.011  27.027  1.00  0.00     0.129 A 
ATOM     15  C   UNL A   1      34.414  23.874  24.869  1.00  0.00     0.087 A 
ATOM     16  C   UNL A   1      33.653  23.510  25.966  1.00  0.00     0.066 A 
BRANCH  15  17
ATOM     17  C   UNL A   1      33.846  24.292  23.576  1.00  0.00     0.001 A 
ATOM     18  C   UNL A   1      33.940  25.639  23.177  1.00  0.00     0.012 A 
ATOM     19  C   UNL A   1      33.217  23.389  22.702  1.00  0.00     0.012 A 
ATOM     20  C   UNL A   1      33.454  26.064  21.937  1.00  0.00     0.021 A 
ATOM     21  C   UNL A   1      32.730  23.811  21.460  1.00  0.00     0.021 A 
ATOM     22  C   UNL A   1      32.857  25.144  21.080  1.00  0.00     0.041 A 
ATOM     23  Cl  UNL A   1      32.274  25.658  19.545  1.00  0.00    -0.084 Cl
ENDBRANCH  15  17
BRANCH  16  24
ATOM     24  C   UNL A   1      32.206  23.588  26.044  1.00  0.00     0.190 A 
ATOM     25  N   UNL A   1      31.383  22.570  26.214  1.00  0.00    -0.108 NA
ATOM     26  N   UNL A   1      31.462  24.760  26.140  1.00  0.00    -0.193 N 
ATOM     27  N   UNL A   1      30.162  23.108  26.523  1.00  0.00    -0.023 NA
ATOM     28  N   UNL A   1      30.218  24.430  26.555  1.00  0.00    -0.040 NA
BRANCH  26  29
ATOM     29  C   UNL A   1      31.836  26.104  25.900  1.00  0.00     0.069 A 
ATOM     30  C   UNL A   1      31.155  26.840  24.923  1.00  0.00     0.028 A 
ATOM     31  C   UNL A   1      32.882  26.702  26.618  1.00  0.00     0.028 A 
ATOM     32  C   UNL A   1      31.486  28.178  24.704  1.00  0.00     0.002 A 
ATOM     33  C   UNL A   1      33.229  28.031  26.368  1.00  0.00     0.002 A 
ATOM     34  C   UNL A   1      32.524  28.771  25.423  1.00  0.00     0.000 A 
ENDBRANCH  26  29
ENDBRANCH  16  24
ENDBRANCH   9  11
ENDBRANCH   8   9
ENDBRANCH   5   8
ENDBRANCH   3   4
ENDBRANCH   2   3
ENDBRANCH   1   2
BRANCH   1  35
ATOM     35  C   UNL A   1      38.707  29.351  27.983  1.00  0.00     0.002 C 
BRANCH  35  36
ATOM     36  C   UNL A   1      37.644  30.128  28.765  1.00  0.00     0.021 C 
BRANCH  36  37
ATOM     37  C   UNL A   1      36.956  29.330  29.866  1.00  0.00     0.116 C 
BRANCH  37  38
ATOM     38  N   UNL A   1      36.679  30.146  31.036  1.00  0.00    -0.352 N 
ATOM     39  C   UNL A   1      37.394  30.263  32.200  1.00  0.00     0.251 C 
ATOM     40  H   UNL A   1      35.862  30.693  30.985  1.00  0.00     0.163 HD
ATOM     41  O   UNL A   1      36.886  30.839  33.165  1.00  0.00    -0.269 OA
BRANCH  39  42
ATOM     42  C   UNL A   1      38.753  29.691  32.305  1.00  0.00     0.039 A 
ATOM     43  C   UNL A   1      39.856  30.544  32.199  1.00  0.00     0.014 A 
ATOM     44  C   UNL A   1      38.948  28.317  32.470  1.00  0.00     0.014 A 
ATOM     45  C   UNL A   1      41.149  30.023  32.293  1.00  0.00     0.010 A 
ATOM     46  C   UNL A   1      40.234  27.810  32.637  1.00  0.00     0.010 A 
ATOM     47  C   UNL A   1      41.350  28.654  32.531  1.00  0.00    -0.014 A 
BRANCH  47  48
ATOM     48  C   UNL A   1      42.719  28.078  32.615  1.00  0.00     0.031 A 
ATOM     49  C   UNL A   1      43.337  27.817  33.965  1.00  0.00     0.074 A 
ATOM     50  C   UNL A   1      43.420  27.833  31.490  1.00  0.00     0.049 A 
ATOM     51  N   UNL A   1      44.540  27.397  34.259  1.00  0.00    -0.248 NA
ATOM     52  C   UNL A   1      42.495  28.095  35.140  1.00  0.00     0.031 C 
ATOM     53  C   UNL A   1      42.941  28.072  30.127  1.00  0.00     0.029 A 
ATOM     54  N   UNL A   1      44.687  27.336  31.311  1.00  0.00    -0.354 N 
ATOM     55  C   UNL A   1      44.607  27.379  35.649  1.00  0.00     0.074 A 
ATOM     56  C   UNL A   1      43.343  27.888  36.136  1.00  0.00     0.031 C 
ATOM     57  C   UNL A   1      43.892  27.701  29.255  1.00  0.00     0.029 A 
ATOM     58  C   UNL A   1      45.066  27.242  29.992  1.00  0.00     0.049 A 
ATOM     59  H   UNL A   1      45.271  27.072  32.059  1.00  0.00     0.167 HD
ATOM     60  C   UNL A   1      45.619  26.955  36.446  1.00  0.00     0.034 A 
ATOM     61  C   UNL A   1      46.229  26.842  29.439  1.00  0.00     0.034 A 
ATOM     62  C   UNL A   1      46.863  26.424  35.944  1.00  0.00     0.049 A 
ATOM     63  C   UNL A   1      47.346  26.384  30.349  1.00  0.00     0.074 A 
ATOM     64  C   UNL A   1      47.936  25.921  36.659  1.00  0.00     0.029 A 
ATOM     65  N   UNL A   1      47.204  26.329  34.601  1.00  0.00    -0.354 N 
ATOM     66  N   UNL A   1      47.375  26.334  31.661  1.00  0.00    -0.248 NA
ATOM     67  C   UNL A   1      48.576  25.913  29.702  1.00  0.00     0.031 C 
ATOM     68  C   UNL A   1      48.948  25.585  35.754  1.00  0.00     0.029 A 
ATOM     69  C   UNL A   1      48.477  25.798  34.469  1.00  0.00     0.049 A 
ATOM     70  H   UNL A   1      46.624  26.599  33.851  1.00  0.00     0.167 HD
ATOM     71  C   UNL A   1      48.611  25.783  31.991  1.00  0.00     0.074 A 
ATOM     72  C   UNL A   1      49.289  25.508  30.742  1.00  0.00     0.031 C 
ATOM     73  C   UNL A   1      49.138  25.522  33.215  1.00  0.00     0.034 A 
BRANCH  60  74
ATOM     74  C   UNL A   1      45.430  27.068  37.940  1.00  0.00     0.023 A 
ATOM     75  C   UNL A   1      45.829  28.212  38.654  1.00  0.00     0.031 A 
ATOM     76  C   UNL A   1      44.848  26.013  38.664  1.00  0.00     0.131 A 
ATOM     77  C   UNL A   1      45.708  28.245  40.051  1.00  0.00     0.055 A 
ATOM     78  C   UNL A   1      44.652  26.086  40.045  1.00  0.00     0.041 A 
ATOM     79  F   UNL A   1      44.466  24.886  38.043  1.00  0.00    -0.206 F 
ATOM     80  C   UNL A   1      45.095  27.202  40.749  1.00  0.00     0.022 A 
BRANCH  77  81
ATOM     81  S   UNL A   1      46.481  29.612  40.957  1.00  0.00     0.124 S 
ATOM     82  O   UNL A   1      47.476  28.906  41.761  1.00  0.00    -0.237 OA
ATOM     83  O   UNL A   1      47.004  30.448  39.882  1.00  0.00    -0.237 OA
ATOM     84  O   UNL A   1      45.374  30.190  41.717  1.00  0.00    -0.744 OA
ENDBRANCH  77  81
ENDBRANCH  60  74
BRANCH  61  85
ATOM     85  C   UNL A   1      46.418  26.859  27.959  1.00  0.00     0.023 A 
ATOM     86  C   UNL A   1      46.136  25.725  27.181  1.00  0.00     0.031 A 
ATOM     87  C   UNL A   1      46.948  27.987  27.308  1.00  0.00     0.131 A 
ATOM     88  C   UNL A   1      46.447  25.719  25.812  1.00  0.00     0.055 A 
ATOM     89  C   UNL A   1      47.197  27.999  25.934  1.00  0.00     0.041 A 
ATOM     90  F   UNL A   1      47.233  29.101  28.001  1.00  0.00    -0.206 F 
ATOM     91  C   UNL A   1      46.963  26.852  25.180  1.00  0.00     0.022 A 
BRANCH  88  92
ATOM     92  S   UNL A   1      46.276  24.165  24.890  1.00  0.00     0.124 S 
ATOM     93  O   UNL A   1      46.596  23.177  25.915  1.00  0.00    -0.237 OA
ATOM     94  O   UNL A   1      44.882  24.220  24.463  1.00  0.00    -0.237 OA
ATOM     95  O   UNL A   1      47.261  24.296  23.819  1.00  0.00    -0.744 OA
ENDBRANCH  88  92
ENDBRANCH  61  85
BRANCH  73  96
ATOM     96  C   UNL A   1      50.484  24.841  33.255  1.00  0.00     0.023 A 
ATOM     97  C   UNL A   1      50.611  23.442  33.323  1.00  0.00     0.031 A 
ATOM     98  C   UNL A   1      51.661  25.611  33.236  1.00  0.00     0.131 A 
ATOM     99  C   UNL A   1      51.883  22.861  33.432  1.00  0.00     0.055 A 
ATOM    100  C   UNL A   1      52.926  25.023  33.276  1.00  0.00     0.041 A 
ATOM    101  F   UNL A   1      51.601  26.951  33.173  1.00  0.00    -0.206 F 
ATOM    102  C   UNL A   1      53.042  23.640  33.391  1.00  0.00     0.022 A 
BRANCH  99 103
ATOM    103  S   UNL A   1      52.001  21.077  33.733  1.00  0.00     0.124 S 
ATOM    104  O   UNL A   1      50.863  20.564  32.977  1.00  0.00    -0.237 OA
ATOM    105  O   UNL A   1      53.319  20.757  33.194  1.00  0.00    -0.237 OA
ATOM    106  O   UNL A   1      51.883  20.964  35.186  1.00  0.00    -0.744 OA
ENDBRANCH  99 103
ENDBRANCH  73  96
ENDBRANCH  47  48
ENDBRANCH  39  42
ENDBRANCH  37  38
ENDBRANCH  36  37
ENDBRANCH  35  36
ENDBRANCH   1  35
TORSDOF 21
ENDMDL
