MODEL 1
REMARK VINA RESULT:     -11.2      0.000      0.000
REMARK SMILES O=C(NCCCCCCNC(=O)[C@H]1C=C[C@H](NS(=O)(=O)c2ccc(F)c(F)c2F)C1)c1ccc(-c2c3nc(c(-c4cc(S(=O)(=O)[O-])ccc4F)c4ccc([nH]4)c(-c4cc(S(=O)(=O)[O-])ccc4F)c4nc(c(-c5cc(S(=O)(=O)[O-])ccc5F)c5ccc2[nH]5)C=C4)C=C3)cc1
REMARK SMILES IDX 6 1 5 2 4 3 3 4 1 5 2 6 31 8 32 9 93 10 33 11 92 12 34 13
REMARK SMILES IDX 35 14 36 15 86 16 37 17 91 18 85 19 87 20 38 21 90 22 84 23
REMARK SMILES IDX 83 24 39 26 71 27 51 28 70 29 52 30 55 31 69 32 88 33 53 34
REMARK SMILES IDX 54 35 68 37 89 38 56 39 40 40 41 41 49 42 42 43 48 44 50 45
REMARK SMILES IDX 47 46 43 47 44 48 45 49 46 50 72 51 73 52 81 53 74 54 80 55
REMARK SMILES IDX 82 56 79 57 75 58 76 59 77 60 78 61 57 62 58 63 66 64 59 65
REMARK SMILES IDX 65 66 67 67 64 68 60 69 61 70 62 71 63 72 7 73 8 74 9 75
REMARK SMILES IDX 10 76 11 77 12 79 13 80 14 81 30 82 15 83 16 84 17 85 18 87
REMARK SMILES IDX 19 88 20 89 21 90 22 91 28 92 23 93 26 94 29 95 24 96 27 97
REMARK SMILES IDX 25 98
REMARK H PARENT 3 7 87 25 55 36 10 78 17 86
REMARK Flexibility Score: inf
ROOT
ATOM      1  C   UNL A   1      37.366  21.316  24.433  1.00  0.00     0.002 C 
ENDROOT
BRANCH   1   2
ATOM      2  C   UNL A   1      38.027  19.979  24.767  1.00  0.00     0.021 C 
BRANCH   2   3
ATOM      3  C   UNL A   1      38.740  19.965  26.112  1.00  0.00     0.116 C 
BRANCH   3   4
ATOM      4  N   UNL A   1      39.946  19.151  26.078  1.00  0.00    -0.352 N 
ATOM      5  O   UNL A   1      42.161  18.766  25.872  1.00  0.00    -0.269 OA
ATOM      6  C   UNL A   1      41.258  19.556  26.126  1.00  0.00     0.251 C 
ATOM      7  H   UNL A   1      39.803  18.179  26.012  1.00  0.00     0.163 HD
BRANCH   6   8
ATOM      8  C   UNL A   1      41.561  20.960  26.472  1.00  0.00     0.039 A 
ATOM      9  C   UNL A   1      41.296  21.978  25.553  1.00  0.00     0.014 A 
ATOM     10  C   UNL A   1      42.144  21.255  27.705  1.00  0.00     0.014 A 
ATOM     11  C   UNL A   1      41.759  23.262  25.800  1.00  0.00     0.010 A 
ATOM     12  C   UNL A   1      42.515  22.572  27.993  1.00  0.00     0.010 A 
ATOM     13  C   UNL A   1      42.359  23.581  27.028  1.00  0.00    -0.014 A 
BRANCH  13  14
ATOM     14  C   UNL A   1      42.781  24.982  27.288  1.00  0.00     0.031 A 
ATOM     15  C   UNL A   1      41.882  25.942  28.016  1.00  0.00     0.074 A 
ATOM     16  C   UNL A   1      44.007  25.373  26.885  1.00  0.00     0.049 A 
ATOM     17  N   UNL A   1      42.098  27.193  28.338  1.00  0.00    -0.248 NA
ATOM     18  C   UNL A   1      40.565  25.438  28.426  1.00  0.00     0.031 C 
ATOM     19  C   UNL A   1      44.967  24.525  26.174  1.00  0.00     0.029 A 
ATOM     20  N   UNL A   1      44.665  26.565  27.032  1.00  0.00    -0.354 N 
ATOM     21  C   UNL A   1      40.938  27.634  28.966  1.00  0.00     0.074 A 
ATOM     22  C   UNL A   1      40.008  26.524  28.943  1.00  0.00     0.031 C 
ATOM     23  C   UNL A   1      46.110  25.202  26.002  1.00  0.00     0.029 A 
ATOM     24  C   UNL A   1      45.938  26.557  26.512  1.00  0.00     0.049 A 
ATOM     25  H   UNL A   1      44.266  27.352  27.468  1.00  0.00     0.167 HD
ATOM     26  C   UNL A   1      40.678  28.849  29.514  1.00  0.00     0.034 A 
ATOM     27  C   UNL A   1      46.860  27.535  26.433  1.00  0.00     0.034 A 
ATOM     28  C   UNL A   1      41.624  29.942  29.523  1.00  0.00     0.049 A 
ATOM     29  C   UNL A   1      46.527  28.889  26.997  1.00  0.00     0.074 A 
ATOM     30  C   UNL A   1      41.480  31.201  30.080  1.00  0.00     0.029 A 
ATOM     31  N   UNL A   1      42.883  29.917  28.934  1.00  0.00    -0.354 N 
ATOM     32  N   UNL A   1      45.431  29.285  27.604  1.00  0.00    -0.248 NA
ATOM     33  C   UNL A   1      47.557  29.924  26.868  1.00  0.00     0.031 C 
ATOM     34  C   UNL A   1      42.608  31.962  29.753  1.00  0.00     0.029 A 
ATOM     35  C   UNL A   1      43.506  31.149  29.080  1.00  0.00     0.049 A 
ATOM     36  H   UNL A   1      43.276  29.138  28.479  1.00  0.00     0.167 HD
ATOM     37  C   UNL A   1      45.660  30.609  27.966  1.00  0.00     0.074 A 
ATOM     38  C   UNL A   1      46.999  30.936  27.517  1.00  0.00     0.031 C 
ATOM     39  C   UNL A   1      44.839  31.472  28.620  1.00  0.00     0.034 A 
BRANCH  26  40
ATOM     40  C   UNL A   1      39.298  29.073  30.092  1.00  0.00     0.023 A 
ATOM     41  C   UNL A   1      38.292  29.752  29.381  1.00  0.00     0.031 A 
ATOM     42  C   UNL A   1      38.994  28.635  31.393  1.00  0.00     0.131 A 
ATOM     43  C   UNL A   1      37.070  30.051  30.006  1.00  0.00     0.055 A 
ATOM     44  C   UNL A   1      37.743  28.853  31.974  1.00  0.00     0.041 A 
ATOM     45  F   UNL A   1      39.917  28.000  32.135  1.00  0.00    -0.206 F 
ATOM     46  C   UNL A   1      36.779  29.583  31.288  1.00  0.00     0.022 A 
BRANCH  43  47
ATOM     47  S   UNL A   1      35.943  31.214  29.186  1.00  0.00     0.124 S 
ATOM     48  O   UNL A   1      36.881  32.093  28.489  1.00  0.00    -0.237 OA
ATOM     49  O   UNL A   1      35.145  30.334  28.340  1.00  0.00    -0.237 OA
ATOM     50  O   UNL A   1      35.225  31.836  30.296  1.00  0.00    -0.744 OA
ENDBRANCH  43  47
ENDBRANCH  26  40
BRANCH  27  51
ATOM     51  C   UNL A   1      48.176  27.273  25.785  1.00  0.00     0.023 A 
ATOM     52  C   UNL A   1      48.348  27.453  24.404  1.00  0.00     0.031 A 
ATOM     53  C   UNL A   1      49.276  26.815  26.532  1.00  0.00     0.131 A 
ATOM     54  C   UNL A   1      49.577  27.137  23.806  1.00  0.00     0.055 A 
ATOM     55  C   UNL A   1      50.515  26.560  25.943  1.00  0.00     0.041 A 
ATOM     56  F   UNL A   1      49.167  26.630  27.858  1.00  0.00    -0.206 F 
ATOM     57  C   UNL A   1      50.667  26.708  24.568  1.00  0.00     0.022 A 
BRANCH  54  58
ATOM     58  S   UNL A   1      49.707  27.215  21.999  1.00  0.00     0.124 S 
ATOM     59  O   UNL A   1      51.127  26.951  21.793  1.00  0.00    -0.237 OA
ATOM     60  O   UNL A   1      48.791  26.158  21.584  1.00  0.00    -0.237 OA
ATOM     61  O   UNL A   1      49.271  28.574  21.686  1.00  0.00    -0.744 OA
ENDBRANCH  54  58
ENDBRANCH  27  51
BRANCH  39  62
ATOM     62  C   UNL A   1      45.401  32.836  28.946  1.00  0.00     0.023 A 
ATOM     63  C   UNL A   1      45.256  33.934  28.079  1.00  0.00     0.031 A 
ATOM     64  C   UNL A   1      46.124  33.030  30.138  1.00  0.00     0.131 A 
ATOM     65  C   UNL A   1      45.886  35.151  28.380  1.00  0.00     0.055 A 
ATOM     66  C   UNL A   1      46.684  34.265  30.468  1.00  0.00     0.041 A 
ATOM     67  F   UNL A   1      46.304  32.018  31.001  1.00  0.00    -0.206 F 
ATOM     68  C   UNL A   1      46.581  35.330  29.580  1.00  0.00     0.022 A 
BRANCH  65  69
ATOM     69  S   UNL A   1      45.893  36.463  27.127  1.00  0.00     0.124 S 
ATOM     70  O   UNL A   1      44.478  36.812  27.045  1.00  0.00    -0.237 OA
ATOM     71  O   UNL A   1      46.762  37.467  27.732  1.00  0.00    -0.237 OA
ATOM     72  O   UNL A   1      46.438  35.803  25.943  1.00  0.00    -0.744 OA
ENDBRANCH  65  69
ENDBRANCH  39  62
ENDBRANCH  13  14
ENDBRANCH   6   8
ENDBRANCH   3   4
ENDBRANCH   2   3
ENDBRANCH   1   2
BRANCH   1  73
ATOM     73  C   UNL A   1      35.876  21.395  24.792  1.00  0.00     0.002 C 
BRANCH  73  74
ATOM     74  C   UNL A   1      35.186  20.032  24.955  1.00  0.00     0.021 C 
BRANCH  74  75
ATOM     75  C   UNL A   1      33.666  20.147  25.066  1.00  0.00     0.116 C 
BRANCH  75  76
ATOM     76  N   UNL A   1      33.099  20.196  23.736  1.00  0.00    -0.356 N 
ATOM     77  C   UNL A   1      32.444  21.207  23.109  1.00  0.00     0.226 C 
ATOM     78  H   UNL A   1      33.205  19.374  23.205  1.00  0.00     0.163 HD
ATOM     79  O   UNL A   1      31.724  20.904  22.151  1.00  0.00    -0.274 OA
BRANCH  77  80
ATOM     80  C   UNL A   1      32.733  22.685  23.397  1.00  0.00     0.103 C 
ATOM     81  C   UNL A   1      33.403  23.597  22.426  1.00  0.00    -0.016 C 
ATOM     82  C   UNL A   1      31.377  23.357  23.632  1.00  0.00     0.042 C 
ATOM     83  C   UNL A   1      32.668  24.688  22.168  1.00  0.00    -0.011 C 
ATOM     84  C   UNL A   1      31.347  24.681  22.868  1.00  0.00     0.093 C 
BRANCH  84  85
ATOM     85  N   UNL A   1      31.286  25.797  23.805  1.00  0.00    -0.204 NA
ATOM     86  H   UNL A   1      32.246  26.099  23.965  1.00  0.00     0.142 HD
BRANCH  85  87
ATOM     87  S   UNL A   1      30.402  27.173  23.421  1.00  0.00     0.244 S 
ATOM     88  O   UNL A   1      30.784  27.503  22.066  1.00  0.00    -0.207 OA
ATOM     89  O   UNL A   1      29.015  26.972  23.771  1.00  0.00    -0.207 OA
BRANCH  87  90
ATOM     90  C   UNL A   1      31.077  28.433  24.460  1.00  0.00     0.121 A 
ATOM     91  C   UNL A   1      32.089  28.130  25.381  1.00  0.00     0.028 A 
ATOM     92  C   UNL A   1      30.587  29.732  24.364  1.00  0.00     0.181 A 
ATOM     93  C   UNL A   1      32.548  29.123  26.252  1.00  0.00     0.044 A 
ATOM     94  C   UNL A   1      31.014  30.702  25.262  1.00  0.00     0.195 A 
ATOM     95  F   UNL A   1      29.644  30.053  23.469  1.00  0.00    -0.202 F 
ATOM     96  C   UNL A   1      31.987  30.396  26.204  1.00  0.00     0.161 A 
ATOM     97  F   UNL A   1      30.464  31.924  25.238  1.00  0.00    -0.200 F 
ATOM     98  F   UNL A   1      32.393  31.325  27.080  1.00  0.00    -0.204 F 
ENDBRANCH  87  90
ENDBRANCH  85  87
ENDBRANCH  84  85
ENDBRANCH  77  80
ENDBRANCH  75  76
ENDBRANCH  74  75
ENDBRANCH  73  74
ENDBRANCH   1  73
TORSDOF 19
ENDMDL
MODEL 2
REMARK VINA RESULT:     -11.1      6.658     10.688
REMARK SMILES O=C(NCCCCCCNC(=O)[C@H]1C=C[C@H](NS(=O)(=O)c2ccc(F)c(F)c2F)C1)c1ccc(-c2c3nc(c(-c4cc(S(=O)(=O)[O-])ccc4F)c4ccc([nH]4)c(-c4cc(S(=O)(=O)[O-])ccc4F)c4nc(c(-c5cc(S(=O)(=O)[O-])ccc5F)c5ccc2[nH]5)C=C4)C=C3)cc1
REMARK SMILES IDX 6 1 5 2 4 3 3 4 1 5 2 6 31 8 32 9 93 10 33 11 92 12 34 13
REMARK SMILES IDX 35 14 36 15 86 16 37 17 91 18 85 19 87 20 38 21 90 22 84 23
REMARK SMILES IDX 83 24 39 26 71 27 51 28 70 29 52 30 55 31 69 32 88 33 53 34
REMARK SMILES IDX 54 35 68 37 89 38 56 39 40 40 41 41 49 42 42 43 48 44 50 45
REMARK SMILES IDX 47 46 43 47 44 48 45 49 46 50 72 51 73 52 81 53 74 54 80 55
REMARK SMILES IDX 82 56 79 57 75 58 76 59 77 60 78 61 57 62 58 63 66 64 59 65
REMARK SMILES IDX 65 66 67 67 64 68 60 69 61 70 62 71 63 72 7 73 8 74 9 75
REMARK SMILES IDX 10 76 11 77 12 79 13 80 14 81 30 82 15 83 16 84 17 85 18 87
REMARK SMILES IDX 19 88 20 89 21 90 22 91 28 92 23 93 26 94 29 95 24 96 27 97
REMARK SMILES IDX 25 98
REMARK H PARENT 3 7 87 25 55 36 10 78 17 86
REMARK Flexibility Score: inf
ROOT
ATOM      1  C   UNL A   1      34.773  34.179  28.045  1.00  0.00     0.002 C 
ENDROOT
BRANCH   1   2
ATOM      2  C   UNL A   1      33.450  34.614  28.674  1.00  0.00     0.021 C 
BRANCH   2   3
ATOM      3  C   UNL A   1      33.529  35.940  29.417  1.00  0.00     0.116 C 
BRANCH   3   4
ATOM      4  N   UNL A   1      32.679  35.951  30.598  1.00  0.00    -0.352 N 
ATOM      5  O   UNL A   1      31.919  35.210  32.591  1.00  0.00    -0.269 OA
ATOM      6  C   UNL A   1      32.833  35.257  31.774  1.00  0.00     0.251 C 
ATOM      7  H   UNL A   1      31.888  36.536  30.550  1.00  0.00     0.163 HD
BRANCH   6   8
ATOM      8  C   UNL A   1      34.108  34.555  32.030  1.00  0.00     0.039 A 
ATOM      9  C   UNL A   1      34.104  33.200  32.368  1.00  0.00     0.014 A 
ATOM     10  C   UNL A   1      35.309  35.263  31.964  1.00  0.00     0.014 A 
ATOM     11  C   UNL A   1      35.277  32.596  32.796  1.00  0.00     0.010 A 
ATOM     12  C   UNL A   1      36.505  34.621  32.296  1.00  0.00     0.010 A 
ATOM     13  C   UNL A   1      36.495  33.292  32.750  1.00  0.00    -0.014 A 
BRANCH  13  14
ATOM     14  C   UNL A   1      37.744  32.593  33.150  1.00  0.00     0.031 A 
ATOM     15  C   UNL A   1      38.446  32.931  34.436  1.00  0.00     0.074 A 
ATOM     16  C   UNL A   1      38.224  31.619  32.351  1.00  0.00     0.049 A 
ATOM     17  N   UNL A   1      39.536  32.410  34.944  1.00  0.00    -0.248 NA
ATOM     18  C   UNL A   1      37.858  34.001  35.253  1.00  0.00     0.031 C 
ATOM     19  C   UNL A   1      37.622  31.201  31.082  1.00  0.00     0.029 A 
ATOM     20  N   UNL A   1      39.306  30.790  32.492  1.00  0.00    -0.354 N 
ATOM     21  C   UNL A   1      39.778  33.103  36.125  1.00  0.00     0.074 A 
ATOM     22  C   UNL A   1      38.740  34.108  36.236  1.00  0.00     0.031 C 
ATOM     23  C   UNL A   1      38.305  30.158  30.593  1.00  0.00     0.029 A 
ATOM     24  C   UNL A   1      39.441  29.885  31.465  1.00  0.00     0.049 A 
ATOM     25  H   UNL A   1      39.926  30.837  33.255  1.00  0.00     0.167 HD
ATOM     26  C   UNL A   1      40.771  32.913  37.032  1.00  0.00     0.034 A 
ATOM     27  C   UNL A   1      40.384  28.952  31.236  1.00  0.00     0.034 A 
ATOM     28  C   UNL A   1      41.796  31.904  36.898  1.00  0.00     0.049 A 
ATOM     29  C   UNL A   1      41.505  28.800  32.228  1.00  0.00     0.074 A 
ATOM     30  C   UNL A   1      42.826  31.600  37.772  1.00  0.00     0.029 A 
ATOM     31  N   UNL A   1      41.936  31.044  35.815  1.00  0.00    -0.354 N 
ATOM     32  N   UNL A   1      41.710  29.451  33.350  1.00  0.00    -0.248 NA
ATOM     33  C   UNL A   1      42.517  27.784  31.923  1.00  0.00     0.031 C 
ATOM     34  C   UNL A   1      43.636  30.625  37.180  1.00  0.00     0.029 A 
ATOM     35  C   UNL A   1      43.057  30.241  35.981  1.00  0.00     0.049 A 
ATOM     36  H   UNL A   1      41.329  31.009  35.041  1.00  0.00     0.167 HD
ATOM     37  C   UNL A   1      42.857  28.891  33.906  1.00  0.00     0.074 A 
ATOM     38  C   UNL A   1      43.288  27.846  32.998  1.00  0.00     0.031 C 
ATOM     39  C   UNL A   1      43.489  29.207  35.066  1.00  0.00     0.034 A 
BRANCH  26  40
ATOM     40  C   UNL A   1      40.824  33.856  38.215  1.00  0.00     0.023 A 
ATOM     41  C   UNL A   1      40.064  33.638  39.378  1.00  0.00     0.031 A 
ATOM     42  C   UNL A   1      41.619  35.015  38.163  1.00  0.00     0.131 A 
ATOM     43  C   UNL A   1      40.044  34.606  40.396  1.00  0.00     0.055 A 
ATOM     44  C   UNL A   1      41.667  35.927  39.219  1.00  0.00     0.041 A 
ATOM     45  F   UNL A   1      42.351  35.295  37.072  1.00  0.00    -0.206 F 
ATOM     46  C   UNL A   1      40.861  35.736  40.337  1.00  0.00     0.022 A 
BRANCH  43  47
ATOM     47  S   UNL A   1      38.801  34.453  41.709  1.00  0.00     0.124 S 
ATOM     48  O   UNL A   1      37.688  33.833  40.992  1.00  0.00    -0.237 OA
ATOM     49  O   UNL A   1      39.478  33.609  42.687  1.00  0.00    -0.237 OA
ATOM     50  O   UNL A   1      38.571  35.834  42.126  1.00  0.00    -0.744 OA
ENDBRANCH  43  47
ENDBRANCH  26  40
BRANCH  27  51
ATOM     51  C   UNL A   1      40.317  28.103  30.014  1.00  0.00     0.023 A 
ATOM     52  C   UNL A   1      41.167  28.341  28.924  1.00  0.00     0.031 A 
ATOM     53  C   UNL A   1      39.384  27.055  29.907  1.00  0.00     0.131 A 
ATOM     54  C   UNL A   1      41.040  27.570  27.758  1.00  0.00     0.055 A 
ATOM     55  C   UNL A   1      39.302  26.253  28.769  1.00  0.00     0.041 A 
ATOM     56  F   UNL A   1      38.550  26.783  30.923  1.00  0.00    -0.206 F 
ATOM     57  C   UNL A   1      40.126  26.517  27.679  1.00  0.00     0.022 A 
BRANCH  54  58
ATOM     58  S   UNL A   1      42.034  28.021  26.310  1.00  0.00     0.124 S 
ATOM     59  O   UNL A   1      41.486  29.329  25.970  1.00  0.00    -0.237 OA
ATOM     60  O   UNL A   1      43.387  28.014  26.857  1.00  0.00    -0.237 OA
ATOM     61  O   UNL A   1      41.745  26.953  25.355  1.00  0.00    -0.744 OA
ENDBRANCH  54  58
ENDBRANCH  27  51
BRANCH  39  62
ATOM     62  C   UNL A   1      44.680  28.360  35.449  1.00  0.00     0.023 A 
ATOM     63  C   UNL A   1      44.543  27.135  36.127  1.00  0.00     0.031 A 
ATOM     64  C   UNL A   1      45.982  28.806  35.153  1.00  0.00     0.131 A 
ATOM     65  C   UNL A   1      45.685  26.439  36.550  1.00  0.00     0.055 A 
ATOM     66  C   UNL A   1      47.113  28.071  35.510  1.00  0.00     0.041 A 
ATOM     67  F   UNL A   1      46.176  29.971  34.514  1.00  0.00    -0.206 F 
ATOM     68  C   UNL A   1      46.969  26.888  36.227  1.00  0.00     0.022 A 
BRANCH  65  69
ATOM     69  S   UNL A   1      45.477  25.002  37.639  1.00  0.00     0.124 S 
ATOM     70  O   UNL A   1      45.811  23.896  36.747  1.00  0.00    -0.237 OA
ATOM     71  O   UNL A   1      46.439  25.275  38.702  1.00  0.00    -0.237 OA
ATOM     72  O   UNL A   1      44.074  25.075  38.038  1.00  0.00    -0.744 OA
ENDBRANCH  65  69
ENDBRANCH  39  62
ENDBRANCH  13  14
ENDBRANCH   6   8
ENDBRANCH   3   4
ENDBRANCH   2   3
ENDBRANCH   1   2
BRANCH   1  73
ATOM     73  C   UNL A   1      35.483  33.037  28.783  1.00  0.00     0.002 C 
BRANCH  73  74
ATOM     74  C   UNL A   1      35.935  31.877  27.882  1.00  0.00     0.021 C 
BRANCH  74  75
ATOM     75  C   UNL A   1      35.297  30.543  28.267  1.00  0.00     0.116 C 
BRANCH  75  76
ATOM     76  N   UNL A   1      33.875  30.607  28.002  1.00  0.00    -0.356 N 
ATOM     77  C   UNL A   1      33.171  30.144  26.938  1.00  0.00     0.226 C 
ATOM     78  H   UNL A   1      33.340  31.052  28.697  1.00  0.00     0.163 HD
ATOM     79  O   UNL A   1      32.056  30.641  26.741  1.00  0.00    -0.274 OA
BRANCH  77  80
ATOM     80  C   UNL A   1      33.598  28.909  26.135  1.00  0.00     0.103 C 
ATOM     81  C   UNL A   1      33.161  27.523  26.463  1.00  0.00    -0.016 C 
ATOM     82  C   UNL A   1      33.076  29.115  24.709  1.00  0.00     0.042 C 
ATOM     83  C   UNL A   1      32.568  26.921  25.422  1.00  0.00    -0.011 C 
ATOM     84  C   UNL A   1      32.443  27.809  24.226  1.00  0.00     0.093 C 
BRANCH  84  85
ATOM     85  N   UNL A   1      33.220  27.256  23.124  1.00  0.00    -0.204 NA
ATOM     86  H   UNL A   1      33.983  26.724  23.540  1.00  0.00     0.142 HD
BRANCH  85  87
ATOM     87  S   UNL A   1      32.486  26.250  21.996  1.00  0.00     0.244 S 
ATOM     88  O   UNL A   1      31.169  26.811  21.789  1.00  0.00    -0.207 OA
ATOM     89  O   UNL A   1      33.382  26.035  20.882  1.00  0.00    -0.207 OA
BRANCH  87  90
ATOM     90  C   UNL A   1      32.259  24.721  22.851  1.00  0.00     0.121 A 
ATOM     91  C   UNL A   1      30.975  24.287  23.206  1.00  0.00     0.028 A 
ATOM     92  C   UNL A   1      33.371  23.952  23.181  1.00  0.00     0.181 A 
ATOM     93  C   UNL A   1      30.825  23.117  23.957  1.00  0.00     0.044 A 
ATOM     94  C   UNL A   1      33.220  22.816  23.965  1.00  0.00     0.195 A 
ATOM     95  F   UNL A   1      34.606  24.328  22.823  1.00  0.00    -0.202 F 
ATOM     96  C   UNL A   1      31.953  22.404  24.355  1.00  0.00     0.161 A 
ATOM     97  F   UNL A   1      34.301  22.135  24.372  1.00  0.00    -0.200 F 
ATOM     98  F   UNL A   1      31.803  21.316  25.122  1.00  0.00    -0.204 F 
ENDBRANCH  87  90
ENDBRANCH  85  87
ENDBRANCH  84  85
ENDBRANCH  77  80
ENDBRANCH  75  76
ENDBRANCH  74  75
ENDBRANCH  73  74
ENDBRANCH   1  73
TORSDOF 19
ENDMDL
MODEL 3
REMARK VINA RESULT:     -11.1      1.654      7.613
REMARK SMILES O=C(NCCCCCCNC(=O)[C@H]1C=C[C@H](NS(=O)(=O)c2ccc(F)c(F)c2F)C1)c1ccc(-c2c3nc(c(-c4cc(S(=O)(=O)[O-])ccc4F)c4ccc([nH]4)c(-c4cc(S(=O)(=O)[O-])ccc4F)c4nc(c(-c5cc(S(=O)(=O)[O-])ccc5F)c5ccc2[nH]5)C=C4)C=C3)cc1
REMARK SMILES IDX 6 1 5 2 4 3 3 4 1 5 2 6 31 8 32 9 93 10 33 11 92 12 34 13
REMARK SMILES IDX 35 14 36 15 86 16 37 17 91 18 85 19 87 20 38 21 90 22 84 23
REMARK SMILES IDX 83 24 39 26 71 27 51 28 70 29 52 30 55 31 69 32 88 33 53 34
REMARK SMILES IDX 54 35 68 37 89 38 56 39 40 40 41 41 49 42 42 43 48 44 50 45
REMARK SMILES IDX 47 46 43 47 44 48 45 49 46 50 72 51 73 52 81 53 74 54 80 55
REMARK SMILES IDX 82 56 79 57 75 58 76 59 77 60 78 61 57 62 58 63 66 64 59 65
REMARK SMILES IDX 65 66 67 67 64 68 60 69 61 70 62 71 63 72 7 73 8 74 9 75
REMARK SMILES IDX 10 76 11 77 12 79 13 80 14 81 30 82 15 83 16 84 17 85 18 87
REMARK SMILES IDX 19 88 20 89 21 90 22 91 28 92 23 93 26 94 29 95 24 96 27 97
REMARK SMILES IDX 25 98
REMARK H PARENT 3 7 87 25 55 36 10 78 17 86
REMARK Flexibility Score: inf
ROOT
ATOM      1  C   UNL A   1      38.710  22.424  26.111  1.00  0.00     0.002 C 
ENDROOT
BRANCH   1   2
ATOM      2  C   UNL A   1      39.172  21.011  25.757  1.00  0.00     0.021 C 
BRANCH   2   3
ATOM      3  C   UNL A   1      40.075  20.379  26.806  1.00  0.00     0.116 C 
BRANCH   3   4
ATOM      4  N   UNL A   1      41.111  19.554  26.203  1.00  0.00    -0.352 N 
ATOM      5  O   UNL A   1      43.021  19.158  25.065  1.00  0.00    -0.269 OA
ATOM      6  C   UNL A   1      42.349  19.931  25.740  1.00  0.00     0.251 C 
ATOM      7  H   UNL A   1      40.898  18.596  26.116  1.00  0.00     0.163 HD
BRANCH   6   8
ATOM      8  C   UNL A   1      42.848  21.285  26.052  1.00  0.00     0.039 A 
ATOM      9  C   UNL A   1      43.241  21.601  27.355  1.00  0.00     0.014 A 
ATOM     10  C   UNL A   1      42.892  22.253  25.047  1.00  0.00     0.014 A 
ATOM     11  C   UNL A   1      43.522  22.919  27.686  1.00  0.00     0.010 A 
ATOM     12  C   UNL A   1      43.277  23.558  25.365  1.00  0.00     0.010 A 
ATOM     13  C   UNL A   1      43.560  23.911  26.694  1.00  0.00    -0.014 A 
BRANCH  13  14
ATOM     14  C   UNL A   1      43.932  25.300  27.072  1.00  0.00     0.031 A 
ATOM     15  C   UNL A   1      45.321  25.824  26.834  1.00  0.00     0.074 A 
ATOM     16  C   UNL A   1      42.987  26.100  27.606  1.00  0.00     0.049 A 
ATOM     17  N   UNL A   1      45.810  27.012  27.090  1.00  0.00    -0.248 NA
ATOM     18  C   UNL A   1      46.291  24.892  26.245  1.00  0.00     0.031 C 
ATOM     19  C   UNL A   1      41.604  25.701  27.876  1.00  0.00     0.029 A 
ATOM     20  N   UNL A   1      43.033  27.413  27.993  1.00  0.00    -0.354 N 
ATOM     21  C   UNL A   1      47.149  26.964  26.717  1.00  0.00     0.074 A 
ATOM     22  C   UNL A   1      47.402  25.615  26.253  1.00  0.00     0.031 C 
ATOM     23  C   UNL A   1      40.919  26.760  28.327  1.00  0.00     0.029 A 
ATOM     24  C   UNL A   1      41.830  27.890  28.458  1.00  0.00     0.049 A 
ATOM     25  H   UNL A   1      43.848  27.962  27.943  1.00  0.00     0.167 HD
ATOM     26  C   UNL A   1      48.077  27.956  26.753  1.00  0.00     0.034 A 
ATOM     27  C   UNL A   1      41.498  29.096  28.956  1.00  0.00     0.034 A 
ATOM     28  C   UNL A   1      47.800  29.295  27.221  1.00  0.00     0.049 A 
ATOM     29  C   UNL A   1      42.558  30.160  29.039  1.00  0.00     0.074 A 
ATOM     30  C   UNL A   1      48.653  30.384  27.269  1.00  0.00     0.029 A 
ATOM     31  N   UNL A   1      46.585  29.726  27.741  1.00  0.00    -0.354 N 
ATOM     32  N   UNL A   1      43.816  30.105  28.665  1.00  0.00    -0.248 NA
ATOM     33  C   UNL A   1      42.150  31.449  29.606  1.00  0.00     0.031 C 
ATOM     34  C   UNL A   1      47.984  31.442  27.895  1.00  0.00     0.029 A 
ATOM     35  C   UNL A   1      46.679  31.051  28.148  1.00  0.00     0.049 A 
ATOM     36  H   UNL A   1      45.774  29.172  27.811  1.00  0.00     0.167 HD
ATOM     37  C   UNL A   1      44.339  31.370  28.916  1.00  0.00     0.074 A 
ATOM     38  C   UNL A   1      43.256  32.164  29.463  1.00  0.00     0.031 C 
ATOM     39  C   UNL A   1      45.598  31.834  28.703  1.00  0.00     0.034 A 
BRANCH  26  40
ATOM     40  C   UNL A   1      49.487  27.607  26.329  1.00  0.00     0.023 A 
ATOM     41  C   UNL A   1      49.948  27.822  25.018  1.00  0.00     0.031 A 
ATOM     42  C   UNL A   1      50.375  27.012  27.243  1.00  0.00     0.131 A 
ATOM     43  C   UNL A   1      51.218  27.363  24.636  1.00  0.00     0.055 A 
ATOM     44  C   UNL A   1      51.673  26.644  26.881  1.00  0.00     0.041 A 
ATOM     45  F   UNL A   1      49.992  26.759  28.505  1.00  0.00    -0.206 F 
ATOM     46  C   UNL A   1      52.095  26.800  25.565  1.00  0.00     0.022 A 
BRANCH  43  47
ATOM     47  S   UNL A   1      51.637  27.350  22.870  1.00  0.00     0.124 S 
ATOM     48  O   UNL A   1      52.074  28.729  22.659  1.00  0.00    -0.237 OA
ATOM     49  O   UNL A   1      52.680  26.334  22.801  1.00  0.00    -0.237 OA
ATOM     50  O   UNL A   1      50.376  26.998  22.221  1.00  0.00    -0.744 OA
ENDBRANCH  43  47
ENDBRANCH  26  40
BRANCH  27  51
ATOM     51  C   UNL A   1      40.108  29.356  29.426  1.00  0.00     0.023 A 
ATOM     52  C   UNL A   1      39.806  29.393  30.796  1.00  0.00     0.031 A 
ATOM     53  C   UNL A   1      39.055  29.546  28.512  1.00  0.00     0.131 A 
ATOM     54  C   UNL A   1      38.478  29.573  31.212  1.00  0.00     0.055 A 
ATOM     55  C   UNL A   1      37.746  29.785  28.932  1.00  0.00     0.041 A 
ATOM     56  F   UNL A   1      39.291  29.524  27.191  1.00  0.00    -0.206 F 
ATOM     57  C   UNL A   1      37.449  29.786  30.292  1.00  0.00     0.022 A 
BRANCH  54  58
ATOM     58  S   UNL A   1      38.101  29.440  32.981  1.00  0.00     0.124 S 
ATOM     59  O   UNL A   1      37.290  30.633  33.201  1.00  0.00    -0.237 OA
ATOM     60  O   UNL A   1      37.396  28.165  33.045  1.00  0.00    -0.237 OA
ATOM     61  O   UNL A   1      39.419  29.455  33.611  1.00  0.00    -0.744 OA
ENDBRANCH  54  58
ENDBRANCH  27  51
BRANCH  39  62
ATOM     62  C   UNL A   1      45.849  33.294  29.005  1.00  0.00     0.023 A 
ATOM     63  C   UNL A   1      45.759  34.290  28.016  1.00  0.00     0.031 A 
ATOM     64  C   UNL A   1      46.215  33.688  30.305  1.00  0.00     0.131 A 
ATOM     65  C   UNL A   1      46.103  35.615  28.325  1.00  0.00     0.055 A 
ATOM     66  C   UNL A   1      46.482  35.020  30.624  1.00  0.00     0.041 A 
ATOM     67  F   UNL A   1      46.325  32.782  31.289  1.00  0.00    -0.206 F 
ATOM     68  C   UNL A   1      46.443  35.990  29.627  1.00  0.00     0.022 A 
BRANCH  65  69
ATOM     69  S   UNL A   1      46.223  36.822  26.975  1.00  0.00     0.124 S 
ATOM     70  O   UNL A   1      47.389  37.605  27.373  1.00  0.00    -0.237 OA
ATOM     71  O   UNL A   1      46.399  35.966  25.807  1.00  0.00    -0.237 OA
ATOM     72  O   UNL A   1      44.948  37.533  27.037  1.00  0.00    -0.744 OA
ENDBRANCH  65  69
ENDBRANCH  39  62
ENDBRANCH  13  14
ENDBRANCH   6   8
ENDBRANCH   3   4
ENDBRANCH   2   3
ENDBRANCH   1   2
BRANCH   1  73
ATOM     73  C   UNL A   1      37.311  22.783  25.594  1.00  0.00     0.002 C 
BRANCH  73  74
ATOM     74  C   UNL A   1      36.379  21.579  25.386  1.00  0.00     0.021 C 
BRANCH  74  75
ATOM     75  C   UNL A   1      35.243  21.525  26.407  1.00  0.00     0.116 C 
BRANCH  75  76
ATOM     76  N   UNL A   1      34.171  20.712  25.876  1.00  0.00    -0.356 N 
ATOM     77  C   UNL A   1      33.056  21.083  25.196  1.00  0.00     0.226 C 
ATOM     78  H   UNL A   1      34.264  19.744  26.029  1.00  0.00     0.163 HD
ATOM     79  O   UNL A   1      32.111  20.286  25.184  1.00  0.00    -0.274 OA
BRANCH  77  80
ATOM     80  C   UNL A   1      33.013  22.316  24.285  1.00  0.00     0.103 C 
ATOM     81  C   UNL A   1      32.060  22.467  23.149  1.00  0.00    -0.016 C 
ATOM     82  C   UNL A   1      32.681  23.511  25.184  1.00  0.00     0.042 C 
ATOM     83  C   UNL A   1      31.333  23.590  23.246  1.00  0.00    -0.011 C 
ATOM     84  C   UNL A   1      31.618  24.365  24.491  1.00  0.00     0.093 C 
BRANCH  84  85
ATOM     85  N   UNL A   1      32.175  25.666  24.139  1.00  0.00    -0.204 NA
ATOM     86  H   UNL A   1      32.588  25.567  23.212  1.00  0.00     0.142 HD
BRANCH  85  87
ATOM     87  S   UNL A   1      31.184  27.022  24.088  1.00  0.00     0.244 S 
ATOM     88  O   UNL A   1      31.319  27.538  22.744  1.00  0.00    -0.207 OA
ATOM     89  O   UNL A   1      29.885  26.694  24.628  1.00  0.00    -0.207 OA
BRANCH  87  90
ATOM     90  C   UNL A   1      31.973  28.183  25.160  1.00  0.00     0.121 A 
ATOM     91  C   UNL A   1      33.082  27.805  25.928  1.00  0.00     0.028 A 
ATOM     92  C   UNL A   1      31.477  29.481  25.245  1.00  0.00     0.181 A 
ATOM     93  C   UNL A   1      33.638  28.714  26.833  1.00  0.00     0.044 A 
ATOM     94  C   UNL A   1      32.003  30.365  26.177  1.00  0.00     0.195 A 
ATOM     95  F   UNL A   1      30.440  29.877  24.496  1.00  0.00    -0.202 F 
ATOM     96  C   UNL A   1      33.077  29.980  26.970  1.00  0.00     0.161 A 
ATOM     97  F   UNL A   1      31.455  31.579  26.332  1.00  0.00    -0.200 F 
ATOM     98  F   UNL A   1      33.580  30.826  27.880  1.00  0.00    -0.204 F 
ENDBRANCH  87  90
ENDBRANCH  85  87
ENDBRANCH  84  85
ENDBRANCH  77  80
ENDBRANCH  75  76
ENDBRANCH  74  75
ENDBRANCH  73  74
ENDBRANCH   1  73
TORSDOF 19
ENDMDL
