MODEL 1
REMARK VINA RESULT:     -13.2      0.000      0.000
REMARK SMILES O=C1O[C@@H](c2ccc(O)c(O)c2)[C@H](C(=O)NCCCCCCNC(=O)c2ccc(-c3c4nc(c(-c5cc(S(=O)(=O)[O-])ccc5F)c5ccc([nH]5)c(-c5cc(S(=O)(=O)[O-])ccc5F)c5nc(c(-c6cc(S(=O)(=O)[O-])ccc6F)c6ccc3[nH]6)C=C5)C=C4)cc2)/C1=C\c1ccc(O)c(O)c1
REMARK SMILES IDX 20 1 19 2 18 3 17 4 16 5 14 6 15 7 13 9 1 10 2 11 3 12 89 13
REMARK SMILES IDX 4 14 90 15 5 16 6 17 12 18 7 19 10 20 8 21 11 22 9 24 91 26
REMARK SMILES IDX 92 27 98 28 93 29 96 30 94 31 97 32 95 34 21 36 22 37 23 38
REMARK SMILES IDX 24 39 25 41 26 42 27 43 88 44 28 45 87 46 29 47 30 48 31 49
REMARK SMILES IDX 81 50 32 51 86 52 80 53 82 54 33 55 85 56 79 57 78 58 34 60
REMARK SMILES IDX 66 61 46 62 65 63 47 64 50 65 64 66 83 67 48 68 49 69 63 71
REMARK SMILES IDX 84 72 51 73 35 74 36 75 44 76 37 77 43 78 45 79 42 80 38 81
REMARK SMILES IDX 39 82 40 83 41 84 67 85 68 86 76 87 69 88 75 89 77 90 74 91
REMARK SMILES IDX 70 92 71 93 72 94 73 95 52 96 53 97 61 98 54 99 60 100
REMARK SMILES IDX 62 101 59 102 55 103 56 104 57 105 58 106
REMARK H PARENT 16 8 11 23 9 25 97 33 95 35 23 40 82 59 50 70
REMARK Flexibility Score: inf
ROOT
ATOM      1  C   UNL A   1      31.756  30.628  26.199  1.00  0.00     0.002 C 
ENDROOT
BRANCH   1   2
ATOM      2  C   UNL A   1      32.245  29.694  27.311  1.00  0.00     0.002 C 
BRANCH   2   3
ATOM      3  C   UNL A   1      31.657  28.283  27.276  1.00  0.00     0.021 C 
BRANCH   3   4
ATOM      4  C   UNL A   1      32.688  27.180  27.090  1.00  0.00     0.116 C 
BRANCH   4   5
ATOM      5  N   UNL A   1      33.672  27.476  26.072  1.00  0.00    -0.355 N 
ATOM      6  C   UNL A   1      33.550  27.558  24.713  1.00  0.00     0.231 C 
ATOM      7  O   UNL A   1      34.537  27.967  24.096  1.00  0.00    -0.274 OA
ATOM      8  H   UNL A   1      34.579  27.647  26.414  1.00  0.00     0.163 HD
BRANCH   6   9
ATOM      9  C   UNL A   1      32.279  27.064  24.011  1.00  0.00     0.161 C 
ATOM     10  O   UNL A   1      33.219  25.886  20.771  1.00  0.00    -0.247 OA
ATOM     11  C   UNL A   1      32.754  26.467  21.736  1.00  0.00     0.335 C 
ATOM     12  O   UNL A   1      32.277  27.735  21.734  1.00  0.00    -0.453 OA
ATOM     13  C   UNL A   1      32.592  25.927  23.097  1.00  0.00     0.054 C 
ATOM     14  C   UNL A   1      31.713  28.073  23.014  1.00  0.00     0.224 C 
ATOM     15  C   UNL A   1      32.716  24.609  23.312  1.00  0.00     0.020 C 
BRANCH  14  16
ATOM     16  C   UNL A   1      30.181  28.133  22.961  1.00  0.00    -0.002 A 
ATOM     17  C   UNL A   1      29.385  27.154  23.599  1.00  0.00     0.012 A 
ATOM     18  C   UNL A   1      29.523  29.219  22.365  1.00  0.00     0.057 A 
ATOM     19  C   UNL A   1      27.991  27.263  23.669  1.00  0.00     0.050 A 
ATOM     20  C   UNL A   1      28.135  29.307  22.413  1.00  0.00     0.157 A 
ATOM     21  C   UNL A   1      27.374  28.347  23.072  1.00  0.00     0.157 A 
BRANCH  20  22
ATOM     22  O   UNL A   1      27.515  30.367  21.816  1.00  0.00    -0.504 OA
ATOM     23  H   UNL A   1      27.945  30.835  21.128  1.00  0.00     0.293 HD
ENDBRANCH  20  22
BRANCH  21  24
ATOM     24  O   UNL A   1      26.020  28.518  23.110  1.00  0.00    -0.504 OA
ATOM     25  H   UNL A   1      25.469  27.831  23.432  1.00  0.00     0.293 HD
ENDBRANCH  21  24
ENDBRANCH  14  16
BRANCH  15  26
ATOM     26  C   UNL A   1      32.566  23.969  24.619  1.00  0.00    -0.021 A 
ATOM     27  C   UNL A   1      33.650  23.871  25.505  1.00  0.00     0.012 A 
ATOM     28  C   UNL A   1      31.311  23.483  25.001  1.00  0.00     0.058 A 
ATOM     29  C   UNL A   1      33.494  23.264  26.754  1.00  0.00     0.051 A 
ATOM     30  C   UNL A   1      31.162  22.891  26.246  1.00  0.00     0.157 A 
ATOM     31  C   UNL A   1      32.245  22.774  27.115  1.00  0.00     0.157 A 
BRANCH  30  32
ATOM     32  O   UNL A   1      29.937  22.420  26.620  1.00  0.00    -0.504 OA
ATOM     33  H   UNL A   1      29.618  22.578  27.487  1.00  0.00     0.293 HD
ENDBRANCH  30  32
BRANCH  31  34
ATOM     34  O   UNL A   1      32.029  22.169  28.322  1.00  0.00    -0.504 OA
ATOM     35  H   UNL A   1      32.667  21.578  28.671  1.00  0.00     0.293 HD
ENDBRANCH  31  34
ENDBRANCH  15  26
ENDBRANCH   6   9
ENDBRANCH   4   5
ENDBRANCH   3   4
ENDBRANCH   2   3
ENDBRANCH   1   2
BRANCH   1  36
ATOM     36  C   UNL A   1      31.554  32.088  26.612  1.00  0.00     0.021 C 
BRANCH  36  37
ATOM     37  C   UNL A   1      32.686  32.674  27.447  1.00  0.00     0.116 C 
BRANCH  37  38
ATOM     38  N   UNL A   1      32.489  34.089  27.711  1.00  0.00    -0.352 N 
ATOM     39  C   UNL A   1      33.081  34.882  28.663  1.00  0.00     0.251 C 
ATOM     40  H   UNL A   1      31.841  34.544  27.126  1.00  0.00     0.163 HD
ATOM     41  O   UNL A   1      32.634  36.003  28.889  1.00  0.00    -0.269 OA
BRANCH  39  42
ATOM     42  C   UNL A   1      34.240  34.367  29.423  1.00  0.00     0.039 A 
ATOM     43  C   UNL A   1      34.024  33.748  30.655  1.00  0.00     0.014 A 
ATOM     44  C   UNL A   1      35.536  34.491  28.913  1.00  0.00     0.014 A 
ATOM     45  C   UNL A   1      35.105  33.202  31.351  1.00  0.00     0.010 A 
ATOM     46  C   UNL A   1      36.598  33.875  29.568  1.00  0.00     0.010 A 
ATOM     47  C   UNL A   1      36.396  33.231  30.798  1.00  0.00    -0.014 A 
BRANCH  47  48
ATOM     48  C   UNL A   1      37.553  32.612  31.497  1.00  0.00     0.031 A 
ATOM     49  C   UNL A   1      38.281  31.458  30.862  1.00  0.00     0.074 A 
ATOM     50  C   UNL A   1      37.908  33.045  32.722  1.00  0.00     0.049 A 
ATOM     51  N   UNL A   1      39.247  30.720  31.345  1.00  0.00    -0.248 NA
ATOM     52  C   UNL A   1      37.841  31.062  29.515  1.00  0.00     0.031 C 
ATOM     53  C   UNL A   1      37.262  34.139  33.452  1.00  0.00     0.029 A 
ATOM     54  N   UNL A   1      38.894  32.617  33.576  1.00  0.00    -0.354 N 
ATOM     55  C   UNL A   1      39.522  29.768  30.369  1.00  0.00     0.074 A 
ATOM     56  C   UNL A   1      38.572  29.980  29.298  1.00  0.00     0.031 C 
ATOM     57  C   UNL A   1      37.886  34.313  34.628  1.00  0.00     0.029 A 
ATOM     58  C   UNL A   1      38.938  33.309  34.765  1.00  0.00     0.049 A 
ATOM     59  H   UNL A   1      39.513  31.883  33.359  1.00  0.00     0.167 HD
ATOM     60  C   UNL A   1      40.493  28.822  30.357  1.00  0.00     0.034 A 
ATOM     61  C   UNL A   1      39.723  33.144  35.848  1.00  0.00     0.034 A 
ATOM     62  C   UNL A   1      41.437  28.630  31.430  1.00  0.00     0.049 A 
ATOM     63  C   UNL A   1      40.763  32.051  35.832  1.00  0.00     0.074 A 
ATOM     64  C   UNL A   1      42.488  27.733  31.504  1.00  0.00     0.029 A 
ATOM     65  N   UNL A   1      41.443  29.343  32.624  1.00  0.00    -0.354 N 
ATOM     66  N   UNL A   1      41.035  31.182  34.885  1.00  0.00    -0.248 NA
ATOM     67  C   UNL A   1      41.610  31.923  37.025  1.00  0.00     0.031 C 
ATOM     68  C   UNL A   1      43.073  27.843  32.769  1.00  0.00     0.029 A 
ATOM     69  C   UNL A   1      42.453  28.878  33.451  1.00  0.00     0.049 A 
ATOM     70  H   UNL A   1      40.820  30.072  32.848  1.00  0.00     0.167 HD
ATOM     71  C   UNL A   1      42.112  30.433  35.355  1.00  0.00     0.074 A 
ATOM     72  C   UNL A   1      42.443  30.959  36.663  1.00  0.00     0.031 C 
ATOM     73  C   UNL A   1      42.773  29.409  34.757  1.00  0.00     0.034 A 
BRANCH  60  74
ATOM     74  C   UNL A   1      40.560  27.907  29.156  1.00  0.00     0.023 A 
ATOM     75  C   UNL A   1      41.498  28.103  28.127  1.00  0.00     0.031 A 
ATOM     76  C   UNL A   1      39.658  26.836  29.024  1.00  0.00     0.131 A 
ATOM     77  C   UNL A   1      41.459  27.297  26.979  1.00  0.00     0.055 A 
ATOM     78  C   UNL A   1      39.686  25.979  27.922  1.00  0.00     0.041 A 
ATOM     79  F   UNL A   1      38.722  26.611  29.960  1.00  0.00    -0.206 F 
ATOM     80  C   UNL A   1      40.580  26.217  26.883  1.00  0.00     0.022 A 
BRANCH  77  81
ATOM     81  S   UNL A   1      42.465  27.781  25.549  1.00  0.00     0.124 S 
ATOM     82  O   UNL A   1      42.309  26.620  24.676  1.00  0.00    -0.237 OA
ATOM     83  O   UNL A   1      41.812  29.008  25.105  1.00  0.00    -0.237 OA
ATOM     84  O   UNL A   1      43.801  27.952  26.113  1.00  0.00    -0.744 OA
ENDBRANCH  77  81
ENDBRANCH  60  74
BRANCH  61  85
ATOM     85  C   UNL A   1      39.554  34.016  37.048  1.00  0.00     0.023 A 
ATOM     86  C   UNL A   1      38.979  33.520  38.228  1.00  0.00     0.031 A 
ATOM     87  C   UNL A   1      39.918  35.374  37.015  1.00  0.00     0.131 A 
ATOM     88  C   UNL A   1      38.731  34.385  39.304  1.00  0.00     0.055 A 
ATOM     89  C   UNL A   1      39.729  36.218  38.112  1.00  0.00     0.041 A 
ATOM     90  F   UNL A   1      40.473  35.903  35.912  1.00  0.00    -0.206 F 
ATOM     91  C   UNL A   1      39.117  35.726  39.261  1.00  0.00     0.022 A 
BRANCH  88  92
ATOM     92  S   UNL A   1      37.796  33.756  40.726  1.00  0.00     0.124 S 
ATOM     93  O   UNL A   1      38.779  32.885  41.361  1.00  0.00    -0.237 OA
ATOM     94  O   UNL A   1      37.471  34.984  41.442  1.00  0.00    -0.237 OA
ATOM     95  O   UNL A   1      36.660  33.073  40.111  1.00  0.00    -0.744 OA
ENDBRANCH  88  92
ENDBRANCH  61  85
BRANCH  73  96
ATOM     96  C   UNL A   1      43.962  28.831  35.485  1.00  0.00     0.023 A 
ATOM     97  C   UNL A   1      43.842  27.734  36.358  1.00  0.00     0.031 A 
ATOM     98  C   UNL A   1      45.240  29.390  35.300  1.00  0.00     0.131 A 
ATOM     99  C   UNL A   1      44.968  27.269  37.053  1.00  0.00     0.055 A 
ATOM    100  C   UNL A   1      46.368  28.877  35.941  1.00  0.00     0.041 A 
ATOM    101  F   UNL A   1      45.414  30.440  34.483  1.00  0.00    -0.206 F 
ATOM    102  C   UNL A   1      46.234  27.819  36.834  1.00  0.00     0.022 A 
BRANCH  99 103
ATOM    103  S   UNL A   1      44.742  25.995  38.324  1.00  0.00     0.124 S 
ATOM    104  O   UNL A   1      44.048  24.948  37.583  1.00  0.00    -0.237 OA
ATOM    105  O   UNL A   1      46.115  25.695  38.714  1.00  0.00    -0.237 OA
ATOM    106  O   UNL A   1      43.940  26.667  39.345  1.00  0.00    -0.744 OA
ENDBRANCH  99 103
ENDBRANCH  73  96
ENDBRANCH  47  48
ENDBRANCH  39  42
ENDBRANCH  37  38
ENDBRANCH  36  37
ENDBRANCH   1  36
TORSDOF 22
ENDMDL
MODEL 2
REMARK VINA RESULT:     -12.8      1.600      4.166
REMARK SMILES O=C1O[C@@H](c2ccc(O)c(O)c2)[C@H](C(=O)NCCCCCCNC(=O)c2ccc(-c3c4nc(c(-c5cc(S(=O)(=O)[O-])ccc5F)c5ccc([nH]5)c(-c5cc(S(=O)(=O)[O-])ccc5F)c5nc(c(-c6cc(S(=O)(=O)[O-])ccc6F)c6ccc3[nH]6)C=C5)C=C4)cc2)/C1=C\c1ccc(O)c(O)c1
REMARK SMILES IDX 20 1 19 2 18 3 17 4 16 5 14 6 15 7 13 9 1 10 2 11 3 12 89 13
REMARK SMILES IDX 4 14 90 15 5 16 6 17 12 18 7 19 10 20 8 21 11 22 9 24 91 26
REMARK SMILES IDX 92 27 98 28 93 29 96 30 94 31 97 32 95 34 21 36 22 37 23 38
REMARK SMILES IDX 24 39 25 41 26 42 27 43 88 44 28 45 87 46 29 47 30 48 31 49
REMARK SMILES IDX 81 50 32 51 86 52 80 53 82 54 33 55 85 56 79 57 78 58 34 60
REMARK SMILES IDX 66 61 46 62 65 63 47 64 50 65 64 66 83 67 48 68 49 69 63 71
REMARK SMILES IDX 84 72 51 73 35 74 36 75 44 76 37 77 43 78 45 79 42 80 38 81
REMARK SMILES IDX 39 82 40 83 41 84 67 85 68 86 76 87 69 88 75 89 77 90 74 91
REMARK SMILES IDX 70 92 71 93 72 94 73 95 52 96 53 97 61 98 54 99 60 100
REMARK SMILES IDX 62 101 59 102 55 103 56 104 57 105 58 106
REMARK H PARENT 16 8 11 23 9 25 97 33 95 35 23 40 82 59 50 70
REMARK Flexibility Score: inf
ROOT
ATOM      1  C   UNL A   1      31.722  30.411  25.695  1.00  0.00     0.002 C 
ENDROOT
BRANCH   1   2
ATOM      2  C   UNL A   1      32.496  29.091  25.778  1.00  0.00     0.002 C 
BRANCH   2   3
ATOM      3  C   UNL A   1      31.650  27.864  26.114  1.00  0.00     0.021 C 
BRANCH   3   4
ATOM      4  C   UNL A   1      32.456  26.600  26.372  1.00  0.00     0.116 C 
BRANCH   4   5
ATOM      5  N   UNL A   1      31.635  25.428  26.590  1.00  0.00    -0.355 N 
ATOM      6  C   UNL A   1      31.876  24.110  26.322  1.00  0.00     0.231 C 
ATOM      7  O   UNL A   1      31.046  23.301  26.743  1.00  0.00    -0.274 OA
ATOM      8  H   UNL A   1      30.759  25.611  26.999  1.00  0.00     0.163 HD
BRANCH   6   9
ATOM      9  C   UNL A   1      33.071  23.695  25.453  1.00  0.00     0.161 C 
ATOM     10  O   UNL A   1      32.023  20.958  23.408  1.00  0.00    -0.247 OA
ATOM     11  C   UNL A   1      32.553  21.711  24.207  1.00  0.00     0.335 C 
ATOM     12  O   UNL A   1      33.217  21.329  25.324  1.00  0.00    -0.453 OA
ATOM     13  C   UNL A   1      32.604  23.181  24.131  1.00  0.00     0.054 C 
ATOM     14  C   UNL A   1      33.803  22.465  25.985  1.00  0.00     0.224 C 
ATOM     15  C   UNL A   1      32.276  23.804  22.989  1.00  0.00     0.020 C 
BRANCH  14  16
ATOM     16  C   UNL A   1      35.326  22.501  25.813  1.00  0.00    -0.002 A 
ATOM     17  C   UNL A   1      36.072  23.666  26.107  1.00  0.00     0.012 A 
ATOM     18  C   UNL A   1      36.038  21.346  25.455  1.00  0.00     0.057 A 
ATOM     19  C   UNL A   1      37.471  23.677  26.077  1.00  0.00     0.050 A 
ATOM     20  C   UNL A   1      37.428  21.371  25.400  1.00  0.00     0.157 A 
ATOM     21  C   UNL A   1      38.142  22.521  25.722  1.00  0.00     0.157 A 
BRANCH  20  22
ATOM     22  O   UNL A   1      38.101  20.238  25.039  1.00  0.00    -0.504 OA
ATOM     23  H   UNL A   1      38.020  19.903  24.168  1.00  0.00     0.293 HD
ENDBRANCH  20  22
BRANCH  21  24
ATOM     24  O   UNL A   1      39.506  22.461  25.681  1.00  0.00    -0.504 OA
ATOM     25  H   UNL A   1      40.016  23.003  26.252  1.00  0.00     0.293 HD
ENDBRANCH  21  24
ENDBRANCH  14  16
BRANCH  15  26
ATOM     26  C   UNL A   1      32.302  25.254  22.805  1.00  0.00    -0.021 A 
ATOM     27  C   UNL A   1      33.519  25.950  22.726  1.00  0.00     0.012 A 
ATOM     28  C   UNL A   1      31.096  25.948  22.668  1.00  0.00     0.058 A 
ATOM     29  C   UNL A   1      33.533  27.336  22.543  1.00  0.00     0.051 A 
ATOM     30  C   UNL A   1      31.119  27.322  22.477  1.00  0.00     0.157 A 
ATOM     31  C   UNL A   1      32.327  28.014  22.423  1.00  0.00     0.157 A 
BRANCH  30  32
ATOM     32  O   UNL A   1      29.941  27.998  22.340  1.00  0.00    -0.504 OA
ATOM     33  H   UNL A   1      29.128  27.565  22.512  1.00  0.00     0.293 HD
ENDBRANCH  30  32
BRANCH  31  34
ATOM     34  O   UNL A   1      32.276  29.368  22.243  1.00  0.00    -0.504 OA
ATOM     35  H   UNL A   1      31.877  29.724  21.473  1.00  0.00     0.293 HD
ENDBRANCH  31  34
ENDBRANCH  15  26
ENDBRANCH   6   9
ENDBRANCH   4   5
ENDBRANCH   3   4
ENDBRANCH   2   3
ENDBRANCH   1   2
BRANCH   1  36
ATOM     36  C   UNL A   1      31.749  31.267  26.964  1.00  0.00     0.021 C 
BRANCH  36  37
ATOM     37  C   UNL A   1      33.029  32.069  27.161  1.00  0.00     0.116 C 
BRANCH  37  38
ATOM     38  N   UNL A   1      32.754  33.463  27.469  1.00  0.00    -0.352 N 
ATOM     39  C   UNL A   1      33.269  34.245  28.473  1.00  0.00     0.251 C 
ATOM     40  H   UNL A   1      32.107  33.909  26.875  1.00  0.00     0.163 HD
ATOM     41  O   UNL A   1      32.760  35.334  28.722  1.00  0.00    -0.269 OA
BRANCH  39  42
ATOM     42  C   UNL A   1      34.420  33.755  29.261  1.00  0.00     0.039 A 
ATOM     43  C   UNL A   1      34.200  32.832  30.284  1.00  0.00     0.014 A 
ATOM     44  C   UNL A   1      35.714  34.204  28.982  1.00  0.00     0.014 A 
ATOM     45  C   UNL A   1      35.288  32.315  30.993  1.00  0.00     0.010 A 
ATOM     46  C   UNL A   1      36.801  33.627  29.632  1.00  0.00     0.010 A 
ATOM     47  C   UNL A   1      36.600  32.683  30.650  1.00  0.00    -0.014 A 
BRANCH  47  48
ATOM     48  C   UNL A   1      37.775  32.108  31.356  1.00  0.00     0.031 A 
ATOM     49  C   UNL A   1      38.565  31.000  30.714  1.00  0.00     0.074 A 
ATOM     50  C   UNL A   1      38.092  32.538  32.593  1.00  0.00     0.049 A 
ATOM     51  N   UNL A   1      39.559  30.300  31.200  1.00  0.00    -0.248 NA
ATOM     52  C   UNL A   1      38.163  30.606  29.354  1.00  0.00     0.031 C 
ATOM     53  C   UNL A   1      37.386  33.588  33.330  1.00  0.00     0.029 A 
ATOM     54  N   UNL A   1      39.086  32.143  33.454  1.00  0.00    -0.354 N 
ATOM     55  C   UNL A   1      39.892  29.379  30.213  1.00  0.00     0.074 A 
ATOM     56  C   UNL A   1      38.948  29.563  29.131  1.00  0.00     0.031 C 
ATOM     57  C   UNL A   1      37.984  33.772  34.518  1.00  0.00     0.029 A 
ATOM     58  C   UNL A   1      39.080  32.817  34.654  1.00  0.00     0.049 A 
ATOM     59  H   UNL A   1      39.742  31.442  33.234  1.00  0.00     0.167 HD
ATOM     60  C   UNL A   1      40.907  28.480  30.199  1.00  0.00     0.034 A 
ATOM     61  C   UNL A   1      39.858  32.671  35.746  1.00  0.00     0.034 A 
ATOM     62  C   UNL A   1      41.844  28.316  31.284  1.00  0.00     0.049 A 
ATOM     63  C   UNL A   1      40.949  31.629  35.728  1.00  0.00     0.074 A 
ATOM     64  C   UNL A   1      42.935  27.467  31.358  1.00  0.00     0.029 A 
ATOM     65  N   UNL A   1      41.800  29.009  32.488  1.00  0.00    -0.354 N 
ATOM     66  N   UNL A   1      41.275  30.789  34.771  1.00  0.00    -0.248 NA
ATOM     67  C   UNL A   1      41.784  31.522  36.931  1.00  0.00     0.031 C 
ATOM     68  C   UNL A   1      43.497  27.585  32.633  1.00  0.00     0.029 A 
ATOM     69  C   UNL A   1      42.820  28.579  33.323  1.00  0.00     0.049 A 
ATOM     70  H   UNL A   1      41.140  29.704  32.714  1.00  0.00     0.167 HD
ATOM     71  C   UNL A   1      42.379  30.085  35.246  1.00  0.00     0.074 A 
ATOM     72  C   UNL A   1      42.667  30.604  36.566  1.00  0.00     0.031 C 
ATOM     73  C   UNL A   1      43.096  29.103  34.641  1.00  0.00     0.034 A 
BRANCH  60  74
ATOM     74  C   UNL A   1      41.033  27.588  28.986  1.00  0.00     0.023 A 
ATOM     75  C   UNL A   1      42.031  27.795  28.017  1.00  0.00     0.031 A 
ATOM     76  C   UNL A   1      40.129  26.531  28.780  1.00  0.00     0.131 A 
ATOM     77  C   UNL A   1      42.051  27.013  26.853  1.00  0.00     0.055 A 
ATOM     78  C   UNL A   1      40.212  25.697  27.664  1.00  0.00     0.041 A 
ATOM     79  F   UNL A   1      39.138  26.299  29.656  1.00  0.00    -0.206 F 
ATOM     80  C   UNL A   1      41.168  25.945  26.683  1.00  0.00     0.022 A 
BRANCH  77  81
ATOM     81  S   UNL A   1      43.143  27.514  25.493  1.00  0.00     0.124 S 
ATOM     82  O   UNL A   1      43.649  26.222  25.034  1.00  0.00    -0.237 OA
ATOM     83  O   UNL A   1      42.227  28.199  24.589  1.00  0.00    -0.237 OA
ATOM     84  O   UNL A   1      44.133  28.365  26.147  1.00  0.00    -0.744 OA
ENDBRANCH  77  81
ENDBRANCH  60  74
BRANCH  61  85
ATOM     85  C   UNL A   1      39.631  33.515  36.956  1.00  0.00     0.023 A 
ATOM     86  C   UNL A   1      38.938  33.013  38.069  1.00  0.00     0.031 A 
ATOM     87  C   UNL A   1      40.059  34.854  36.998  1.00  0.00     0.131 A 
ATOM     88  C   UNL A   1      38.643  33.857  39.150  1.00  0.00     0.055 A 
ATOM     89  C   UNL A   1      39.820  35.673  38.104  1.00  0.00     0.041 A 
ATOM     90  F   UNL A   1      40.727  35.387  35.962  1.00  0.00    -0.206 F 
ATOM     91  C   UNL A   1      39.093  35.178  39.183  1.00  0.00     0.022 A 
BRANCH  88  92
ATOM     92  S   UNL A   1      37.566  33.233  40.470  1.00  0.00     0.124 S 
ATOM     93  O   UNL A   1      37.358  34.434  41.272  1.00  0.00    -0.237 OA
ATOM     94  O   UNL A   1      36.411  32.757  39.718  1.00  0.00    -0.237 OA
ATOM     95  O   UNL A   1      38.372  32.191  41.101  1.00  0.00    -0.744 OA
ENDBRANCH  88  92
ENDBRANCH  61  85
BRANCH  73  96
ATOM     96  C   UNL A   1      44.301  28.569  35.378  1.00  0.00     0.023 A 
ATOM     97  C   UNL A   1      44.194  27.559  36.350  1.00  0.00     0.031 A 
ATOM     98  C   UNL A   1      45.580  29.083  35.097  1.00  0.00     0.131 A 
ATOM     99  C   UNL A   1      45.337  27.137  37.046  1.00  0.00     0.055 A 
ATOM    100  C   UNL A   1      46.722  28.609  35.742  1.00  0.00     0.041 A 
ATOM    101  F   UNL A   1      45.742  30.051  34.182  1.00  0.00    -0.206 F 
ATOM    102  C   UNL A   1      46.603  27.639  36.733  1.00  0.00     0.022 A 
BRANCH  99 103
ATOM    103  S   UNL A   1      45.136  25.989  38.435  1.00  0.00     0.124 S 
ATOM    104  O   UNL A   1      44.613  24.800  37.772  1.00  0.00    -0.237 OA
ATOM    105  O   UNL A   1      46.496  25.882  38.952  1.00  0.00    -0.237 OA
ATOM    106  O   UNL A   1      44.192  26.675  39.315  1.00  0.00    -0.744 OA
ENDBRANCH  99 103
ENDBRANCH  73  96
ENDBRANCH  47  48
ENDBRANCH  39  42
ENDBRANCH  37  38
ENDBRANCH  36  37
ENDBRANCH   1  36
TORSDOF 22
ENDMDL
MODEL 3
REMARK VINA RESULT:     -12.5      5.615     11.135
REMARK SMILES O=C1O[C@@H](c2ccc(O)c(O)c2)[C@H](C(=O)NCCCCCCNC(=O)c2ccc(-c3c4nc(c(-c5cc(S(=O)(=O)[O-])ccc5F)c5ccc([nH]5)c(-c5cc(S(=O)(=O)[O-])ccc5F)c5nc(c(-c6cc(S(=O)(=O)[O-])ccc6F)c6ccc3[nH]6)C=C5)C=C4)cc2)/C1=C\c1ccc(O)c(O)c1
REMARK SMILES IDX 20 1 19 2 18 3 17 4 16 5 14 6 15 7 13 9 1 10 2 11 3 12 89 13
REMARK SMILES IDX 4 14 90 15 5 16 6 17 12 18 7 19 10 20 8 21 11 22 9 24 91 26
REMARK SMILES IDX 92 27 98 28 93 29 96 30 94 31 97 32 95 34 21 36 22 37 23 38
REMARK SMILES IDX 24 39 25 41 26 42 27 43 88 44 28 45 87 46 29 47 30 48 31 49
REMARK SMILES IDX 81 50 32 51 86 52 80 53 82 54 33 55 85 56 79 57 78 58 34 60
REMARK SMILES IDX 66 61 46 62 65 63 47 64 50 65 64 66 83 67 48 68 49 69 63 71
REMARK SMILES IDX 84 72 51 73 35 74 36 75 44 76 37 77 43 78 45 79 42 80 38 81
REMARK SMILES IDX 39 82 40 83 41 84 67 85 68 86 76 87 69 88 75 89 77 90 74 91
REMARK SMILES IDX 70 92 71 93 72 94 73 95 52 96 53 97 61 98 54 99 60 100
REMARK SMILES IDX 62 101 59 102 55 103 56 104 57 105 58 106
REMARK H PARENT 16 8 11 23 9 25 97 33 95 35 23 40 82 59 50 70
REMARK Flexibility Score: inf
ROOT
ATOM      1  C   UNL A   1      37.396  21.694  24.276  1.00  0.00     0.002 C 
ENDROOT
BRANCH   1   2
ATOM      2  C   UNL A   1      35.968  22.104  24.652  1.00  0.00     0.002 C 
BRANCH   2   3
ATOM      3  C   UNL A   1      35.153  22.723  23.516  1.00  0.00     0.021 C 
BRANCH   3   4
ATOM      4  C   UNL A   1      34.511  24.059  23.862  1.00  0.00     0.116 C 
BRANCH   4   5
ATOM      5  N   UNL A   1      33.701  24.603  22.794  1.00  0.00    -0.355 N 
ATOM      6  C   UNL A   1      32.838  25.662  22.782  1.00  0.00     0.231 C 
ATOM      7  O   UNL A   1      32.381  25.988  21.684  1.00  0.00    -0.274 OA
ATOM      8  H   UNL A   1      33.785  24.131  21.934  1.00  0.00     0.163 HD
BRANCH   6   9
ATOM      9  C   UNL A   1      32.399  26.327  24.093  1.00  0.00     0.161 C 
ATOM     10  O   UNL A   1      28.879  26.906  23.888  1.00  0.00    -0.247 OA
ATOM     11  C   UNL A   1      30.092  26.977  23.973  1.00  0.00     0.335 C 
ATOM     12  O   UNL A   1      30.839  28.063  23.658  1.00  0.00    -0.453 OA
ATOM     13  C   UNL A   1      31.006  25.923  24.446  1.00  0.00     0.054 C 
ATOM     14  C   UNL A   1      32.225  27.839  23.972  1.00  0.00     0.224 C 
ATOM     15  C   UNL A   1      30.516  24.851  25.086  1.00  0.00     0.020 C 
BRANCH  14  16
ATOM     16  C   UNL A   1      32.666  28.637  25.205  1.00  0.00    -0.002 A 
ATOM     17  C   UNL A   1      33.784  28.241  25.976  1.00  0.00     0.012 A 
ATOM     18  C   UNL A   1      32.034  29.842  25.547  1.00  0.00     0.057 A 
ATOM     19  C   UNL A   1      34.274  29.026  27.026  1.00  0.00     0.050 A 
ATOM     20  C   UNL A   1      32.510  30.603  26.610  1.00  0.00     0.157 A 
ATOM     21  C   UNL A   1      33.629  30.209  27.336  1.00  0.00     0.157 A 
BRANCH  20  22
ATOM     22  O   UNL A   1      31.873  31.768  26.932  1.00  0.00    -0.504 OA
ATOM     23  H   UNL A   1      32.086  32.214  27.728  1.00  0.00     0.293 HD
ENDBRANCH  20  22
BRANCH  21  24
ATOM     24  O   UNL A   1      34.061  31.024  28.342  1.00  0.00    -0.504 OA
ATOM     25  H   UNL A   1      34.426  31.864  28.141  1.00  0.00     0.293 HD
ENDBRANCH  21  24
ENDBRANCH  14  16
BRANCH  15  26
ATOM     26  C   UNL A   1      31.334  23.755  25.603  1.00  0.00    -0.021 A 
ATOM     27  C   UNL A   1      32.140  23.928  26.739  1.00  0.00     0.012 A 
ATOM     28  C   UNL A   1      31.279  22.506  24.975  1.00  0.00     0.058 A 
ATOM     29  C   UNL A   1      32.914  22.872  27.229  1.00  0.00     0.051 A 
ATOM     30  C   UNL A   1      32.042  21.460  25.474  1.00  0.00     0.157 A 
ATOM     31  C   UNL A   1      32.860  21.641  26.587  1.00  0.00     0.157 A 
BRANCH  30  32
ATOM     32  O   UNL A   1      31.986  20.241  24.864  1.00  0.00    -0.504 OA
ATOM     33  H   UNL A   1      31.286  19.650  25.059  1.00  0.00     0.293 HD
ENDBRANCH  30  32
BRANCH  31  34
ATOM     34  O   UNL A   1      33.593  20.571  27.019  1.00  0.00    -0.504 OA
ATOM     35  H   UNL A   1      34.516  20.658  27.153  1.00  0.00     0.293 HD
ENDBRANCH  31  34
ENDBRANCH  15  26
ENDBRANCH   6   9
ENDBRANCH   4   5
ENDBRANCH   3   4
ENDBRANCH   2   3
ENDBRANCH   1   2
BRANCH   1  36
ATOM     36  C   UNL A   1      37.919  20.433  24.968  1.00  0.00     0.021 C 
BRANCH  36  37
ATOM     37  C   UNL A   1      39.001  20.683  26.011  1.00  0.00     0.116 C 
BRANCH  37  38
ATOM     38  N   UNL A   1      39.981  19.611  26.044  1.00  0.00    -0.352 N 
ATOM     39  C   UNL A   1      41.350  19.692  26.106  1.00  0.00     0.251 C 
ATOM     40  H   UNL A   1      39.612  18.698  26.019  1.00  0.00     0.163 HD
ATOM     41  O   UNL A   1      42.031  18.692  25.902  1.00  0.00    -0.269 OA
BRANCH  39  42
ATOM     42  C   UNL A   1      41.991  20.993  26.396  1.00  0.00     0.039 A 
ATOM     43  C   UNL A   1      42.289  21.854  25.339  1.00  0.00     0.014 A 
ATOM     44  C   UNL A   1      42.290  21.360  27.711  1.00  0.00     0.014 A 
ATOM     45  C   UNL A   1      42.836  23.111  25.607  1.00  0.00     0.010 A 
ATOM     46  C   UNL A   1      42.758  22.642  27.982  1.00  0.00     0.010 A 
ATOM     47  C   UNL A   1      43.043  23.529  26.933  1.00  0.00    -0.014 A 
BRANCH  47  48
ATOM     48  C   UNL A   1      43.578  24.881  27.245  1.00  0.00     0.031 A 
ATOM     49  C   UNL A   1      42.655  25.947  27.772  1.00  0.00     0.074 A 
ATOM     50  C   UNL A   1      44.871  25.166  26.998  1.00  0.00     0.049 A 
ATOM     51  N   UNL A   1      42.899  27.210  28.013  1.00  0.00    -0.248 NA
ATOM     52  C   UNL A   1      41.264  25.545  28.031  1.00  0.00     0.031 C 
ATOM     53  C   UNL A   1      45.858  24.223  26.464  1.00  0.00     0.029 A 
ATOM     54  N   UNL A   1      45.582  26.330  27.157  1.00  0.00    -0.354 N 
ATOM     55  C   UNL A   1      41.693  27.753  28.441  1.00  0.00     0.074 A 
ATOM     56  C   UNL A   1      40.705  26.700  28.357  1.00  0.00     0.031 C 
ATOM     57  C   UNL A   1      47.047  24.839  26.366  1.00  0.00     0.029 A 
ATOM     58  C   UNL A   1      46.900  26.232  26.775  1.00  0.00     0.049 A 
ATOM     59  H   UNL A   1      45.184  27.158  27.511  1.00  0.00     0.167 HD
ATOM     60  C   UNL A   1      41.439  29.009  28.887  1.00  0.00     0.034 A 
ATOM     61  C   UNL A   1      47.875  27.163  26.740  1.00  0.00     0.034 A 
ATOM     62  C   UNL A   1      42.439  30.045  28.973  1.00  0.00     0.049 A 
ATOM     63  C   UNL A   1      47.556  28.567  27.193  1.00  0.00     0.074 A 
ATOM     64  C   UNL A   1      42.303  31.337  29.449  1.00  0.00     0.029 A 
ATOM     65  N   UNL A   1      43.762  29.912  28.565  1.00  0.00    -0.354 N 
ATOM     66  N   UNL A   1      46.418  29.057  27.630  1.00  0.00    -0.248 NA
ATOM     67  C   UNL A   1      48.655  29.541  27.159  1.00  0.00     0.031 C 
ATOM     68  C   UNL A   1      43.514  32.008  29.252  1.00  0.00     0.029 A 
ATOM     69  C   UNL A   1      44.438  31.109  28.744  1.00  0.00     0.049 A 
ATOM     70  H   UNL A   1      44.160  29.087  28.202  1.00  0.00     0.167 HD
ATOM     71  C   UNL A   1      46.679  30.385  27.962  1.00  0.00     0.074 A 
ATOM     72  C   UNL A   1      48.081  30.614  27.682  1.00  0.00     0.031 C 
ATOM     73  C   UNL A   1      45.838  31.327  28.459  1.00  0.00     0.034 A 
BRANCH  60  74
ATOM     74  C   UNL A   1      40.019  29.333  29.288  1.00  0.00     0.023 A 
ATOM     75  C   UNL A   1      39.626  29.396  30.637  1.00  0.00     0.031 A 
ATOM     76  C   UNL A   1      39.035  29.558  28.308  1.00  0.00     0.131 A 
ATOM     77  C   UNL A   1      38.277  29.595  30.966  1.00  0.00     0.055 A 
ATOM     78  C   UNL A   1      37.712  29.849  28.645  1.00  0.00     0.041 A 
ATOM     79  F   UNL A   1      39.341  29.486  27.003  1.00  0.00    -0.206 F 
ATOM     80  C   UNL A   1      37.323  29.853  29.981  1.00  0.00     0.022 A 
BRANCH  77  81
ATOM     81  S   UNL A   1      37.764  29.353  32.689  1.00  0.00     0.124 S 
ATOM     82  O   UNL A   1      37.666  27.896  32.762  1.00  0.00    -0.237 OA
ATOM     83  O   UNL A   1      38.861  29.958  33.434  1.00  0.00    -0.237 OA
ATOM     84  O   UNL A   1      36.488  30.060  32.767  1.00  0.00    -0.744 OA
ENDBRANCH  77  81
ENDBRANCH  60  74
BRANCH  61  85
ATOM     85  C   UNL A   1      49.240  26.814  26.247  1.00  0.00     0.023 A 
ATOM     86  C   UNL A   1      49.683  27.238  24.985  1.00  0.00     0.031 A 
ATOM     87  C   UNL A   1      50.102  26.006  27.010  1.00  0.00     0.131 A 
ATOM     88  C   UNL A   1      50.927  26.807  24.498  1.00  0.00     0.055 A 
ATOM     89  C   UNL A   1      51.366  25.633  26.548  1.00  0.00     0.041 A 
ATOM     90  F   UNL A   1      49.730  25.572  28.225  1.00  0.00    -0.206 F 
ATOM     91  C   UNL A   1      51.779  26.022  25.277  1.00  0.00     0.022 A 
BRANCH  88  92
ATOM     92  S   UNL A   1      51.372  27.201  22.784  1.00  0.00     0.124 S 
ATOM     93  O   UNL A   1      50.146  26.851  22.074  1.00  0.00    -0.237 OA
ATOM     94  O   UNL A   1      51.679  28.624  22.870  1.00  0.00    -0.237 OA
ATOM     95  O   UNL A   1      52.516  26.332  22.521  1.00  0.00    -0.744 OA
ENDBRANCH  88  92
ENDBRANCH  61  85
BRANCH  73  96
ATOM     96  C   UNL A   1      46.427  32.676  28.793  1.00  0.00     0.023 A 
ATOM     97  C   UNL A   1      46.594  33.679  27.821  1.00  0.00     0.031 A 
ATOM     98  C   UNL A   1      46.828  32.961  30.112  1.00  0.00     0.131 A 
ATOM     99  C   UNL A   1      47.198  34.896  28.172  1.00  0.00     0.055 A 
ATOM    100  C   UNL A   1      47.362  34.200  30.467  1.00  0.00     0.041 A 
ATOM    101  F   UNL A   1      46.697  32.041  31.079  1.00  0.00    -0.206 F 
ATOM    102  C   UNL A   1      47.563  35.171  29.492  1.00  0.00     0.022 A 
BRANCH  99 103
ATOM    103  S   UNL A   1      47.589  36.084  26.858  1.00  0.00     0.124 S 
ATOM    104  O   UNL A   1      47.842  37.303  27.617  1.00  0.00    -0.237 OA
ATOM    105  O   UNL A   1      48.754  35.476  26.224  1.00  0.00    -0.237 OA
ATOM    106  O   UNL A   1      46.378  36.102  26.039  1.00  0.00    -0.744 OA
ENDBRANCH  99 103
ENDBRANCH  73  96
ENDBRANCH  47  48
ENDBRANCH  39  42
ENDBRANCH  37  38
ENDBRANCH  36  37
ENDBRANCH   1  36
TORSDOF 22
ENDMDL
