MODEL 1
REMARK VINA RESULT:     -11.8      0.000      0.000
REMARK SMILES NS(=O)(=O)c1ccc(-n2nc(C(F)(F)F)cc2-c2ccc(CC(=O)NCCCCCCNC(=O)c3ccc(-c4c5nc(c(-c6cc(S(=O)(=O)[O-])ccc6F)c6ccc([nH]6)c(-c6cc(S(=O)(=O)[O-])ccc6F)c6nc(c(-c7cc(S(=O)(=O)[O-])ccc7F)c7ccc4[nH]7)C=C6)C=C5)cc3)cc2)cc1
REMARK SMILES IDX 27 1 26 2 25 3 23 4 24 5 22 7 21 8 18 9 19 10 99 11 20 12
REMARK SMILES IDX 98 13 17 14 9 15 10 16 11 17 16 18 8 19 5 20 6 21 101 22
REMARK SMILES IDX 7 23 100 24 2 25 3 26 4 27 1 28 12 31 13 32 14 33 15 34
REMARK SMILES IDX 28 35 29 36 30 37 31 38 32 39 33 40 34 42 35 43 36 44 97 45
REMARK SMILES IDX 37 46 96 47 38 48 39 49 40 50 90 51 41 52 95 53 89 54 91 55
REMARK SMILES IDX 42 56 94 57 88 58 87 59 43 61 75 62 55 63 74 64 56 65 59 66
REMARK SMILES IDX 73 67 92 68 57 69 58 70 72 72 93 73 60 74 44 75 45 76 53 77
REMARK SMILES IDX 46 78 52 79 54 80 51 81 47 82 48 83 49 84 50 85 76 86 77 87
REMARK SMILES IDX 85 88 78 89 84 90 86 91 83 92 79 93 80 94 81 95 82 96 61 97
REMARK SMILES IDX 62 98 70 99 63 100 69 101 71 102 68 103 64 104 65 105 66 106
REMARK SMILES IDX 67 107
REMARK H PARENT 25 6 1 29 1 30 32 41 91 60 59 71
REMARK Flexibility Score: inf
ROOT
ATOM      1  C   UNL A   1      36.587  21.838  24.255  1.00  0.00     0.021 C 
ENDROOT
BRANCH   1   2
ATOM      2  C   UNL A   1      35.602  21.090  25.153  1.00  0.00     0.116 C 
BRANCH   2   3
ATOM      3  N   UNL A   1      34.264  21.091  24.593  1.00  0.00    -0.356 N 
ATOM      4  C   UNL A   1      33.170  21.821  24.958  1.00  0.00     0.224 C 
ATOM      5  O   UNL A   1      32.104  21.608  24.376  1.00  0.00    -0.275 OA
ATOM      6  H   UNL A   1      34.125  20.475  23.837  1.00  0.00     0.163 HD
BRANCH   4   7
ATOM      7  C   UNL A   1      33.289  22.916  26.003  1.00  0.00     0.135 C 
BRANCH   7   8
ATOM      8  C   UNL A   1      32.675  24.230  25.596  1.00  0.00    -0.039 A 
ATOM      9  C   UNL A   1      31.380  26.565  24.775  1.00  0.00     0.000 A 
ATOM     10  C   UNL A   1      32.360  25.982  23.964  1.00  0.00     0.010 A 
ATOM     11  C   UNL A   1      31.097  26.019  26.026  1.00  0.00     0.010 A 
ATOM     12  C   UNL A   1      32.995  24.812  24.365  1.00  0.00     0.005 A 
ATOM     13  C   UNL A   1      31.757  24.870  26.443  1.00  0.00     0.005 A 
BRANCH   9  14
ATOM     14  C   UNL A   1      30.611  27.702  24.312  1.00  0.00     0.075 A 
ATOM     15  N   UNL A   1      30.921  29.016  24.602  1.00  0.00    -0.233 N 
ATOM     16  N   UNL A   1      30.104  29.878  23.958  1.00  0.00    -0.163 NA
ATOM     17  C   UNL A   1      29.186  29.119  23.335  1.00  0.00     0.167 A 
ATOM     18  C   UNL A   1      29.498  27.747  23.497  1.00  0.00     0.064 A 
BRANCH  15  19
ATOM     19  C   UNL A   1      31.971  29.485  25.429  1.00  0.00     0.065 A 
ATOM     20  C   UNL A   1      34.057  30.561  26.922  1.00  0.00     0.082 A 
ATOM     21  C   UNL A   1      34.311  29.534  26.005  1.00  0.00     0.024 A 
ATOM     22  C   UNL A   1      32.759  31.036  27.115  1.00  0.00     0.024 A 
ATOM     23  C   UNL A   1      33.268  29.001  25.240  1.00  0.00     0.030 A 
ATOM     24  C   UNL A   1      31.709  30.469  26.393  1.00  0.00     0.030 A 
BRANCH  20  25
ATOM     25  S   UNL A   1      35.334  31.268  27.914  1.00  0.00     0.238 S 
ATOM     26  O   UNL A   1      35.527  32.632  27.486  1.00  0.00    -0.207 OA
ATOM     27  O   UNL A   1      36.423  30.326  28.037  1.00  0.00    -0.207 OA
BRANCH  25  28
ATOM     28  N   UNL A   1      34.671  31.397  29.460  1.00  0.00    -0.225 NA
ATOM     29  H   UNL A   1      33.897  32.062  29.443  1.00  0.00     0.137 HD
ATOM     30  H   UNL A   1      35.385  31.722  30.110  1.00  0.00     0.137 HD
ENDBRANCH  25  28
ENDBRANCH  20  25
ENDBRANCH  15  19
BRANCH  17  31
ATOM     31  C   UNL A   1      28.011  29.685  22.576  1.00  0.00     0.435 C 
ATOM     32  F   UNL A   1      26.922  28.881  22.627  1.00  0.00    -0.164 F 
ATOM     33  F   UNL A   1      27.642  30.917  23.007  1.00  0.00    -0.164 F 
ATOM     34  F   UNL A   1      28.316  29.824  21.251  1.00  0.00    -0.164 F 
ENDBRANCH  17  31
ENDBRANCH   9  14
ENDBRANCH   7   8
ENDBRANCH   4   7
ENDBRANCH   2   3
ENDBRANCH   1   2
BRANCH   1  35
ATOM     35  C   UNL A   1      36.467  23.365  24.335  1.00  0.00     0.002 C 
BRANCH  35  36
ATOM     36  C   UNL A   1      36.814  23.992  25.696  1.00  0.00     0.002 C 
BRANCH  36  37
ATOM     37  C   UNL A   1      38.030  23.402  26.428  1.00  0.00     0.021 C 
BRANCH  37  38
ATOM     38  C   UNL A   1      38.949  24.451  27.032  1.00  0.00     0.116 C 
BRANCH  38  39
ATOM     39  N   UNL A   1      40.086  24.772  26.162  1.00  0.00    -0.352 N 
ATOM     40  C   UNL A   1      40.794  25.961  26.078  1.00  0.00     0.251 C 
ATOM     41  H   UNL A   1      40.384  24.051  25.561  1.00  0.00     0.163 HD
ATOM     42  O   UNL A   1      41.427  26.237  25.066  1.00  0.00    -0.269 OA
BRANCH  40  43
ATOM     43  C   UNL A   1      40.784  26.866  27.242  1.00  0.00     0.039 A 
ATOM     44  C   UNL A   1      41.101  26.453  28.542  1.00  0.00     0.014 A 
ATOM     45  C   UNL A   1      40.461  28.193  26.987  1.00  0.00     0.014 A 
ATOM     46  C   UNL A   1      41.127  27.412  29.559  1.00  0.00     0.010 A 
ATOM     47  C   UNL A   1      40.734  29.150  27.919  1.00  0.00     0.010 A 
ATOM     48  C   UNL A   1      40.937  28.765  29.231  1.00  0.00    -0.014 A 
BRANCH  48  49
ATOM     49  C   UNL A   1      41.059  29.863  30.185  1.00  0.00     0.031 A 
ATOM     50  C   UNL A   1      39.751  30.483  30.516  1.00  0.00     0.074 A 
ATOM     51  C   UNL A   1      42.192  30.073  30.902  1.00  0.00     0.049 A 
ATOM     52  N   UNL A   1      39.317  31.641  30.146  1.00  0.00    -0.248 NA
ATOM     53  C   UNL A   1      38.711  29.643  31.140  1.00  0.00     0.031 C 
ATOM     54  C   UNL A   1      43.448  29.308  30.879  1.00  0.00     0.029 A 
ATOM     55  N   UNL A   1      42.434  30.969  31.897  1.00  0.00    -0.354 N 
ATOM     56  C   UNL A   1      38.067  31.784  30.738  1.00  0.00     0.074 A 
ATOM     57  C   UNL A   1      37.652  30.454  31.087  1.00  0.00     0.031 C 
ATOM     58  C   UNL A   1      44.208  29.633  31.953  1.00  0.00     0.029 A 
ATOM     59  C   UNL A   1      43.579  30.732  32.671  1.00  0.00     0.049 A 
ATOM     60  H   UNL A   1      41.841  31.738  32.064  1.00  0.00     0.167 HD
ATOM     61  C   UNL A   1      37.620  33.007  31.139  1.00  0.00     0.034 A 
ATOM     62  C   UNL A   1      43.952  31.374  33.827  1.00  0.00     0.034 A 
ATOM     63  C   UNL A   1      38.462  34.053  30.593  1.00  0.00     0.049 A 
ATOM     64  C   UNL A   1      43.180  32.641  33.857  1.00  0.00     0.074 A 
ATOM     65  C   UNL A   1      38.816  34.430  29.311  1.00  0.00     0.029 A 
ATOM     66  N   UNL A   1      39.424  34.596  31.420  1.00  0.00    -0.354 N 
ATOM     67  N   UNL A   1      43.394  33.608  33.009  1.00  0.00    -0.248 NA
ATOM     68  C   UNL A   1      41.840  32.610  34.436  1.00  0.00     0.031 C 
ATOM     69  C   UNL A   1      40.213  34.706  29.389  1.00  0.00     0.029 A 
ATOM     70  C   UNL A   1      40.611  34.606  30.724  1.00  0.00     0.049 A 
ATOM     71  H   UNL A   1      39.287  34.916  32.340  1.00  0.00     0.167 HD
ATOM     72  C   UNL A   1      42.132  34.015  32.606  1.00  0.00     0.074 A 
ATOM     73  C   UNL A   1      41.212  33.434  33.589  1.00  0.00     0.031 C 
ATOM     74  C   UNL A   1      41.916  34.501  31.347  1.00  0.00     0.034 A 
BRANCH  61  75
ATOM     75  C   UNL A   1      36.693  33.270  32.308  1.00  0.00     0.023 A 
ATOM     76  C   UNL A   1      35.546  34.045  32.044  1.00  0.00     0.031 A 
ATOM     77  C   UNL A   1      36.982  33.060  33.676  1.00  0.00     0.131 A 
ATOM     78  C   UNL A   1      34.832  34.666  33.082  1.00  0.00     0.055 A 
ATOM     79  C   UNL A   1      36.229  33.627  34.709  1.00  0.00     0.041 A 
ATOM     80  F   UNL A   1      38.047  32.374  34.100  1.00  0.00    -0.206 F 
ATOM     81  C   UNL A   1      35.168  34.465  34.416  1.00  0.00     0.022 A 
BRANCH  78  82
ATOM     82  S   UNL A   1      33.568  35.885  32.642  1.00  0.00     0.124 S 
ATOM     83  O   UNL A   1      33.611  36.780  33.792  1.00  0.00    -0.237 OA
ATOM     84  O   UNL A   1      34.092  36.417  31.388  1.00  0.00    -0.237 OA
ATOM     85  O   UNL A   1      32.353  35.081  32.519  1.00  0.00    -0.744 OA
ENDBRANCH  78  82
ENDBRANCH  61  75
BRANCH  62  86
ATOM     86  C   UNL A   1      44.605  30.807  35.059  1.00  0.00     0.023 A 
ATOM     87  C   UNL A   1      44.351  29.536  35.650  1.00  0.00     0.031 A 
ATOM     88  C   UNL A   1      45.761  31.457  35.507  1.00  0.00     0.131 A 
ATOM     89  C   UNL A   1      45.236  28.998  36.636  1.00  0.00     0.055 A 
ATOM     90  C   UNL A   1      46.628  30.902  36.450  1.00  0.00     0.041 A 
ATOM     91  F   UNL A   1      46.136  32.618  34.954  1.00  0.00    -0.206 F 
ATOM     92  C   UNL A   1      46.379  29.680  37.022  1.00  0.00     0.022 A 
BRANCH  89  93
ATOM     93  S   UNL A   1      45.004  27.356  37.405  1.00  0.00     0.124 S 
ATOM     94  O   UNL A   1      45.125  26.453  36.268  1.00  0.00    -0.237 OA
ATOM     95  O   UNL A   1      46.076  27.316  38.391  1.00  0.00    -0.237 OA
ATOM     96  O   UNL A   1      43.656  27.427  37.978  1.00  0.00    -0.744 OA
ENDBRANCH  89  93
ENDBRANCH  62  86
BRANCH  74  97
ATOM     97  C   UNL A   1      43.124  34.767  30.463  1.00  0.00     0.023 A 
ATOM     98  C   UNL A   1      43.635  33.874  29.489  1.00  0.00     0.031 A 
ATOM     99  C   UNL A   1      43.694  36.049  30.528  1.00  0.00     0.131 A 
ATOM    100  C   UNL A   1      44.684  34.280  28.636  1.00  0.00     0.055 A 
ATOM    101  C   UNL A   1      44.712  36.454  29.668  1.00  0.00     0.041 A 
ATOM    102  F   UNL A   1      43.236  36.952  31.411  1.00  0.00    -0.206 F 
ATOM    103  C   UNL A   1      45.215  35.570  28.722  1.00  0.00     0.022 A 
BRANCH 100 104
ATOM    104  S   UNL A   1      45.394  33.131  27.408  1.00  0.00     0.124 S 
ATOM    105  O   UNL A   1      46.499  32.508  28.126  1.00  0.00    -0.237 OA
ATOM    106  O   UNL A   1      44.262  32.263  27.094  1.00  0.00    -0.237 OA
ATOM    107  O   UNL A   1      45.801  34.014  26.313  1.00  0.00    -0.744 OA
ENDBRANCH 100 104
ENDBRANCH  74  97
ENDBRANCH  48  49
ENDBRANCH  40  43
ENDBRANCH  38  39
ENDBRANCH  37  38
ENDBRANCH  36  37
ENDBRANCH  35  36
ENDBRANCH   1  35
TORSDOF 22
ENDMDL
MODEL 2
REMARK VINA RESULT:     -11.1      2.168      7.028
REMARK SMILES NS(=O)(=O)c1ccc(-n2nc(C(F)(F)F)cc2-c2ccc(CC(=O)NCCCCCCNC(=O)c3ccc(-c4c5nc(c(-c6cc(S(=O)(=O)[O-])ccc6F)c6ccc([nH]6)c(-c6cc(S(=O)(=O)[O-])ccc6F)c6nc(c(-c7cc(S(=O)(=O)[O-])ccc7F)c7ccc4[nH]7)C=C6)C=C5)cc3)cc2)cc1
REMARK SMILES IDX 27 1 26 2 25 3 23 4 24 5 22 7 21 8 18 9 19 10 99 11 20 12
REMARK SMILES IDX 98 13 17 14 9 15 10 16 11 17 16 18 8 19 5 20 6 21 101 22
REMARK SMILES IDX 7 23 100 24 2 25 3 26 4 27 1 28 12 31 13 32 14 33 15 34
REMARK SMILES IDX 28 35 29 36 30 37 31 38 32 39 33 40 34 42 35 43 36 44 97 45
REMARK SMILES IDX 37 46 96 47 38 48 39 49 40 50 90 51 41 52 95 53 89 54 91 55
REMARK SMILES IDX 42 56 94 57 88 58 87 59 43 61 75 62 55 63 74 64 56 65 59 66
REMARK SMILES IDX 73 67 92 68 57 69 58 70 72 72 93 73 60 74 44 75 45 76 53 77
REMARK SMILES IDX 46 78 52 79 54 80 51 81 47 82 48 83 49 84 50 85 76 86 77 87
REMARK SMILES IDX 85 88 78 89 84 90 86 91 83 92 79 93 80 94 81 95 82 96 61 97
REMARK SMILES IDX 62 98 70 99 63 100 69 101 71 102 68 103 64 104 65 105 66 106
REMARK SMILES IDX 67 107
REMARK H PARENT 25 6 1 29 1 30 32 41 91 60 59 71
REMARK Flexibility Score: inf
ROOT
ATOM      1  C   UNL A   1      35.757  21.367  24.333  1.00  0.00     0.021 C 
ENDROOT
BRANCH   1   2
ATOM      2  C   UNL A   1      35.013  20.921  25.591  1.00  0.00     0.116 C 
BRANCH   2   3
ATOM      3  N   UNL A   1      33.590  20.788  25.349  1.00  0.00    -0.356 N 
ATOM      4  C   UNL A   1      32.564  21.605  25.729  1.00  0.00     0.224 C 
ATOM      5  O   UNL A   1      31.410  21.257  25.465  1.00  0.00    -0.275 OA
ATOM      6  H   UNL A   1      33.324  19.992  24.834  1.00  0.00     0.163 HD
BRANCH   4   7
ATOM      7  C   UNL A   1      32.849  22.941  26.391  1.00  0.00     0.135 C 
BRANCH   7   8
ATOM      8  C   UNL A   1      32.120  24.106  25.774  1.00  0.00    -0.039 A 
ATOM      9  C   UNL A   1      30.901  26.385  24.716  1.00  0.00     0.000 A 
ATOM     10  C   UNL A   1      30.400  25.798  25.882  1.00  0.00     0.010 A 
ATOM     11  C   UNL A   1      31.968  25.794  24.041  1.00  0.00     0.010 A 
ATOM     12  C   UNL A   1      31.015  24.672  26.418  1.00  0.00     0.005 A 
ATOM     13  C   UNL A   1      32.561  24.648  24.557  1.00  0.00     0.005 A 
BRANCH   9  14
ATOM     14  C   UNL A   1      30.362  27.637  24.221  1.00  0.00     0.075 A 
ATOM     15  N   UNL A   1      30.902  28.876  24.502  1.00  0.00    -0.233 N 
ATOM     16  N   UNL A   1      30.270  29.862  23.829  1.00  0.00    -0.163 NA
ATOM     17  C   UNL A   1      29.241  29.274  23.195  1.00  0.00     0.167 A 
ATOM     18  C   UNL A   1      29.293  27.871  23.381  1.00  0.00     0.064 A 
BRANCH  15  19
ATOM     19  C   UNL A   1      32.004  29.158  25.348  1.00  0.00     0.065 A 
ATOM     20  C   UNL A   1      34.202  29.510  27.014  1.00  0.00     0.082 A 
ATOM     21  C   UNL A   1      32.913  29.471  27.557  1.00  0.00     0.024 A 
ATOM     22  C   UNL A   1      34.396  29.399  25.636  1.00  0.00     0.024 A 
ATOM     23  C   UNL A   1      31.805  29.278  26.725  1.00  0.00     0.030 A 
ATOM     24  C   UNL A   1      33.291  29.261  24.799  1.00  0.00     0.030 A 
BRANCH  20  25
ATOM     25  S   UNL A   1      35.635  29.753  28.017  1.00  0.00     0.238 S 
ATOM     26  O   UNL A   1      36.476  28.590  27.881  1.00  0.00    -0.207 OA
ATOM     27  O   UNL A   1      35.236  30.285  29.300  1.00  0.00    -0.207 OA
BRANCH  25  28
ATOM     28  N   UNL A   1      36.496  30.991  27.262  1.00  0.00    -0.225 NA
ATOM     29  H   UNL A   1      35.965  31.860  27.319  1.00  0.00     0.137 HD
ATOM     30  H   UNL A   1      36.650  30.750  26.283  1.00  0.00     0.137 HD
ENDBRANCH  25  28
ENDBRANCH  20  25
ENDBRANCH  15  19
BRANCH  17  31
ATOM     31  C   UNL A   1      28.206  30.032  22.402  1.00  0.00     0.435 C 
ATOM     32  F   UNL A   1      27.482  30.883  23.170  1.00  0.00    -0.164 F 
ATOM     33  F   UNL A   1      28.737  30.744  21.375  1.00  0.00    -0.164 F 
ATOM     34  F   UNL A   1      27.305  29.173  21.839  1.00  0.00    -0.164 F 
ENDBRANCH  17  31
ENDBRANCH   9  14
ENDBRANCH   7   8
ENDBRANCH   4   7
ENDBRANCH   2   3
ENDBRANCH   1   2
BRANCH   1  35
ATOM     35  C   UNL A   1      35.791  22.889  24.136  1.00  0.00     0.002 C 
BRANCH  35  36
ATOM     36  C   UNL A   1      36.677  23.669  25.121  1.00  0.00     0.002 C 
BRANCH  36  37
ATOM     37  C   UNL A   1      37.819  22.882  25.783  1.00  0.00     0.021 C 
BRANCH  37  38
ATOM     38  C   UNL A   1      38.732  23.737  26.647  1.00  0.00     0.116 C 
BRANCH  38  39
ATOM     39  N   UNL A   1      39.960  23.035  27.034  1.00  0.00    -0.352 N 
ATOM     40  C   UNL A   1      41.228  23.563  27.222  1.00  0.00     0.251 C 
ATOM     41  H   UNL A   1      39.872  22.065  27.180  1.00  0.00     0.163 HD
ATOM     42  O   UNL A   1      42.218  22.845  27.143  1.00  0.00    -0.269 OA
BRANCH  40  43
ATOM     43  C   UNL A   1      41.350  24.997  27.544  1.00  0.00     0.039 A 
ATOM     44  C   UNL A   1      40.645  26.000  26.870  1.00  0.00     0.014 A 
ATOM     45  C   UNL A   1      42.202  25.321  28.592  1.00  0.00     0.014 A 
ATOM     46  C   UNL A   1      40.785  27.322  27.305  1.00  0.00     0.010 A 
ATOM     47  C   UNL A   1      42.137  26.557  29.163  1.00  0.00     0.010 A 
ATOM     48  C   UNL A   1      41.542  27.587  28.459  1.00  0.00    -0.014 A 
BRANCH  48  49
ATOM     49  C   UNL A   1      41.662  28.906  29.073  1.00  0.00     0.031 A 
ATOM     50  C   UNL A   1      42.771  29.709  28.496  1.00  0.00     0.074 A 
ATOM     51  C   UNL A   1      40.684  29.430  29.853  1.00  0.00     0.049 A 
ATOM     52  N   UNL A   1      43.897  30.002  29.053  1.00  0.00    -0.248 NA
ATOM     53  C   UNL A   1      42.729  30.038  27.058  1.00  0.00     0.031 C 
ATOM     54  C   UNL A   1      39.391  28.837  30.227  1.00  0.00     0.029 A 
ATOM     55  N   UNL A   1      40.587  30.670  30.406  1.00  0.00    -0.354 N 
ATOM     56  C   UNL A   1      44.576  30.798  28.138  1.00  0.00     0.074 A 
ATOM     57  C   UNL A   1      43.946  30.552  26.872  1.00  0.00     0.031 C 
ATOM     58  C   UNL A   1      38.575  29.788  30.742  1.00  0.00     0.029 A 
ATOM     59  C   UNL A   1      39.319  31.033  30.881  1.00  0.00     0.049 A 
ATOM     60  H   UNL A   1      41.362  31.275  30.470  1.00  0.00     0.167 HD
ATOM     61  C   UNL A   1      45.407  31.794  28.559  1.00  0.00     0.034 A 
ATOM     62  C   UNL A   1      38.915  32.270  31.320  1.00  0.00     0.034 A 
ATOM     63  C   UNL A   1      45.668  31.663  29.978  1.00  0.00     0.049 A 
ATOM     64  C   UNL A   1      40.159  33.021  31.623  1.00  0.00     0.074 A 
ATOM     65  C   UNL A   1      46.211  30.665  30.767  1.00  0.00     0.029 A 
ATOM     66  N   UNL A   1      44.949  32.467  30.838  1.00  0.00    -0.354 N 
ATOM     67  N   UNL A   1      40.943  32.699  32.615  1.00  0.00    -0.248 NA
ATOM     68  C   UNL A   1      40.806  33.740  30.531  1.00  0.00     0.031 C 
ATOM     69  C   UNL A   1      45.372  30.620  31.919  1.00  0.00     0.029 A 
ATOM     70  C   UNL A   1      44.447  31.663  31.835  1.00  0.00     0.049 A 
ATOM     71  H   UNL A   1      44.817  33.438  30.753  1.00  0.00     0.167 HD
ATOM     72  C   UNL A   1      42.224  32.757  32.090  1.00  0.00     0.074 A 
ATOM     73  C   UNL A   1      42.087  33.498  30.832  1.00  0.00     0.031 C 
ATOM     74  C   UNL A   1      43.211  31.929  32.545  1.00  0.00     0.034 A 
BRANCH  61  75
ATOM     75  C   UNL A   1      45.675  33.091  27.823  1.00  0.00     0.023 A 
ATOM     76  C   UNL A   1      44.740  34.128  28.010  1.00  0.00     0.031 A 
ATOM     77  C   UNL A   1      46.597  33.286  26.770  1.00  0.00     0.131 A 
ATOM     78  C   UNL A   1      44.664  35.209  27.115  1.00  0.00     0.055 A 
ATOM     79  C   UNL A   1      46.559  34.397  25.921  1.00  0.00     0.041 A 
ATOM     80  F   UNL A   1      47.530  32.388  26.440  1.00  0.00    -0.206 F 
ATOM     81  C   UNL A   1      45.567  35.349  26.067  1.00  0.00     0.022 A 
BRANCH  78  82
ATOM     82  S   UNL A   1      43.247  36.329  27.245  1.00  0.00     0.124 S 
ATOM     83  O   UNL A   1      43.855  37.611  26.908  1.00  0.00    -0.237 OA
ATOM     84  O   UNL A   1      42.333  35.768  26.255  1.00  0.00    -0.237 OA
ATOM     85  O   UNL A   1      42.826  36.181  28.636  1.00  0.00    -0.744 OA
ENDBRANCH  78  82
ENDBRANCH  61  75
BRANCH  62  86
ATOM     86  C   UNL A   1      37.593  32.962  31.123  1.00  0.00     0.023 A 
ATOM     87  C   UNL A   1      36.989  33.310  29.881  1.00  0.00     0.031 A 
ATOM     88  C   UNL A   1      36.748  33.019  32.239  1.00  0.00     0.131 A 
ATOM     89  C   UNL A   1      35.613  33.695  29.818  1.00  0.00     0.055 A 
ATOM     90  C   UNL A   1      35.399  33.370  32.153  1.00  0.00     0.041 A 
ATOM     91  F   UNL A   1      37.193  32.630  33.440  1.00  0.00    -0.206 F 
ATOM     92  C   UNL A   1      34.821  33.709  30.955  1.00  0.00     0.022 A 
BRANCH  89  93
ATOM     93  S   UNL A   1      34.756  34.110  28.259  1.00  0.00     0.124 S 
ATOM     94  O   UNL A   1      35.734  33.728  27.248  1.00  0.00    -0.237 OA
ATOM     95  O   UNL A   1      33.546  33.301  28.339  1.00  0.00    -0.237 OA
ATOM     96  O   UNL A   1      34.527  35.555  28.360  1.00  0.00    -0.744 OA
ENDBRANCH  89  93
ENDBRANCH  62  86
BRANCH  74  97
ATOM     97  C   UNL A   1      42.925  31.077  33.771  1.00  0.00     0.023 A 
ATOM     98  C   UNL A   1      42.433  29.749  33.747  1.00  0.00     0.031 A 
ATOM     99  C   UNL A   1      43.302  31.603  35.018  1.00  0.00     0.131 A 
ATOM    100  C   UNL A   1      42.326  29.009  34.944  1.00  0.00     0.055 A 
ATOM    101  C   UNL A   1      43.220  30.862  36.194  1.00  0.00     0.041 A 
ATOM    102  F   UNL A   1      43.802  32.847  35.107  1.00  0.00    -0.206 F 
ATOM    103  C   UNL A   1      42.726  29.563  36.163  1.00  0.00     0.022 A 
BRANCH 100 104
ATOM    104  S   UNL A   1      41.647  27.315  34.944  1.00  0.00     0.124 S 
ATOM    105  O   UNL A   1      40.508  27.407  34.041  1.00  0.00    -0.237 OA
ATOM    106  O   UNL A   1      42.778  26.519  34.473  1.00  0.00    -0.237 OA
ATOM    107  O   UNL A   1      41.294  27.091  36.348  1.00  0.00    -0.744 OA
ENDBRANCH 100 104
ENDBRANCH  74  97
ENDBRANCH  48  49
ENDBRANCH  40  43
ENDBRANCH  38  39
ENDBRANCH  37  38
ENDBRANCH  36  37
ENDBRANCH  35  36
ENDBRANCH   1  35
TORSDOF 22
ENDMDL
MODEL 3
REMARK VINA RESULT:     -11.0      1.916      2.331
REMARK SMILES NS(=O)(=O)c1ccc(-n2nc(C(F)(F)F)cc2-c2ccc(CC(=O)NCCCCCCNC(=O)c3ccc(-c4c5nc(c(-c6cc(S(=O)(=O)[O-])ccc6F)c6ccc([nH]6)c(-c6cc(S(=O)(=O)[O-])ccc6F)c6nc(c(-c7cc(S(=O)(=O)[O-])ccc7F)c7ccc4[nH]7)C=C6)C=C5)cc3)cc2)cc1
REMARK SMILES IDX 27 1 26 2 25 3 23 4 24 5 22 7 21 8 18 9 19 10 99 11 20 12
REMARK SMILES IDX 98 13 17 14 9 15 10 16 11 17 16 18 8 19 5 20 6 21 101 22
REMARK SMILES IDX 7 23 100 24 2 25 3 26 4 27 1 28 12 31 13 32 14 33 15 34
REMARK SMILES IDX 28 35 29 36 30 37 31 38 32 39 33 40 34 42 35 43 36 44 97 45
REMARK SMILES IDX 37 46 96 47 38 48 39 49 40 50 90 51 41 52 95 53 89 54 91 55
REMARK SMILES IDX 42 56 94 57 88 58 87 59 43 61 75 62 55 63 74 64 56 65 59 66
REMARK SMILES IDX 73 67 92 68 57 69 58 70 72 72 93 73 60 74 44 75 45 76 53 77
REMARK SMILES IDX 46 78 52 79 54 80 51 81 47 82 48 83 49 84 50 85 76 86 77 87
REMARK SMILES IDX 85 88 78 89 84 90 86 91 83 92 79 93 80 94 81 95 82 96 61 97
REMARK SMILES IDX 62 98 70 99 63 100 69 101 71 102 68 103 64 104 65 105 66 106
REMARK SMILES IDX 67 107
REMARK H PARENT 25 6 1 29 1 30 32 41 91 60 59 71
REMARK Flexibility Score: inf
ROOT
ATOM      1  C   UNL A   1      35.884  22.016  23.835  1.00  0.00     0.021 C 
ENDROOT
BRANCH   1   2
ATOM      2  C   UNL A   1      35.514  21.152  25.041  1.00  0.00     0.116 C 
BRANCH   2   3
ATOM      3  N   UNL A   1      34.078  20.980  25.152  1.00  0.00    -0.356 N 
ATOM      4  C   UNL A   1      33.152  21.780  25.757  1.00  0.00     0.224 C 
ATOM      5  O   UNL A   1      31.979  21.399  25.785  1.00  0.00    -0.275 OA
ATOM      6  H   UNL A   1      33.718  20.168  24.727  1.00  0.00     0.163 HD
BRANCH   4   7
ATOM      7  C   UNL A   1      33.551  23.136  26.311  1.00  0.00     0.135 C 
BRANCH   7   8
ATOM      8  C   UNL A   1      32.732  24.285  25.787  1.00  0.00    -0.039 A 
ATOM      9  C   UNL A   1      31.361  26.537  24.862  1.00  0.00     0.000 A 
ATOM     10  C   UNL A   1      31.100  26.031  26.139  1.00  0.00     0.010 A 
ATOM     11  C   UNL A   1      32.256  25.876  24.021  1.00  0.00     0.010 A 
ATOM     12  C   UNL A   1      31.792  24.919  26.607  1.00  0.00     0.005 A 
ATOM     13  C   UNL A   1      32.921  24.744  24.474  1.00  0.00     0.005 A 
BRANCH   9  14
ATOM     14  C   UNL A   1      30.754  27.773  24.412  1.00  0.00     0.075 A 
ATOM     15  N   UNL A   1      31.212  29.030  24.755  1.00  0.00    -0.233 N 
ATOM     16  N   UNL A   1      30.532  30.004  24.114  1.00  0.00    -0.163 NA
ATOM     17  C   UNL A   1      29.550  29.383  23.438  1.00  0.00     0.167 A 
ATOM     18  C   UNL A   1      29.684  27.979  23.565  1.00  0.00     0.064 A 
BRANCH  15  19
ATOM     19  C   UNL A   1      32.283  29.341  25.630  1.00  0.00     0.065 A 
ATOM     20  C   UNL A   1      34.449  30.087  27.208  1.00  0.00     0.082 A 
ATOM     21  C   UNL A   1      34.536  28.953  26.392  1.00  0.00     0.024 A 
ATOM     22  C   UNL A   1      33.272  30.836  27.258  1.00  0.00     0.024 A 
ATOM     23  C   UNL A   1      33.455  28.583  25.585  1.00  0.00     0.030 A 
ATOM     24  C   UNL A   1      32.175  30.439  26.496  1.00  0.00     0.030 A 
BRANCH  20  25
ATOM     25  S   UNL A   1      35.780  30.598  28.249  1.00  0.00     0.238 S 
ATOM     26  O   UNL A   1      35.489  31.929  28.722  1.00  0.00    -0.207 OA
ATOM     27  O   UNL A   1      37.036  30.245  27.628  1.00  0.00    -0.207 OA
BRANCH  25  28
ATOM     28  N   UNL A   1      35.665  29.624  29.622  1.00  0.00    -0.225 NA
ATOM     29  H   UNL A   1      36.553  29.637  30.123  1.00  0.00     0.137 HD
ATOM     30  H   UNL A   1      35.444  28.668  29.343  1.00  0.00     0.137 HD
ENDBRANCH  25  28
ENDBRANCH  20  25
ENDBRANCH  15  19
BRANCH  17  31
ATOM     31  C   UNL A   1      28.482  30.112  22.661  1.00  0.00     0.435 C 
ATOM     32  F   UNL A   1      28.913  30.526  21.445  1.00  0.00    -0.164 F 
ATOM     33  F   UNL A   1      27.359  29.372  22.477  1.00  0.00    -0.164 F 
ATOM     34  F   UNL A   1      28.087  31.239  23.325  1.00  0.00    -0.164 F 
ENDBRANCH  17  31
ENDBRANCH   9  14
ENDBRANCH   7   8
ENDBRANCH   4   7
ENDBRANCH   2   3
ENDBRANCH   1   2
BRANCH   1  35
ATOM     35  C   UNL A   1      36.840  23.170  24.166  1.00  0.00     0.002 C 
BRANCH  35  36
ATOM     36  C   UNL A   1      37.611  23.039  25.491  1.00  0.00     0.002 C 
BRANCH  36  37
ATOM     37  C   UNL A   1      37.484  24.214  26.473  1.00  0.00     0.021 C 
BRANCH  37  38
ATOM     38  C   UNL A   1      38.777  24.546  27.201  1.00  0.00     0.116 C 
BRANCH  38  39
ATOM     39  N   UNL A   1      39.932  24.601  26.299  1.00  0.00    -0.352 N 
ATOM     40  C   UNL A   1      40.793  25.664  26.072  1.00  0.00     0.251 C 
ATOM     41  H   UNL A   1      40.120  23.779  25.790  1.00  0.00     0.163 HD
ATOM     42  O   UNL A   1      41.442  25.726  25.034  1.00  0.00    -0.269 OA
BRANCH  40  43
ATOM     43  C   UNL A   1      40.926  26.695  27.117  1.00  0.00     0.039 A 
ATOM     44  C   UNL A   1      41.305  26.413  28.435  1.00  0.00     0.014 A 
ATOM     45  C   UNL A   1      40.674  28.004  26.725  1.00  0.00     0.014 A 
ATOM     46  C   UNL A   1      41.466  27.478  29.326  1.00  0.00     0.010 A 
ATOM     47  C   UNL A   1      41.074  29.039  27.517  1.00  0.00     0.010 A 
ATOM     48  C   UNL A   1      41.343  28.794  28.851  1.00  0.00    -0.014 A 
BRANCH  48  49
ATOM     49  C   UNL A   1      41.604  29.982  29.656  1.00  0.00     0.031 A 
ATOM     50  C   UNL A   1      40.374  30.535  30.280  1.00  0.00     0.074 A 
ATOM     51  C   UNL A   1      42.859  30.341  30.028  1.00  0.00     0.049 A 
ATOM     52  N   UNL A   1      39.751  31.618  29.957  1.00  0.00    -0.248 NA
ATOM     53  C   UNL A   1      39.616  29.683  31.217  1.00  0.00     0.031 C 
ATOM     54  C   UNL A   1      44.132  29.670  29.726  1.00  0.00     0.029 A 
ATOM     55  N   UNL A   1      43.265  31.342  30.857  1.00  0.00    -0.354 N 
ATOM     56  C   UNL A   1      38.690  31.725  30.849  1.00  0.00     0.074 A 
ATOM     57  C   UNL A   1      38.508  30.407  31.390  1.00  0.00     0.031 C 
ATOM     58  C   UNL A   1      45.112  30.148  30.532  1.00  0.00     0.029 A 
ATOM     59  C   UNL A   1      44.589  31.262  31.312  1.00  0.00     0.049 A 
ATOM     60  H   UNL A   1      42.665  32.077  31.120  1.00  0.00     0.167 HD
ATOM     61  C   UNL A   1      38.249  32.945  31.267  1.00  0.00     0.034 A 
ATOM     62  C   UNL A   1      45.187  32.035  32.277  1.00  0.00     0.034 A 
ATOM     63  C   UNL A   1      38.817  33.993  30.443  1.00  0.00     0.049 A 
ATOM     64  C   UNL A   1      44.332  33.239  32.422  1.00  0.00     0.074 A 
ATOM     65  C   UNL A   1      38.789  34.273  29.089  1.00  0.00     0.029 A 
ATOM     66  N   UNL A   1      39.905  34.679  30.942  1.00  0.00    -0.354 N 
ATOM     67  N   UNL A   1      44.226  34.136  31.480  1.00  0.00    -0.248 NA
ATOM     68  C   UNL A   1      43.199  33.166  33.338  1.00  0.00     0.031 C 
ATOM     69  C   UNL A   1      40.126  34.655  28.772  1.00  0.00     0.029 A 
ATOM     70  C   UNL A   1      40.864  34.710  29.956  1.00  0.00     0.049 A 
ATOM     71  H   UNL A   1      39.982  35.074  31.840  1.00  0.00     0.167 HD
ATOM     72  C   UNL A   1      42.870  34.410  31.401  1.00  0.00     0.074 A 
ATOM     73  C   UNL A   1      42.297  33.859  32.633  1.00  0.00     0.031 C 
ATOM     74  C   UNL A   1      42.290  34.759  30.214  1.00  0.00     0.034 A 
BRANCH  61  75
ATOM     75  C   UNL A   1      37.637  33.248  32.619  1.00  0.00     0.023 A 
ATOM     76  C   UNL A   1      38.468  33.069  33.743  1.00  0.00     0.031 A 
ATOM     77  C   UNL A   1      36.263  33.425  32.901  1.00  0.00     0.131 A 
ATOM     78  C   UNL A   1      37.928  32.946  35.035  1.00  0.00     0.055 A 
ATOM     79  C   UNL A   1      35.738  33.367  34.196  1.00  0.00     0.041 A 
ATOM     80  F   UNL A   1      35.336  33.578  31.951  1.00  0.00    -0.206 F 
ATOM     81  C   UNL A   1      36.565  33.090  35.269  1.00  0.00     0.022 A 
BRANCH  78  82
ATOM     82  S   UNL A   1      39.025  32.414  36.373  1.00  0.00     0.124 S 
ATOM     83  O   UNL A   1      40.336  32.745  35.827  1.00  0.00    -0.237 OA
ATOM     84  O   UNL A   1      38.561  33.238  37.484  1.00  0.00    -0.237 OA
ATOM     85  O   UNL A   1      38.739  30.986  36.494  1.00  0.00    -0.744 OA
ENDBRANCH  78  82
ENDBRANCH  61  75
BRANCH  62  86
ATOM     86  C   UNL A   1      46.188  31.634  33.328  1.00  0.00     0.023 A 
ATOM     87  C   UNL A   1      45.914  30.971  34.557  1.00  0.00     0.031 A 
ATOM     88  C   UNL A   1      47.535  31.659  32.946  1.00  0.00     0.131 A 
ATOM     89  C   UNL A   1      46.970  30.389  35.327  1.00  0.00     0.055 A 
ATOM     90  C   UNL A   1      48.549  31.061  33.697  1.00  0.00     0.041 A 
ATOM     91  F   UNL A   1      47.890  32.184  31.766  1.00  0.00    -0.206 F 
ATOM     92  C   UNL A   1      48.283  30.426  34.884  1.00  0.00     0.022 A 
BRANCH  89  93
ATOM     93  S   UNL A   1      46.693  29.483  36.889  1.00  0.00     0.124 S 
ATOM     94  O   UNL A   1      45.348  28.949  36.713  1.00  0.00    -0.237 OA
ATOM     95  O   UNL A   1      47.786  28.519  36.892  1.00  0.00    -0.237 OA
ATOM     96  O   UNL A   1      46.799  30.522  37.919  1.00  0.00    -0.744 OA
ENDBRANCH  89  93
ENDBRANCH  62  86
BRANCH  74  97
ATOM     97  C   UNL A   1      43.196  35.028  29.023  1.00  0.00     0.023 A 
ATOM     98  C   UNL A   1      43.770  34.033  28.193  1.00  0.00     0.031 A 
ATOM     99  C   UNL A   1      43.368  36.368  28.640  1.00  0.00     0.131 A 
ATOM    100  C   UNL A   1      44.491  34.404  27.037  1.00  0.00     0.055 A 
ATOM    101  C   UNL A   1      44.059  36.729  27.485  1.00  0.00     0.041 A 
ATOM    102  F   UNL A   1      42.826  37.357  29.369  1.00  0.00    -0.206 F 
ATOM    103  C   UNL A   1      44.628  35.748  26.682  1.00  0.00     0.022 A 
BRANCH 100 104
ATOM    104  S   UNL A   1      45.283  33.144  25.981  1.00  0.00     0.124 S 
ATOM    105  O   UNL A   1      45.154  31.918  26.760  1.00  0.00    -0.237 OA
ATOM    106  O   UNL A   1      44.491  33.212  24.756  1.00  0.00    -0.237 OA
ATOM    107  O   UNL A   1      46.657  33.633  25.841  1.00  0.00    -0.744 OA
ENDBRANCH 100 104
ENDBRANCH  74  97
ENDBRANCH  48  49
ENDBRANCH  40  43
ENDBRANCH  38  39
ENDBRANCH  37  38
ENDBRANCH  36  37
ENDBRANCH  35  36
ENDBRANCH   1  35
TORSDOF 22
ENDMDL
