MODEL 1
REMARK VINA RESULT:     -11.5      0.000      0.000
REMARK SMILES O=C(C[C@H](c1ccsc1)n1cccc1)NCCCCCCNC(=O)c1ccc(-c2c3nc(c(-c4cc(S(=O)(=O)[O-])ccc4F)c4ccc([nH]4)c(-c4cc(S(=O)(=O)[O-])ccc4F)c4nc(c(-c5cc(S(=O)(=O)[O-])ccc5F)c5ccc2[nH]5)C=C4)C=C3)cc1
REMARK SMILES IDX 19 1 18 2 17 3 16 4 15 5 1 6 2 7 3 9 4 10 10 11 11 12 14 13
REMARK SMILES IDX 12 14 13 15 5 16 6 17 9 18 7 19 8 20 20 21 21 22 22 23 23 24
REMARK SMILES IDX 24 26 25 27 26 28 87 29 27 30 86 31 28 32 29 33 30 34 80 35
REMARK SMILES IDX 31 36 85 37 79 38 81 39 32 40 84 41 78 42 77 43 33 45 65 46
REMARK SMILES IDX 45 47 64 48 46 49 49 50 63 51 82 52 47 53 48 54 62 56 83 57
REMARK SMILES IDX 50 58 34 59 35 60 43 61 36 62 42 63 44 64 41 65 37 66 38 67
REMARK SMILES IDX 39 68 40 69 66 70 67 71 75 72 68 73 74 74 76 75 73 76 69 77
REMARK SMILES IDX 70 78 71 79 72 80 51 81 52 82 60 83 53 84 59 85 61 86 58 87
REMARK SMILES IDX 54 88 55 89 56 90 57 91
REMARK H PARENT 15 8 22 25 81 44 49 55
REMARK Flexibility Score: inf
ROOT
ATOM      1  C   UNL A   1      32.318  28.320  26.671  1.00  0.00     0.002 C 
ENDROOT
BRANCH   1   2
ATOM      2  C   UNL A   1      32.185  26.804  26.511  1.00  0.00     0.002 C 
BRANCH   2   3
ATOM      3  C   UNL A   1      31.663  26.316  25.152  1.00  0.00     0.021 C 
BRANCH   3   4
ATOM      4  C   UNL A   1      30.950  24.965  25.166  1.00  0.00     0.116 C 
BRANCH   4   5
ATOM      5  N   UNL A   1      31.871  23.855  25.296  1.00  0.00    -0.356 N 
ATOM      6  O   UNL A   1      31.504  23.454  27.538  1.00  0.00    -0.275 OA
ATOM      7  C   UNL A   1      32.024  23.142  26.460  1.00  0.00     0.222 C 
ATOM      8  H   UNL A   1      32.413  23.599  24.514  1.00  0.00     0.163 HD
BRANCH   7   9
ATOM      9  C   UNL A   1      32.854  21.893  26.305  1.00  0.00     0.130 C 
BRANCH   9  10
ATOM     10  C   UNL A   1      33.422  21.658  24.889  1.00  0.00     0.127 C 
BRANCH  10  11
ATOM     11  N   UNL A   1      34.792  22.195  24.709  1.00  0.00    -0.346 N 
ATOM     12  C   UNL A   1      35.767  22.127  25.686  1.00  0.00     0.086 A 
ATOM     13  C   UNL A   1      35.285  22.942  23.669  1.00  0.00     0.086 A 
ATOM     14  C   UNL A   1      36.893  22.771  25.224  1.00  0.00     0.019 A 
ATOM     15  C   UNL A   1      36.588  23.287  23.949  1.00  0.00     0.019 A 
ENDBRANCH  10  11
BRANCH  10  16
ATOM     16  C   UNL A   1      33.253  20.256  24.318  1.00  0.00    -0.014 A 
ATOM     17  C   UNL A   1      34.018  19.094  24.704  1.00  0.00     0.017 A 
ATOM     18  C   UNL A   1      32.326  19.908  23.348  1.00  0.00     0.070 A 
ATOM     19  C   UNL A   1      33.667  17.959  24.011  1.00  0.00     0.065 A 
ATOM     20  S   UNL A   1      32.434  18.268  22.873  1.00  0.00    -0.152 S 
ENDBRANCH  10  16
ENDBRANCH   9  10
ENDBRANCH   7   9
ENDBRANCH   4   5
ENDBRANCH   3   4
ENDBRANCH   2   3
ENDBRANCH   1   2
BRANCH   1  21
ATOM     21  C   UNL A   1      33.550  28.960  26.019  1.00  0.00     0.021 C 
BRANCH  21  22
ATOM     22  C   UNL A   1      34.803  28.942  26.894  1.00  0.00     0.116 C 
BRANCH  22  23
ATOM     23  N   UNL A   1      35.218  30.292  27.247  1.00  0.00    -0.352 N 
ATOM     24  C   UNL A   1      36.211  30.697  28.096  1.00  0.00     0.251 C 
ATOM     25  H   UNL A   1      34.712  31.016  26.814  1.00  0.00     0.163 HD
ATOM     26  O   UNL A   1      36.130  31.825  28.605  1.00  0.00    -0.269 OA
BRANCH  24  27
ATOM     27  C   UNL A   1      37.372  29.842  28.412  1.00  0.00     0.039 A 
ATOM     28  C   UNL A   1      38.453  29.826  27.518  1.00  0.00     0.014 A 
ATOM     29  C   UNL A   1      37.360  28.980  29.514  1.00  0.00     0.014 A 
ATOM     30  C   UNL A   1      39.538  28.989  27.755  1.00  0.00     0.010 A 
ATOM     31  C   UNL A   1      38.451  28.160  29.769  1.00  0.00     0.010 A 
ATOM     32  C   UNL A   1      39.542  28.174  28.894  1.00  0.00    -0.014 A 
BRANCH  32  33
ATOM     33  C   UNL A   1      40.795  27.494  29.288  1.00  0.00     0.031 A 
ATOM     34  C   UNL A   1      41.081  26.314  28.285  1.00  0.00     0.074 A 
ATOM     35  C   UNL A   1      41.427  28.013  30.397  1.00  0.00     0.049 A 
ATOM     36  N   UNL A   1      41.647  25.156  28.454  1.00  0.00    -0.248 NA
ATOM     37  C   UNL A   1      40.549  26.413  26.887  1.00  0.00     0.031 C 
ATOM     38  C   UNL A   1      40.967  29.188  31.193  1.00  0.00     0.029 A 
ATOM     39  N   UNL A   1      42.573  27.692  31.092  1.00  0.00    -0.354 N 
ATOM     40  C   UNL A   1      41.769  24.530  27.178  1.00  0.00     0.074 A 
ATOM     41  C   UNL A   1      40.943  25.283  26.290  1.00  0.00     0.031 C 
ATOM     42  C   UNL A   1      41.749  29.398  32.282  1.00  0.00     0.029 A 
ATOM     43  C   UNL A   1      42.799  28.402  32.318  1.00  0.00     0.049 A 
ATOM     44  H   UNL A   1      43.204  27.011  30.763  1.00  0.00     0.167 HD
ATOM     45  C   UNL A   1      42.672  23.534  26.905  1.00  0.00     0.034 A 
ATOM     46  C   UNL A   1      43.721  28.131  33.306  1.00  0.00     0.034 A 
ATOM     47  C   UNL A   1      43.406  23.253  28.089  1.00  0.00     0.049 A 
ATOM     48  C   UNL A   1      44.461  26.993  32.738  1.00  0.00     0.074 A 
ATOM     49  C   UNL A   1      43.113  22.574  29.237  1.00  0.00     0.029 A 
ATOM     50  N   UNL A   1      44.560  23.975  28.271  1.00  0.00    -0.354 N 
ATOM     51  N   UNL A   1      45.312  27.058  31.761  1.00  0.00    -0.248 NA
ATOM     52  C   UNL A   1      44.095  25.651  33.206  1.00  0.00     0.031 C 
ATOM     53  C   UNL A   1      43.763  23.352  30.217  1.00  0.00     0.029 A 
ATOM     54  C   UNL A   1      44.615  24.283  29.605  1.00  0.00     0.049 A 
ATOM     55  H   UNL A   1      45.216  24.222  27.581  1.00  0.00     0.167 HD
ATOM     56  C   UNL A   1      45.357  25.763  31.314  1.00  0.00     0.074 A 
ATOM     57  C   UNL A   1      44.860  24.933  32.393  1.00  0.00     0.031 C 
ATOM     58  C   UNL A   1      45.326  25.484  29.987  1.00  0.00     0.034 A 
BRANCH  45  59
ATOM     59  C   UNL A   1      43.239  22.895  25.650  1.00  0.00     0.023 A 
ATOM     60  C   UNL A   1      43.238  21.471  25.634  1.00  0.00     0.031 A 
ATOM     61  C   UNL A   1      44.075  23.517  24.718  1.00  0.00     0.131 A 
ATOM     62  C   UNL A   1      44.181  20.739  24.903  1.00  0.00     0.055 A 
ATOM     63  C   UNL A   1      44.955  22.774  23.909  1.00  0.00     0.041 A 
ATOM     64  F   UNL A   1      44.137  24.851  24.616  1.00  0.00    -0.206 F 
ATOM     65  C   UNL A   1      45.051  21.386  24.037  1.00  0.00     0.022 A 
BRANCH  62  66
ATOM     66  S   UNL A   1      44.380  18.974  25.297  1.00  0.00     0.124 S 
ATOM     67  O   UNL A   1      45.809  18.882  25.575  1.00  0.00    -0.237 OA
ATOM     68  O   UNL A   1      43.495  18.815  26.448  1.00  0.00    -0.237 OA
ATOM     69  O   UNL A   1      43.938  18.301  24.077  1.00  0.00    -0.744 OA
ENDBRANCH  62  66
ENDBRANCH  45  59
BRANCH  46  70
ATOM     70  C   UNL A   1      44.064  28.475  34.765  1.00  0.00     0.023 A 
ATOM     71  C   UNL A   1      44.195  27.601  35.861  1.00  0.00     0.031 A 
ATOM     72  C   UNL A   1      44.375  29.842  35.080  1.00  0.00     0.131 A 
ATOM     73  C   UNL A   1      44.722  28.081  37.106  1.00  0.00     0.055 A 
ATOM     74  C   UNL A   1      44.999  30.276  36.249  1.00  0.00     0.041 A 
ATOM     75  F   UNL A   1      44.078  30.852  34.251  1.00  0.00    -0.206 F 
ATOM     76  C   UNL A   1      45.200  29.384  37.270  1.00  0.00     0.022 A 
BRANCH  73  77
ATOM     77  S   UNL A   1      44.795  27.030  38.596  1.00  0.00     0.124 S 
ATOM     78  O   UNL A   1      43.448  26.474  38.638  1.00  0.00    -0.237 OA
ATOM     79  O   UNL A   1      45.870  26.093  38.279  1.00  0.00    -0.237 OA
ATOM     80  O   UNL A   1      45.105  27.977  39.666  1.00  0.00    -0.744 OA
ENDBRANCH  73  77
ENDBRANCH  46  70
BRANCH  58  81
ATOM     81  C   UNL A   1      45.710  26.643  29.062  1.00  0.00     0.023 A 
ATOM     82  C   UNL A   1      44.724  27.505  28.553  1.00  0.00     0.031 A 
ATOM     83  C   UNL A   1      47.018  26.871  28.590  1.00  0.00     0.131 A 
ATOM     84  C   UNL A   1      45.053  28.519  27.625  1.00  0.00     0.055 A 
ATOM     85  C   UNL A   1      47.352  27.877  27.673  1.00  0.00     0.041 A 
ATOM     86  F   UNL A   1      48.030  26.110  28.993  1.00  0.00    -0.206 F 
ATOM     87  C   UNL A   1      46.364  28.711  27.183  1.00  0.00     0.022 A 
BRANCH  84  88
ATOM     88  S   UNL A   1      43.751  29.617  27.006  1.00  0.00     0.124 S 
ATOM     89  O   UNL A   1      44.497  30.565  26.186  1.00  0.00    -0.237 OA
ATOM     90  O   UNL A   1      42.876  28.696  26.288  1.00  0.00    -0.237 OA
ATOM     91  O   UNL A   1      43.172  30.183  28.225  1.00  0.00    -0.744 OA
ENDBRANCH  84  88
ENDBRANCH  58  81
ENDBRANCH  32  33
ENDBRANCH  24  27
ENDBRANCH  22  23
ENDBRANCH  21  22
ENDBRANCH   1  21
TORSDOF 19
ENDMDL
MODEL 2
REMARK VINA RESULT:     -11.4      4.644     10.465
REMARK SMILES O=C(C[C@H](c1ccsc1)n1cccc1)NCCCCCCNC(=O)c1ccc(-c2c3nc(c(-c4cc(S(=O)(=O)[O-])ccc4F)c4ccc([nH]4)c(-c4cc(S(=O)(=O)[O-])ccc4F)c4nc(c(-c5cc(S(=O)(=O)[O-])ccc5F)c5ccc2[nH]5)C=C4)C=C3)cc1
REMARK SMILES IDX 19 1 18 2 17 3 16 4 15 5 1 6 2 7 3 9 4 10 10 11 11 12 14 13
REMARK SMILES IDX 12 14 13 15 5 16 6 17 9 18 7 19 8 20 20 21 21 22 22 23 23 24
REMARK SMILES IDX 24 26 25 27 26 28 87 29 27 30 86 31 28 32 29 33 30 34 80 35
REMARK SMILES IDX 31 36 85 37 79 38 81 39 32 40 84 41 78 42 77 43 33 45 65 46
REMARK SMILES IDX 45 47 64 48 46 49 49 50 63 51 82 52 47 53 48 54 62 56 83 57
REMARK SMILES IDX 50 58 34 59 35 60 43 61 36 62 42 63 44 64 41 65 37 66 38 67
REMARK SMILES IDX 39 68 40 69 66 70 67 71 75 72 68 73 74 74 76 75 73 76 69 77
REMARK SMILES IDX 70 78 71 79 72 80 51 81 52 82 60 83 53 84 59 85 61 86 58 87
REMARK SMILES IDX 54 88 55 89 56 90 57 91
REMARK H PARENT 15 8 22 25 81 44 49 55
REMARK Flexibility Score: inf
ROOT
ATOM      1  C   UNL A   1      36.486  22.229  24.347  1.00  0.00     0.002 C 
ENDROOT
BRANCH   1   2
ATOM      2  C   UNL A   1      34.997  22.416  24.648  1.00  0.00     0.002 C 
BRANCH   2   3
ATOM      3  C   UNL A   1      34.081  22.567  23.425  1.00  0.00     0.021 C 
BRANCH   3   4
ATOM      4  C   UNL A   1      33.994  23.975  22.837  1.00  0.00     0.116 C 
BRANCH   4   5
ATOM      5  N   UNL A   1      33.887  24.995  23.859  1.00  0.00    -0.356 N 
ATOM      6  O   UNL A   1      33.707  26.798  22.430  1.00  0.00    -0.275 OA
ATOM      7  C   UNL A   1      33.683  26.323  23.572  1.00  0.00     0.222 C 
ATOM      8  H   UNL A   1      33.964  24.725  24.803  1.00  0.00     0.163 HD
BRANCH   7   9
ATOM      9  C   UNL A   1      33.369  27.166  24.782  1.00  0.00     0.130 C 
BRANCH   9  10
ATOM     10  C   UNL A   1      32.668  28.508  24.477  1.00  0.00     0.127 C 
BRANCH  10  11
ATOM     11  N   UNL A   1      31.310  28.345  23.908  1.00  0.00    -0.346 N 
ATOM     12  C   UNL A   1      30.458  27.316  24.261  1.00  0.00     0.086 A 
ATOM     13  C   UNL A   1      30.725  29.046  22.883  1.00  0.00     0.086 A 
ATOM     14  C   UNL A   1      29.311  27.419  23.505  1.00  0.00     0.019 A 
ATOM     15  C   UNL A   1      29.481  28.513  22.633  1.00  0.00     0.019 A 
ENDBRANCH  10  11
BRANCH  10  16
ATOM     16  C   UNL A   1      32.730  29.565  25.573  1.00  0.00    -0.014 A 
ATOM     17  C   UNL A   1      31.711  30.550  25.850  1.00  0.00     0.017 A 
ATOM     18  C   UNL A   1      33.783  29.716  26.461  1.00  0.00     0.070 A 
ATOM     19  C   UNL A   1      32.038  31.393  26.886  1.00  0.00     0.065 A 
ATOM     20  S   UNL A   1      33.579  31.038  27.528  1.00  0.00    -0.152 S 
ENDBRANCH  10  16
ENDBRANCH   9  10
ENDBRANCH   7   9
ENDBRANCH   4   5
ENDBRANCH   3   4
ENDBRANCH   2   3
ENDBRANCH   1   2
BRANCH   1  21
ATOM     21  C   UNL A   1      37.378  23.455  24.580  1.00  0.00     0.021 C 
BRANCH  21  22
ATOM     22  C   UNL A   1      37.432  23.925  26.032  1.00  0.00     0.116 C 
BRANCH  22  23
ATOM     23  N   UNL A   1      38.511  23.271  26.758  1.00  0.00    -0.352 N 
ATOM     24  C   UNL A   1      39.642  23.815  27.301  1.00  0.00     0.251 C 
ATOM     25  H   UNL A   1      38.413  22.299  26.874  1.00  0.00     0.163 HD
ATOM     26  O   UNL A   1      40.626  23.081  27.476  1.00  0.00    -0.269 OA
BRANCH  24  27
ATOM     27  C   UNL A   1      39.722  25.236  27.693  1.00  0.00     0.039 A 
ATOM     28  C   UNL A   1      39.325  25.594  28.990  1.00  0.00     0.014 A 
ATOM     29  C   UNL A   1      40.075  26.225  26.768  1.00  0.00     0.014 A 
ATOM     30  C   UNL A   1      39.331  26.931  29.374  1.00  0.00     0.010 A 
ATOM     31  C   UNL A   1      40.108  27.558  27.154  1.00  0.00     0.010 A 
ATOM     32  C   UNL A   1      39.745  27.906  28.459  1.00  0.00    -0.014 A 
BRANCH  32  33
ATOM     33  C   UNL A   1      40.011  29.280  28.942  1.00  0.00     0.031 A 
ATOM     34  C   UNL A   1      38.649  29.955  29.352  1.00  0.00     0.074 A 
ATOM     35  C   UNL A   1      41.334  29.664  28.938  1.00  0.00     0.049 A 
ATOM     36  N   UNL A   1      38.248  31.191  29.298  1.00  0.00    -0.248 NA
ATOM     37  C   UNL A   1      37.517  29.081  29.801  1.00  0.00     0.031 C 
ATOM     38  C   UNL A   1      42.487  28.816  28.516  1.00  0.00     0.029 A 
ATOM     39  N   UNL A   1      42.004  30.818  29.284  1.00  0.00    -0.354 N 
ATOM     40  C   UNL A   1      36.970  31.273  29.926  1.00  0.00     0.074 A 
ATOM     41  C   UNL A   1      36.518  29.926  30.073  1.00  0.00     0.031 C 
ATOM     42  C   UNL A   1      43.654  29.507  28.535  1.00  0.00     0.029 A 
ATOM     43  C   UNL A   1      43.404  30.864  28.972  1.00  0.00     0.049 A 
ATOM     44  H   UNL A   1      41.546  31.570  29.722  1.00  0.00     0.167 HD
ATOM     45  C   UNL A   1      36.446  32.434  30.433  1.00  0.00     0.034 A 
ATOM     46  C   UNL A   1      44.250  31.951  28.996  1.00  0.00     0.034 A 
ATOM     47  C   UNL A   1      37.372  33.487  30.200  1.00  0.00     0.049 A 
ATOM     48  C   UNL A   1      43.373  33.017  29.506  1.00  0.00     0.074 A 
ATOM     49  C   UNL A   1      37.715  34.209  29.093  1.00  0.00     0.029 A 
ATOM     50  N   UNL A   1      38.298  33.707  31.190  1.00  0.00    -0.354 N 
ATOM     51  N   UNL A   1      42.956  33.132  30.730  1.00  0.00    -0.248 NA
ATOM     52  C   UNL A   1      42.793  33.941  28.523  1.00  0.00     0.031 C 
ATOM     53  C   UNL A   1      39.105  34.370  29.262  1.00  0.00     0.029 A 
ATOM     54  C   UNL A   1      39.481  33.982  30.557  1.00  0.00     0.049 A 
ATOM     55  H   UNL A   1      38.142  33.675  32.161  1.00  0.00     0.167 HD
ATOM     56  C   UNL A   1      41.859  33.943  30.600  1.00  0.00     0.074 A 
ATOM     57  C   UNL A   1      41.998  34.630  29.332  1.00  0.00     0.031 C 
ATOM     58  C   UNL A   1      40.706  33.663  31.257  1.00  0.00     0.034 A 
BRANCH  45  59
ATOM     59  C   UNL A   1      35.312  32.795  31.376  1.00  0.00     0.023 A 
ATOM     60  C   UNL A   1      34.410  33.788  30.899  1.00  0.00     0.031 A 
ATOM     61  C   UNL A   1      35.280  32.550  32.752  1.00  0.00     0.131 A 
ATOM     62  C   UNL A   1      33.709  34.631  31.769  1.00  0.00     0.055 A 
ATOM     63  C   UNL A   1      34.497  33.335  33.620  1.00  0.00     0.041 A 
ATOM     64  F   UNL A   1      36.058  31.617  33.314  1.00  0.00    -0.206 F 
ATOM     65  C   UNL A   1      33.751  34.414  33.139  1.00  0.00     0.022 A 
BRANCH  62  66
ATOM     66  S   UNL A   1      32.950  36.132  31.074  1.00  0.00     0.124 S 
ATOM     67  O   UNL A   1      31.743  36.265  31.880  1.00  0.00    -0.237 OA
ATOM     68  O   UNL A   1      33.986  37.135  31.308  1.00  0.00    -0.237 OA
ATOM     69  O   UNL A   1      32.730  35.784  29.672  1.00  0.00    -0.744 OA
ENDBRANCH  62  66
ENDBRANCH  45  59
BRANCH  46  70
ATOM     70  C   UNL A   1      45.635  32.414  28.516  1.00  0.00     0.023 A 
ATOM     71  C   UNL A   1      45.945  33.303  27.470  1.00  0.00     0.031 A 
ATOM     72  C   UNL A   1      46.787  31.968  29.250  1.00  0.00     0.131 A 
ATOM     73  C   UNL A   1      47.289  33.776  27.299  1.00  0.00     0.055 A 
ATOM     74  C   UNL A   1      48.063  32.522  29.159  1.00  0.00     0.041 A 
ATOM     75  F   UNL A   1      46.731  30.944  30.113  1.00  0.00    -0.206 F 
ATOM     76  C   UNL A   1      48.318  33.456  28.189  1.00  0.00     0.022 A 
BRANCH  73  77
ATOM     77  S   UNL A   1      47.776  34.825  25.888  1.00  0.00     0.124 S 
ATOM     78  O   UNL A   1      47.778  36.153  26.487  1.00  0.00    -0.237 OA
ATOM     79  O   UNL A   1      49.080  34.283  25.516  1.00  0.00    -0.237 OA
ATOM     80  O   UNL A   1      46.715  34.591  24.908  1.00  0.00    -0.744 OA
ENDBRANCH  73  77
ENDBRANCH  46  70
BRANCH  58  81
ATOM     81  C   UNL A   1      40.845  32.725  32.459  1.00  0.00     0.023 A 
ATOM     82  C   UNL A   1      40.629  31.344  32.314  1.00  0.00     0.031 A 
ATOM     83  C   UNL A   1      41.097  33.164  33.774  1.00  0.00     0.131 A 
ATOM     84  C   UNL A   1      40.661  30.481  33.432  1.00  0.00     0.055 A 
ATOM     85  C   UNL A   1      41.135  32.313  34.887  1.00  0.00     0.041 A 
ATOM     86  F   UNL A   1      41.304  34.450  34.034  1.00  0.00    -0.206 F 
ATOM     87  C   UNL A   1      40.915  30.959  34.719  1.00  0.00     0.022 A 
BRANCH  84  88
ATOM     88  S   UNL A   1      40.391  28.704  33.195  1.00  0.00     0.124 S 
ATOM     89  O   UNL A   1      41.252  28.400  32.057  1.00  0.00    -0.237 OA
ATOM     90  O   UNL A   1      40.804  28.148  34.479  1.00  0.00    -0.237 OA
ATOM     91  O   UNL A   1      38.957  28.609  32.922  1.00  0.00    -0.744 OA
ENDBRANCH  84  88
ENDBRANCH  58  81
ENDBRANCH  32  33
ENDBRANCH  24  27
ENDBRANCH  22  23
ENDBRANCH  21  22
ENDBRANCH   1  21
TORSDOF 19
ENDMDL
MODEL 3
REMARK VINA RESULT:     -11.2      4.614     10.322
REMARK SMILES O=C(C[C@H](c1ccsc1)n1cccc1)NCCCCCCNC(=O)c1ccc(-c2c3nc(c(-c4cc(S(=O)(=O)[O-])ccc4F)c4ccc([nH]4)c(-c4cc(S(=O)(=O)[O-])ccc4F)c4nc(c(-c5cc(S(=O)(=O)[O-])ccc5F)c5ccc2[nH]5)C=C4)C=C3)cc1
REMARK SMILES IDX 19 1 18 2 17 3 16 4 15 5 1 6 2 7 3 9 4 10 10 11 11 12 14 13
REMARK SMILES IDX 12 14 13 15 5 16 6 17 9 18 7 19 8 20 20 21 21 22 22 23 23 24
REMARK SMILES IDX 24 26 25 27 26 28 87 29 27 30 86 31 28 32 29 33 30 34 80 35
REMARK SMILES IDX 31 36 85 37 79 38 81 39 32 40 84 41 78 42 77 43 33 45 65 46
REMARK SMILES IDX 45 47 64 48 46 49 49 50 63 51 82 52 47 53 48 54 62 56 83 57
REMARK SMILES IDX 50 58 34 59 35 60 43 61 36 62 42 63 44 64 41 65 37 66 38 67
REMARK SMILES IDX 39 68 40 69 66 70 67 71 75 72 68 73 74 74 76 75 73 76 69 77
REMARK SMILES IDX 70 78 71 79 72 80 51 81 52 82 60 83 53 84 59 85 61 86 58 87
REMARK SMILES IDX 54 88 55 89 56 90 57 91
REMARK H PARENT 15 8 22 25 81 44 49 55
REMARK Flexibility Score: inf
ROOT
ATOM      1  C   UNL A   1      36.244  22.396  24.538  1.00  0.00     0.002 C 
ENDROOT
BRANCH   1   2
ATOM      2  C   UNL A   1      34.819  22.870  24.832  1.00  0.00     0.002 C 
BRANCH   2   3
ATOM      3  C   UNL A   1      33.751  22.456  23.809  1.00  0.00     0.021 C 
BRANCH   3   4
ATOM      4  C   UNL A   1      33.690  23.305  22.540  1.00  0.00     0.116 C 
BRANCH   4   5
ATOM      5  N   UNL A   1      33.359  24.688  22.815  1.00  0.00    -0.356 N 
ATOM      6  O   UNL A   1      33.236  25.385  20.619  1.00  0.00    -0.275 OA
ATOM      7  C   UNL A   1      33.092  25.605  21.828  1.00  0.00     0.222 C 
ATOM      8  H   UNL A   1      33.326  24.986  23.754  1.00  0.00     0.163 HD
BRANCH   7   9
ATOM      9  C   UNL A   1      32.546  26.912  22.342  1.00  0.00     0.130 C 
BRANCH   9  10
ATOM     10  C   UNL A   1      31.146  26.826  22.988  1.00  0.00     0.127 C 
BRANCH  10  11
ATOM     11  N   UNL A   1      31.178  26.385  24.402  1.00  0.00    -0.346 N 
ATOM     12  C   UNL A   1      31.686  27.159  25.427  1.00  0.00     0.086 A 
ATOM     13  C   UNL A   1      30.867  25.151  24.918  1.00  0.00     0.086 A 
ATOM     14  C   UNL A   1      31.626  26.433  26.595  1.00  0.00     0.019 A 
ATOM     15  C   UNL A   1      31.109  25.162  26.272  1.00  0.00     0.019 A 
ENDBRANCH  10  11
BRANCH  10  16
ATOM     16  C   UNL A   1      30.222  28.016  22.757  1.00  0.00    -0.014 A 
ATOM     17  C   UNL A   1      28.844  28.104  23.180  1.00  0.00     0.017 A 
ATOM     18  C   UNL A   1      30.591  29.184  22.110  1.00  0.00     0.070 A 
ATOM     19  C   UNL A   1      28.242  29.288  22.822  1.00  0.00     0.065 A 
ATOM     20  S   UNL A   1      29.305  30.301  21.954  1.00  0.00    -0.152 S 
ENDBRANCH  10  16
ENDBRANCH   9  10
ENDBRANCH   7   9
ENDBRANCH   4   5
ENDBRANCH   3   4
ENDBRANCH   2   3
ENDBRANCH   1   2
BRANCH   1  21
ATOM     21  C   UNL A   1      37.341  23.464  24.624  1.00  0.00     0.021 C 
BRANCH  21  22
ATOM     22  C   UNL A   1      37.533  24.055  26.020  1.00  0.00     0.116 C 
BRANCH  22  23
ATOM     23  N   UNL A   1      38.613  23.386  26.732  1.00  0.00    -0.352 N 
ATOM     24  C   UNL A   1      39.745  23.919  27.284  1.00  0.00     0.251 C 
ATOM     25  H   UNL A   1      38.514  22.412  26.828  1.00  0.00     0.163 HD
ATOM     26  O   UNL A   1      40.729  23.181  27.442  1.00  0.00    -0.269 OA
BRANCH  24  27
ATOM     27  C   UNL A   1      39.825  25.332  27.703  1.00  0.00     0.039 A 
ATOM     28  C   UNL A   1      39.598  25.642  29.052  1.00  0.00     0.014 A 
ATOM     29  C   UNL A   1      40.010  26.357  26.769  1.00  0.00     0.014 A 
ATOM     30  C   UNL A   1      39.609  26.968  29.471  1.00  0.00     0.010 A 
ATOM     31  C   UNL A   1      40.047  27.681  27.186  1.00  0.00     0.010 A 
ATOM     32  C   UNL A   1      39.856  27.982  28.538  1.00  0.00    -0.014 A 
BRANCH  32  33
ATOM     33  C   UNL A   1      40.135  29.353  29.021  1.00  0.00     0.031 A 
ATOM     34  C   UNL A   1      38.783  30.029  29.464  1.00  0.00     0.074 A 
ATOM     35  C   UNL A   1      41.458  29.734  28.990  1.00  0.00     0.049 A 
ATOM     36  N   UNL A   1      38.384  31.266  29.424  1.00  0.00    -0.248 NA
ATOM     37  C   UNL A   1      37.660  29.155  29.934  1.00  0.00     0.031 C 
ATOM     38  C   UNL A   1      42.599  28.886  28.539  1.00  0.00     0.029 A 
ATOM     39  N   UNL A   1      42.138  30.885  29.326  1.00  0.00    -0.354 N 
ATOM     40  C   UNL A   1      37.120  31.347  30.081  1.00  0.00     0.074 A 
ATOM     41  C   UNL A   1      36.669  30.001  30.231  1.00  0.00     0.031 C 
ATOM     42  C   UNL A   1      43.769  29.574  28.535  1.00  0.00     0.029 A 
ATOM     43  C   UNL A   1      43.531  30.930  28.982  1.00  0.00     0.049 A 
ATOM     44  H   UNL A   1      41.691  31.637  29.777  1.00  0.00     0.167 HD
ATOM     45  C   UNL A   1      36.610  32.508  30.603  1.00  0.00     0.034 A 
ATOM     46  C   UNL A   1      44.380  32.015  28.993  1.00  0.00     0.034 A 
ATOM     47  C   UNL A   1      37.533  33.559  30.355  1.00  0.00     0.049 A 
ATOM     48  C   UNL A   1      43.516  33.080  29.526  1.00  0.00     0.074 A 
ATOM     49  C   UNL A   1      37.853  34.285  29.243  1.00  0.00     0.029 A 
ATOM     50  N   UNL A   1      38.481  33.774  31.325  1.00  0.00    -0.354 N 
ATOM     51  N   UNL A   1      43.127  33.191  30.760  1.00  0.00    -0.248 NA
ATOM     52  C   UNL A   1      42.917  34.010  28.560  1.00  0.00     0.031 C 
ATOM     53  C   UNL A   1      39.247  34.443  29.382  1.00  0.00     0.029 A 
ATOM     54  C   UNL A   1      39.650  34.049  30.667  1.00  0.00     0.049 A 
ATOM     55  H   UNL A   1      38.347  33.737  32.299  1.00  0.00     0.167 HD
ATOM     56  C   UNL A   1      42.029  34.005  30.658  1.00  0.00     0.074 A 
ATOM     57  C   UNL A   1      42.141  34.697  29.389  1.00  0.00     0.031 C 
ATOM     58  C   UNL A   1      40.890  33.724  31.338  1.00  0.00     0.034 A 
BRANCH  45  59
ATOM     59  C   UNL A   1      35.498  32.867  31.573  1.00  0.00     0.023 A 
ATOM     60  C   UNL A   1      34.502  33.748  31.064  1.00  0.00     0.031 A 
ATOM     61  C   UNL A   1      35.550  32.740  32.964  1.00  0.00     0.131 A 
ATOM     62  C   UNL A   1      33.781  34.610  31.898  1.00  0.00     0.055 A 
ATOM     63  C   UNL A   1      34.751  33.539  33.805  1.00  0.00     0.041 A 
ATOM     64  F   UNL A   1      36.422  31.917  33.559  1.00  0.00    -0.206 F 
ATOM     65  C   UNL A   1      33.904  34.516  33.277  1.00  0.00     0.022 A 
BRANCH  62  66
ATOM     66  S   UNL A   1      32.879  35.988  31.123  1.00  0.00     0.124 S 
ATOM     67  O   UNL A   1      31.674  36.063  31.941  1.00  0.00    -0.237 OA
ATOM     68  O   UNL A   1      33.821  37.094  31.273  1.00  0.00    -0.237 OA
ATOM     69  O   UNL A   1      32.674  35.530  29.751  1.00  0.00    -0.744 OA
ENDBRANCH  62  66
ENDBRANCH  45  59
BRANCH  46  70
ATOM     70  C   UNL A   1      45.755  32.477  28.484  1.00  0.00     0.023 A 
ATOM     71  C   UNL A   1      46.053  33.551  27.624  1.00  0.00     0.031 A 
ATOM     72  C   UNL A   1      46.921  31.805  28.987  1.00  0.00     0.131 A 
ATOM     73  C   UNL A   1      47.414  33.958  27.423  1.00  0.00     0.055 A 
ATOM     74  C   UNL A   1      48.229  32.278  28.887  1.00  0.00     0.041 A 
ATOM     75  F   UNL A   1      46.848  30.622  29.615  1.00  0.00    -0.206 F 
ATOM     76  C   UNL A   1      48.482  33.382  28.117  1.00  0.00     0.022 A 
BRANCH  73  77
ATOM     77  S   UNL A   1      47.870  35.255  26.224  1.00  0.00     0.124 S 
ATOM     78  O   UNL A   1      46.611  35.969  26.060  1.00  0.00    -0.237 OA
ATOM     79  O   UNL A   1      48.935  35.976  26.917  1.00  0.00    -0.237 OA
ATOM     80  O   UNL A   1      48.308  34.497  25.052  1.00  0.00    -0.744 OA
ENDBRANCH  73  77
ENDBRANCH  46  70
BRANCH  58  81
ATOM     81  C   UNL A   1      41.053  32.780  32.533  1.00  0.00     0.023 A 
ATOM     82  C   UNL A   1      40.716  31.421  32.419  1.00  0.00     0.031 A 
ATOM     83  C   UNL A   1      41.449  33.201  33.818  1.00  0.00     0.131 A 
ATOM     84  C   UNL A   1      40.772  30.561  33.539  1.00  0.00     0.055 A 
ATOM     85  C   UNL A   1      41.512  32.352  34.932  1.00  0.00     0.041 A 
ATOM     86  F   UNL A   1      41.781  34.467  34.049  1.00  0.00    -0.206 F 
ATOM     87  C   UNL A   1      41.171  31.020  34.796  1.00  0.00     0.022 A 
BRANCH  84  88
ATOM     88  S   UNL A   1      40.341  28.811  33.341  1.00  0.00     0.124 S 
ATOM     89  O   UNL A   1      41.121  28.422  32.171  1.00  0.00    -0.237 OA
ATOM     90  O   UNL A   1      40.762  28.237  34.614  1.00  0.00    -0.237 OA
ATOM     91  O   UNL A   1      38.893  28.837  33.133  1.00  0.00    -0.744 OA
ENDBRANCH  84  88
ENDBRANCH  58  81
ENDBRANCH  32  33
ENDBRANCH  24  27
ENDBRANCH  22  23
ENDBRANCH  21  22
ENDBRANCH   1  21
TORSDOF 19
ENDMDL
