MODEL 1
REMARK VINA RESULT:     -11.0      0.000      0.000
REMARK SMILES CC1C[NH+]([C@@H](C(=O)NCCCCCCNC(=O)c2ccc(-c3c4nc(c(-c5cc(S(=O)(=O)[O-])ccc5F)c5ccc([nH]5)c(-c5cc(S(=O)(=O)[O-])ccc5F)c5nc(c(-c6cc(S(=O)(=O)[O-])ccc6F)c6ccc3[nH]6)C=C5)C=C4)cc2)C2CCCCC2)C1
REMARK SMILES IDX 12 1 11 2 10 3 9 4 8 5 6 6 7 7 5 9 4 10 1 11 2 12 3 13 87 14
REMARK SMILES IDX 81 16 82 17 86 18 83 19 85 20 84 21 13 22 14 23 15 24 16 25
REMARK SMILES IDX 17 27 18 28 19 29 80 30 20 31 79 32 21 33 22 34 23 35 73 36
REMARK SMILES IDX 24 37 78 38 72 39 74 40 25 41 77 42 71 43 70 44 26 46 58 47
REMARK SMILES IDX 38 48 57 49 39 50 42 51 56 52 75 53 40 54 41 55 55 57 76 58
REMARK SMILES IDX 43 59 27 60 28 61 36 62 29 63 35 64 37 65 34 66 30 67 31 68
REMARK SMILES IDX 32 69 33 70 59 71 60 72 68 73 61 74 67 75 69 76 66 77 62 78
REMARK SMILES IDX 63 79 64 80 65 81 44 82 45 83 53 84 46 85 52 86 54 87 51 88
REMARK SMILES IDX 47 89 48 90 49 91 50 92
REMARK H PARENT 8 8 4 15 15 26 74 45 42 56
REMARK Flexibility Score: inf
ROOT
ATOM      1  C   UNL A   1      35.301  23.773  23.479  1.00  0.00     0.002 C 
ENDROOT
BRANCH   1   2
ATOM      2  C   UNL A   1      34.168  24.182  24.421  1.00  0.00     0.002 C 
BRANCH   2   3
ATOM      3  C   UNL A   1      34.015  25.694  24.620  1.00  0.00     0.021 C 
BRANCH   3   4
ATOM      4  C   UNL A   1      33.142  26.404  23.577  1.00  0.00     0.116 C 
BRANCH   4   5
ATOM      5  N   UNL A   1      31.727  26.316  23.899  1.00  0.00    -0.351 N 
ATOM      6  C   UNL A   1      30.783  27.250  24.214  1.00  0.00     0.278 C 
ATOM      7  O   UNL A   1      29.666  26.796  24.489  1.00  0.00    -0.268 OA
ATOM      8  H   UNL A   1      31.380  25.395  23.889  1.00  0.00     0.163 HD
BRANCH   6   9
ATOM      9  C   UNL A   1      31.075  28.776  24.197  1.00  0.00     0.277 C 
BRANCH   9  10
ATOM     10  N   UNL A   1      31.428  29.414  25.498  1.00  0.00    -0.324 N 
ATOM     11  C   UNL A   1      34.245  29.008  27.436  1.00  0.00     0.020 C 
ATOM     12  C   UNL A   1      33.304  28.786  26.273  1.00  0.00     0.096 C 
ATOM     13  C   UNL A   1      31.828  28.489  26.580  1.00  0.00     0.271 C 
ATOM     14  C   UNL A   1      32.758  30.039  25.543  1.00  0.00     0.271 C 
ATOM     15  H   UNL A   1      30.584  29.980  25.596  1.00  0.00     0.348 HD
ENDBRANCH   9  10
BRANCH   9  16
ATOM     16  C   UNL A   1      29.873  29.562  23.541  1.00  0.00     0.057 C 
ATOM     17  C   UNL A   1      29.598  30.950  24.170  1.00  0.00     0.010 C 
ATOM     18  C   UNL A   1      30.084  29.708  22.014  1.00  0.00     0.010 C 
ATOM     19  C   UNL A   1      28.481  31.716  23.471  1.00  0.00     0.001 C 
ATOM     20  C   UNL A   1      28.990  30.529  21.329  1.00  0.00     0.001 C 
ATOM     21  C   UNL A   1      28.798  31.886  21.993  1.00  0.00     0.000 C 
ENDBRANCH   9  16
ENDBRANCH   6   9
ENDBRANCH   4   5
ENDBRANCH   3   4
ENDBRANCH   2   3
ENDBRANCH   1   2
BRANCH   1  22
ATOM     22  C   UNL A   1      36.344  22.826  24.082  1.00  0.00     0.021 C 
BRANCH  22  23
ATOM     23  C   UNL A   1      37.053  23.343  25.333  1.00  0.00     0.116 C 
BRANCH  23  24
ATOM     24  N   UNL A   1      37.993  22.374  25.864  1.00  0.00    -0.352 N 
ATOM     25  C   UNL A   1      39.186  22.590  26.510  1.00  0.00     0.251 C 
ATOM     26  H   UNL A   1      37.741  21.431  25.744  1.00  0.00     0.163 HD
ATOM     27  O   UNL A   1      39.958  21.652  26.679  1.00  0.00    -0.269 OA
BRANCH  25  28
ATOM     28  C   UNL A   1      39.542  23.947  26.986  1.00  0.00     0.039 A 
ATOM     29  C   UNL A   1      40.066  24.865  26.071  1.00  0.00     0.014 A 
ATOM     30  C   UNL A   1      39.410  24.301  28.332  1.00  0.00     0.014 A 
ATOM     31  C   UNL A   1      40.435  26.142  26.501  1.00  0.00     0.010 A 
ATOM     32  C   UNL A   1      39.717  25.596  28.748  1.00  0.00     0.010 A 
ATOM     33  C   UNL A   1      40.257  26.522  27.842  1.00  0.00    -0.014 A 
BRANCH  33  34
ATOM     34  C   UNL A   1      40.696  27.861  28.313  1.00  0.00     0.031 A 
ATOM     35  C   UNL A   1      42.160  28.210  28.330  1.00  0.00     0.074 A 
ATOM     36  C   UNL A   1      39.785  28.752  28.749  1.00  0.00     0.049 A 
ATOM     37  N   UNL A   1      42.748  29.317  28.709  1.00  0.00    -0.248 NA
ATOM     38  C   UNL A   1      43.089  27.157  27.893  1.00  0.00     0.031 C 
ATOM     39  C   UNL A   1      38.344  28.512  28.836  1.00  0.00     0.029 A 
ATOM     40  N   UNL A   1      39.937  30.038  29.205  1.00  0.00    -0.354 N 
ATOM     41  C   UNL A   1      44.113  29.091  28.561  1.00  0.00     0.074 A 
ATOM     42  C   UNL A   1      44.263  27.715  28.137  1.00  0.00     0.031 C 
ATOM     43  C   UNL A   1      37.742  29.619  29.300  1.00  0.00     0.029 A 
ATOM     44  C   UNL A   1      38.754  30.639  29.565  1.00  0.00     0.049 A 
ATOM     45  H   UNL A   1      40.810  30.487  29.268  1.00  0.00     0.167 HD
ATOM     46  C   UNL A   1      45.144  29.959  28.728  1.00  0.00     0.034 A 
ATOM     47  C   UNL A   1      38.512  31.872  30.052  1.00  0.00     0.034 A 
ATOM     48  C   UNL A   1      44.976  31.329  29.152  1.00  0.00     0.049 A 
ATOM     49  C   UNL A   1      39.663  32.829  30.216  1.00  0.00     0.074 A 
ATOM     50  C   UNL A   1      45.940  32.307  29.329  1.00  0.00     0.029 A 
ATOM     51  N   UNL A   1      43.756  31.916  29.471  1.00  0.00    -0.354 N 
ATOM     52  N   UNL A   1      40.945  32.621  30.018  1.00  0.00    -0.248 NA
ATOM     53  C   UNL A   1      39.332  34.194  30.640  1.00  0.00     0.031 C 
ATOM     54  C   UNL A   1      45.311  33.463  29.808  1.00  0.00     0.029 A 
ATOM     55  C   UNL A   1      43.945  33.233  29.860  1.00  0.00     0.049 A 
ATOM     56  H   UNL A   1      42.884  31.461  29.428  1.00  0.00     0.167 HD
ATOM     57  C   UNL A   1      41.571  33.839  30.269  1.00  0.00     0.074 A 
ATOM     58  C   UNL A   1      40.521  34.778  30.614  1.00  0.00     0.031 C 
ATOM     59  C   UNL A   1      42.891  34.155  30.217  1.00  0.00     0.034 A 
BRANCH  46  60
ATOM     60  C   UNL A   1      46.537  29.425  28.471  1.00  0.00     0.023 A 
ATOM     61  C   UNL A   1      46.993  29.166  27.165  1.00  0.00     0.031 A 
ATOM     62  C   UNL A   1      47.395  29.106  29.537  1.00  0.00     0.131 A 
ATOM     63  C   UNL A   1      48.216  28.508  26.964  1.00  0.00     0.055 A 
ATOM     64  C   UNL A   1      48.655  28.539  29.326  1.00  0.00     0.041 A 
ATOM     65  F   UNL A   1      47.013  29.311  30.807  1.00  0.00    -0.206 F 
ATOM     66  C   UNL A   1      49.063  28.216  28.035  1.00  0.00     0.022 A 
BRANCH  63  67
ATOM     67  S   UNL A   1      48.593  27.872  25.307  1.00  0.00     0.124 S 
ATOM     68  O   UNL A   1      47.419  28.304  24.552  1.00  0.00    -0.237 OA
ATOM     69  O   UNL A   1      49.844  28.549  24.987  1.00  0.00    -0.237 OA
ATOM     70  O   UNL A   1      48.697  26.429  25.509  1.00  0.00    -0.744 OA
ENDBRANCH  63  67
ENDBRANCH  46  60
BRANCH  47  71
ATOM     71  C   UNL A   1      37.122  32.271  30.410  1.00  0.00     0.023 A 
ATOM     72  C   UNL A   1      36.260  32.845  29.463  1.00  0.00     0.031 A 
ATOM     73  C   UNL A   1      36.640  32.089  31.718  1.00  0.00     0.131 A 
ATOM     74  C   UNL A   1      34.972  33.252  29.846  1.00  0.00     0.055 A 
ATOM     75  C   UNL A   1      35.343  32.455  32.084  1.00  0.00     0.041 A 
ATOM     76  F   UNL A   1      37.421  31.531  32.658  1.00  0.00    -0.206 F 
ATOM     77  C   UNL A   1      34.504  33.050  31.148  1.00  0.00     0.022 A 
BRANCH  74  78
ATOM     78  S   UNL A   1      33.928  34.100  28.630  1.00  0.00     0.124 S 
ATOM     79  O   UNL A   1      33.681  33.039  27.659  1.00  0.00    -0.237 OA
ATOM     80  O   UNL A   1      32.786  34.506  29.442  1.00  0.00    -0.237 OA
ATOM     81  O   UNL A   1      34.774  35.194  28.158  1.00  0.00    -0.744 OA
ENDBRANCH  74  78
ENDBRANCH  47  71
BRANCH  59  82
ATOM     82  C   UNL A   1      43.260  35.591  30.503  1.00  0.00     0.023 A 
ATOM     83  C   UNL A   1      43.288  36.565  29.490  1.00  0.00     0.031 A 
ATOM     84  C   UNL A   1      43.613  35.983  31.807  1.00  0.00     0.131 A 
ATOM     85  C   UNL A   1      43.726  37.866  29.783  1.00  0.00     0.055 A 
ATOM     86  C   UNL A   1      43.988  37.293  32.105  1.00  0.00     0.041 A 
ATOM     87  F   UNL A   1      43.604  35.094  32.814  1.00  0.00    -0.206 F 
ATOM     88  C   UNL A   1      44.062  38.240  31.087  1.00  0.00     0.022 A 
BRANCH  85  89
ATOM     89  S   UNL A   1      43.957  39.035  28.416  1.00  0.00     0.124 S 
ATOM     90  O   UNL A   1      45.373  39.368  28.535  1.00  0.00    -0.237 OA
ATOM     91  O   UNL A   1      43.585  38.234  27.255  1.00  0.00    -0.237 OA
ATOM     92  O   UNL A   1      43.035  40.124  28.737  1.00  0.00    -0.744 OA
ENDBRANCH  85  89
ENDBRANCH  59  82
ENDBRANCH  33  34
ENDBRANCH  25  28
ENDBRANCH  23  24
ENDBRANCH  22  23
ENDBRANCH   1  22
TORSDOF 18
ENDMDL
MODEL 2
REMARK VINA RESULT:     -10.6      5.433      8.372
REMARK SMILES CC1C[NH+]([C@@H](C(=O)NCCCCCCNC(=O)c2ccc(-c3c4nc(c(-c5cc(S(=O)(=O)[O-])ccc5F)c5ccc([nH]5)c(-c5cc(S(=O)(=O)[O-])ccc5F)c5nc(c(-c6cc(S(=O)(=O)[O-])ccc6F)c6ccc3[nH]6)C=C5)C=C4)cc2)C2CCCCC2)C1
REMARK SMILES IDX 12 1 11 2 10 3 9 4 8 5 6 6 7 7 5 9 4 10 1 11 2 12 3 13 87 14
REMARK SMILES IDX 81 16 82 17 86 18 83 19 85 20 84 21 13 22 14 23 15 24 16 25
REMARK SMILES IDX 17 27 18 28 19 29 80 30 20 31 79 32 21 33 22 34 23 35 73 36
REMARK SMILES IDX 24 37 78 38 72 39 74 40 25 41 77 42 71 43 70 44 26 46 58 47
REMARK SMILES IDX 38 48 57 49 39 50 42 51 56 52 75 53 40 54 41 55 55 57 76 58
REMARK SMILES IDX 43 59 27 60 28 61 36 62 29 63 35 64 37 65 34 66 30 67 31 68
REMARK SMILES IDX 32 69 33 70 59 71 60 72 68 73 61 74 67 75 69 76 66 77 62 78
REMARK SMILES IDX 63 79 64 80 65 81 44 82 45 83 53 84 46 85 52 86 54 87 51 88
REMARK SMILES IDX 47 89 48 90 49 91 50 92
REMARK H PARENT 8 8 4 15 15 26 74 45 42 56
REMARK Flexibility Score: inf
ROOT
ATOM      1  C   UNL A   1      31.383  30.909  25.751  1.00  0.00     0.002 C 
ENDROOT
BRANCH   1   2
ATOM      2  C   UNL A   1      32.348  29.745  25.977  1.00  0.00     0.002 C 
BRANCH   2   3
ATOM      3  C   UNL A   1      31.787  28.606  26.837  1.00  0.00     0.021 C 
BRANCH   3   4
ATOM      4  C   UNL A   1      32.553  27.280  26.745  1.00  0.00     0.116 C 
BRANCH   4   5
ATOM      5  N   UNL A   1      31.681  26.132  26.932  1.00  0.00    -0.351 N 
ATOM      6  C   UNL A   1      31.223  25.161  26.088  1.00  0.00     0.278 C 
ATOM      7  O   UNL A   1      30.435  24.355  26.595  1.00  0.00    -0.268 OA
ATOM      8  H   UNL A   1      31.354  26.036  27.856  1.00  0.00     0.163 HD
BRANCH   6   9
ATOM      9  C   UNL A   1      31.682  25.054  24.608  1.00  0.00     0.277 C 
BRANCH   9  10
ATOM     10  N   UNL A   1      33.135  25.241  24.332  1.00  0.00    -0.324 N 
ATOM     11  C   UNL A   1      35.540  22.887  23.604  1.00  0.00     0.020 C 
ATOM     12  C   UNL A   1      34.171  23.425  23.954  1.00  0.00     0.096 C 
ATOM     13  C   UNL A   1      34.055  24.405  25.132  1.00  0.00     0.271 C 
ATOM     14  C   UNL A   1      33.622  24.598  23.103  1.00  0.00     0.271 C 
ATOM     15  H   UNL A   1      33.154  26.257  24.429  1.00  0.00     0.348 HD
ENDBRANCH   9  10
BRANCH   9  16
ATOM     16  C   UNL A   1      30.848  26.040  23.698  1.00  0.00     0.057 C 
ATOM     17  C   UNL A   1      29.487  26.467  24.299  1.00  0.00     0.010 C 
ATOM     18  C   UNL A   1      31.684  27.293  23.342  1.00  0.00     0.010 C 
ATOM     19  C   UNL A   1      28.738  27.474  23.434  1.00  0.00     0.001 C 
ATOM     20  C   UNL A   1      30.906  28.326  22.524  1.00  0.00     0.001 C 
ATOM     21  C   UNL A   1      29.593  28.709  23.194  1.00  0.00     0.000 C 
ENDBRANCH   9  16
ENDBRANCH   6   9
ENDBRANCH   4   5
ENDBRANCH   3   4
ENDBRANCH   2   3
ENDBRANCH   1   2
BRANCH   1  22
ATOM     22  C   UNL A   1      31.402  31.995  26.831  1.00  0.00     0.021 C 
BRANCH  22  23
ATOM     23  C   UNL A   1      32.789  32.501  27.226  1.00  0.00     0.116 C 
BRANCH  23  24
ATOM     24  N   UNL A   1      32.771  33.905  27.590  1.00  0.00    -0.352 N 
ATOM     25  C   UNL A   1      33.484  34.554  28.568  1.00  0.00     0.251 C 
ATOM     26  H   UNL A   1      32.164  34.471  27.062  1.00  0.00     0.163 HD
ATOM     27  O   UNL A   1      33.168  35.696  28.887  1.00  0.00    -0.269 OA
BRANCH  25  28
ATOM     28  C   UNL A   1      34.616  33.877  29.242  1.00  0.00     0.039 A 
ATOM     29  C   UNL A   1      34.340  32.906  30.209  1.00  0.00     0.014 A 
ATOM     30  C   UNL A   1      35.941  34.227  28.962  1.00  0.00     0.014 A 
ATOM     31  C   UNL A   1      35.390  32.273  30.878  1.00  0.00     0.010 A 
ATOM     32  C   UNL A   1      36.989  33.547  29.582  1.00  0.00     0.010 A 
ATOM     33  C   UNL A   1      36.724  32.581  30.566  1.00  0.00    -0.014 A 
BRANCH  33  34
ATOM     34  C   UNL A   1      37.842  31.946  31.311  1.00  0.00     0.031 A 
ATOM     35  C   UNL A   1      38.631  30.832  30.677  1.00  0.00     0.074 A 
ATOM     36  C   UNL A   1      38.130  32.350  32.563  1.00  0.00     0.049 A 
ATOM     37  N   UNL A   1      39.634  30.143  31.161  1.00  0.00    -0.248 NA
ATOM     38  C   UNL A   1      38.210  30.414  29.332  1.00  0.00     0.031 C 
ATOM     39  C   UNL A   1      37.402  33.378  33.306  1.00  0.00     0.029 A 
ATOM     40  N   UNL A   1      39.110  31.941  33.432  1.00  0.00    -0.354 N 
ATOM     41  C   UNL A   1      39.961  29.210  30.181  1.00  0.00     0.074 A 
ATOM     42  C   UNL A   1      38.993  29.370  29.116  1.00  0.00     0.031 C 
ATOM     43  C   UNL A   1      37.970  33.532  34.514  1.00  0.00     0.029 A 
ATOM     44  C   UNL A   1      39.086  32.599  34.640  1.00  0.00     0.049 A 
ATOM     45  H   UNL A   1      39.767  31.242  33.212  1.00  0.00     0.167 HD
ATOM     46  C   UNL A   1      40.991  28.326  30.154  1.00  0.00     0.034 A 
ATOM     47  C   UNL A   1      39.876  32.466  35.723  1.00  0.00     0.034 A 
ATOM     48  C   UNL A   1      41.947  28.179  31.227  1.00  0.00     0.049 A 
ATOM     49  C   UNL A   1      41.024  31.494  35.674  1.00  0.00     0.074 A 
ATOM     50  C   UNL A   1      43.045  27.339  31.301  1.00  0.00     0.029 A 
ATOM     51  N   UNL A   1      41.915  28.892  32.420  1.00  0.00    -0.354 N 
ATOM     52  N   UNL A   1      41.357  30.656  34.717  1.00  0.00    -0.248 NA
ATOM     53  C   UNL A   1      41.921  31.470  36.835  1.00  0.00     0.031 C 
ATOM     54  C   UNL A   1      43.641  27.504  32.558  1.00  0.00     0.029 A 
ATOM     55  C   UNL A   1      42.960  28.500  33.242  1.00  0.00     0.049 A 
ATOM     56  H   UNL A   1      41.245  29.577  32.649  1.00  0.00     0.167 HD
ATOM     57  C   UNL A   1      42.518  30.024  35.154  1.00  0.00     0.074 A 
ATOM     58  C   UNL A   1      42.836  30.593  36.449  1.00  0.00     0.031 C 
ATOM     59  C   UNL A   1      43.257  29.063  34.539  1.00  0.00     0.034 A 
BRANCH  46  60
ATOM     60  C   UNL A   1      41.104  27.442  28.931  1.00  0.00     0.023 A 
ATOM     61  C   UNL A   1      42.118  27.640  27.975  1.00  0.00     0.031 A 
ATOM     62  C   UNL A   1      40.155  26.438  28.677  1.00  0.00     0.131 A 
ATOM     63  C   UNL A   1      42.095  26.927  26.767  1.00  0.00     0.055 A 
ATOM     64  C   UNL A   1      40.194  25.662  27.515  1.00  0.00     0.041 A 
ATOM     65  F   UNL A   1      39.152  26.210  29.540  1.00  0.00    -0.206 F 
ATOM     66  C   UNL A   1      41.155  25.920  26.541  1.00  0.00     0.022 A 
BRANCH  63  67
ATOM     67  S   UNL A   1      43.191  27.465  25.425  1.00  0.00     0.124 S 
ATOM     68  O   UNL A   1      43.697  26.188  24.928  1.00  0.00    -0.237 OA
ATOM     69  O   UNL A   1      42.278  28.179  24.540  1.00  0.00    -0.237 OA
ATOM     70  O   UNL A   1      44.182  28.297  26.104  1.00  0.00    -0.744 OA
ENDBRANCH  63  67
ENDBRANCH  46  60
BRANCH  47  71
ATOM     71  C   UNL A   1      39.609  33.281  36.942  1.00  0.00     0.023 A 
ATOM     72  C   UNL A   1      38.820  32.787  37.992  1.00  0.00     0.031 A 
ATOM     73  C   UNL A   1      40.139  34.577  37.067  1.00  0.00     0.131 A 
ATOM     74  C   UNL A   1      38.551  33.597  39.106  1.00  0.00     0.055 A 
ATOM     75  C   UNL A   1      39.905  35.364  38.196  1.00  0.00     0.041 A 
ATOM     76  F   UNL A   1      40.912  35.090  36.096  1.00  0.00    -0.206 F 
ATOM     77  C   UNL A   1      39.099  34.878  39.220  1.00  0.00     0.022 A 
BRANCH  74  78
ATOM     78  S   UNL A   1      37.429  32.974  40.388  1.00  0.00     0.124 S 
ATOM     79  O   UNL A   1      36.221  32.701  39.618  1.00  0.00    -0.237 OA
ATOM     80  O   UNL A   1      38.153  31.808  40.882  1.00  0.00    -0.237 OA
ATOM     81  O   UNL A   1      37.333  34.088  41.328  1.00  0.00    -0.744 OA
ENDBRANCH  74  78
ENDBRANCH  47  71
BRANCH  59  82
ATOM     82  C   UNL A   1      44.505  28.603  35.254  1.00  0.00     0.023 A 
ATOM     83  C   UNL A   1      44.493  27.507  36.134  1.00  0.00     0.031 A 
ATOM     84  C   UNL A   1      45.718  29.289  35.069  1.00  0.00     0.131 A 
ATOM     85  C   UNL A   1      45.654  27.171  36.848  1.00  0.00     0.055 A 
ATOM     86  C   UNL A   1      46.885  28.913  35.734  1.00  0.00     0.041 A 
ATOM     87  F   UNL A   1      45.787  30.344  34.240  1.00  0.00    -0.206 F 
ATOM     88  C   UNL A   1      46.854  27.858  36.642  1.00  0.00     0.022 A 
BRANCH  85  89
ATOM     89  S   UNL A   1      45.548  25.895  38.132  1.00  0.00     0.124 S 
ATOM     90  O   UNL A   1      44.105  25.754  38.304  1.00  0.00    -0.237 OA
ATOM     91  O   UNL A   1      46.229  24.766  37.506  1.00  0.00    -0.237 OA
ATOM     92  O   UNL A   1      46.252  26.490  39.266  1.00  0.00    -0.744 OA
ENDBRANCH  85  89
ENDBRANCH  59  82
ENDBRANCH  33  34
ENDBRANCH  25  28
ENDBRANCH  23  24
ENDBRANCH  22  23
ENDBRANCH   1  22
TORSDOF 18
ENDMDL
MODEL 3
REMARK VINA RESULT:     -10.6      4.878     10.035
REMARK SMILES CC1C[NH+]([C@@H](C(=O)NCCCCCCNC(=O)c2ccc(-c3c4nc(c(-c5cc(S(=O)(=O)[O-])ccc5F)c5ccc([nH]5)c(-c5cc(S(=O)(=O)[O-])ccc5F)c5nc(c(-c6cc(S(=O)(=O)[O-])ccc6F)c6ccc3[nH]6)C=C5)C=C4)cc2)C2CCCCC2)C1
REMARK SMILES IDX 12 1 11 2 10 3 9 4 8 5 6 6 7 7 5 9 4 10 1 11 2 12 3 13 87 14
REMARK SMILES IDX 81 16 82 17 86 18 83 19 85 20 84 21 13 22 14 23 15 24 16 25
REMARK SMILES IDX 17 27 18 28 19 29 80 30 20 31 79 32 21 33 22 34 23 35 73 36
REMARK SMILES IDX 24 37 78 38 72 39 74 40 25 41 77 42 71 43 70 44 26 46 58 47
REMARK SMILES IDX 38 48 57 49 39 50 42 51 56 52 75 53 40 54 41 55 55 57 76 58
REMARK SMILES IDX 43 59 27 60 28 61 36 62 29 63 35 64 37 65 34 66 30 67 31 68
REMARK SMILES IDX 32 69 33 70 59 71 60 72 68 73 61 74 67 75 69 76 66 77 62 78
REMARK SMILES IDX 63 79 64 80 65 81 44 82 45 83 53 84 46 85 52 86 54 87 51 88
REMARK SMILES IDX 47 89 48 90 49 91 50 92
REMARK H PARENT 8 8 4 15 15 26 74 45 42 56
REMARK Flexibility Score: inf
ROOT
ATOM      1  C   UNL A   1      31.393  30.308  25.282  1.00  0.00     0.002 C 
ENDROOT
BRANCH   1   2
ATOM      2  C   UNL A   1      32.202  29.011  25.317  1.00  0.00     0.002 C 
BRANCH   2   3
ATOM      3  C   UNL A   1      31.864  28.078  26.486  1.00  0.00     0.021 C 
BRANCH   3   4
ATOM      4  C   UNL A   1      32.333  26.627  26.320  1.00  0.00     0.116 C 
BRANCH   4   5
ATOM      5  N   UNL A   1      31.381  25.679  26.874  1.00  0.00    -0.351 N 
ATOM      6  C   UNL A   1      30.694  24.627  26.339  1.00  0.00     0.278 C 
ATOM      7  O   UNL A   1      29.910  24.065  27.112  1.00  0.00    -0.268 OA
ATOM      8  H   UNL A   1      31.192  25.826  27.829  1.00  0.00     0.163 HD
BRANCH   6   9
ATOM      9  C   UNL A   1      30.902  24.147  24.876  1.00  0.00     0.277 C 
BRANCH   9  10
ATOM     10  N   UNL A   1      32.295  23.805  24.466  1.00  0.00    -0.324 N 
ATOM     11  C   UNL A   1      33.823  20.725  24.289  1.00  0.00     0.020 C 
ATOM     12  C   UNL A   1      32.722  21.726  24.557  1.00  0.00     0.096 C 
ATOM     13  C   UNL A   1      33.054  22.959  25.411  1.00  0.00     0.271 C 
ATOM     14  C   UNL A   1      32.401  22.754  23.443  1.00  0.00     0.271 C 
ATOM     15  H   UNL A   1      32.607  24.756  24.267  1.00  0.00     0.348 HD
ENDBRANCH   9  10
BRANCH   9  16
ATOM     16  C   UNL A   1      30.304  25.197  23.859  1.00  0.00     0.057 C 
ATOM     17  C   UNL A   1      29.251  26.152  24.472  1.00  0.00     0.010 C 
ATOM     18  C   UNL A   1      31.434  26.018  23.192  1.00  0.00     0.010 C 
ATOM     19  C   UNL A   1      28.744  27.200  23.488  1.00  0.00     0.001 C 
ATOM     20  C   UNL A   1      30.915  27.107  22.251  1.00  0.00     0.001 C 
ATOM     21  C   UNL A   1      29.903  28.015  22.937  1.00  0.00     0.000 C 
ENDBRANCH   9  16
ENDBRANCH   6   9
ENDBRANCH   4   5
ENDBRANCH   3   4
ENDBRANCH   2   3
ENDBRANCH   1   2
BRANCH   1  22
ATOM     22  C   UNL A   1      31.442  31.145  26.564  1.00  0.00     0.021 C 
BRANCH  22  23
ATOM     23  C   UNL A   1      32.842  31.540  27.036  1.00  0.00     0.116 C 
BRANCH  23  24
ATOM     24  N   UNL A   1      32.941  32.960  27.311  1.00  0.00    -0.352 N 
ATOM     25  C   UNL A   1      33.829  33.624  28.121  1.00  0.00     0.251 C 
ATOM     26  H   UNL A   1      32.280  33.527  26.853  1.00  0.00     0.163 HD
ATOM     27  O   UNL A   1      33.616  34.796  28.416  1.00  0.00    -0.269 OA
BRANCH  25  28
ATOM     28  C   UNL A   1      35.026  32.927  28.647  1.00  0.00     0.039 A 
ATOM     29  C   UNL A   1      34.848  31.827  29.490  1.00  0.00     0.014 A 
ATOM     30  C   UNL A   1      36.316  33.380  28.354  1.00  0.00     0.014 A 
ATOM     31  C   UNL A   1      35.960  31.169  30.020  1.00  0.00     0.010 A 
ATOM     32  C   UNL A   1      37.426  32.684  28.830  1.00  0.00     0.010 A 
ATOM     33  C   UNL A   1      37.260  31.587  29.689  1.00  0.00    -0.014 A 
BRANCH  33  34
ATOM     34  C   UNL A   1      38.445  30.922  30.291  1.00  0.00     0.031 A 
ATOM     35  C   UNL A   1      38.881  31.282  31.686  1.00  0.00     0.074 A 
ATOM     36  C   UNL A   1      39.141  30.016  29.579  1.00  0.00     0.049 A 
ATOM     37  N   UNL A   1      39.888  30.825  32.387  1.00  0.00    -0.248 NA
ATOM     38  C   UNL A   1      38.099  32.323  32.369  1.00  0.00     0.031 C 
ATOM     39  C   UNL A   1      38.853  29.625  28.199  1.00  0.00     0.029 A 
ATOM     40  N   UNL A   1      40.238  29.264  29.916  1.00  0.00    -0.354 N 
ATOM     41  C   UNL A   1      39.861  31.525  33.590  1.00  0.00     0.074 A 
ATOM     42  C   UNL A   1      38.790  32.493  33.483  1.00  0.00     0.031 C 
ATOM     43  C   UNL A   1      39.740  28.694  27.812  1.00  0.00     0.029 A 
ATOM     44  C   UNL A   1      40.673  28.437  28.906  1.00  0.00     0.049 A 
ATOM     45  H   UNL A   1      40.673  29.311  30.798  1.00  0.00     0.167 HD
ATOM     46  C   UNL A   1      40.634  31.355  34.693  1.00  0.00     0.034 A 
ATOM     47  C   UNL A   1      41.704  27.571  28.868  1.00  0.00     0.034 A 
ATOM     48  C   UNL A   1      41.700  30.385  34.782  1.00  0.00     0.049 A 
ATOM     49  C   UNL A   1      42.542  27.380  30.104  1.00  0.00     0.074 A 
ATOM     50  C   UNL A   1      42.530  30.103  35.853  1.00  0.00     0.029 A 
ATOM     51  N   UNL A   1      42.086  29.535  33.750  1.00  0.00    -0.354 N 
ATOM     52  N   UNL A   1      42.470  28.009  31.256  1.00  0.00    -0.248 NA
ATOM     53  C   UNL A   1      43.579  26.343  30.046  1.00  0.00     0.031 C 
ATOM     54  C   UNL A   1      43.451  29.126  35.451  1.00  0.00     0.029 A 
ATOM     55  C   UNL A   1      43.151  28.744  34.153  1.00  0.00     0.049 A 
ATOM     56  H   UNL A   1      41.665  29.502  32.861  1.00  0.00     0.167 HD
ATOM     57  C   UNL A   1      43.438  27.424  32.068  1.00  0.00     0.074 A 
ATOM     58  C   UNL A   1      44.064  26.381  31.279  1.00  0.00     0.031 C 
ATOM     59  C   UNL A   1      43.777  27.718  33.351  1.00  0.00     0.034 A 
BRANCH  46  60
ATOM     60  C   UNL A   1      40.356  32.263  35.871  1.00  0.00     0.023 A 
ATOM     61  C   UNL A   1      39.349  31.960  36.808  1.00  0.00     0.031 A 
ATOM     62  C   UNL A   1      41.049  33.475  36.027  1.00  0.00     0.131 A 
ATOM     63  C   UNL A   1      38.992  32.901  37.786  1.00  0.00     0.055 A 
ATOM     64  C   UNL A   1      40.754  34.366  37.063  1.00  0.00     0.041 A 
ATOM     65  F   UNL A   1      42.007  33.832  35.158  1.00  0.00    -0.206 F 
ATOM     66  C   UNL A   1      39.705  34.092  37.936  1.00  0.00     0.022 A 
BRANCH  63  67
ATOM     67  S   UNL A   1      37.466  32.630  38.728  1.00  0.00     0.124 S 
ATOM     68  O   UNL A   1      37.501  31.184  38.935  1.00  0.00    -0.237 OA
ATOM     69  O   UNL A   1      37.679  33.450  39.915  1.00  0.00    -0.237 OA
ATOM     70  O   UNL A   1      36.416  33.097  37.826  1.00  0.00    -0.744 OA
ENDBRANCH  63  67
ENDBRANCH  46  60
BRANCH  47  71
ATOM     71  C   UNL A   1      41.994  26.815  27.617  1.00  0.00     0.023 A 
ATOM     72  C   UNL A   1      41.753  25.435  27.526  1.00  0.00     0.031 A 
ATOM     73  C   UNL A   1      42.529  27.468  26.494  1.00  0.00     0.131 A 
ATOM     74  C   UNL A   1      42.081  24.745  26.348  1.00  0.00     0.055 A 
ATOM     75  C   UNL A   1      42.813  26.786  25.309  1.00  0.00     0.041 A 
ATOM     76  F   UNL A   1      42.765  28.790  26.526  1.00  0.00    -0.206 F 
ATOM     77  C   UNL A   1      42.598  25.413  25.235  1.00  0.00     0.022 A 
BRANCH  74  78
ATOM     78  S   UNL A   1      41.870  22.944  26.306  1.00  0.00     0.124 S 
ATOM     79  O   UNL A   1      42.510  22.599  25.041  1.00  0.00    -0.237 OA
ATOM     80  O   UNL A   1      42.574  22.529  27.515  1.00  0.00    -0.237 OA
ATOM     81  O   UNL A   1      40.420  22.769  26.342  1.00  0.00    -0.744 OA
ENDBRANCH  74  78
ENDBRANCH  47  71
BRANCH  59  82
ATOM     82  C   UNL A   1      44.850  26.866  33.984  1.00  0.00     0.023 A 
ATOM     83  C   UNL A   1      44.576  25.584  34.491  1.00  0.00     0.031 A 
ATOM     84  C   UNL A   1      46.162  27.358  34.105  1.00  0.00     0.131 A 
ATOM     85  C   UNL A   1      45.581  24.864  35.155  1.00  0.00     0.055 A 
ATOM     86  C   UNL A   1      47.174  26.613  34.712  1.00  0.00     0.041 A 
ATOM     87  F   UNL A   1      46.481  28.577  33.640  1.00  0.00    -0.206 F 
ATOM     88  C   UNL A   1      46.883  25.365  35.255  1.00  0.00     0.022 A 
BRANCH  85  89
ATOM     89  S   UNL A   1      45.139  23.313  35.984  1.00  0.00     0.124 S 
ATOM     90  O   UNL A   1      46.207  22.419  35.548  1.00  0.00    -0.237 OA
ATOM     91  O   UNL A   1      45.161  23.696  37.392  1.00  0.00    -0.237 OA
ATOM     92  O   UNL A   1      43.815  23.003  35.448  1.00  0.00    -0.744 OA
ENDBRANCH  85  89
ENDBRANCH  59  82
ENDBRANCH  33  34
ENDBRANCH  25  28
ENDBRANCH  23  24
ENDBRANCH  22  23
ENDBRANCH   1  22
TORSDOF 18
ENDMDL
