MODEL 1
REMARK VINA RESULT:     -11.9      0.000      0.000
REMARK SMILES Cc1ccc2c(c1C)O[C@@H](C(=O)NCCCCCCNC(=O)c1ccc(-c3c4nc(c(-c5cc(S(=O)(=O)[O-])ccc5F)c5ccc([nH]5)c(-c5cc(S(=O)(=O)[O-])ccc5F)c5nc(c(-c6cc(S(=O)(=O)[O-])ccc6F)c6ccc3[nH]6)C=C5)C=C4)cc1)CC2=O
REMARK SMILES IDX 18 1 17 2 16 3 15 4 14 5 13 6 11 7 12 8 10 10 1 11 2 12 3 13
REMARK SMILES IDX 7 14 4 15 6 16 8 17 5 18 9 19 87 20 86 21 88 22 19 23 20 24
REMARK SMILES IDX 21 25 22 27 23 28 24 29 85 30 25 31 84 32 26 33 27 34 28 35
REMARK SMILES IDX 78 36 29 37 83 38 77 39 79 40 30 41 82 42 76 43 75 44 31 46
REMARK SMILES IDX 63 47 43 48 62 49 44 50 47 51 61 52 80 53 45 54 46 55 60 57
REMARK SMILES IDX 81 58 48 59 32 60 33 61 41 62 34 63 40 64 42 65 39 66 35 67
REMARK SMILES IDX 36 68 37 69 38 70 64 71 65 72 73 73 66 74 72 75 74 76 71 77
REMARK SMILES IDX 67 78 68 79 69 80 70 81 49 82 50 83 58 84 51 85 57 86 59 87
REMARK SMILES IDX 56 88 52 89 53 90 54 91 55 92
REMARK H PARENT 13 9 20 26 79 45 47 56
REMARK Flexibility Score: inf
ROOT
ATOM      1  C   UNL A   1      31.524  32.034  26.805  1.00  0.00     0.021 C 
ENDROOT
BRANCH   1   2
ATOM      2  C   UNL A   1      31.656  30.692  26.080  1.00  0.00     0.002 C 
BRANCH   2   3
ATOM      3  C   UNL A   1      31.875  29.475  26.991  1.00  0.00     0.002 C 
BRANCH   3   4
ATOM      4  C   UNL A   1      33.342  29.099  27.224  1.00  0.00     0.021 C 
BRANCH   4   5
ATOM      5  C   UNL A   1      33.818  27.982  26.297  1.00  0.00     0.116 C 
BRANCH   5   6
ATOM      6  N   UNL A   1      34.115  28.455  24.965  1.00  0.00    -0.353 N 
ATOM      7  C   UNL A   1      33.477  28.299  23.777  1.00  0.00     0.261 C 
ATOM      8  O   UNL A   1      33.916  28.979  22.839  1.00  0.00    -0.271 OA
ATOM      9  H   UNL A   1      34.937  28.993  24.907  1.00  0.00     0.163 HD
BRANCH   7  10
ATOM     10  C   UNL A   1      32.320  27.294  23.521  1.00  0.00     0.269 C 
ATOM     11  C   UNL A   1      34.078  21.955  25.914  1.00  0.00     0.045 C 
ATOM     12  C   UNL A   1      33.604  22.922  24.859  1.00  0.00    -0.044 A 
ATOM     13  C   UNL A   1      33.947  22.613  23.529  1.00  0.00     0.005 A 
ATOM     14  C   UNL A   1      32.867  24.096  25.126  1.00  0.00    -0.005 A 
ATOM     15  C   UNL A   1      33.615  23.466  22.480  1.00  0.00     0.016 A 
ATOM     16  C   UNL A   1      32.613  24.996  24.066  1.00  0.00     0.134 A 
ATOM     17  C   UNL A   1      32.398  24.476  26.509  1.00  0.00     0.049 C 
ATOM     18  C   UNL A   1      32.966  24.668  22.755  1.00  0.00     0.060 A 
ATOM     19  O   UNL A   1      32.119  26.220  24.422  1.00  0.00    -0.479 OA
ATOM     20  C   UNL A   1      32.784  25.661  21.684  1.00  0.00     0.170 C 
ATOM     21  C   UNL A   1      32.143  26.961  22.050  1.00  0.00     0.136 C 
ATOM     22  O   UNL A   1      33.133  25.420  20.532  1.00  0.00    -0.294 OA
ENDBRANCH   7  10
ENDBRANCH   5   6
ENDBRANCH   4   5
ENDBRANCH   3   4
ENDBRANCH   2   3
ENDBRANCH   1   2
BRANCH   1  23
ATOM     23  C   UNL A   1      32.854  32.648  27.226  1.00  0.00     0.116 C 
BRANCH  23  24
ATOM     24  N   UNL A   1      32.684  34.020  27.687  1.00  0.00    -0.352 N 
ATOM     25  C   UNL A   1      33.242  34.638  28.774  1.00  0.00     0.251 C 
ATOM     26  H   UNL A   1      32.085  34.579  27.142  1.00  0.00     0.163 HD
ATOM     27  O   UNL A   1      32.793  35.708  29.181  1.00  0.00    -0.269 OA
BRANCH  25  28
ATOM     28  C   UNL A   1      34.389  34.006  29.449  1.00  0.00     0.039 A 
ATOM     29  C   UNL A   1      35.686  34.314  29.034  1.00  0.00     0.014 A 
ATOM     30  C   UNL A   1      34.169  33.101  30.492  1.00  0.00     0.014 A 
ATOM     31  C   UNL A   1      36.772  33.738  29.694  1.00  0.00     0.010 A 
ATOM     32  C   UNL A   1      35.251  32.577  31.188  1.00  0.00     0.010 A 
ATOM     33  C   UNL A   1      36.560  32.875  30.782  1.00  0.00    -0.014 A 
BRANCH  33  34
ATOM     34  C   UNL A   1      37.695  32.231  31.480  1.00  0.00     0.031 A 
ATOM     35  C   UNL A   1      38.416  31.091  30.819  1.00  0.00     0.074 A 
ATOM     36  C   UNL A   1      38.040  32.633  32.718  1.00  0.00     0.049 A 
ATOM     37  N   UNL A   1      39.423  30.388  31.264  1.00  0.00    -0.248 NA
ATOM     38  C   UNL A   1      37.933  30.674  29.491  1.00  0.00     0.031 C 
ATOM     39  C   UNL A   1      37.386  33.707  33.466  1.00  0.00     0.029 A 
ATOM     40  N   UNL A   1      39.019  32.182  33.567  1.00  0.00    -0.354 N 
ATOM     41  C   UNL A   1      39.686  29.443  30.281  1.00  0.00     0.074 A 
ATOM     42  C   UNL A   1      38.704  29.626  29.238  1.00  0.00     0.031 C 
ATOM     43  C   UNL A   1      37.997  33.846  34.654  1.00  0.00     0.029 A 
ATOM     44  C   UNL A   1      39.063  32.853  34.767  1.00  0.00     0.049 A 
ATOM     45  H   UNL A   1      39.633  31.447  33.339  1.00  0.00     0.167 HD
ATOM     46  C   UNL A   1      40.673  28.520  30.246  1.00  0.00     0.034 A 
ATOM     47  C   UNL A   1      39.872  32.686  35.833  1.00  0.00     0.034 A 
ATOM     48  C   UNL A   1      41.662  28.367  31.279  1.00  0.00     0.049 A 
ATOM     49  C   UNL A   1      40.957  31.640  35.773  1.00  0.00     0.074 A 
ATOM     50  C   UNL A   1      42.751  27.516  31.294  1.00  0.00     0.029 A 
ATOM     51  N   UNL A   1      41.680  29.067  32.475  1.00  0.00    -0.354 N 
ATOM     52  N   UNL A   1      41.267  30.832  34.787  1.00  0.00    -0.248 NA
ATOM     53  C   UNL A   1      41.809  31.487  36.961  1.00  0.00     0.031 C 
ATOM     54  C   UNL A   1      43.387  27.651  32.528  1.00  0.00     0.029 A 
ATOM     55  C   UNL A   1      42.740  28.639  33.253  1.00  0.00     0.049 A 
ATOM     56  H   UNL A   1      41.034  29.765  32.732  1.00  0.00     0.167 HD
ATOM     57  C   UNL A   1      42.372  30.103  35.220  1.00  0.00     0.074 A 
ATOM     58  C   UNL A   1      42.681  30.573  36.554  1.00  0.00     0.031 C 
ATOM     59  C   UNL A   1      43.063  29.134  34.570  1.00  0.00     0.034 A 
BRANCH  46  60
ATOM     60  C   UNL A   1      40.767  27.606  29.053  1.00  0.00     0.023 A 
ATOM     61  C   UNL A   1      41.696  27.885  28.035  1.00  0.00     0.031 A 
ATOM     62  C   UNL A   1      39.856  26.553  28.860  1.00  0.00     0.131 A 
ATOM     63  C   UNL A   1      41.668  27.142  26.849  1.00  0.00     0.055 A 
ATOM     64  C   UNL A   1      39.860  25.789  27.692  1.00  0.00     0.041 A 
ATOM     65  F   UNL A   1      38.953  26.249  29.807  1.00  0.00    -0.206 F 
ATOM     66  C   UNL A   1      40.760  26.092  26.675  1.00  0.00     0.022 A 
BRANCH  63  67
ATOM     67  S   UNL A   1      42.772  27.546  25.470  1.00  0.00     0.124 S 
ATOM     68  O   UNL A   1      42.864  26.265  24.772  1.00  0.00    -0.237 OA
ATOM     69  O   UNL A   1      42.018  28.584  24.773  1.00  0.00    -0.237 OA
ATOM     70  O   UNL A   1      44.001  27.985  26.121  1.00  0.00    -0.744 OA
ENDBRANCH  63  67
ENDBRANCH  46  60
BRANCH  47  71
ATOM     71  C   UNL A   1      39.727  33.590  37.010  1.00  0.00     0.023 A 
ATOM     72  C   UNL A   1      40.576  34.694  37.192  1.00  0.00     0.031 A 
ATOM     73  C   UNL A   1      38.783  33.307  38.013  1.00  0.00     0.131 A 
ATOM     74  C   UNL A   1      40.501  35.443  38.374  1.00  0.00     0.055 A 
ATOM     75  C   UNL A   1      38.668  34.093  39.160  1.00  0.00     0.041 A 
ATOM     76  F   UNL A   1      37.959  32.256  37.887  1.00  0.00    -0.206 F 
ATOM     77  C   UNL A   1      39.540  35.161  39.350  1.00  0.00     0.022 A 
BRANCH  74  78
ATOM     78  S   UNL A   1      41.709  36.749  38.726  1.00  0.00     0.124 S 
ATOM     79  O   UNL A   1      42.326  36.957  37.420  1.00  0.00    -0.237 OA
ATOM     80  O   UNL A   1      40.848  37.831  39.197  1.00  0.00    -0.237 OA
ATOM     81  O   UNL A   1      42.572  36.156  39.743  1.00  0.00    -0.744 OA
ENDBRANCH  74  78
ENDBRANCH  47  71
BRANCH  59  82
ATOM     82  C   UNL A   1      44.254  28.506  35.250  1.00  0.00     0.023 A 
ATOM     83  C   UNL A   1      44.054  27.470  36.185  1.00  0.00     0.031 A 
ATOM     84  C   UNL A   1      45.543  29.044  35.115  1.00  0.00     0.131 A 
ATOM     85  C   UNL A   1      45.118  27.042  36.986  1.00  0.00     0.055 A 
ATOM     86  C   UNL A   1      46.613  28.578  35.883  1.00  0.00     0.041 A 
ATOM     87  F   UNL A   1      45.780  30.037  34.244  1.00  0.00    -0.206 F 
ATOM     88  C   UNL A   1      46.398  27.585  36.835  1.00  0.00     0.022 A 
BRANCH  85  89
ATOM     89  S   UNL A   1      44.862  25.827  38.308  1.00  0.00     0.124 S 
ATOM     90  O   UNL A   1      44.125  26.608  39.300  1.00  0.00    -0.237 OA
ATOM     91  O   UNL A   1      44.087  24.793  37.628  1.00  0.00    -0.237 OA
ATOM     92  O   UNL A   1      46.214  25.444  38.702  1.00  0.00    -0.744 OA
ENDBRANCH  85  89
ENDBRANCH  59  82
ENDBRANCH  33  34
ENDBRANCH  25  28
ENDBRANCH  23  24
ENDBRANCH   1  23
TORSDOF 16
ENDMDL
MODEL 2
REMARK VINA RESULT:     -11.8      2.392      8.070
REMARK SMILES Cc1ccc2c(c1C)O[C@@H](C(=O)NCCCCCCNC(=O)c1ccc(-c3c4nc(c(-c5cc(S(=O)(=O)[O-])ccc5F)c5ccc([nH]5)c(-c5cc(S(=O)(=O)[O-])ccc5F)c5nc(c(-c6cc(S(=O)(=O)[O-])ccc6F)c6ccc3[nH]6)C=C5)C=C4)cc1)CC2=O
REMARK SMILES IDX 18 1 17 2 16 3 15 4 14 5 13 6 11 7 12 8 10 10 1 11 2 12 3 13
REMARK SMILES IDX 7 14 4 15 6 16 8 17 5 18 9 19 87 20 86 21 88 22 19 23 20 24
REMARK SMILES IDX 21 25 22 27 23 28 24 29 85 30 25 31 84 32 26 33 27 34 28 35
REMARK SMILES IDX 78 36 29 37 83 38 77 39 79 40 30 41 82 42 76 43 75 44 31 46
REMARK SMILES IDX 63 47 43 48 62 49 44 50 47 51 61 52 80 53 45 54 46 55 60 57
REMARK SMILES IDX 81 58 48 59 32 60 33 61 41 62 34 63 40 64 42 65 39 66 35 67
REMARK SMILES IDX 36 68 37 69 38 70 64 71 65 72 73 73 66 74 72 75 74 76 71 77
REMARK SMILES IDX 67 78 68 79 69 80 70 81 49 82 50 83 58 84 51 85 57 86 59 87
REMARK SMILES IDX 56 88 52 89 53 90 54 91 55 92
REMARK H PARENT 13 9 20 26 79 45 47 56
REMARK Flexibility Score: inf
ROOT
ATOM      1  C   UNL A   1      31.418  31.720  26.506  1.00  0.00     0.021 C 
ENDROOT
BRANCH   1   2
ATOM      2  C   UNL A   1      31.415  30.234  26.137  1.00  0.00     0.002 C 
BRANCH   2   3
ATOM      3  C   UNL A   1      32.268  29.333  27.042  1.00  0.00     0.002 C 
BRANCH   3   4
ATOM      4  C   UNL A   1      31.590  28.032  27.483  1.00  0.00     0.021 C 
BRANCH   4   5
ATOM      5  C   UNL A   1      31.480  27.011  26.352  1.00  0.00     0.116 C 
BRANCH   5   6
ATOM      6  N   UNL A   1      31.433  25.651  26.834  1.00  0.00    -0.353 N 
ATOM      7  C   UNL A   1      32.069  24.519  26.438  1.00  0.00     0.261 C 
ATOM      8  O   UNL A   1      31.925  23.536  27.179  1.00  0.00    -0.271 OA
ATOM      9  H   UNL A   1      30.825  25.519  27.597  1.00  0.00     0.163 HD
BRANCH   7  10
ATOM     10  C   UNL A   1      32.871  24.373  25.116  1.00  0.00     0.269 C 
ATOM     11  C   UNL A   1      34.188  18.438  24.514  1.00  0.00     0.045 C 
ATOM     12  C   UNL A   1      34.445  19.919  24.622  1.00  0.00    -0.044 A 
ATOM     13  C   UNL A   1      35.695  20.300  25.147  1.00  0.00     0.005 A 
ATOM     14  C   UNL A   1      33.520  20.918  24.250  1.00  0.00    -0.005 A 
ATOM     15  C   UNL A   1      36.016  21.640  25.348  1.00  0.00     0.016 A 
ATOM     16  C   UNL A   1      33.823  22.268  24.541  1.00  0.00     0.134 A 
ATOM     17  C   UNL A   1      32.185  20.608  23.620  1.00  0.00     0.049 C 
ATOM     18  C   UNL A   1      35.068  22.621  25.064  1.00  0.00     0.060 A 
ATOM     19  O   UNL A   1      32.798  23.160  24.388  1.00  0.00    -0.479 OA
ATOM     20  C   UNL A   1      35.324  24.017  25.453  1.00  0.00     0.170 C 
ATOM     21  C   UNL A   1      34.244  25.016  25.185  1.00  0.00     0.136 C 
ATOM     22  O   UNL A   1      36.391  24.347  25.963  1.00  0.00    -0.294 OA
ENDBRANCH   7  10
ENDBRANCH   5   6
ENDBRANCH   4   5
ENDBRANCH   3   4
ENDBRANCH   2   3
ENDBRANCH   1   2
BRANCH   1  23
ATOM     23  C   UNL A   1      32.777  32.247  26.951  1.00  0.00     0.116 C 
BRANCH  23  24
ATOM     24  N   UNL A   1      32.675  33.603  27.477  1.00  0.00    -0.352 N 
ATOM     25  C   UNL A   1      33.332  34.167  28.538  1.00  0.00     0.251 C 
ATOM     26  H   UNL A   1      32.047  34.194  27.003  1.00  0.00     0.163 HD
ATOM     27  O   UNL A   1      32.941  35.228  29.020  1.00  0.00    -0.269 OA
BRANCH  25  28
ATOM     28  C   UNL A   1      34.514  33.487  29.093  1.00  0.00     0.039 A 
ATOM     29  C   UNL A   1      35.791  33.925  28.735  1.00  0.00     0.014 A 
ATOM     30  C   UNL A   1      34.350  32.406  29.966  1.00  0.00     0.014 A 
ATOM     31  C   UNL A   1      36.910  33.299  29.286  1.00  0.00     0.010 A 
ATOM     32  C   UNL A   1      35.462  31.826  30.561  1.00  0.00     0.010 A 
ATOM     33  C   UNL A   1      36.751  32.254  30.211  1.00  0.00    -0.014 A 
BRANCH  33  34
ATOM     34  C   UNL A   1      37.923  31.557  30.787  1.00  0.00     0.031 A 
ATOM     35  C   UNL A   1      38.384  31.909  32.173  1.00  0.00     0.074 A 
ATOM     36  C   UNL A   1      38.598  30.655  30.049  1.00  0.00     0.049 A 
ATOM     37  N   UNL A   1      39.389  31.425  32.850  1.00  0.00    -0.248 NA
ATOM     38  C   UNL A   1      37.625  32.952  32.884  1.00  0.00     0.031 C 
ATOM     39  C   UNL A   1      38.258  30.263  28.682  1.00  0.00     0.029 A 
ATOM     40  N   UNL A   1      39.712  29.911  30.344  1.00  0.00    -0.354 N 
ATOM     41  C   UNL A   1      39.392  32.110  34.059  1.00  0.00     0.074 A 
ATOM     42  C   UNL A   1      38.321  33.077  34.005  1.00  0.00     0.031 C 
ATOM     43  C   UNL A   1      39.133  29.334  28.264  1.00  0.00     0.029 A 
ATOM     44  C   UNL A   1      40.114  29.087  29.318  1.00  0.00     0.049 A 
ATOM     45  H   UNL A   1      40.181  29.961  31.208  1.00  0.00     0.167 HD
ATOM     46  C   UNL A   1      40.204  31.929  35.125  1.00  0.00     0.034 A 
ATOM     47  C   UNL A   1      41.153  28.230  29.240  1.00  0.00     0.034 A 
ATOM     48  C   UNL A   1      41.249  30.942  35.175  1.00  0.00     0.049 A 
ATOM     49  C   UNL A   1      42.052  28.057  30.439  1.00  0.00     0.074 A 
ATOM     50  C   UNL A   1      42.070  30.627  36.242  1.00  0.00     0.029 A 
ATOM     51  N   UNL A   1      41.623  30.122  34.122  1.00  0.00    -0.354 N 
ATOM     52  N   UNL A   1      41.970  28.628  31.617  1.00  0.00    -0.248 NA
ATOM     53  C   UNL A   1      43.176  27.120  30.306  1.00  0.00     0.031 C 
ATOM     54  C   UNL A   1      42.986  29.667  35.813  1.00  0.00     0.029 A 
ATOM     55  C   UNL A   1      42.689  29.327  34.503  1.00  0.00     0.049 A 
ATOM     56  H   UNL A   1      41.193  30.107  33.236  1.00  0.00     0.167 HD
ATOM     57  C   UNL A   1      43.007  28.091  32.377  1.00  0.00     0.074 A 
ATOM     58  C   UNL A   1      43.695  27.143  31.527  1.00  0.00     0.031 C 
ATOM     59  C   UNL A   1      43.353  28.361  33.661  1.00  0.00     0.034 A 
BRANCH  46  60
ATOM     60  C   UNL A   1      40.002  32.791  36.343  1.00  0.00     0.023 A 
ATOM     61  C   UNL A   1      39.101  32.381  37.342  1.00  0.00     0.031 A 
ATOM     62  C   UNL A   1      40.588  34.064  36.449  1.00  0.00     0.131 A 
ATOM     63  C   UNL A   1      38.781  33.255  38.386  1.00  0.00     0.055 A 
ATOM     64  C   UNL A   1      40.295  34.915  37.515  1.00  0.00     0.041 A 
ATOM     65  F   UNL A   1      41.455  34.496  35.519  1.00  0.00    -0.206 F 
ATOM     66  C   UNL A   1      39.377  34.517  38.482  1.00  0.00     0.022 A 
BRANCH  63  67
ATOM     67  S   UNL A   1      37.538  32.808  39.629  1.00  0.00     0.124 S 
ATOM     68  O   UNL A   1      38.077  31.555  40.156  1.00  0.00    -0.237 OA
ATOM     69  O   UNL A   1      37.599  33.946  40.541  1.00  0.00    -0.237 OA
ATOM     70  O   UNL A   1      36.306  32.675  38.861  1.00  0.00    -0.744 OA
ENDBRANCH  63  67
ENDBRANCH  46  60
BRANCH  47  71
ATOM     71  C   UNL A   1      41.340  27.418  28.003  1.00  0.00     0.023 A 
ATOM     72  C   UNL A   1      41.008  26.053  27.969  1.00  0.00     0.031 A 
ATOM     73  C   UNL A   1      41.933  27.985  26.862  1.00  0.00     0.131 A 
ATOM     74  C   UNL A   1      41.321  25.289  26.836  1.00  0.00     0.055 A 
ATOM     75  C   UNL A   1      42.186  27.235  25.713  1.00  0.00     0.041 A 
ATOM     76  F   UNL A   1      42.278  29.282  26.854  1.00  0.00    -0.206 F 
ATOM     77  C   UNL A   1      41.890  25.875  25.701  1.00  0.00     0.022 A 
BRANCH  74  78
ATOM     78  S   UNL A   1      41.086  23.491  26.834  1.00  0.00     0.124 S 
ATOM     79  O   UNL A   1      41.487  23.127  28.189  1.00  0.00    -0.237 OA
ATOM     80  O   UNL A   1      39.658  23.378  26.546  1.00  0.00    -0.237 OA
ATOM     81  O   UNL A   1      41.971  23.028  25.770  1.00  0.00    -0.744 OA
ENDBRANCH  74  78
ENDBRANCH  47  71
BRANCH  59  82
ATOM     82  C   UNL A   1      44.513  27.619  34.275  1.00  0.00     0.023 A 
ATOM     83  C   UNL A   1      44.277  26.427  34.988  1.00  0.00     0.031 A 
ATOM     84  C   UNL A   1      45.802  28.175  34.311  1.00  0.00     0.131 A 
ATOM     85  C   UNL A   1      45.303  25.858  35.751  1.00  0.00     0.055 A 
ATOM     86  C   UNL A   1      46.835  27.576  35.035  1.00  0.00     0.041 A 
ATOM     87  F   UNL A   1      46.072  29.314  33.654  1.00  0.00    -0.206 F 
ATOM     88  C   UNL A   1      46.582  26.422  35.772  1.00  0.00     0.022 A 
BRANCH  85  89
ATOM     89  S   UNL A   1      44.992  24.418  36.808  1.00  0.00     0.124 S 
ATOM     90  O   UNL A   1      44.330  23.499  35.883  1.00  0.00    -0.237 OA
ATOM     91  O   UNL A   1      46.342  24.034  37.209  1.00  0.00    -0.237 OA
ATOM     92  O   UNL A   1      44.142  24.939  37.874  1.00  0.00    -0.744 OA
ENDBRANCH  85  89
ENDBRANCH  59  82
ENDBRANCH  33  34
ENDBRANCH  25  28
ENDBRANCH  23  24
ENDBRANCH   1  23
TORSDOF 16
ENDMDL
MODEL 3
REMARK VINA RESULT:     -11.8      1.637      2.274
REMARK SMILES Cc1ccc2c(c1C)O[C@@H](C(=O)NCCCCCCNC(=O)c1ccc(-c3c4nc(c(-c5cc(S(=O)(=O)[O-])ccc5F)c5ccc([nH]5)c(-c5cc(S(=O)(=O)[O-])ccc5F)c5nc(c(-c6cc(S(=O)(=O)[O-])ccc6F)c6ccc3[nH]6)C=C5)C=C4)cc1)CC2=O
REMARK SMILES IDX 18 1 17 2 16 3 15 4 14 5 13 6 11 7 12 8 10 10 1 11 2 12 3 13
REMARK SMILES IDX 7 14 4 15 6 16 8 17 5 18 9 19 87 20 86 21 88 22 19 23 20 24
REMARK SMILES IDX 21 25 22 27 23 28 24 29 85 30 25 31 84 32 26 33 27 34 28 35
REMARK SMILES IDX 78 36 29 37 83 38 77 39 79 40 30 41 82 42 76 43 75 44 31 46
REMARK SMILES IDX 63 47 43 48 62 49 44 50 47 51 61 52 80 53 45 54 46 55 60 57
REMARK SMILES IDX 81 58 48 59 32 60 33 61 41 62 34 63 40 64 42 65 39 66 35 67
REMARK SMILES IDX 36 68 37 69 38 70 64 71 65 72 73 73 66 74 72 75 74 76 71 77
REMARK SMILES IDX 67 78 68 79 69 80 70 81 49 82 50 83 58 84 51 85 57 86 59 87
REMARK SMILES IDX 56 88 52 89 53 90 54 91 55 92
REMARK H PARENT 13 9 20 26 79 45 47 56
REMARK Flexibility Score: inf
ROOT
ATOM      1  C   UNL A   1      31.447  32.266  26.505  1.00  0.00     0.021 C 
ENDROOT
BRANCH   1   2
ATOM      2  C   UNL A   1      31.452  30.776  26.151  1.00  0.00     0.002 C 
BRANCH   2   3
ATOM      3  C   UNL A   1      32.356  29.898  27.029  1.00  0.00     0.002 C 
BRANCH   3   4
ATOM      4  C   UNL A   1      32.911  28.649  26.337  1.00  0.00     0.021 C 
BRANCH   4   5
ATOM      5  C   UNL A   1      31.858  27.917  25.507  1.00  0.00     0.116 C 
BRANCH   5   6
ATOM      6  N   UNL A   1      32.441  27.042  24.517  1.00  0.00    -0.353 N 
ATOM      7  C   UNL A   1      32.891  25.763  24.580  1.00  0.00     0.261 C 
ATOM      8  O   UNL A   1      33.188  25.245  23.494  1.00  0.00    -0.271 OA
ATOM      9  H   UNL A   1      32.528  27.451  23.626  1.00  0.00     0.163 HD
BRANCH   7  10
ATOM     10  C   UNL A   1      33.121  24.971  25.897  1.00  0.00     0.269 C 
ATOM     11  C   UNL A   1      37.603  20.974  24.776  1.00  0.00     0.045 C 
ATOM     12  C   UNL A   1      36.236  21.457  25.188  1.00  0.00    -0.044 A 
ATOM     13  C   UNL A   1      35.175  20.547  25.019  1.00  0.00     0.005 A 
ATOM     14  C   UNL A   1      35.967  22.741  25.707  1.00  0.00    -0.005 A 
ATOM     15  C   UNL A   1      33.861  20.907  25.310  1.00  0.00     0.016 A 
ATOM     16  C   UNL A   1      34.621  23.124  25.914  1.00  0.00     0.134 A 
ATOM     17  C   UNL A   1      37.046  23.759  25.984  1.00  0.00     0.049 C 
ATOM     18  C   UNL A   1      33.586  22.204  25.737  1.00  0.00     0.060 A 
ATOM     19  O   UNL A   1      34.407  24.448  26.179  1.00  0.00    -0.479 OA
ATOM     20  C   UNL A   1      32.189  22.651  25.860  1.00  0.00     0.170 C 
ATOM     21  C   UNL A   1      31.952  24.073  26.256  1.00  0.00     0.136 C 
ATOM     22  O   UNL A   1      31.257  21.877  25.659  1.00  0.00    -0.294 OA
ENDBRANCH   7  10
ENDBRANCH   5   6
ENDBRANCH   4   5
ENDBRANCH   3   4
ENDBRANCH   2   3
ENDBRANCH   1   2
BRANCH   1  23
ATOM     23  C   UNL A   1      32.662  32.719  27.307  1.00  0.00     0.116 C 
BRANCH  23  24
ATOM     24  N   UNL A   1      32.555  34.121  27.688  1.00  0.00    -0.352 N 
ATOM     25  C   UNL A   1      33.168  34.783  28.718  1.00  0.00     0.251 C 
ATOM     26  H   UNL A   1      31.959  34.668  27.127  1.00  0.00     0.163 HD
ATOM     27  O   UNL A   1      32.770  35.891  29.071  1.00  0.00    -0.269 OA
BRANCH  25  28
ATOM     28  C   UNL A   1      34.313  34.152  29.396  1.00  0.00     0.039 A 
ATOM     29  C   UNL A   1      35.609  34.404  28.939  1.00  0.00     0.014 A 
ATOM     30  C   UNL A   1      34.094  33.301  30.485  1.00  0.00     0.014 A 
ATOM     31  C   UNL A   1      36.693  33.829  29.601  1.00  0.00     0.010 A 
ATOM     32  C   UNL A   1      35.177  32.780  31.180  1.00  0.00     0.010 A 
ATOM     33  C   UNL A   1      36.483  33.023  30.733  1.00  0.00    -0.014 A 
BRANCH  33  34
ATOM     34  C   UNL A   1      37.617  32.380  31.435  1.00  0.00     0.031 A 
ATOM     35  C   UNL A   1      38.325  31.224  30.788  1.00  0.00     0.074 A 
ATOM     36  C   UNL A   1      37.972  32.799  32.664  1.00  0.00     0.049 A 
ATOM     37  N   UNL A   1      39.328  30.520  31.240  1.00  0.00    -0.248 NA
ATOM     38  C   UNL A   1      37.830  30.790  29.470  1.00  0.00     0.031 C 
ATOM     39  C   UNL A   1      37.331  33.890  33.398  1.00  0.00     0.029 A 
ATOM     40  N   UNL A   1      38.951  32.353  33.515  1.00  0.00    -0.354 N 
ATOM     41  C   UNL A   1      39.577  29.556  30.270  1.00  0.00     0.074 A 
ATOM     42  C   UNL A   1      38.591  29.732  29.230  1.00  0.00     0.031 C 
ATOM     43  C   UNL A   1      37.950  34.043  34.580  1.00  0.00     0.029 A 
ATOM     44  C   UNL A   1      39.007  33.043  34.704  1.00  0.00     0.049 A 
ATOM     45  H   UNL A   1      39.558  31.609  33.296  1.00  0.00     0.167 HD
ATOM     46  C   UNL A   1      40.556  28.624  30.245  1.00  0.00     0.034 A 
ATOM     47  C   UNL A   1      39.821  32.886  35.768  1.00  0.00     0.034 A 
ATOM     48  C   UNL A   1      41.549  28.480  31.275  1.00  0.00     0.049 A 
ATOM     49  C   UNL A   1      40.897  31.830  35.719  1.00  0.00     0.074 A 
ATOM     50  C   UNL A   1      42.631  27.620  31.298  1.00  0.00     0.029 A 
ATOM     51  N   UNL A   1      41.579  29.198  32.460  1.00  0.00    -0.354 N 
ATOM     52  N   UNL A   1      41.194  31.003  34.745  1.00  0.00    -0.248 NA
ATOM     53  C   UNL A   1      41.754  31.689  36.905  1.00  0.00     0.031 C 
ATOM     54  C   UNL A   1      43.275  27.768  32.527  1.00  0.00     0.029 A 
ATOM     55  C   UNL A   1      42.641  28.774  33.239  1.00  0.00     0.049 A 
ATOM     56  H   UNL A   1      40.941  29.906  32.709  1.00  0.00     0.167 HD
ATOM     57  C   UNL A   1      42.295  30.272  35.184  1.00  0.00     0.074 A 
ATOM     58  C   UNL A   1      42.616  30.761  36.508  1.00  0.00     0.031 C 
ATOM     59  C   UNL A   1      42.975  29.287  34.546  1.00  0.00     0.034 A 
BRANCH  46  60
ATOM     60  C   UNL A   1      40.636  27.691  29.066  1.00  0.00     0.023 A 
ATOM     61  C   UNL A   1      41.564  27.944  28.040  1.00  0.00     0.031 A 
ATOM     62  C   UNL A   1      39.714  26.644  28.894  1.00  0.00     0.131 A 
ATOM     63  C   UNL A   1      41.523  27.183  26.867  1.00  0.00     0.055 A 
ATOM     64  C   UNL A   1      39.705  25.862  27.738  1.00  0.00     0.041 A 
ATOM     65  F   UNL A   1      38.812  26.365  29.849  1.00  0.00    -0.206 F 
ATOM     66  C   UNL A   1      40.603  26.140  26.713  1.00  0.00     0.022 A 
BRANCH  63  67
ATOM     67  S   UNL A   1      42.625  27.554  25.476  1.00  0.00     0.124 S 
ATOM     68  O   UNL A   1      42.566  26.314  24.705  1.00  0.00    -0.237 OA
ATOM     69  O   UNL A   1      41.964  28.702  24.863  1.00  0.00    -0.237 OA
ATOM     70  O   UNL A   1      43.910  27.827  26.110  1.00  0.00    -0.744 OA
ENDBRANCH  63  67
ENDBRANCH  46  60
BRANCH  47  71
ATOM     71  C   UNL A   1      39.690  33.810  36.932  1.00  0.00     0.023 A 
ATOM     72  C   UNL A   1      39.147  33.374  38.152  1.00  0.00     0.031 A 
ATOM     73  C   UNL A   1      40.031  35.168  36.805  1.00  0.00     0.131 A 
ATOM     74  C   UNL A   1      38.912  34.298  39.180  1.00  0.00     0.055 A 
ATOM     75  C   UNL A   1      39.854  36.073  37.853  1.00  0.00     0.041 A 
ATOM     76  F   UNL A   1      40.541  35.631  35.654  1.00  0.00    -0.206 F 
ATOM     77  C   UNL A   1      39.280  35.641  39.044  1.00  0.00     0.022 A 
BRANCH  74  78
ATOM     78  S   UNL A   1      38.036  33.807  40.689  1.00  0.00     0.124 S 
ATOM     79  O   UNL A   1      37.904  35.078  41.395  1.00  0.00    -0.237 OA
ATOM     80  O   UNL A   1      36.798  33.253  40.147  1.00  0.00    -0.237 OA
ATOM     81  O   UNL A   1      38.932  32.834  41.307  1.00  0.00    -0.744 OA
ENDBRANCH  74  78
ENDBRANCH  47  71
BRANCH  59  82
ATOM     82  C   UNL A   1      44.164  28.660  35.230  1.00  0.00     0.023 A 
ATOM     83  C   UNL A   1      43.962  27.616  36.156  1.00  0.00     0.031 A 
ATOM     84  C   UNL A   1      45.452  29.204  35.107  1.00  0.00     0.131 A 
ATOM     85  C   UNL A   1      45.023  27.187  36.961  1.00  0.00     0.055 A 
ATOM     86  C   UNL A   1      46.518  28.739  35.879  1.00  0.00     0.041 A 
ATOM     87  F   UNL A   1      45.690  30.205  34.245  1.00  0.00    -0.206 F 
ATOM     88  C   UNL A   1      46.301  27.737  36.823  1.00  0.00     0.022 A 
BRANCH  85  89
ATOM     89  S   UNL A   1      44.763  25.962  38.273  1.00  0.00     0.124 S 
ATOM     90  O   UNL A   1      46.135  25.618  38.643  1.00  0.00    -0.237 OA
ATOM     91  O   UNL A   1      44.022  26.730  39.268  1.00  0.00    -0.237 OA
ATOM     92  O   UNL A   1      44.015  24.895  37.615  1.00  0.00    -0.744 OA
ENDBRANCH  85  89
ENDBRANCH  59  82
ENDBRANCH  33  34
ENDBRANCH  25  28
ENDBRANCH  23  24
ENDBRANCH   1  23
TORSDOF 16
ENDMDL
