MODEL 1
REMARK VINA RESULT:     -12.6      0.000      0.000
REMARK SMILES O=C(Cn1c(SCCc2ccccc2)nc2ccccc21)NCCCCCCNC(=O)c1ccc(-c2c3nc(c(-c4cc(S(=O)(=O)[O-])ccc4F)c4ccc([nH]4)c(-c4cc(S(=O)(=O)[O-])ccc4F)c4nc(c(-c5cc(S(=O)(=O)[O-])ccc5F)c5ccc2[nH]5)C=C4)C=C3)cc1
REMARK SMILES IDX 24 1 23 2 22 3 1 4 2 5 3 7 4 8 5 9 21 10 15 11 16 12 20 13
REMARK SMILES IDX 17 14 19 15 18 16 6 17 7 18 8 19 9 20 10 21 14 22 11 23
REMARK SMILES IDX 13 24 12 25 25 26 26 27 27 28 28 29 29 30 30 31 31 33 32 34
REMARK SMILES IDX 33 35 94 36 34 37 93 38 35 39 36 40 37 41 87 42 38 43 92 44
REMARK SMILES IDX 86 45 88 46 39 47 91 48 85 49 84 50 40 52 72 53 52 54 71 55
REMARK SMILES IDX 53 56 56 57 70 58 89 59 54 60 55 61 69 63 90 64 57 65 41 66
REMARK SMILES IDX 42 67 50 68 43 69 49 70 51 71 48 72 44 73 45 74 46 75 47 76
REMARK SMILES IDX 73 77 74 78 82 79 75 80 81 81 83 82 80 83 76 84 77 85 78 86
REMARK SMILES IDX 79 87 58 88 59 89 67 90 60 91 66 92 68 93 65 94 61 95 62 96
REMARK SMILES IDX 63 97 64 98
REMARK H PARENT 22 6 29 32 88 51 56 62
REMARK Flexibility Score: inf
ROOT
ATOM      1  C   UNL A   1      37.016  22.612  25.589  1.00  0.00     0.021 C 
ENDROOT
BRANCH   1   2
ATOM      2  C   UNL A   1      36.230  22.785  24.172  1.00  0.00     0.116 C 
BRANCH   2   3
ATOM      3  N   UNL A   1      34.721  23.379  23.790  1.00  0.00    -0.355 N 
ATOM      4  O   UNL A   1      34.124  25.337  22.342  1.00  0.00    -0.273 OA
ATOM      5  C   UNL A   1      33.874  24.455  23.172  1.00  0.00     0.240 C 
ATOM      6  H   UNL A   1      34.084  22.709  24.129  1.00  0.00     0.163 HD
BRANCH   5   7
ATOM      7  C   UNL A   1      32.542  24.863  23.817  1.00  0.00     0.224 C 
BRANCH   7   8
ATOM      8  N   UNL A   1      32.725  25.026  25.207  1.00  0.00    -0.309 N 
ATOM      9  C   UNL A   1      31.848  24.331  26.013  1.00  0.00     0.169 A 
ATOM     10  C   UNL A   1      32.927  26.323  25.647  1.00  0.00     0.069 A 
ATOM     11  N   UNL A   1      31.360  25.206  26.904  1.00  0.00    -0.222 NA
ATOM     12  C   UNL A   1      31.994  26.461  26.662  1.00  0.00     0.090 A 
ATOM     13  C   UNL A   1      33.603  27.398  25.029  1.00  0.00     0.028 A 
ATOM     14  C   UNL A   1      31.713  27.785  27.086  1.00  0.00     0.030 A 
ATOM     15  C   UNL A   1      33.283  28.688  25.434  1.00  0.00     0.002 A 
ATOM     16  C   UNL A   1      32.352  28.883  26.452  1.00  0.00     0.002 A 
BRANCH   9  17
ATOM     17  S   UNL A   1      31.002  22.769  25.333  1.00  0.00    -0.088 SA
BRANCH  17  18
ATOM     18  C   UNL A   1      32.208  21.467  24.033  1.00  0.00     0.083 C 
BRANCH  18  19
ATOM     19  C   UNL A   1      32.792  19.730  23.764  1.00  0.00     0.047 C 
BRANCH  19  20
ATOM     20  C   UNL A   1      33.270  18.422  24.660  1.00  0.00    -0.047 A 
ATOM     21  C   UNL A   1      34.512  17.848  24.344  1.00  0.00     0.004 A 
ATOM     22  C   UNL A   1      32.503  17.637  25.575  1.00  0.00     0.004 A 
ATOM     23  C   UNL A   1      34.796  16.499  24.651  1.00  0.00     0.000 A 
ATOM     24  C   UNL A   1      32.708  16.262  25.760  1.00  0.00     0.000 A 
ATOM     25  C   UNL A   1      33.849  15.678  25.258  1.00  0.00     0.000 A 
ENDBRANCH  19  20
ENDBRANCH  18  19
ENDBRANCH  17  18
ENDBRANCH   9  17
ENDBRANCH   7   8
ENDBRANCH   5   7
ENDBRANCH   2   3
ENDBRANCH   1   2
BRANCH   1  26
ATOM     26  C   UNL A   1      38.188  23.464  26.140  1.00  0.00     0.002 C 
BRANCH  26  27
ATOM     27  C   UNL A   1      39.342  22.729  26.826  1.00  0.00     0.002 C 
BRANCH  27  28
ATOM     28  C   UNL A   1      39.903  21.494  26.099  1.00  0.00     0.021 C 
BRANCH  28  29
ATOM     29  C   UNL A   1      41.378  21.157  26.368  1.00  0.00     0.116 C 
BRANCH  29  30
ATOM     30  N   UNL A   1      42.333  21.880  25.547  1.00  0.00    -0.352 N 
ATOM     31  C   UNL A   1      42.809  23.165  25.507  1.00  0.00     0.251 C 
ATOM     32  H   UNL A   1      42.735  21.311  24.851  1.00  0.00     0.163 HD
ATOM     33  O   UNL A   1      43.729  23.372  24.708  1.00  0.00    -0.269 OA
BRANCH  31  34
ATOM     34  C   UNL A   1      42.273  24.312  26.293  1.00  0.00     0.039 A 
ATOM     35  C   UNL A   1      41.455  25.319  25.788  1.00  0.00     0.014 A 
ATOM     36  C   UNL A   1      42.683  24.400  27.638  1.00  0.00     0.014 A 
ATOM     37  C   UNL A   1      41.168  26.444  26.553  1.00  0.00     0.010 A 
ATOM     38  C   UNL A   1      42.366  25.509  28.422  1.00  0.00     0.010 A 
ATOM     39  C   UNL A   1      41.666  26.567  27.854  1.00  0.00    -0.014 A 
BRANCH  39  40
ATOM     40  C   UNL A   1      41.428  27.837  28.541  1.00  0.00     0.031 A 
ATOM     41  C   UNL A   1      42.354  28.959  28.201  1.00  0.00     0.074 A 
ATOM     42  C   UNL A   1      40.436  28.034  29.431  1.00  0.00     0.049 A 
ATOM     43  N   UNL A   1      43.242  29.529  28.954  1.00  0.00    -0.248 NA
ATOM     44  C   UNL A   1      42.354  29.429  26.811  1.00  0.00     0.031 C 
ATOM     45  C   UNL A   1      39.269  27.196  29.721  1.00  0.00     0.029 A 
ATOM     46  N   UNL A   1      40.243  29.116  30.235  1.00  0.00    -0.354 N 
ATOM     47  C   UNL A   1      43.821  30.536  28.181  1.00  0.00     0.074 A 
ATOM     48  C   UNL A   1      43.315  30.352  26.841  1.00  0.00     0.031 C 
ATOM     49  C   UNL A   1      38.383  27.904  30.458  1.00  0.00     0.029 A 
ATOM     50  C   UNL A   1      38.998  29.165  30.835  1.00  0.00     0.049 A 
ATOM     51  H   UNL A   1      40.932  29.805  30.377  1.00  0.00     0.167 HD
ATOM     52  C   UNL A   1      44.579  31.541  28.710  1.00  0.00     0.034 A 
ATOM     53  C   UNL A   1      38.479  30.201  31.536  1.00  0.00     0.034 A 
ATOM     54  C   UNL A   1      44.995  31.254  30.052  1.00  0.00     0.049 A 
ATOM     55  C   UNL A   1      39.602  31.048  32.002  1.00  0.00     0.074 A 
ATOM     56  C   UNL A   1      45.840  30.333  30.636  1.00  0.00     0.029 A 
ATOM     57  N   UNL A   1      44.271  31.795  31.085  1.00  0.00    -0.354 N 
ATOM     58  N   UNL A   1      40.466  30.685  32.909  1.00  0.00    -0.248 NA
ATOM     59  C   UNL A   1      40.013  32.156  31.156  1.00  0.00     0.031 C 
ATOM     60  C   UNL A   1      45.240  30.025  31.890  1.00  0.00     0.029 A 
ATOM     61  C   UNL A   1      44.086  30.801  32.011  1.00  0.00     0.049 A 
ATOM     62  H   UNL A   1      43.945  32.723  31.147  1.00  0.00     0.167 HD
ATOM     63  C   UNL A   1      41.675  31.207  32.471  1.00  0.00     0.074 A 
ATOM     64  C   UNL A   1      41.314  32.189  31.451  1.00  0.00     0.031 C 
ATOM     65  C   UNL A   1      42.868  30.613  32.776  1.00  0.00     0.034 A 
BRANCH  52  66
ATOM     66  C   UNL A   1      44.742  32.907  28.089  1.00  0.00     0.023 A 
ATOM     67  C   UNL A   1      43.758  33.905  28.204  1.00  0.00     0.031 A 
ATOM     68  C   UNL A   1      45.977  33.321  27.547  1.00  0.00     0.131 A 
ATOM     69  C   UNL A   1      43.985  35.216  27.768  1.00  0.00     0.055 A 
ATOM     70  C   UNL A   1      46.229  34.649  27.174  1.00  0.00     0.041 A 
ATOM     71  F   UNL A   1      46.996  32.459  27.408  1.00  0.00    -0.206 F 
ATOM     72  C   UNL A   1      45.227  35.605  27.279  1.00  0.00     0.022 A 
BRANCH  69  73
ATOM     73  S   UNL A   1      42.652  36.445  27.828  1.00  0.00     0.124 S 
ATOM     74  O   UNL A   1      42.639  36.939  26.457  1.00  0.00    -0.237 OA
ATOM     75  O   UNL A   1      41.510  35.628  28.222  1.00  0.00    -0.237 OA
ATOM     76  O   UNL A   1      43.113  37.391  28.847  1.00  0.00    -0.744 OA
ENDBRANCH  69  73
ENDBRANCH  52  66
BRANCH  53  77
ATOM     77  C   UNL A   1      37.126  30.757  31.307  1.00  0.00     0.023 A 
ATOM     78  C   UNL A   1      36.631  30.861  29.992  1.00  0.00     0.031 A 
ATOM     79  C   UNL A   1      36.448  31.460  32.315  1.00  0.00     0.131 A 
ATOM     80  C   UNL A   1      35.532  31.678  29.708  1.00  0.00     0.055 A 
ATOM     81  C   UNL A   1      35.337  32.262  32.031  1.00  0.00     0.041 A 
ATOM     82  F   UNL A   1      36.892  31.429  33.581  1.00  0.00    -0.206 F 
ATOM     83  C   UNL A   1      34.883  32.387  30.721  1.00  0.00     0.022 A 
BRANCH  80  84
ATOM     84  S   UNL A   1      34.974  31.904  27.998  1.00  0.00     0.124 S 
ATOM     85  O   UNL A   1      35.530  30.725  27.335  1.00  0.00    -0.237 OA
ATOM     86  O   UNL A   1      33.524  31.907  28.157  1.00  0.00    -0.237 OA
ATOM     87  O   UNL A   1      35.576  33.173  27.604  1.00  0.00    -0.744 OA
ENDBRANCH  80  84
ENDBRANCH  53  77
BRANCH  65  88
ATOM     88  C   UNL A   1      42.886  29.483  33.785  1.00  0.00     0.023 A 
ATOM     89  C   UNL A   1      43.431  29.745  35.056  1.00  0.00     0.031 A 
ATOM     90  C   UNL A   1      42.611  28.140  33.465  1.00  0.00     0.131 A 
ATOM     91  C   UNL A   1      43.713  28.693  35.938  1.00  0.00     0.055 A 
ATOM     92  C   UNL A   1      42.830  27.099  34.374  1.00  0.00     0.041 A 
ATOM     93  F   UNL A   1      42.208  27.780  32.240  1.00  0.00    -0.206 F 
ATOM     94  C   UNL A   1      43.399  27.371  35.612  1.00  0.00     0.022 A 
BRANCH  91  95
ATOM     95  S   UNL A   1      44.642  28.995  37.464  1.00  0.00     0.124 S 
ATOM     96  O   UNL A   1      45.976  29.302  36.958  1.00  0.00    -0.237 OA
ATOM     97  O   UNL A   1      43.919  30.123  38.048  1.00  0.00    -0.237 OA
ATOM     98  O   UNL A   1      44.527  27.741  38.203  1.00  0.00    -0.744 OA
ENDBRANCH  91  95
ENDBRANCH  65  88
ENDBRANCH  39  40
ENDBRANCH  31  34
ENDBRANCH  29  30
ENDBRANCH  28  29
ENDBRANCH  27  28
ENDBRANCH  26  27
ENDBRANCH   1  26
TORSDOF 21
ENDMDL
MODEL 2
REMARK VINA RESULT:     -12.3      1.367      4.288
REMARK SMILES O=C(Cn1c(SCCc2ccccc2)nc2ccccc21)NCCCCCCNC(=O)c1ccc(-c2c3nc(c(-c4cc(S(=O)(=O)[O-])ccc4F)c4ccc([nH]4)c(-c4cc(S(=O)(=O)[O-])ccc4F)c4nc(c(-c5cc(S(=O)(=O)[O-])ccc5F)c5ccc2[nH]5)C=C4)C=C3)cc1
REMARK SMILES IDX 24 1 23 2 22 3 1 4 2 5 3 7 4 8 5 9 21 10 15 11 16 12 20 13
REMARK SMILES IDX 17 14 19 15 18 16 6 17 7 18 8 19 9 20 10 21 14 22 11 23
REMARK SMILES IDX 13 24 12 25 25 26 26 27 27 28 28 29 29 30 30 31 31 33 32 34
REMARK SMILES IDX 33 35 94 36 34 37 93 38 35 39 36 40 37 41 87 42 38 43 92 44
REMARK SMILES IDX 86 45 88 46 39 47 91 48 85 49 84 50 40 52 72 53 52 54 71 55
REMARK SMILES IDX 53 56 56 57 70 58 89 59 54 60 55 61 69 63 90 64 57 65 41 66
REMARK SMILES IDX 42 67 50 68 43 69 49 70 51 71 48 72 44 73 45 74 46 75 47 76
REMARK SMILES IDX 73 77 74 78 82 79 75 80 81 81 83 82 80 83 76 84 77 85 78 86
REMARK SMILES IDX 79 87 58 88 59 89 67 90 60 91 66 92 68 93 65 94 61 95 62 96
REMARK SMILES IDX 63 97 64 98
REMARK H PARENT 22 6 29 32 88 51 56 62
REMARK Flexibility Score: inf
ROOT
ATOM      1  C   UNL A   1      38.119  23.656  26.150  1.00  0.00     0.021 C 
ENDROOT
BRANCH   1   2
ATOM      2  C   UNL A   1      37.243  22.346  25.736  1.00  0.00     0.116 C 
BRANCH   2   3
ATOM      3  N   UNL A   1      35.620  21.993  25.866  1.00  0.00    -0.355 N 
ATOM      4  O   UNL A   1      34.222  21.768  27.935  1.00  0.00    -0.273 OA
ATOM      5  C   UNL A   1      34.439  21.640  26.725  1.00  0.00     0.240 C 
ATOM      6  H   UNL A   1      35.269  22.035  24.947  1.00  0.00     0.163 HD
BRANCH   5   7
ATOM      7  C   UNL A   1      33.377  20.653  26.219  1.00  0.00     0.224 C 
BRANCH   7   8
ATOM      8  N   UNL A   1      33.417  20.602  24.809  1.00  0.00    -0.309 N 
ATOM      9  C   UNL A   1      32.314  21.115  24.159  1.00  0.00     0.169 A 
ATOM     10  C   UNL A   1      33.846  19.409  24.254  1.00  0.00     0.069 A 
ATOM     11  N   UNL A   1      31.926  20.195  23.264  1.00  0.00    -0.222 NA
ATOM     12  C   UNL A   1      32.848  19.108  23.341  1.00  0.00     0.090 A 
ATOM     13  C   UNL A   1      34.814  18.489  24.712  1.00  0.00     0.028 A 
ATOM     14  C   UNL A   1      32.817  17.777  22.853  1.00  0.00     0.030 A 
ATOM     15  C   UNL A   1      34.741  17.181  24.249  1.00  0.00     0.002 A 
ATOM     16  C   UNL A   1      33.759  16.826  23.329  1.00  0.00     0.002 A 
BRANCH   9  17
ATOM     17  S   UNL A   1      31.234  22.408  25.042  1.00  0.00    -0.088 SA
BRANCH  17  18
ATOM     18  C   UNL A   1      32.190  24.319  25.564  1.00  0.00     0.083 C 
BRANCH  18  19
ATOM     19  C   UNL A   1      32.526  26.044  24.981  1.00  0.00     0.047 C 
BRANCH  19  20
ATOM     20  C   UNL A   1      31.771  27.237  24.113  1.00  0.00    -0.047 A 
ATOM     21  C   UNL A   1      31.900  28.552  24.587  1.00  0.00     0.004 A 
ATOM     22  C   UNL A   1      30.811  27.106  23.064  1.00  0.00     0.004 A 
ATOM     23  C   UNL A   1      30.943  29.542  24.271  1.00  0.00     0.000 A 
ATOM     24  C   UNL A   1      29.776  28.031  22.857  1.00  0.00     0.000 A 
ATOM     25  C   UNL A   1      29.822  29.248  23.498  1.00  0.00     0.000 A 
ENDBRANCH  19  20
ENDBRANCH  18  19
ENDBRANCH  17  18
ENDBRANCH   9  17
ENDBRANCH   7   8
ENDBRANCH   5   7
ENDBRANCH   2   3
ENDBRANCH   1   2
BRANCH   1  26
ATOM     26  C   UNL A   1      39.259  23.749  27.196  1.00  0.00     0.002 C 
BRANCH  26  27
ATOM     27  C   UNL A   1      40.095  22.492  27.451  1.00  0.00     0.002 C 
BRANCH  27  28
ATOM     28  C   UNL A   1      40.577  21.721  26.209  1.00  0.00     0.021 C 
BRANCH  28  29
ATOM     29  C   UNL A   1      42.061  21.322  26.188  1.00  0.00     0.116 C 
BRANCH  29  30
ATOM     30  N   UNL A   1      42.896  22.112  25.300  1.00  0.00    -0.352 N 
ATOM     31  C   UNL A   1      43.258  23.431  25.216  1.00  0.00     0.251 C 
ATOM     32  H   UNL A   1      43.299  21.568  24.584  1.00  0.00     0.163 HD
ATOM     33  O   UNL A   1      44.102  23.703  24.357  1.00  0.00    -0.269 OA
BRANCH  31  34
ATOM     34  C   UNL A   1      42.678  24.540  26.026  1.00  0.00     0.039 A 
ATOM     35  C   UNL A   1      41.821  25.525  25.542  1.00  0.00     0.014 A 
ATOM     36  C   UNL A   1      43.086  24.616  27.373  1.00  0.00     0.014 A 
ATOM     37  C   UNL A   1      41.492  26.622  26.330  1.00  0.00     0.010 A 
ATOM     38  C   UNL A   1      42.727  25.696  28.180  1.00  0.00     0.010 A 
ATOM     39  C   UNL A   1      41.986  26.737  27.634  1.00  0.00    -0.014 A 
BRANCH  39  40
ATOM     40  C   UNL A   1      41.699  27.983  28.347  1.00  0.00     0.031 A 
ATOM     41  C   UNL A   1      42.571  29.151  28.018  1.00  0.00     0.074 A 
ATOM     42  C   UNL A   1      40.710  28.120  29.250  1.00  0.00     0.049 A 
ATOM     43  N   UNL A   1      43.441  29.746  28.773  1.00  0.00    -0.248 NA
ATOM     44  C   UNL A   1      42.536  29.646  26.637  1.00  0.00     0.031 C 
ATOM     45  C   UNL A   1      39.584  27.226  29.536  1.00  0.00     0.029 A 
ATOM     46  N   UNL A   1      40.478  29.177  30.077  1.00  0.00    -0.354 N 
ATOM     47  C   UNL A   1      43.967  30.792  28.013  1.00  0.00     0.074 A 
ATOM     48  C   UNL A   1      43.455  30.610  26.675  1.00  0.00     0.031 C 
ATOM     49  C   UNL A   1      38.675  27.880  30.295  1.00  0.00     0.029 A 
ATOM     50  C   UNL A   1      39.238  29.160  30.689  1.00  0.00     0.049 A 
ATOM     51  H   UNL A   1      41.137  29.893  30.224  1.00  0.00     0.167 HD
ATOM     52  C   UNL A   1      44.685  31.819  28.553  1.00  0.00     0.034 A 
ATOM     53  C   UNL A   1      38.682  30.159  31.415  1.00  0.00     0.034 A 
ATOM     54  C   UNL A   1      45.129  31.526  29.885  1.00  0.00     0.049 A 
ATOM     55  C   UNL A   1      39.772  31.046  31.886  1.00  0.00     0.074 A 
ATOM     56  C   UNL A   1      46.020  30.633  30.443  1.00  0.00     0.029 A 
ATOM     57  N   UNL A   1      44.392  32.016  30.935  1.00  0.00    -0.354 N 
ATOM     58  N   UNL A   1      40.661  30.705  32.777  1.00  0.00    -0.248 NA
ATOM     59  C   UNL A   1      40.124  32.187  31.056  1.00  0.00     0.031 C 
ATOM     60  C   UNL A   1      45.448  30.276  31.698  1.00  0.00     0.029 A 
ATOM     61  C   UNL A   1      44.262  30.998  31.844  1.00  0.00     0.049 A 
ATOM     62  H   UNL A   1      44.027  32.927  31.018  1.00  0.00     0.167 HD
ATOM     63  C   UNL A   1      41.841  31.288  32.336  1.00  0.00     0.074 A 
ATOM     64  C   UNL A   1      41.425  32.272  31.339  1.00  0.00     0.031 C 
ATOM     65  C   UNL A   1      43.062  30.743  32.618  1.00  0.00     0.034 A 
BRANCH  52  66
ATOM     66  C   UNL A   1      44.782  33.202  27.956  1.00  0.00     0.023 A 
ATOM     67  C   UNL A   1      43.804  34.187  28.185  1.00  0.00     0.031 A 
ATOM     68  C   UNL A   1      45.959  33.642  27.317  1.00  0.00     0.131 A 
ATOM     69  C   UNL A   1      43.980  35.511  27.765  1.00  0.00     0.055 A 
ATOM     70  C   UNL A   1      46.166  34.982  26.958  1.00  0.00     0.041 A 
ATOM     71  F   UNL A   1      46.968  32.794  27.064  1.00  0.00    -0.206 F 
ATOM     72  C   UNL A   1      45.170  35.925  27.177  1.00  0.00     0.022 A 
BRANCH  69  73
ATOM     73  S   UNL A   1      42.649  36.725  27.977  1.00  0.00     0.124 S 
ATOM     74  O   UNL A   1      41.476  35.868  28.077  1.00  0.00    -0.237 OA
ATOM     75  O   UNL A   1      43.053  37.400  29.205  1.00  0.00    -0.237 OA
ATOM     76  O   UNL A   1      42.745  37.542  26.765  1.00  0.00    -0.744 OA
ENDBRANCH  69  73
ENDBRANCH  52  66
BRANCH  53  77
ATOM     77  C   UNL A   1      37.303  30.658  31.210  1.00  0.00     0.023 A 
ATOM     78  C   UNL A   1      36.827  30.863  29.900  1.00  0.00     0.031 A 
ATOM     79  C   UNL A   1      36.569  31.220  32.266  1.00  0.00     0.131 A 
ATOM     80  C   UNL A   1      35.687  31.641  29.672  1.00  0.00     0.055 A 
ATOM     81  C   UNL A   1      35.418  31.983  32.036  1.00  0.00     0.041 A 
ATOM     82  F   UNL A   1      36.992  31.090  33.532  1.00  0.00    -0.206 F 
ATOM     83  C   UNL A   1      34.980  32.210  30.734  1.00  0.00     0.022 A 
BRANCH  80  84
ATOM     84  S   UNL A   1      35.146  32.003  27.979  1.00  0.00     0.124 S 
ATOM     85  O   UNL A   1      35.455  30.753  27.286  1.00  0.00    -0.237 OA
ATOM     86  O   UNL A   1      33.727  32.278  28.174  1.00  0.00    -0.237 OA
ATOM     87  O   UNL A   1      35.970  33.143  27.591  1.00  0.00    -0.744 OA
ENDBRANCH  80  84
ENDBRANCH  53  77
BRANCH  65  88
ATOM     88  C   UNL A   1      43.141  29.596  33.605  1.00  0.00     0.023 A 
ATOM     89  C   UNL A   1      43.555  29.887  34.919  1.00  0.00     0.031 A 
ATOM     90  C   UNL A   1      43.053  28.238  33.242  1.00  0.00     0.131 A 
ATOM     91  C   UNL A   1      43.896  28.852  35.801  1.00  0.00     0.055 A 
ATOM     92  C   UNL A   1      43.328  27.207  34.146  1.00  0.00     0.041 A 
ATOM     93  F   UNL A   1      42.787  27.867  31.983  1.00  0.00    -0.206 F 
ATOM     94  C   UNL A   1      43.767  27.511  35.429  1.00  0.00     0.022 A 
BRANCH  91  95
ATOM     95  S   UNL A   1      44.667  29.221  37.398  1.00  0.00     0.124 S 
ATOM     96  O   UNL A   1      44.532  27.952  38.107  1.00  0.00    -0.237 OA
ATOM     97  O   UNL A   1      46.029  29.579  37.009  1.00  0.00    -0.237 OA
ATOM     98  O   UNL A   1      43.868  30.322  37.930  1.00  0.00    -0.744 OA
ENDBRANCH  91  95
ENDBRANCH  65  88
ENDBRANCH  39  40
ENDBRANCH  31  34
ENDBRANCH  29  30
ENDBRANCH  28  29
ENDBRANCH  27  28
ENDBRANCH  26  27
ENDBRANCH   1  26
TORSDOF 21
ENDMDL
MODEL 3
REMARK VINA RESULT:     -12.2      3.269      9.217
REMARK SMILES O=C(Cn1c(SCCc2ccccc2)nc2ccccc21)NCCCCCCNC(=O)c1ccc(-c2c3nc(c(-c4cc(S(=O)(=O)[O-])ccc4F)c4ccc([nH]4)c(-c4cc(S(=O)(=O)[O-])ccc4F)c4nc(c(-c5cc(S(=O)(=O)[O-])ccc5F)c5ccc2[nH]5)C=C4)C=C3)cc1
REMARK SMILES IDX 24 1 23 2 22 3 1 4 2 5 3 7 4 8 5 9 21 10 15 11 16 12 20 13
REMARK SMILES IDX 17 14 19 15 18 16 6 17 7 18 8 19 9 20 10 21 14 22 11 23
REMARK SMILES IDX 13 24 12 25 25 26 26 27 27 28 28 29 29 30 30 31 31 33 32 34
REMARK SMILES IDX 33 35 94 36 34 37 93 38 35 39 36 40 37 41 87 42 38 43 92 44
REMARK SMILES IDX 86 45 88 46 39 47 91 48 85 49 84 50 40 52 72 53 52 54 71 55
REMARK SMILES IDX 53 56 56 57 70 58 89 59 54 60 55 61 69 63 90 64 57 65 41 66
REMARK SMILES IDX 42 67 50 68 43 69 49 70 51 71 48 72 44 73 45 74 46 75 47 76
REMARK SMILES IDX 73 77 74 78 82 79 75 80 81 81 83 82 80 83 76 84 77 85 78 86
REMARK SMILES IDX 79 87 58 88 59 89 67 90 60 91 66 92 68 93 65 94 61 95 62 96
REMARK SMILES IDX 63 97 64 98
REMARK H PARENT 22 6 29 32 88 51 56 62
REMARK Flexibility Score: inf
ROOT
ATOM      1  C   UNL A   1      33.340  27.687  24.646  1.00  0.00     0.021 C 
ENDROOT
BRANCH   1   2
ATOM      2  C   UNL A   1      33.332  26.746  25.977  1.00  0.00     0.116 C 
BRANCH   2   3
ATOM      3  N   UNL A   1      33.846  25.186  26.253  1.00  0.00    -0.355 N 
ATOM      4  O   UNL A   1      35.482  23.815  24.937  1.00  0.00    -0.273 OA
ATOM      5  C   UNL A   1      34.598  23.972  25.786  1.00  0.00     0.240 C 
ATOM      6  H   UNL A   1      33.489  24.946  27.138  1.00  0.00     0.163 HD
BRANCH   5   7
ATOM      7  C   UNL A   1      34.064  22.564  26.087  1.00  0.00     0.224 C 
BRANCH   7   8
ATOM      8  N   UNL A   1      33.748  21.913  24.875  1.00  0.00    -0.309 N 
ATOM      9  C   UNL A   1      32.404  21.763  24.608  1.00  0.00     0.169 A 
ATOM     10  C   UNL A   1      34.471  20.766  24.593  1.00  0.00     0.069 A 
ATOM     11  N   UNL A   1      32.212  20.476  24.283  1.00  0.00    -0.222 NA
ATOM     12  C   UNL A   1      33.485  19.834  24.309  1.00  0.00     0.090 A 
ATOM     13  C   UNL A   1      35.817  20.447  24.876  1.00  0.00     0.028 A 
ATOM     14  C   UNL A   1      33.883  18.473  24.314  1.00  0.00     0.030 A 
ATOM     15  C   UNL A   1      36.174  19.104  24.914  1.00  0.00     0.002 A 
ATOM     16  C   UNL A   1      35.223  18.126  24.634  1.00  0.00     0.002 A 
BRANCH   9  17
ATOM     17  S   UNL A   1      31.160  22.959  25.407  1.00  0.00    -0.088 SA
BRANCH  17  18
ATOM     18  C   UNL A   1      30.468  24.647  24.178  1.00  0.00     0.083 C 
BRANCH  18  19
ATOM     19  C   UNL A   1      30.078  26.457  24.185  1.00  0.00     0.047 C 
BRANCH  19  20
ATOM     20  C   UNL A   1      29.173  27.542  23.320  1.00  0.00    -0.047 A 
ATOM     21  C   UNL A   1      29.870  28.500  22.567  1.00  0.00     0.004 A 
ATOM     22  C   UNL A   1      27.770  27.797  23.398  1.00  0.00     0.004 A 
ATOM     23  C   UNL A   1      29.276  29.734  22.220  1.00  0.00     0.000 A 
ATOM     24  C   UNL A   1      27.212  29.068  23.190  1.00  0.00     0.000 A 
ATOM     25  C   UNL A   1      27.985  30.059  22.630  1.00  0.00     0.000 A 
ENDBRANCH  19  20
ENDBRANCH  18  19
ENDBRANCH  17  18
ENDBRANCH   9  17
ENDBRANCH   7   8
ENDBRANCH   5   7
ENDBRANCH   2   3
ENDBRANCH   1   2
BRANCH   1  26
ATOM     26  C   UNL A   1      33.079  29.212  24.555  1.00  0.00     0.002 C 
BRANCH  26  27
ATOM     27  C   UNL A   1      31.939  29.791  25.396  1.00  0.00     0.002 C 
BRANCH  27  28
ATOM     28  C   UNL A   1      32.235  30.027  26.888  1.00  0.00     0.021 C 
BRANCH  28  29
ATOM     29  C   UNL A   1      33.717  30.143  27.279  1.00  0.00     0.116 C 
BRANCH  29  30
ATOM     30  N   UNL A   1      34.197  31.501  27.470  1.00  0.00    -0.352 N 
ATOM     31  C   UNL A   1      35.372  32.072  27.882  1.00  0.00     0.251 C 
ATOM     32  H   UNL A   1      33.511  32.173  27.249  1.00  0.00     0.163 HD
ATOM     33  O   UNL A   1      35.428  33.303  27.801  1.00  0.00    -0.269 OA
BRANCH  31  34
ATOM     34  C   UNL A   1      36.534  31.339  28.461  1.00  0.00     0.039 A 
ATOM     35  C   UNL A   1      37.697  31.932  28.946  1.00  0.00     0.014 A 
ATOM     36  C   UNL A   1      36.456  29.932  28.457  1.00  0.00     0.014 A 
ATOM     37  C   UNL A   1      38.796  31.151  29.286  1.00  0.00     0.010 A 
ATOM     38  C   UNL A   1      37.543  29.144  28.834  1.00  0.00     0.010 A 
ATOM     39  C   UNL A   1      38.741  29.758  29.181  1.00  0.00    -0.014 A 
BRANCH  39  40
ATOM     40  C   UNL A   1      39.981  29.022  29.432  1.00  0.00     0.031 A 
ATOM     41  C   UNL A   1      40.515  29.079  30.826  1.00  0.00     0.074 A 
ATOM     42  C   UNL A   1      40.635  28.310  28.494  1.00  0.00     0.049 A 
ATOM     43  N   UNL A   1      41.597  29.650  31.253  1.00  0.00    -0.248 NA
ATOM     44  C   UNL A   1      39.675  28.514  31.889  1.00  0.00     0.031 C 
ATOM     45  C   UNL A   1      40.183  27.892  27.164  1.00  0.00     0.029 A 
ATOM     46  N   UNL A   1      41.868  27.740  28.592  1.00  0.00    -0.354 N 
ATOM     47  C   UNL A   1      41.659  29.395  32.624  1.00  0.00     0.074 A 
ATOM     48  C   UNL A   1      40.396  28.790  32.976  1.00  0.00     0.031 C 
ATOM     49  C   UNL A   1      41.027  26.952  26.680  1.00  0.00     0.029 A 
ATOM     50  C   UNL A   1      42.161  26.841  27.582  1.00  0.00     0.049 A 
ATOM     51  H   UNL A   1      42.496  27.949  29.320  1.00  0.00     0.167 HD
ATOM     52  C   UNL A   1      42.792  29.573  33.366  1.00  0.00     0.034 A 
ATOM     53  C   UNL A   1      43.229  26.010  27.525  1.00  0.00     0.034 A 
ATOM     54  C   UNL A   1      43.770  30.363  32.676  1.00  0.00     0.049 A 
ATOM     55  C   UNL A   1      44.283  26.556  28.414  1.00  0.00     0.074 A 
ATOM     56  C   UNL A   1      43.851  31.678  32.269  1.00  0.00     0.029 A 
ATOM     57  N   UNL A   1      44.783  29.710  32.018  1.00  0.00    -0.354 N 
ATOM     58  N   UNL A   1      44.947  27.653  28.175  1.00  0.00    -0.248 NA
ATOM     59  C   UNL A   1      44.316  26.093  29.792  1.00  0.00     0.031 C 
ATOM     60  C   UNL A   1      44.573  31.641  31.042  1.00  0.00     0.029 A 
ATOM     61  C   UNL A   1      44.918  30.310  30.793  1.00  0.00     0.049 A 
ATOM     62  H   UNL A   1      45.311  28.953  32.362  1.00  0.00     0.167 HD
ATOM     63  C   UNL A   1      45.105  28.245  29.420  1.00  0.00     0.074 A 
ATOM     64  C   UNL A   1      44.794  27.190  30.381  1.00  0.00     0.031 C 
ATOM     65  C   UNL A   1      45.212  29.600  29.563  1.00  0.00     0.034 A 
BRANCH  52  66
ATOM     66  C   UNL A   1      43.110  28.819  34.634  1.00  0.00     0.023 A 
ATOM     67  C   UNL A   1      43.133  27.413  34.684  1.00  0.00     0.031 A 
ATOM     68  C   UNL A   1      43.609  29.483  35.774  1.00  0.00     0.131 A 
ATOM     69  C   UNL A   1      43.588  26.725  35.816  1.00  0.00     0.055 A 
ATOM     70  C   UNL A   1      44.128  28.795  36.880  1.00  0.00     0.041 A 
ATOM     71  F   UNL A   1      43.653  30.823  35.830  1.00  0.00    -0.206 F 
ATOM     72  C   UNL A   1      44.114  27.406  36.908  1.00  0.00     0.022 A 
BRANCH  69  73
ATOM     73  S   UNL A   1      43.494  24.915  35.887  1.00  0.00     0.124 S 
ATOM     74  O   UNL A   1      44.399  24.526  34.814  1.00  0.00    -0.237 OA
ATOM     75  O   UNL A   1      43.960  24.645  37.243  1.00  0.00    -0.237 OA
ATOM     76  O   UNL A   1      42.073  24.643  35.659  1.00  0.00    -0.744 OA
ENDBRANCH  69  73
ENDBRANCH  52  66
BRANCH  53  77
ATOM     77  C   UNL A   1      43.134  24.563  27.226  1.00  0.00     0.023 A 
ATOM     78  C   UNL A   1      44.088  23.966  26.378  1.00  0.00     0.031 A 
ATOM     79  C   UNL A   1      41.966  23.838  27.505  1.00  0.00     0.131 A 
ATOM     80  C   UNL A   1      43.844  22.714  25.804  1.00  0.00     0.055 A 
ATOM     81  C   UNL A   1      41.731  22.577  26.943  1.00  0.00     0.041 A 
ATOM     82  F   UNL A   1      41.004  24.369  28.275  1.00  0.00    -0.206 F 
ATOM     83  C   UNL A   1      42.665  22.016  26.076  1.00  0.00     0.022 A 
BRANCH  80  84
ATOM     84  S   UNL A   1      45.018  22.003  24.620  1.00  0.00     0.124 S 
ATOM     85  O   UNL A   1      44.270  20.862  24.093  1.00  0.00    -0.237 OA
ATOM     86  O   UNL A   1      45.210  23.110  23.691  1.00  0.00    -0.237 OA
ATOM     87  O   UNL A   1      46.171  21.655  25.445  1.00  0.00    -0.744 OA
ENDBRANCH  80  84
ENDBRANCH  53  77
BRANCH  65  88
ATOM     88  C   UNL A   1      45.370  30.457  28.324  1.00  0.00     0.023 A 
ATOM     89  C   UNL A   1      46.642  30.996  28.055  1.00  0.00     0.031 A 
ATOM     90  C   UNL A   1      44.291  30.937  27.557  1.00  0.00     0.131 A 
ATOM     91  C   UNL A   1      46.799  31.995  27.084  1.00  0.00     0.055 A 
ATOM     92  C   UNL A   1      44.463  31.884  26.541  1.00  0.00     0.041 A 
ATOM     93  F   UNL A   1      43.029  30.575  27.822  1.00  0.00    -0.206 F 
ATOM     94  C   UNL A   1      45.719  32.429  26.311  1.00  0.00     0.022 A 
BRANCH  91  95
ATOM     95  S   UNL A   1      48.376  32.868  26.909  1.00  0.00     0.124 S 
ATOM     96  O   UNL A   1      48.068  33.863  25.886  1.00  0.00    -0.237 OA
ATOM     97  O   UNL A   1      48.588  33.398  28.254  1.00  0.00    -0.237 OA
ATOM     98  O   UNL A   1      49.315  31.825  26.503  1.00  0.00    -0.744 OA
ENDBRANCH  91  95
ENDBRANCH  65  88
ENDBRANCH  39  40
ENDBRANCH  31  34
ENDBRANCH  29  30
ENDBRANCH  28  29
ENDBRANCH  27  28
ENDBRANCH  26  27
ENDBRANCH   1  26
TORSDOF 21
ENDMDL
