MODEL 1
REMARK VINA RESULT:     -12.0      0.000      0.000
REMARK SMILES CCOc1ccc2[nH]c(C)c/c(=N\c3cccc(C(=O)NCCCCCCNC(=O)c4ccc(-c5c6nc(c(-c7cc(S(=O)(=O)[O-])ccc7F)c7ccc([nH]7)c(-c7cc(S(=O)(=O)[O-])ccc7F)c7nc(c(-c8cc(S(=O)(=O)[O-])ccc8F)c8ccc5[nH]8)C=C7)C=C6)cc4)c3)c2c1
REMARK SMILES IDX 24 1 23 2 22 3 21 4 19 5 20 6 18 8 14 9 15 10 94 11 16 12
REMARK SMILES IDX 17 13 13 14 4 15 5 16 96 17 6 18 95 19 7 20 12 21 8 22 11 23
REMARK SMILES IDX 9 24 10 26 3 27 2 28 1 29 25 30 26 31 27 32 28 33 29 34
REMARK SMILES IDX 30 36 31 37 32 38 93 39 33 40 92 41 34 42 35 43 36 44 86 45
REMARK SMILES IDX 37 46 91 47 85 48 87 49 38 50 90 51 84 52 83 53 39 55 71 56
REMARK SMILES IDX 51 57 70 58 52 59 55 60 69 61 88 62 53 63 54 64 68 66 89 67
REMARK SMILES IDX 56 68 40 69 41 70 49 71 42 72 48 73 50 74 47 75 43 76 44 77
REMARK SMILES IDX 45 78 46 79 72 80 73 81 81 82 74 83 80 84 82 85 79 86 75 87
REMARK SMILES IDX 76 88 77 89 78 90 57 91 58 92 66 93 59 94 65 95 67 96 64 97
REMARK SMILES IDX 60 98 61 99 62 100 63 101
REMARK H PARENT 21 7 8 25 28 35 87 54 55 65
REMARK Flexibility Score: inf
ROOT
ATOM      1  C   UNL A   1      35.622  21.128  25.647  1.00  0.00     0.002 C 
ENDROOT
BRANCH   1   2
ATOM      2  C   UNL A   1      35.276  22.482  26.263  1.00  0.00     0.021 C 
BRANCH   2   3
ATOM      3  C   UNL A   1      33.983  22.589  27.064  1.00  0.00     0.116 C 
BRANCH   3   4
ATOM      4  N   UNL A   1      32.895  21.753  26.594  1.00  0.00    -0.352 N 
ATOM      5  C   UNL A   1      32.232  21.719  25.385  1.00  0.00     0.251 C 
ATOM      6  O   UNL A   1      31.342  20.880  25.240  1.00  0.00    -0.269 OA
ATOM      7  H   UNL A   1      32.573  21.096  27.252  1.00  0.00     0.163 HD
BRANCH   5   8
ATOM      8  C   UNL A   1      32.490  22.691  24.281  1.00  0.00     0.041 A 
ATOM      9  C   UNL A   1      32.085  24.791  23.139  1.00  0.00     0.064 A 
ATOM     10  C   UNL A   1      32.808  24.345  22.031  1.00  0.00     0.028 A 
ATOM     11  C   UNL A   1      32.054  24.014  24.297  1.00  0.00     0.042 A 
ATOM     12  C   UNL A   1      33.360  23.064  22.035  1.00  0.00     0.003 A 
ATOM     13  C   UNL A   1      33.167  22.228  23.141  1.00  0.00     0.014 A 
BRANCH   9  14
ATOM     14  N   UNL A   1      31.258  25.928  23.105  1.00  0.00    -0.248 NA
ATOM     15  C   UNL A   1      29.229  29.655  22.513  1.00  0.00     0.120 A 
ATOM     16  C   UNL A   1      29.441  30.671  23.442  1.00  0.00     0.048 A 
ATOM     17  C   UNL A   1      29.891  28.432  22.637  1.00  0.00     0.059 A 
ATOM     18  C   UNL A   1      30.378  30.503  24.460  1.00  0.00     0.030 A 
ATOM     19  C   UNL A   1      30.826  28.256  23.666  1.00  0.00     0.027 A 
ATOM     20  C   UNL A   1      31.087  29.304  24.572  1.00  0.00     0.048 A 
ATOM     21  C   UNL A   1      31.600  26.977  23.808  1.00  0.00     0.075 A 
ATOM     22  N   UNL A   1      32.068  29.168  25.561  1.00  0.00    -0.359 N 
ATOM     23  C   UNL A   1      32.754  27.035  24.777  1.00  0.00     0.050 A 
ATOM     24  C   UNL A   1      32.896  28.076  25.611  1.00  0.00     0.014 A 
ATOM     25  H   UNL A   1      32.166  29.875  26.238  1.00  0.00     0.166 HD
ATOM     26  C   UNL A   1      33.978  28.088  26.655  1.00  0.00     0.064 C 
BRANCH  15  27
ATOM     27  O   UNL A   1      28.280  29.797  21.540  1.00  0.00    -0.494 OA
BRANCH  27  28
ATOM     28  C   UNL A   1      27.657  31.093  21.531  1.00  0.00     0.226 C 
ATOM     29  C   UNL A   1      28.054  31.920  20.317  1.00  0.00     0.049 C 
ENDBRANCH  27  28
ENDBRANCH  15  27
ENDBRANCH   9  14
ENDBRANCH   5   8
ENDBRANCH   3   4
ENDBRANCH   2   3
ENDBRANCH   1   2
BRANCH   1  30
ATOM     30  C   UNL A   1      36.746  21.087  24.613  1.00  0.00     0.002 C 
BRANCH  30  31
ATOM     31  C   UNL A   1      37.888  20.101  24.856  1.00  0.00     0.021 C 
BRANCH  31  32
ATOM     32  C   UNL A   1      39.029  20.579  25.746  1.00  0.00     0.116 C 
BRANCH  32  33
ATOM     33  N   UNL A   1      40.042  19.569  25.998  1.00  0.00    -0.352 N 
ATOM     34  C   UNL A   1      41.360  19.722  26.370  1.00  0.00     0.251 C 
ATOM     35  H   UNL A   1      39.741  18.638  25.888  1.00  0.00     0.163 HD
ATOM     36  O   UNL A   1      42.083  18.737  26.456  1.00  0.00    -0.269 OA
BRANCH  34  37
ATOM     37  C   UNL A   1      41.913  21.077  26.615  1.00  0.00     0.039 A 
ATOM     38  C   UNL A   1      42.177  21.531  27.908  1.00  0.00     0.014 A 
ATOM     39  C   UNL A   1      42.154  21.917  25.523  1.00  0.00     0.014 A 
ATOM     40  C   UNL A   1      42.501  22.869  28.121  1.00  0.00     0.010 A 
ATOM     41  C   UNL A   1      42.566  23.238  25.735  1.00  0.00     0.010 A 
ATOM     42  C   UNL A   1      42.690  23.743  27.037  1.00  0.00    -0.014 A 
BRANCH  42  43
ATOM     43  C   UNL A   1      43.028  25.171  27.295  1.00  0.00     0.031 A 
ATOM     44  C   UNL A   1      42.049  26.089  27.981  1.00  0.00     0.074 A 
ATOM     45  C   UNL A   1      44.244  25.633  26.944  1.00  0.00     0.049 A 
ATOM     46  N   UNL A   1      42.202  27.343  28.322  1.00  0.00    -0.248 NA
ATOM     47  C   UNL A   1      40.731  25.534  28.325  1.00  0.00     0.031 C 
ATOM     48  C   UNL A   1      45.269  24.842  26.261  1.00  0.00     0.029 A 
ATOM     49  N   UNL A   1      44.834  26.860  27.122  1.00  0.00    -0.354 N 
ATOM     50  C   UNL A   1      40.999  27.733  28.902  1.00  0.00     0.074 A 
ATOM     51  C   UNL A   1      40.115  26.590  28.839  1.00  0.00     0.031 C 
ATOM     52  C   UNL A   1      46.375  25.586  26.120  1.00  0.00     0.029 A 
ATOM     53  C   UNL A   1      46.121  26.928  26.640  1.00  0.00     0.049 A 
ATOM     54  H   UNL A   1      44.379  27.619  27.553  1.00  0.00     0.167 HD
ATOM     55  C   UNL A   1      40.671  28.928  29.450  1.00  0.00     0.034 A 
ATOM     56  C   UNL A   1      46.999  27.952  26.603  1.00  0.00     0.034 A 
ATOM     57  C   UNL A   1      41.571  30.051  29.531  1.00  0.00     0.049 A 
ATOM     58  C   UNL A   1      46.607  29.272  27.213  1.00  0.00     0.074 A 
ATOM     59  C   UNL A   1      41.343  31.284  30.118  1.00  0.00     0.029 A 
ATOM     60  N   UNL A   1      42.859  30.087  29.017  1.00  0.00    -0.354 N 
ATOM     61  N   UNL A   1      45.492  29.597  27.824  1.00  0.00    -0.248 NA
ATOM     62  C   UNL A   1      47.588  30.365  27.139  1.00  0.00     0.031 C 
ATOM     63  C   UNL A   1      42.465  32.084  29.905  1.00  0.00     0.029 A 
ATOM     64  C   UNL A   1      43.425  31.331  29.249  1.00  0.00     0.049 A 
ATOM     65  H   UNL A   1      43.304  29.340  28.557  1.00  0.00     0.167 HD
ATOM     66  C   UNL A   1      45.641  30.924  28.216  1.00  0.00     0.074 A 
ATOM     67  C   UNL A   1      46.969  31.331  27.805  1.00  0.00     0.031 C 
ATOM     68  C   UNL A   1      44.753  31.731  28.850  1.00  0.00     0.034 A 
BRANCH  55  69
ATOM     69  C   UNL A   1      39.290  29.108  30.033  1.00  0.00     0.023 A 
ATOM     70  C   UNL A   1      38.360  29.945  29.389  1.00  0.00     0.031 A 
ATOM     71  C   UNL A   1      38.951  28.580  31.292  1.00  0.00     0.131 A 
ATOM     72  C   UNL A   1      37.152  30.262  30.024  1.00  0.00     0.055 A 
ATOM     73  C   UNL A   1      37.728  28.867  31.901  1.00  0.00     0.041 A 
ATOM     74  F   UNL A   1      39.807  27.778  31.947  1.00  0.00    -0.206 F 
ATOM     75  C   UNL A   1      36.828  29.722  31.273  1.00  0.00     0.022 A 
BRANCH  72  76
ATOM     76  S   UNL A   1      35.984  31.438  29.287  1.00  0.00     0.124 S 
ATOM     77  O   UNL A   1      36.883  32.456  28.747  1.00  0.00    -0.237 OA
ATOM     78  O   UNL A   1      35.306  30.614  28.291  1.00  0.00    -0.237 OA
ATOM     79  O   UNL A   1      35.164  31.872  30.414  1.00  0.00    -0.744 OA
ENDBRANCH  72  76
ENDBRANCH  55  69
BRANCH  56  80
ATOM     80  C   UNL A   1      48.345  27.728  25.998  1.00  0.00     0.023 A 
ATOM     81  C   UNL A   1      48.537  27.841  24.608  1.00  0.00     0.031 A 
ATOM     82  C   UNL A   1      49.423  27.279  26.779  1.00  0.00     0.131 A 
ATOM     83  C   UNL A   1      49.748  27.432  24.036  1.00  0.00     0.055 A 
ATOM     84  C   UNL A   1      50.655  26.948  26.211  1.00  0.00     0.041 A 
ATOM     85  F   UNL A   1      49.285  27.140  28.106  1.00  0.00    -0.206 F 
ATOM     86  C   UNL A   1      50.815  27.003  24.830  1.00  0.00     0.022 A 
BRANCH  83  87
ATOM     87  S   UNL A   1      49.920  27.291  22.235  1.00  0.00     0.124 S 
ATOM     88  O   UNL A   1      49.676  28.662  21.798  1.00  0.00    -0.237 OA
ATOM     89  O   UNL A   1      51.298  26.822  22.103  1.00  0.00    -0.237 OA
ATOM     90  O   UNL A   1      48.898  26.317  21.867  1.00  0.00    -0.744 OA
ENDBRANCH  83  87
ENDBRANCH  56  80
BRANCH  68  91
ATOM     91  C   UNL A   1      45.158  33.154  29.154  1.00  0.00     0.023 A 
ATOM     92  C   UNL A   1      44.954  34.165  28.196  1.00  0.00     0.031 A 
ATOM     93  C   UNL A   1      45.879  33.476  30.316  1.00  0.00     0.131 A 
ATOM     94  C   UNL A   1      45.504  35.438  28.396  1.00  0.00     0.055 A 
ATOM     95  C   UNL A   1      46.386  34.758  30.533  1.00  0.00     0.041 A 
ATOM     96  F   UNL A   1      46.109  32.543  31.255  1.00  0.00    -0.206 F 
ATOM     97  C   UNL A   1      46.212  35.741  29.564  1.00  0.00     0.022 A 
BRANCH  94  98
ATOM     98  S   UNL A   1      45.403  36.715  27.112  1.00  0.00     0.124 S 
ATOM     99  O   UNL A   1      45.768  37.919  27.856  1.00  0.00    -0.237 OA
ATOM    100  O   UNL A   1      46.395  36.258  26.143  1.00  0.00    -0.237 OA
ATOM    101  O   UNL A   1      44.016  36.657  26.665  1.00  0.00    -0.744 OA
ENDBRANCH  94  98
ENDBRANCH  68  91
ENDBRANCH  42  43
ENDBRANCH  34  37
ENDBRANCH  32  33
ENDBRANCH  31  32
ENDBRANCH  30  31
ENDBRANCH   1  30
TORSDOF 19
ENDMDL
MODEL 2
REMARK VINA RESULT:     -12.0      2.022      2.378
REMARK SMILES CCOc1ccc2[nH]c(C)c/c(=N\c3cccc(C(=O)NCCCCCCNC(=O)c4ccc(-c5c6nc(c(-c7cc(S(=O)(=O)[O-])ccc7F)c7ccc([nH]7)c(-c7cc(S(=O)(=O)[O-])ccc7F)c7nc(c(-c8cc(S(=O)(=O)[O-])ccc8F)c8ccc5[nH]8)C=C7)C=C6)cc4)c3)c2c1
REMARK SMILES IDX 24 1 23 2 22 3 21 4 19 5 20 6 18 8 14 9 15 10 94 11 16 12
REMARK SMILES IDX 17 13 13 14 4 15 5 16 96 17 6 18 95 19 7 20 12 21 8 22 11 23
REMARK SMILES IDX 9 24 10 26 3 27 2 28 1 29 25 30 26 31 27 32 28 33 29 34
REMARK SMILES IDX 30 36 31 37 32 38 93 39 33 40 92 41 34 42 35 43 36 44 86 45
REMARK SMILES IDX 37 46 91 47 85 48 87 49 38 50 90 51 84 52 83 53 39 55 71 56
REMARK SMILES IDX 51 57 70 58 52 59 55 60 69 61 88 62 53 63 54 64 68 66 89 67
REMARK SMILES IDX 56 68 40 69 41 70 49 71 42 72 48 73 50 74 47 75 43 76 44 77
REMARK SMILES IDX 45 78 46 79 72 80 73 81 81 82 74 83 80 84 82 85 79 86 75 87
REMARK SMILES IDX 76 88 77 89 78 90 57 91 58 92 66 93 59 94 65 95 67 96 64 97
REMARK SMILES IDX 60 98 61 99 62 100 63 101
REMARK H PARENT 21 7 8 25 28 35 87 54 55 65
REMARK Flexibility Score: inf
ROOT
ATOM      1  C   UNL A   1      35.921  21.243  25.643  1.00  0.00     0.002 C 
ENDROOT
BRANCH   1   2
ATOM      2  C   UNL A   1      35.810  22.564  26.402  1.00  0.00     0.021 C 
BRANCH   2   3
ATOM      3  C   UNL A   1      34.447  23.246  26.446  1.00  0.00     0.116 C 
BRANCH   3   4
ATOM      4  N   UNL A   1      33.325  22.406  26.072  1.00  0.00    -0.352 N 
ATOM      5  C   UNL A   1      32.499  22.432  24.968  1.00  0.00     0.251 C 
ATOM      6  O   UNL A   1      31.619  21.573  24.887  1.00  0.00    -0.269 OA
ATOM      7  H   UNL A   1      33.116  21.694  26.719  1.00  0.00     0.163 HD
BRANCH   5   8
ATOM      8  C   UNL A   1      32.574  23.485  23.912  1.00  0.00     0.041 A 
ATOM      9  C   UNL A   1      31.943  25.634  22.983  1.00  0.00     0.064 A 
ATOM     10  C   UNL A   1      32.535  25.297  21.764  1.00  0.00     0.028 A 
ATOM     11  C   UNL A   1      32.092  24.781  24.077  1.00  0.00     0.042 A 
ATOM     12  C   UNL A   1      33.132  24.046  21.606  1.00  0.00     0.003 A 
ATOM     13  C   UNL A   1      33.117  23.131  22.665  1.00  0.00     0.014 A 
BRANCH   9  14
ATOM     14  N   UNL A   1      31.076  26.729  23.134  1.00  0.00    -0.248 NA
ATOM     15  C   UNL A   1      28.824  30.374  23.048  1.00  0.00     0.120 A 
ATOM     16  C   UNL A   1      29.142  31.362  23.976  1.00  0.00     0.048 A 
ATOM     17  C   UNL A   1      29.548  29.180  23.008  1.00  0.00     0.059 A 
ATOM     18  C   UNL A   1      30.238  31.201  24.821  1.00  0.00     0.030 A 
ATOM     19  C   UNL A   1      30.645  29.011  23.864  1.00  0.00     0.027 A 
ATOM     20  C   UNL A   1      31.005  30.035  24.763  1.00  0.00     0.048 A 
ATOM     21  C   UNL A   1      31.483  27.766  23.820  1.00  0.00     0.075 A 
ATOM     22  N   UNL A   1      32.139  29.909  25.573  1.00  0.00    -0.359 N 
ATOM     23  C   UNL A   1      32.777  27.843  24.593  1.00  0.00     0.050 A 
ATOM     24  C   UNL A   1      33.009  28.858  25.440  1.00  0.00     0.014 A 
ATOM     25  H   UNL A   1      32.317  30.593  26.257  1.00  0.00     0.166 HD
ATOM     26  C   UNL A   1      34.246  28.882  26.295  1.00  0.00     0.064 C 
BRANCH  15  27
ATOM     27  O   UNL A   1      27.724  30.507  22.248  1.00  0.00    -0.494 OA
BRANCH  27  28
ATOM     28  C   UNL A   1      28.042  30.838  20.885  1.00  0.00     0.226 C 
ATOM     29  C   UNL A   1      27.927  32.330  20.608  1.00  0.00     0.049 C 
ENDBRANCH  27  28
ENDBRANCH  15  27
ENDBRANCH   9  14
ENDBRANCH   5   8
ENDBRANCH   3   4
ENDBRANCH   2   3
ENDBRANCH   1   2
BRANCH   1  30
ATOM     30  C   UNL A   1      37.120  21.060  24.713  1.00  0.00     0.002 C 
BRANCH  30  31
ATOM     31  C   UNL A   1      38.120  19.960  25.067  1.00  0.00     0.021 C 
BRANCH  31  32
ATOM     32  C   UNL A   1      39.351  20.382  25.862  1.00  0.00     0.116 C 
BRANCH  32  33
ATOM     33  N   UNL A   1      40.325  19.321  26.046  1.00  0.00    -0.352 N 
ATOM     34  C   UNL A   1      41.675  19.405  26.313  1.00  0.00     0.251 C 
ATOM     35  H   UNL A   1      39.968  18.407  25.970  1.00  0.00     0.163 HD
ATOM     36  O   UNL A   1      42.349  18.383  26.355  1.00  0.00    -0.269 OA
BRANCH  34  37
ATOM     37  C   UNL A   1      42.316  20.730  26.499  1.00  0.00     0.039 A 
ATOM     38  C   UNL A   1      42.555  21.249  27.772  1.00  0.00     0.014 A 
ATOM     39  C   UNL A   1      42.668  21.476  25.369  1.00  0.00     0.014 A 
ATOM     40  C   UNL A   1      42.969  22.571  27.916  1.00  0.00     0.010 A 
ATOM     41  C   UNL A   1      43.169  22.775  25.517  1.00  0.00     0.010 A 
ATOM     42  C   UNL A   1      43.272  23.356  26.790  1.00  0.00    -0.014 A 
BRANCH  42  43
ATOM     43  C   UNL A   1      43.704  24.769  26.973  1.00  0.00     0.031 A 
ATOM     44  C   UNL A   1      42.754  25.808  27.510  1.00  0.00     0.074 A 
ATOM     45  C   UNL A   1      44.977  25.110  26.691  1.00  0.00     0.049 A 
ATOM     46  N   UNL A   1      42.982  27.069  27.774  1.00  0.00    -0.248 NA
ATOM     47  C   UNL A   1      41.372  25.382  27.784  1.00  0.00     0.031 C 
ATOM     48  C   UNL A   1      45.983  24.194  26.151  1.00  0.00     0.029 A 
ATOM     49  N   UNL A   1      45.649  26.299  26.829  1.00  0.00    -0.354 N 
ATOM     50  C   UNL A   1      41.774  27.593  28.225  1.00  0.00     0.074 A 
ATOM     51  C   UNL A   1      40.808  26.519  28.171  1.00  0.00     0.031 C 
ATOM     52  C   UNL A   1      47.153  24.839  26.049  1.00  0.00     0.029 A 
ATOM     53  C   UNL A   1      46.970  26.232  26.450  1.00  0.00     0.049 A 
ATOM     54  H   UNL A   1      45.226  27.121  27.167  1.00  0.00     0.167 HD
ATOM     55  C   UNL A   1      41.504  28.848  28.659  1.00  0.00     0.034 A 
ATOM     56  C   UNL A   1      47.929  27.181  26.414  1.00  0.00     0.034 A 
ATOM     57  C   UNL A   1      42.483  29.902  28.734  1.00  0.00     0.049 A 
ATOM     58  C   UNL A   1      47.600  28.570  26.895  1.00  0.00     0.074 A 
ATOM     59  C   UNL A   1      42.313  31.191  29.211  1.00  0.00     0.029 A 
ATOM     60  N   UNL A   1      43.805  29.802  28.325  1.00  0.00    -0.354 N 
ATOM     61  N   UNL A   1      46.473  29.024  27.388  1.00  0.00    -0.248 NA
ATOM     62  C   UNL A   1      48.670  29.577  26.825  1.00  0.00     0.031 C 
ATOM     63  C   UNL A   1      43.509  31.885  29.035  1.00  0.00     0.029 A 
ATOM     64  C   UNL A   1      44.451  31.013  28.514  1.00  0.00     0.049 A 
ATOM     65  H   UNL A   1      44.222  28.990  27.957  1.00  0.00     0.167 HD
ATOM     66  C   UNL A   1      46.699  30.362  27.697  1.00  0.00     0.074 A 
ATOM     67  C   UNL A   1      48.083  30.635  27.368  1.00  0.00     0.031 C 
ATOM     68  C   UNL A   1      45.835  31.280  28.198  1.00  0.00     0.034 A 
BRANCH  55  69
ATOM     69  C   UNL A   1      40.102  29.176  29.113  1.00  0.00     0.023 A 
ATOM     70  C   UNL A   1      39.770  29.096  30.479  1.00  0.00     0.031 A 
ATOM     71  C   UNL A   1      39.069  29.415  28.190  1.00  0.00     0.131 A 
ATOM     72  C   UNL A   1      38.433  29.215  30.879  1.00  0.00     0.055 A 
ATOM     73  C   UNL A   1      37.743  29.573  28.598  1.00  0.00     0.041 A 
ATOM     74  F   UNL A   1      39.335  29.497  26.876  1.00  0.00    -0.206 F 
ATOM     75  C   UNL A   1      37.419  29.459  29.947  1.00  0.00     0.022 A 
BRANCH  72  76
ATOM     76  S   UNL A   1      37.947  28.989  32.612  1.00  0.00     0.124 S 
ATOM     77  O   UNL A   1      38.031  27.537  32.760  1.00  0.00    -0.237 OA
ATOM     78  O   UNL A   1      38.974  29.748  33.319  1.00  0.00    -0.237 OA
ATOM     79  O   UNL A   1      36.597  29.541  32.673  1.00  0.00    -0.744 OA
ENDBRANCH  72  76
ENDBRANCH  55  69
BRANCH  56  80
ATOM     80  C   UNL A   1      49.294  26.810  25.938  1.00  0.00     0.023 A 
ATOM     81  C   UNL A   1      50.332  26.556  26.854  1.00  0.00     0.031 A 
ATOM     82  C   UNL A   1      49.612  26.825  24.569  1.00  0.00     0.131 A 
ATOM     83  C   UNL A   1      51.647  26.409  26.396  1.00  0.00     0.055 A 
ATOM     84  C   UNL A   1      50.911  26.599  24.112  1.00  0.00     0.041 A 
ATOM     85  F   UNL A   1      48.660  27.077  23.658  1.00  0.00    -0.206 F 
ATOM     86  C   UNL A   1      51.941  26.412  25.029  1.00  0.00     0.022 A 
BRANCH  83  87
ATOM     87  S   UNL A   1      53.036  26.374  27.563  1.00  0.00     0.124 S 
ATOM     88  O   UNL A   1      53.831  25.261  27.056  1.00  0.00    -0.237 OA
ATOM     89  O   UNL A   1      53.616  27.702  27.376  1.00  0.00    -0.237 OA
ATOM     90  O   UNL A   1      52.394  26.158  28.856  1.00  0.00    -0.744 OA
ENDBRANCH  83  87
ENDBRANCH  56  80
BRANCH  68  91
ATOM     91  C   UNL A   1      46.329  32.687  28.433  1.00  0.00     0.023 A 
ATOM     92  C   UNL A   1      46.563  33.545  27.341  1.00  0.00     0.031 A 
ATOM     93  C   UNL A   1      46.714  33.122  29.713  1.00  0.00     0.131 A 
ATOM     94  C   UNL A   1      47.204  34.774  27.542  1.00  0.00     0.055 A 
ATOM     95  C   UNL A   1      47.311  34.367  29.916  1.00  0.00     0.041 A 
ATOM     96  F   UNL A   1      46.522  32.337  30.785  1.00  0.00    -0.206 F 
ATOM     97  C   UNL A   1      47.572  35.192  28.826  1.00  0.00     0.022 A 
BRANCH  94  98
ATOM     98  S   UNL A   1      47.669  35.829  26.142  1.00  0.00     0.124 S 
ATOM     99  O   UNL A   1      48.020  34.842  25.124  1.00  0.00    -0.237 OA
ATOM    100  O   UNL A   1      46.436  36.571  25.893  1.00  0.00    -0.237 OA
ATOM    101  O   UNL A   1      48.784  36.620  26.652  1.00  0.00    -0.744 OA
ENDBRANCH  94  98
ENDBRANCH  68  91
ENDBRANCH  42  43
ENDBRANCH  34  37
ENDBRANCH  32  33
ENDBRANCH  31  32
ENDBRANCH  30  31
ENDBRANCH   1  30
TORSDOF 19
ENDMDL
MODEL 3
REMARK VINA RESULT:     -11.7      1.534      7.430
REMARK SMILES CCOc1ccc2[nH]c(C)c/c(=N\c3cccc(C(=O)NCCCCCCNC(=O)c4ccc(-c5c6nc(c(-c7cc(S(=O)(=O)[O-])ccc7F)c7ccc([nH]7)c(-c7cc(S(=O)(=O)[O-])ccc7F)c7nc(c(-c8cc(S(=O)(=O)[O-])ccc8F)c8ccc5[nH]8)C=C7)C=C6)cc4)c3)c2c1
REMARK SMILES IDX 24 1 23 2 22 3 21 4 19 5 20 6 18 8 14 9 15 10 94 11 16 12
REMARK SMILES IDX 17 13 13 14 4 15 5 16 96 17 6 18 95 19 7 20 12 21 8 22 11 23
REMARK SMILES IDX 9 24 10 26 3 27 2 28 1 29 25 30 26 31 27 32 28 33 29 34
REMARK SMILES IDX 30 36 31 37 32 38 93 39 33 40 92 41 34 42 35 43 36 44 86 45
REMARK SMILES IDX 37 46 91 47 85 48 87 49 38 50 90 51 84 52 83 53 39 55 71 56
REMARK SMILES IDX 51 57 70 58 52 59 55 60 69 61 88 62 53 63 54 64 68 66 89 67
REMARK SMILES IDX 56 68 40 69 41 70 49 71 42 72 48 73 50 74 47 75 43 76 44 77
REMARK SMILES IDX 45 78 46 79 72 80 73 81 81 82 74 83 80 84 82 85 79 86 75 87
REMARK SMILES IDX 76 88 77 89 78 90 57 91 58 92 66 93 59 94 65 95 67 96 64 97
REMARK SMILES IDX 60 98 61 99 62 100 63 101
REMARK H PARENT 21 7 8 25 28 35 87 54 55 65
REMARK Flexibility Score: inf
ROOT
ATOM      1  C   UNL A   1      35.408  21.014  24.782  1.00  0.00     0.002 C 
ENDROOT
BRANCH   1   2
ATOM      2  C   UNL A   1      34.217  20.727  25.694  1.00  0.00     0.021 C 
BRANCH   2   3
ATOM      3  C   UNL A   1      33.730  21.851  26.602  1.00  0.00     0.116 C 
BRANCH   3   4
ATOM      4  N   UNL A   1      32.294  21.902  26.804  1.00  0.00    -0.352 N 
ATOM      5  C   UNL A   1      31.301  22.551  26.102  1.00  0.00     0.251 C 
ATOM      6  O   UNL A   1      30.138  22.407  26.483  1.00  0.00    -0.269 OA
ATOM      7  H   UNL A   1      31.973  21.384  27.577  1.00  0.00     0.163 HD
BRANCH   5   8
ATOM      8  C   UNL A   1      31.572  23.470  24.956  1.00  0.00     0.041 A 
ATOM      9  C   UNL A   1      31.272  25.567  23.775  1.00  0.00     0.064 A 
ATOM     10  C   UNL A   1      31.892  25.035  22.644  1.00  0.00     0.028 A 
ATOM     11  C   UNL A   1      31.246  24.824  24.956  1.00  0.00     0.042 A 
ATOM     12  C   UNL A   1      32.338  23.713  22.655  1.00  0.00     0.003 A 
ATOM     13  C   UNL A   1      32.143  22.924  23.794  1.00  0.00     0.014 A 
BRANCH   9  14
ATOM     14  N   UNL A   1      30.540  26.766  23.753  1.00  0.00    -0.248 NA
ATOM     15  C   UNL A   1      28.733  30.597  23.106  1.00  0.00     0.120 A 
ATOM     16  C   UNL A   1      29.165  31.665  23.888  1.00  0.00     0.048 A 
ATOM     17  C   UNL A   1      29.311  29.334  23.250  1.00  0.00     0.059 A 
ATOM     18  C   UNL A   1      30.234  31.501  24.766  1.00  0.00     0.030 A 
ATOM     19  C   UNL A   1      30.380  29.164  24.141  1.00  0.00     0.027 A 
ATOM     20  C   UNL A   1      30.858  30.258  24.889  1.00  0.00     0.048 A 
ATOM     21  C   UNL A   1      31.067  27.836  24.290  1.00  0.00     0.075 A 
ATOM     22  N   UNL A   1      31.969  30.119  25.729  1.00  0.00    -0.359 N 
ATOM     23  C   UNL A   1      32.360  27.873  25.066  1.00  0.00     0.050 A 
ATOM     24  C   UNL A   1      32.710  28.965  25.763  1.00  0.00     0.014 A 
ATOM     25  H   UNL A   1      32.227  30.870  26.311  1.00  0.00     0.166 HD
ATOM     26  C   UNL A   1      33.940  28.968  26.627  1.00  0.00     0.064 C 
BRANCH  15  27
ATOM     27  O   UNL A   1      27.657  30.741  22.276  1.00  0.00    -0.494 OA
BRANCH  27  28
ATOM     28  C   UNL A   1      28.014  30.854  20.888  1.00  0.00     0.226 C 
ATOM     29  C   UNL A   1      27.982  32.293  20.396  1.00  0.00     0.049 C 
ENDBRANCH  27  28
ENDBRANCH  15  27
ENDBRANCH   9  14
ENDBRANCH   5   8
ENDBRANCH   3   4
ENDBRANCH   2   3
ENDBRANCH   1   2
BRANCH   1  30
ATOM     30  C   UNL A   1      36.727  21.411  25.444  1.00  0.00     0.002 C 
BRANCH  30  31
ATOM     31  C   UNL A   1      37.951  20.548  25.143  1.00  0.00     0.021 C 
BRANCH  31  32
ATOM     32  C   UNL A   1      39.100  20.615  26.142  1.00  0.00     0.116 C 
BRANCH  32  33
ATOM     33  N   UNL A   1      40.082  19.557  25.982  1.00  0.00    -0.352 N 
ATOM     34  C   UNL A   1      41.458  19.618  26.050  1.00  0.00     0.251 C 
ATOM     35  H   UNL A   1      39.710  18.664  25.798  1.00  0.00     0.163 HD
ATOM     36  O   UNL A   1      42.122  18.619  25.804  1.00  0.00    -0.269 OA
BRANCH  34  37
ATOM     37  C   UNL A   1      42.131  20.901  26.372  1.00  0.00     0.039 A 
ATOM     38  C   UNL A   1      42.435  21.252  27.688  1.00  0.00     0.014 A 
ATOM     39  C   UNL A   1      42.446  21.780  25.330  1.00  0.00     0.014 A 
ATOM     40  C   UNL A   1      42.879  22.540  27.977  1.00  0.00     0.010 A 
ATOM     41  C   UNL A   1      42.977  23.043  25.617  1.00  0.00     0.010 A 
ATOM     42  C   UNL A   1      43.147  23.457  26.946  1.00  0.00    -0.014 A 
BRANCH  42  43
ATOM     43  C   UNL A   1      43.612  24.830  27.285  1.00  0.00     0.031 A 
ATOM     44  C   UNL A   1      45.050  25.234  27.090  1.00  0.00     0.074 A 
ATOM     45  C   UNL A   1      42.720  25.735  27.734  1.00  0.00     0.049 A 
ATOM     46  N   UNL A   1      45.609  26.400  27.291  1.00  0.00    -0.248 NA
ATOM     47  C   UNL A   1      45.983  24.200  26.613  1.00  0.00     0.031 C 
ATOM     48  C   UNL A   1      41.303  25.456  27.977  1.00  0.00     0.029 A 
ATOM     49  N   UNL A   1      42.856  27.064  28.051  1.00  0.00    -0.354 N 
ATOM     50  C   UNL A   1      46.957  26.238  26.984  1.00  0.00     0.074 A 
ATOM     51  C   UNL A   1      47.138  24.852  26.613  1.00  0.00     0.031 C 
ATOM     52  C   UNL A   1      40.693  26.586  28.358  1.00  0.00     0.029 A 
ATOM     53  C   UNL A   1      41.682  27.658  28.453  1.00  0.00     0.049 A 
ATOM     54  H   UNL A   1      43.713  27.545  27.995  1.00  0.00     0.167 HD
ATOM     55  C   UNL A   1      47.946  27.165  26.997  1.00  0.00     0.034 A 
ATOM     56  C   UNL A   1      41.424  28.917  28.866  1.00  0.00     0.034 A 
ATOM     57  C   UNL A   1      47.747  28.550  27.342  1.00  0.00     0.049 A 
ATOM     58  C   UNL A   1      42.542  29.925  28.877  1.00  0.00     0.074 A 
ATOM     59  C   UNL A   1      48.680  29.573  27.331  1.00  0.00     0.029 A 
ATOM     60  N   UNL A   1      46.549  29.110  27.761  1.00  0.00    -0.354 N 
ATOM     61  N   UNL A   1      43.792  29.770  28.512  1.00  0.00    -0.248 NA
ATOM     62  C   UNL A   1      42.220  31.280  29.347  1.00  0.00     0.031 C 
ATOM     63  C   UNL A   1      48.064  30.733  27.800  1.00  0.00     0.029 A 
ATOM     64  C   UNL A   1      46.727  30.456  28.036  1.00  0.00     0.049 A 
ATOM     65  H   UNL A   1      45.698  28.623  27.848  1.00  0.00     0.167 HD
ATOM     66  C   UNL A   1      44.403  31.008  28.697  1.00  0.00     0.074 A 
ATOM     67  C   UNL A   1      43.375  31.910  29.172  1.00  0.00     0.031 C 
ATOM     68  C   UNL A   1      45.699  31.358  28.498  1.00  0.00     0.034 A 
BRANCH  55  69
ATOM     69  C   UNL A   1      49.343  26.745  26.610  1.00  0.00     0.023 A 
ATOM     70  C   UNL A   1      49.924  27.242  25.427  1.00  0.00     0.031 A 
ATOM     71  C   UNL A   1      50.033  25.748  27.322  1.00  0.00     0.131 A 
ATOM     72  C   UNL A   1      51.137  26.711  24.971  1.00  0.00     0.055 A 
ATOM     73  C   UNL A   1      51.262  25.252  26.883  1.00  0.00     0.041 A 
ATOM     74  F   UNL A   1      49.520  25.241  28.455  1.00  0.00    -0.206 F 
ATOM     75  C   UNL A   1      51.812  25.724  25.695  1.00  0.00     0.022 A 
BRANCH  72  76
ATOM     76  S   UNL A   1      51.852  27.230  23.386  1.00  0.00     0.124 S 
ATOM     77  O   UNL A   1      52.451  25.986  22.906  1.00  0.00    -0.237 OA
ATOM     78  O   UNL A   1      50.673  27.679  22.651  1.00  0.00    -0.237 OA
ATOM     79  O   UNL A   1      52.803  28.273  23.756  1.00  0.00    -0.744 OA
ENDBRANCH  72  76
ENDBRANCH  55  69
BRANCH  56  80
ATOM     80  C   UNL A   1      40.029  29.276  29.256  1.00  0.00     0.023 A 
ATOM     81  C   UNL A   1      39.657  29.353  30.612  1.00  0.00     0.031 A 
ATOM     82  C   UNL A   1      39.022  29.425  28.287  1.00  0.00     0.131 A 
ATOM     83  C   UNL A   1      38.308  29.490  30.959  1.00  0.00     0.055 A 
ATOM     84  C   UNL A   1      37.688  29.642  28.638  1.00  0.00     0.041 A 
ATOM     85  F   UNL A   1      39.324  29.346  26.982  1.00  0.00    -0.206 F 
ATOM     86  C   UNL A   1      37.323  29.653  29.981  1.00  0.00     0.022 A 
BRANCH  83  87
ATOM     87  S   UNL A   1      37.770  29.299  32.682  1.00  0.00     0.124 S 
ATOM     88  O   UNL A   1      36.508  30.030  32.689  1.00  0.00    -0.237 OA
ATOM     89  O   UNL A   1      37.661  27.847  32.800  1.00  0.00    -0.237 OA
ATOM     90  O   UNL A   1      38.856  29.900  33.449  1.00  0.00    -0.744 OA
ENDBRANCH  83  87
ENDBRANCH  56  80
BRANCH  68  91
ATOM     91  C   UNL A   1      46.117  32.779  28.790  1.00  0.00     0.023 A 
ATOM     92  C   UNL A   1      46.267  33.701  27.737  1.00  0.00     0.031 A 
ATOM     93  C   UNL A   1      46.516  33.172  30.079  1.00  0.00     0.131 A 
ATOM     94  C   UNL A   1      46.842  34.954  27.982  1.00  0.00     0.055 A 
ATOM     95  C   UNL A   1      47.046  34.440  30.328  1.00  0.00     0.041 A 
ATOM     96  F   UNL A   1      46.403  32.326  31.115  1.00  0.00    -0.206 F 
ATOM     97  C   UNL A   1      47.224  35.331  29.274  1.00  0.00     0.022 A 
BRANCH  94  98
ATOM     98  S   UNL A   1      47.200  36.103  26.624  1.00  0.00     0.124 S 
ATOM     99  O   UNL A   1      48.328  36.861  27.162  1.00  0.00    -0.237 OA
ATOM    100  O   UNL A   1      47.526  35.194  25.529  1.00  0.00    -0.237 OA
ATOM    101  O   UNL A   1      45.963  36.858  26.466  1.00  0.00    -0.744 OA
ENDBRANCH  94  98
ENDBRANCH  68  91
ENDBRANCH  42  43
ENDBRANCH  34  37
ENDBRANCH  32  33
ENDBRANCH  31  32
ENDBRANCH  30  31
ENDBRANCH   1  30
TORSDOF 19
ENDMDL
