MODEL 1
REMARK VINA RESULT:     -11.4      0.000      0.000
REMARK SMILES C[C@@H](C(=O)NCCCCCCNC(=O)c1ccc(-c2c3nc(c(-c4cc(S(=O)(=O)[O-])ccc4F)c4ccc([nH]4)c(-c4cc(S(=O)(=O)[O-])ccc4F)c4nc(c(-c5cc(S(=O)(=O)[O-])ccc5F)c5ccc2[nH]5)C=C4)C=C3)cc1)c1ccc(Cc2cccs2)cc1F
REMARK SMILES IDX 8 1 7 2 6 3 5 4 3 5 4 6 2 8 1 9 78 10 79 11 89 12 80 13
REMARK SMILES IDX 88 14 90 15 81 16 82 17 83 18 84 19 87 20 85 21 86 22 9 23
REMARK SMILES IDX 10 24 11 25 12 26 13 27 14 29 15 30 16 31 77 32 17 33 76 34
REMARK SMILES IDX 18 35 19 36 20 37 70 38 21 39 75 40 69 41 71 42 22 43 74 44
REMARK SMILES IDX 68 45 67 46 23 48 55 49 35 50 54 51 36 52 39 53 53 54 72 55
REMARK SMILES IDX 37 56 38 57 52 59 73 60 40 61 24 62 25 63 33 64 26 65 32 66
REMARK SMILES IDX 34 67 31 68 27 69 28 70 29 71 30 72 56 73 57 74 65 75 58 76
REMARK SMILES IDX 64 77 66 78 63 79 59 80 60 81 61 82 62 83 41 84 42 85 50 86
REMARK SMILES IDX 43 87 49 88 51 89 48 90 44 91 45 92 46 93 47 94
REMARK H PARENT 5 7 12 28 71 47 39 58
REMARK Flexibility Score: inf
ROOT
ATOM      1  C   UNL A   1      33.231  28.930  26.728  1.00  0.00     0.002 C 
ENDROOT
BRANCH   1   2
ATOM      2  C   UNL A   1      33.127  27.486  26.217  1.00  0.00     0.021 C 
BRANCH   2   3
ATOM      3  C   UNL A   1      31.709  27.069  25.815  1.00  0.00     0.116 C 
BRANCH   3   4
ATOM      4  N   UNL A   1      31.262  25.967  26.639  1.00  0.00    -0.356 N 
ATOM      5  C   UNL A   1      31.182  24.636  26.361  1.00  0.00     0.227 C 
ATOM      6  O   UNL A   1      30.592  23.939  27.190  1.00  0.00    -0.274 OA
ATOM      7  H   UNL A   1      30.969  26.219  27.544  1.00  0.00     0.163 HD
BRANCH   5   8
ATOM      8  C   UNL A   1      31.843  24.065  25.093  1.00  0.00     0.108 C 
ATOM      9  C   UNL A   1      31.247  22.723  24.649  1.00  0.00     0.023 C 
BRANCH   8  10
ATOM     10  C   UNL A   1      33.347  23.898  25.272  1.00  0.00    -0.000 A 
ATOM     11  C   UNL A   1      33.880  23.454  26.491  1.00  0.00     0.008 A 
ATOM     12  C   UNL A   1      34.234  24.180  24.231  1.00  0.00     0.127 A 
ATOM     13  C   UNL A   1      35.253  23.286  26.652  1.00  0.00     0.004 A 
ATOM     14  C   UNL A   1      35.612  24.033  24.390  1.00  0.00     0.043 A 
ATOM     15  F   UNL A   1      33.765  24.588  23.042  1.00  0.00    -0.207 F 
ATOM     16  C   UNL A   1      36.140  23.584  25.609  1.00  0.00    -0.040 A 
BRANCH  16  17
ATOM     17  C   UNL A   1      37.630  23.409  25.800  1.00  0.00     0.082 C 
BRANCH  17  18
ATOM     18  C   UNL A   1      38.115  21.991  25.631  1.00  0.00     0.009 A 
ATOM     19  C   UNL A   1      37.511  20.935  24.971  1.00  0.00     0.016 A 
ATOM     20  S   UNL A   1      39.645  21.529  26.257  1.00  0.00    -0.149 S 
ATOM     21  C   UNL A   1      38.300  19.751  24.988  1.00  0.00     0.012 A 
ATOM     22  C   UNL A   1      39.492  19.939  25.647  1.00  0.00     0.065 A 
ENDBRANCH  17  18
ENDBRANCH  16  17
ENDBRANCH   8  10
ENDBRANCH   5   8
ENDBRANCH   3   4
ENDBRANCH   2   3
ENDBRANCH   1   2
BRANCH   1  23
ATOM     23  C   UNL A   1      32.424  29.958  25.929  1.00  0.00     0.002 C 
BRANCH  23  24
ATOM     24  C   UNL A   1      31.959  31.174  26.733  1.00  0.00     0.021 C 
BRANCH  24  25
ATOM     25  C   UNL A   1      33.083  31.939  27.428  1.00  0.00     0.116 C 
BRANCH  25  26
ATOM     26  N   UNL A   1      32.745  33.339  27.629  1.00  0.00    -0.352 N 
ATOM     27  C   UNL A   1      33.250  34.232  28.541  1.00  0.00     0.251 C 
ATOM     28  H   UNL A   1      32.055  33.697  27.024  1.00  0.00     0.163 HD
ATOM     29  O   UNL A   1      32.693  35.313  28.715  1.00  0.00    -0.269 OA
BRANCH  27  30
ATOM     30  C   UNL A   1      34.445  33.872  29.333  1.00  0.00     0.039 A 
ATOM     31  C   UNL A   1      34.287  33.107  30.491  1.00  0.00     0.014 A 
ATOM     32  C   UNL A   1      35.721  34.267  28.917  1.00  0.00     0.014 A 
ATOM     33  C   UNL A   1      35.416  32.662  31.183  1.00  0.00     0.010 A 
ATOM     34  C   UNL A   1      36.846  33.766  29.570  1.00  0.00     0.010 A 
ATOM     35  C   UNL A   1      36.706  32.943  30.698  1.00  0.00    -0.014 A 
BRANCH  35  36
ATOM     36  C   UNL A   1      37.912  32.329  31.316  1.00  0.00     0.031 A 
ATOM     37  C   UNL A   1      38.623  31.193  30.634  1.00  0.00     0.074 A 
ATOM     38  C   UNL A   1      38.308  32.748  32.536  1.00  0.00     0.049 A 
ATOM     39  N   UNL A   1      39.626  30.474  31.066  1.00  0.00    -0.248 NA
ATOM     40  C   UNL A   1      38.131  30.801  29.305  1.00  0.00     0.031 C 
ATOM     41  C   UNL A   1      37.671  33.818  33.310  1.00  0.00     0.029 A 
ATOM     42  N   UNL A   1      39.325  32.317  33.353  1.00  0.00    -0.354 N 
ATOM     43  C   UNL A   1      39.875  29.532  30.073  1.00  0.00     0.074 A 
ATOM     44  C   UNL A   1      38.897  29.752  29.030  1.00  0.00     0.031 C 
ATOM     45  C   UNL A   1      38.316  33.965  34.477  1.00  0.00     0.029 A 
ATOM     46  C   UNL A   1      39.372  32.962  34.569  1.00  0.00     0.049 A 
ATOM     47  H   UNL A   1      39.961  31.611  33.093  1.00  0.00     0.167 HD
ATOM     48  C   UNL A   1      40.840  28.580  30.038  1.00  0.00     0.034 A 
ATOM     49  C   UNL A   1      40.151  32.750  35.650  1.00  0.00     0.034 A 
ATOM     50  C   UNL A   1      41.819  28.390  31.079  1.00  0.00     0.049 A 
ATOM     51  C   UNL A   1      41.187  31.653  35.593  1.00  0.00     0.074 A 
ATOM     52  C   UNL A   1      42.899  27.522  31.091  1.00  0.00     0.029 A 
ATOM     53  N   UNL A   1      41.830  29.053  32.298  1.00  0.00    -0.354 N 
ATOM     54  N   UNL A   1      41.469  30.836  34.604  1.00  0.00    -0.248 NA
ATOM     55  C   UNL A   1      42.009  31.448  36.793  1.00  0.00     0.031 C 
ATOM     56  C   UNL A   1      43.503  27.593  32.349  1.00  0.00     0.029 A 
ATOM     57  C   UNL A   1      42.858  28.569  33.092  1.00  0.00     0.049 A 
ATOM     58  H   UNL A   1      41.200  29.763  32.559  1.00  0.00     0.167 HD
ATOM     59  C   UNL A   1      42.514  30.037  35.058  1.00  0.00     0.074 A 
ATOM     60  C   UNL A   1      42.832  30.489  36.396  1.00  0.00     0.031 C 
ATOM     61  C   UNL A   1      43.153  29.019  34.431  1.00  0.00     0.034 A 
BRANCH  48  62
ATOM     62  C   UNL A   1      40.872  27.640  28.859  1.00  0.00     0.023 A 
ATOM     63  C   UNL A   1      41.818  27.766  27.829  1.00  0.00     0.031 A 
ATOM     64  C   UNL A   1      39.966  26.564  28.796  1.00  0.00     0.131 A 
ATOM     65  C   UNL A   1      41.815  26.854  26.761  1.00  0.00     0.055 A 
ATOM     66  C   UNL A   1      40.012  25.622  27.769  1.00  0.00     0.041 A 
ATOM     67  F   UNL A   1      39.027  26.407  29.743  1.00  0.00    -0.206 F 
ATOM     68  C   UNL A   1      40.936  25.766  26.739  1.00  0.00     0.022 A 
BRANCH  65  69
ATOM     69  S   UNL A   1      42.917  27.155  25.354  1.00  0.00     0.124 S 
ATOM     70  O   UNL A   1      42.222  28.237  24.661  1.00  0.00    -0.237 OA
ATOM     71  O   UNL A   1      44.171  27.517  26.006  1.00  0.00    -0.237 OA
ATOM     72  O   UNL A   1      42.928  25.876  24.646  1.00  0.00    -0.744 OA
ENDBRANCH  65  69
ENDBRANCH  48  62
BRANCH  49  73
ATOM     73  C   UNL A   1      39.957  33.541  36.904  1.00  0.00     0.023 A 
ATOM     74  C   UNL A   1      39.275  33.000  38.004  1.00  0.00     0.031 A 
ATOM     75  C   UNL A   1      40.371  34.884  36.984  1.00  0.00     0.131 A 
ATOM     76  C   UNL A   1      38.962  33.814  39.104  1.00  0.00     0.055 A 
ATOM     77  C   UNL A   1      40.123  35.668  38.112  1.00  0.00     0.041 A 
ATOM     78  F   UNL A   1      41.023  35.458  35.961  1.00  0.00    -0.206 F 
ATOM     79  C   UNL A   1      39.397  35.140  39.173  1.00  0.00     0.022 A 
BRANCH  76  80
ATOM     80  S   UNL A   1      37.854  33.156  40.381  1.00  0.00     0.124 S 
ATOM     81  O   UNL A   1      38.598  31.991  40.846  1.00  0.00    -0.237 OA
ATOM     82  O   UNL A   1      37.767  34.276  41.312  1.00  0.00    -0.237 OA
ATOM     83  O   UNL A   1      36.626  32.862  39.645  1.00  0.00    -0.744 OA
ENDBRANCH  76  80
ENDBRANCH  49  73
BRANCH  61  84
ATOM     84  C   UNL A   1      44.274  28.342  35.180  1.00  0.00     0.023 A 
ATOM     85  C   UNL A   1      44.073  27.131  35.864  1.00  0.00     0.031 A 
ATOM     86  C   UNL A   1      45.559  28.910  35.203  1.00  0.00     0.131 A 
ATOM     87  C   UNL A   1      45.129  26.550  36.581  1.00  0.00     0.055 A 
ATOM     88  C   UNL A   1      46.622  28.295  35.866  1.00  0.00     0.041 A 
ATOM     89  F   UNL A   1      45.807  30.069  34.571  1.00  0.00    -0.206 F 
ATOM     90  C   UNL A   1      46.407  27.114  36.570  1.00  0.00     0.022 A 
BRANCH  87  91
ATOM     91  S   UNL A   1      44.791  25.085  37.594  1.00  0.00     0.124 S 
ATOM     92  O   UNL A   1      45.279  25.503  38.904  1.00  0.00    -0.237 OA
ATOM     93  O   UNL A   1      43.345  24.943  37.468  1.00  0.00    -0.237 OA
ATOM     94  O   UNL A   1      45.575  24.033  36.948  1.00  0.00    -0.744 OA
ENDBRANCH  87  91
ENDBRANCH  61  84
ENDBRANCH  35  36
ENDBRANCH  27  30
ENDBRANCH  25  26
ENDBRANCH  24  25
ENDBRANCH  23  24
ENDBRANCH   1  23
TORSDOF 19
ENDMDL
MODEL 2
REMARK VINA RESULT:     -11.1      1.812      2.068
REMARK SMILES C[C@@H](C(=O)NCCCCCCNC(=O)c1ccc(-c2c3nc(c(-c4cc(S(=O)(=O)[O-])ccc4F)c4ccc([nH]4)c(-c4cc(S(=O)(=O)[O-])ccc4F)c4nc(c(-c5cc(S(=O)(=O)[O-])ccc5F)c5ccc2[nH]5)C=C4)C=C3)cc1)c1ccc(Cc2cccs2)cc1F
REMARK SMILES IDX 8 1 7 2 6 3 5 4 3 5 4 6 2 8 1 9 78 10 79 11 89 12 80 13
REMARK SMILES IDX 88 14 90 15 81 16 82 17 83 18 84 19 87 20 85 21 86 22 9 23
REMARK SMILES IDX 10 24 11 25 12 26 13 27 14 29 15 30 16 31 77 32 17 33 76 34
REMARK SMILES IDX 18 35 19 36 20 37 70 38 21 39 75 40 69 41 71 42 22 43 74 44
REMARK SMILES IDX 68 45 67 46 23 48 55 49 35 50 54 51 36 52 39 53 53 54 72 55
REMARK SMILES IDX 37 56 38 57 52 59 73 60 40 61 24 62 25 63 33 64 26 65 32 66
REMARK SMILES IDX 34 67 31 68 27 69 28 70 29 71 30 72 56 73 57 74 65 75 58 76
REMARK SMILES IDX 64 77 66 78 63 79 59 80 60 81 61 82 62 83 41 84 42 85 50 86
REMARK SMILES IDX 43 87 49 88 51 89 48 90 44 91 45 92 46 93 47 94
REMARK H PARENT 5 7 12 28 71 47 39 58
REMARK Flexibility Score: inf
ROOT
ATOM      1  C   UNL A   1      33.216  28.918  26.700  1.00  0.00     0.002 C 
ENDROOT
BRANCH   1   2
ATOM      2  C   UNL A   1      32.961  27.437  26.383  1.00  0.00     0.021 C 
BRANCH   2   3
ATOM      3  C   UNL A   1      31.490  27.102  26.120  1.00  0.00     0.116 C 
BRANCH   3   4
ATOM      4  N   UNL A   1      31.124  25.889  26.820  1.00  0.00    -0.356 N 
ATOM      5  C   UNL A   1      31.115  24.596  26.394  1.00  0.00     0.227 C 
ATOM      6  O   UNL A   1      30.582  23.775  27.146  1.00  0.00    -0.274 OA
ATOM      7  H   UNL A   1      30.834  26.020  27.751  1.00  0.00     0.163 HD
BRANCH   5   8
ATOM      8  C   UNL A   1      31.783  24.211  25.061  1.00  0.00     0.108 C 
ATOM      9  C   UNL A   1      31.183  22.953  24.422  1.00  0.00     0.023 C 
BRANCH   8  10
ATOM     10  C   UNL A   1      33.284  24.009  25.224  1.00  0.00    -0.000 A 
ATOM     11  C   UNL A   1      33.814  23.499  26.418  1.00  0.00     0.008 A 
ATOM     12  C   UNL A   1      34.172  24.325  24.193  1.00  0.00     0.127 A 
ATOM     13  C   UNL A   1      35.185  23.299  26.564  1.00  0.00     0.004 A 
ATOM     14  C   UNL A   1      35.548  24.146  24.339  1.00  0.00     0.043 A 
ATOM     15  F   UNL A   1      33.706  24.797  23.028  1.00  0.00    -0.207 F 
ATOM     16  C   UNL A   1      36.073  23.631  25.532  1.00  0.00    -0.040 A 
BRANCH  16  17
ATOM     17  C   UNL A   1      37.561  23.421  25.708  1.00  0.00     0.082 C 
BRANCH  17  18
ATOM     18  C   UNL A   1      38.008  21.990  25.549  1.00  0.00     0.009 A 
ATOM     19  C   UNL A   1      37.386  20.950  24.880  1.00  0.00     0.016 A 
ATOM     20  S   UNL A   1      39.514  21.485  26.201  1.00  0.00    -0.149 S 
ATOM     21  C   UNL A   1      38.141  19.744  24.912  1.00  0.00     0.012 A 
ATOM     22  C   UNL A   1      39.326  19.900  25.591  1.00  0.00     0.065 A 
ENDBRANCH  17  18
ENDBRANCH  16  17
ENDBRANCH   8  10
ENDBRANCH   5   8
ENDBRANCH   3   4
ENDBRANCH   2   3
ENDBRANCH   1   2
BRANCH   1  23
ATOM     23  C   UNL A   1      32.448  29.909  25.821  1.00  0.00     0.002 C 
BRANCH  23  24
ATOM     24  C   UNL A   1      31.924  31.145  26.554  1.00  0.00     0.021 C 
BRANCH  24  25
ATOM     25  C   UNL A   1      32.976  31.881  27.380  1.00  0.00     0.116 C 
BRANCH  25  26
ATOM     26  N   UNL A   1      32.662  33.294  27.525  1.00  0.00    -0.352 N 
ATOM     27  C   UNL A   1      33.183  34.214  28.402  1.00  0.00     0.251 C 
ATOM     28  H   UNL A   1      31.980  33.640  26.905  1.00  0.00     0.163 HD
ATOM     29  O   UNL A   1      32.646  35.311  28.532  1.00  0.00    -0.269 OA
BRANCH  27  30
ATOM     30  C   UNL A   1      34.371  33.863  29.209  1.00  0.00     0.039 A 
ATOM     31  C   UNL A   1      34.197  33.160  30.403  1.00  0.00     0.014 A 
ATOM     32  C   UNL A   1      35.655  34.207  28.773  1.00  0.00     0.014 A 
ATOM     33  C   UNL A   1      35.316  32.722  31.115  1.00  0.00     0.010 A 
ATOM     34  C   UNL A   1      36.769  33.711  29.450  1.00  0.00     0.010 A 
ATOM     35  C   UNL A   1      36.611  32.947  30.616  1.00  0.00    -0.014 A 
BRANCH  35  36
ATOM     36  C   UNL A   1      37.803  32.336  31.262  1.00  0.00     0.031 A 
ATOM     37  C   UNL A   1      38.525  31.194  30.603  1.00  0.00     0.074 A 
ATOM     38  C   UNL A   1      38.176  32.763  32.487  1.00  0.00     0.049 A 
ATOM     39  N   UNL A   1      39.517  30.475  31.060  1.00  0.00    -0.248 NA
ATOM     40  C   UNL A   1      38.059  30.792  29.267  1.00  0.00     0.031 C 
ATOM     41  C   UNL A   1      37.527  33.840  33.240  1.00  0.00     0.029 A 
ATOM     42  N   UNL A   1      39.176  32.335  33.327  1.00  0.00    -0.354 N 
ATOM     43  C   UNL A   1      39.784  29.525  30.079  1.00  0.00     0.074 A 
ATOM     44  C   UNL A   1      38.827  29.740  29.015  1.00  0.00     0.031 C 
ATOM     45  C   UNL A   1      38.148  33.994  34.419  1.00  0.00     0.029 A 
ATOM     46  C   UNL A   1      39.201  32.990  34.539  1.00  0.00     0.049 A 
ATOM     47  H   UNL A   1      39.815  31.627  33.085  1.00  0.00     0.167 HD
ATOM     48  C   UNL A   1      40.747  28.570  30.070  1.00  0.00     0.034 A 
ATOM     49  C   UNL A   1      39.957  32.783  35.637  1.00  0.00     0.034 A 
ATOM     50  C   UNL A   1      41.705  28.386  31.131  1.00  0.00     0.049 A 
ATOM     51  C   UNL A   1      40.991  31.684  35.608  1.00  0.00     0.074 A 
ATOM     52  C   UNL A   1      42.782  27.516  31.172  1.00  0.00     0.029 A 
ATOM     53  N   UNL A   1      41.693  29.059  32.345  1.00  0.00    -0.354 N 
ATOM     54  N   UNL A   1      41.291  30.859  34.631  1.00  0.00    -0.248 NA
ATOM     55  C   UNL A   1      41.790  31.486  36.826  1.00  0.00     0.031 C 
ATOM     56  C   UNL A   1      43.361  27.595  32.441  1.00  0.00     0.029 A 
ATOM     57  C   UNL A   1      42.704  28.578  33.163  1.00  0.00     0.049 A 
ATOM     58  H   UNL A   1      41.060  29.772  32.589  1.00  0.00     0.167 HD
ATOM     59  C   UNL A   1      42.325  30.062  35.112  1.00  0.00     0.074 A 
ATOM     60  C   UNL A   1      42.618  30.522  36.452  1.00  0.00     0.031 C 
ATOM     61  C   UNL A   1      42.974  29.037  34.504  1.00  0.00     0.034 A 
BRANCH  48  62
ATOM     62  C   UNL A   1      40.800  27.622  28.899  1.00  0.00     0.023 A 
ATOM     63  C   UNL A   1      41.750  27.754  27.873  1.00  0.00     0.031 A 
ATOM     64  C   UNL A   1      39.911  26.532  28.840  1.00  0.00     0.131 A 
ATOM     65  C   UNL A   1      41.767  26.833  26.813  1.00  0.00     0.055 A 
ATOM     66  C   UNL A   1      39.977  25.582  27.820  1.00  0.00     0.041 A 
ATOM     67  F   UNL A   1      38.968  26.369  29.782  1.00  0.00    -0.206 F 
ATOM     68  C   UNL A   1      40.905  25.733  26.795  1.00  0.00     0.022 A 
BRANCH  65  69
ATOM     69  S   UNL A   1      42.873  27.140  25.410  1.00  0.00     0.124 S 
ATOM     70  O   UNL A   1      42.201  28.252  24.742  1.00  0.00    -0.237 OA
ATOM     71  O   UNL A   1      44.136  27.459  26.066  1.00  0.00    -0.237 OA
ATOM     72  O   UNL A   1      42.853  25.877  24.674  1.00  0.00    -0.744 OA
ENDBRANCH  65  69
ENDBRANCH  48  62
BRANCH  49  73
ATOM     73  C   UNL A   1      39.740  33.585  36.880  1.00  0.00     0.023 A 
ATOM     74  C   UNL A   1      40.505  34.731  37.146  1.00  0.00     0.031 A 
ATOM     75  C   UNL A   1      38.828  33.162  37.865  1.00  0.00     0.131 A 
ATOM     76  C   UNL A   1      40.399  35.371  38.391  1.00  0.00     0.055 A 
ATOM     77  C   UNL A   1      38.672  33.846  39.071  1.00  0.00     0.041 A 
ATOM     78  F   UNL A   1      38.072  32.070  37.669  1.00  0.00    -0.206 F 
ATOM     79  C   UNL A   1      39.475  34.947  39.349  1.00  0.00     0.022 A 
BRANCH  76  80
ATOM     80  S   UNL A   1      41.588  36.680  38.796  1.00  0.00     0.124 S 
ATOM     81  O   UNL A   1      42.270  36.865  37.520  1.00  0.00    -0.237 OA
ATOM     82  O   UNL A   1      40.710  37.766  39.218  1.00  0.00    -0.237 OA
ATOM     83  O   UNL A   1      42.397  36.085  39.857  1.00  0.00    -0.744 OA
ENDBRANCH  76  80
ENDBRANCH  49  73
BRANCH  61  84
ATOM     84  C   UNL A   1      44.078  28.363  35.281  1.00  0.00     0.023 A 
ATOM     85  C   UNL A   1      45.399  28.839  35.243  1.00  0.00     0.031 A 
ATOM     86  C   UNL A   1      43.803  27.236  36.075  1.00  0.00     0.131 A 
ATOM     87  C   UNL A   1      46.406  28.164  35.948  1.00  0.00     0.055 A 
ATOM     88  C   UNL A   1      44.797  26.606  36.824  1.00  0.00     0.041 A 
ATOM     89  F   UNL A   1      42.559  26.734  36.144  1.00  0.00    -0.206 F 
ATOM     90  C   UNL A   1      46.110  27.063  36.754  1.00  0.00     0.022 A 
BRANCH  87  91
ATOM     91  S   UNL A   1      48.126  28.699  35.737  1.00  0.00     0.124 S 
ATOM     92  O   UNL A   1      48.461  28.134  34.434  1.00  0.00    -0.237 OA
ATOM     93  O   UNL A   1      48.011  30.153  35.790  1.00  0.00    -0.237 OA
ATOM     94  O   UNL A   1      48.816  28.091  36.873  1.00  0.00    -0.744 OA
ENDBRANCH  87  91
ENDBRANCH  61  84
ENDBRANCH  35  36
ENDBRANCH  27  30
ENDBRANCH  25  26
ENDBRANCH  24  25
ENDBRANCH  23  24
ENDBRANCH   1  23
TORSDOF 19
ENDMDL
MODEL 3
REMARK VINA RESULT:     -10.9      6.022     11.844
REMARK SMILES C[C@@H](C(=O)NCCCCCCNC(=O)c1ccc(-c2c3nc(c(-c4cc(S(=O)(=O)[O-])ccc4F)c4ccc([nH]4)c(-c4cc(S(=O)(=O)[O-])ccc4F)c4nc(c(-c5cc(S(=O)(=O)[O-])ccc5F)c5ccc2[nH]5)C=C4)C=C3)cc1)c1ccc(Cc2cccs2)cc1F
REMARK SMILES IDX 8 1 7 2 6 3 5 4 3 5 4 6 2 8 1 9 78 10 79 11 89 12 80 13
REMARK SMILES IDX 88 14 90 15 81 16 82 17 83 18 84 19 87 20 85 21 86 22 9 23
REMARK SMILES IDX 10 24 11 25 12 26 13 27 14 29 15 30 16 31 77 32 17 33 76 34
REMARK SMILES IDX 18 35 19 36 20 37 70 38 21 39 75 40 69 41 71 42 22 43 74 44
REMARK SMILES IDX 68 45 67 46 23 48 55 49 35 50 54 51 36 52 39 53 53 54 72 55
REMARK SMILES IDX 37 56 38 57 52 59 73 60 40 61 24 62 25 63 33 64 26 65 32 66
REMARK SMILES IDX 34 67 31 68 27 69 28 70 29 71 30 72 56 73 57 74 65 75 58 76
REMARK SMILES IDX 64 77 66 78 63 79 59 80 60 81 61 82 62 83 41 84 42 85 50 86
REMARK SMILES IDX 43 87 49 88 51 89 48 90 44 91 45 92 46 93 47 94
REMARK H PARENT 5 7 12 28 71 47 39 58
REMARK Flexibility Score: inf
ROOT
ATOM      1  C   UNL A   1      37.076  22.819  25.594  1.00  0.00     0.002 C 
ENDROOT
BRANCH   1   2
ATOM      2  C   UNL A   1      35.874  23.613  26.126  1.00  0.00     0.021 C 
BRANCH   2   3
ATOM      3  C   UNL A   1      35.188  24.485  25.070  1.00  0.00     0.116 C 
BRANCH   3   4
ATOM      4  N   UNL A   1      34.378  25.498  25.711  1.00  0.00    -0.356 N 
ATOM      5  C   UNL A   1      33.346  26.240  25.222  1.00  0.00     0.227 C 
ATOM      6  O   UNL A   1      32.950  27.164  25.936  1.00  0.00    -0.274 OA
ATOM      7  H   UNL A   1      34.610  25.680  26.650  1.00  0.00     0.163 HD
BRANCH   5   8
ATOM      8  C   UNL A   1      32.706  25.885  23.867  1.00  0.00     0.108 C 
ATOM      9  C   UNL A   1      33.638  26.126  22.673  1.00  0.00     0.023 C 
BRANCH   8  10
ATOM     10  C   UNL A   1      31.410  26.653  23.640  1.00  0.00    -0.000 A 
ATOM     11  C   UNL A   1      31.410  27.871  22.945  1.00  0.00     0.008 A 
ATOM     12  C   UNL A   1      30.190  26.167  24.116  1.00  0.00     0.127 A 
ATOM     13  C   UNL A   1      30.224  28.567  22.723  1.00  0.00     0.004 A 
ATOM     14  C   UNL A   1      29.001  26.869  23.915  1.00  0.00     0.043 A 
ATOM     15  F   UNL A   1      30.142  24.997  24.769  1.00  0.00    -0.207 F 
ATOM     16  C   UNL A   1      29.004  28.083  23.216  1.00  0.00    -0.040 A 
BRANCH  16  17
ATOM     17  C   UNL A   1      27.725  28.855  22.978  1.00  0.00     0.082 C 
BRANCH  17  18
ATOM     18  C   UNL A   1      27.925  30.205  22.336  1.00  0.00     0.009 A 
ATOM     19  C   UNL A   1      27.975  30.532  20.992  1.00  0.00     0.016 A 
ATOM     20  S   UNL A   1      28.062  31.608  23.315  1.00  0.00    -0.149 S 
ATOM     21  C   UNL A   1      28.134  31.929  20.771  1.00  0.00     0.012 A 
ATOM     22  C   UNL A   1      28.185  32.632  21.952  1.00  0.00     0.065 A 
ENDBRANCH  17  18
ENDBRANCH  16  17
ENDBRANCH   8  10
ENDBRANCH   5   8
ENDBRANCH   3   4
ENDBRANCH   2   3
ENDBRANCH   1   2
BRANCH   1  23
ATOM     23  C   UNL A   1      36.730  21.468  24.960  1.00  0.00     0.002 C 
BRANCH  23  24
ATOM     24  C   UNL A   1      37.907  20.499  24.834  1.00  0.00     0.021 C 
BRANCH  24  25
ATOM     25  C   UNL A   1      39.054  20.769  25.804  1.00  0.00     0.116 C 
BRANCH  25  26
ATOM     26  N   UNL A   1      39.905  19.601  25.977  1.00  0.00    -0.352 N 
ATOM     27  C   UNL A   1      41.262  19.538  26.176  1.00  0.00     0.251 C 
ATOM     28  H   UNL A   1      39.441  18.733  25.948  1.00  0.00     0.163 HD
ATOM     29  O   UNL A   1      41.847  18.462  26.083  1.00  0.00    -0.269 OA
BRANCH  27  30
ATOM     30  C   UNL A   1      42.016  20.775  26.471  1.00  0.00     0.039 A 
ATOM     31  C   UNL A   1      42.348  21.634  25.421  1.00  0.00     0.014 A 
ATOM     32  C   UNL A   1      42.372  21.097  27.785  1.00  0.00     0.014 A 
ATOM     33  C   UNL A   1      42.956  22.861  25.699  1.00  0.00     0.010 A 
ATOM     34  C   UNL A   1      42.918  22.349  28.065  1.00  0.00     0.010 A 
ATOM     35  C   UNL A   1      43.198  23.251  27.028  1.00  0.00    -0.014 A 
BRANCH  35  36
ATOM     36  C   UNL A   1      43.677  24.621  27.354  1.00  0.00     0.031 A 
ATOM     37  C   UNL A   1      42.733  25.644  27.922  1.00  0.00     0.074 A 
ATOM     38  C   UNL A   1      44.948  24.959  27.053  1.00  0.00     0.049 A 
ATOM     39  N   UNL A   1      42.946  26.909  28.174  1.00  0.00    -0.248 NA
ATOM     40  C   UNL A   1      41.366  25.193  28.225  1.00  0.00     0.031 C 
ATOM     41  C   UNL A   1      45.945  24.060  26.464  1.00  0.00     0.029 A 
ATOM     42  N   UNL A   1      45.620  26.152  27.178  1.00  0.00    -0.354 N 
ATOM     43  C   UNL A   1      41.739  27.412  28.649  1.00  0.00     0.074 A 
ATOM     44  C   UNL A   1      40.788  26.321  28.619  1.00  0.00     0.031 C 
ATOM     45  C   UNL A   1      47.096  24.727  26.291  1.00  0.00     0.029 A 
ATOM     46  C   UNL A   1      46.910  26.116  26.695  1.00  0.00     0.049 A 
ATOM     47  H   UNL A   1      45.217  26.957  27.577  1.00  0.00     0.167 HD
ATOM     48  C   UNL A   1      41.459  28.668  29.077  1.00  0.00     0.034 A 
ATOM     49  C   UNL A   1      47.827  27.096  26.557  1.00  0.00     0.034 A 
ATOM     50  C   UNL A   1      42.426  29.736  29.119  1.00  0.00     0.049 A 
ATOM     51  C   UNL A   1      47.468  28.492  27.006  1.00  0.00     0.074 A 
ATOM     52  C   UNL A   1      42.270  31.014  29.630  1.00  0.00     0.029 A 
ATOM     53  N   UNL A   1      43.717  29.667  28.612  1.00  0.00    -0.354 N 
ATOM     54  N   UNL A   1      46.349  28.924  27.542  1.00  0.00    -0.248 NA
ATOM     55  C   UNL A   1      48.490  29.534  26.832  1.00  0.00     0.031 C 
ATOM     56  C   UNL A   1      43.429  31.742  29.349  1.00  0.00     0.029 A 
ATOM     57  C   UNL A   1      44.343  30.897  28.743  1.00  0.00     0.049 A 
ATOM     58  H   UNL A   1      44.126  28.863  28.219  1.00  0.00     0.167 HD
ATOM     59  C   UNL A   1      46.545  30.280  27.787  1.00  0.00     0.074 A 
ATOM     60  C   UNL A   1      47.896  30.589  27.369  1.00  0.00     0.031 C 
ATOM     61  C   UNL A   1      45.687  31.193  28.307  1.00  0.00     0.034 A 
BRANCH  48  62
ATOM     62  C   UNL A   1      40.046  28.978  29.503  1.00  0.00     0.023 A 
ATOM     63  C   UNL A   1      39.687  29.120  30.853  1.00  0.00     0.031 A 
ATOM     64  C   UNL A   1      39.051  29.187  28.529  1.00  0.00     0.131 A 
ATOM     65  C   UNL A   1      38.360  29.426  31.195  1.00  0.00     0.055 A 
ATOM     66  C   UNL A   1      37.751  29.558  28.872  1.00  0.00     0.041 A 
ATOM     67  F   UNL A   1      39.333  29.044  27.224  1.00  0.00    -0.206 F 
ATOM     68  C   UNL A   1      37.397  29.674  30.213  1.00  0.00     0.022 A 
BRANCH  65  69
ATOM     69  S   UNL A   1      37.885  29.411  32.944  1.00  0.00     0.124 S 
ATOM     70  O   UNL A   1      39.168  29.653  33.601  1.00  0.00    -0.237 OA
ATOM     71  O   UNL A   1      36.916  30.499  33.018  1.00  0.00    -0.237 OA
ATOM     72  O   UNL A   1      37.335  28.071  33.140  1.00  0.00    -0.744 OA
ENDBRANCH  65  69
ENDBRANCH  48  62
BRANCH  49  73
ATOM     73  C   UNL A   1      49.151  26.824  25.921  1.00  0.00     0.023 A 
ATOM     74  C   UNL A   1      50.289  26.562  26.699  1.00  0.00     0.031 A 
ATOM     75  C   UNL A   1      49.317  26.914  24.526  1.00  0.00     0.131 A 
ATOM     76  C   UNL A   1      51.550  26.472  26.089  1.00  0.00     0.055 A 
ATOM     77  C   UNL A   1      50.562  26.749  23.917  1.00  0.00     0.041 A 
ATOM     78  F   UNL A   1      48.267  27.167  23.730  1.00  0.00    -0.206 F 
ATOM     79  C   UNL A   1      51.692  26.547  24.701  1.00  0.00     0.022 A 
BRANCH  76  80
ATOM     80  S   UNL A   1      53.021  26.401  27.148  1.00  0.00     0.124 S 
ATOM     81  O   UNL A   1      52.437  26.551  28.476  1.00  0.00    -0.237 OA
ATOM     82  O   UNL A   1      53.560  25.082  26.829  1.00  0.00    -0.237 OA
ATOM     83  O   UNL A   1      53.827  27.530  26.687  1.00  0.00    -0.744 OA
ENDBRANCH  76  80
ENDBRANCH  49  73
BRANCH  61  84
ATOM     84  C   UNL A   1      46.195  32.603  28.471  1.00  0.00     0.023 A 
ATOM     85  C   UNL A   1      46.175  33.520  27.406  1.00  0.00     0.031 A 
ATOM     86  C   UNL A   1      46.698  33.039  29.709  1.00  0.00     0.131 A 
ATOM     87  C   UNL A   1      46.692  34.811  27.585  1.00  0.00     0.055 A 
ATOM     88  C   UNL A   1      47.152  34.344  29.900  1.00  0.00     0.041 A 
ATOM     89  F   UNL A   1      46.746  32.204  30.761  1.00  0.00    -0.206 F 
ATOM     90  C   UNL A   1      47.161  35.236  28.830  1.00  0.00     0.022 A 
BRANCH  87  91
ATOM     91  S   UNL A   1      46.812  35.908  26.146  1.00  0.00     0.124 S 
ATOM     92  O   UNL A   1      46.576  34.985  25.041  1.00  0.00    -0.237 OA
ATOM     93  O   UNL A   1      45.754  36.879  26.403  1.00  0.00    -0.237 OA
ATOM     94  O   UNL A   1      48.172  36.438  26.232  1.00  0.00    -0.744 OA
ENDBRANCH  87  91
ENDBRANCH  61  84
ENDBRANCH  35  36
ENDBRANCH  27  30
ENDBRANCH  25  26
ENDBRANCH  24  25
ENDBRANCH  23  24
ENDBRANCH   1  23
TORSDOF 19
ENDMDL
