MODEL 1
REMARK VINA RESULT:     -12.2      0.000      0.000
REMARK SMILES Cc1cc(SCC(=O)NCCCCCCNC(=O)c2ccc(-c3c4nc(c(-c5cc(S(=O)(=O)[O-])ccc5F)c5ccc([nH]5)c(-c5cc(S(=O)(=O)[O-])ccc5F)c5nc(c(-c6cc(S(=O)(=O)[O-])ccc6F)c6ccc3[nH]6)C=C5)C=C4)cc2)c2cc(C(F)(F)F)ccc2n1
REMARK SMILES IDX 12 1 11 2 10 3 9 4 7 5 8 6 6 8 5 9 4 10 1 11 2 12 3 13 92 14
REMARK SMILES IDX 91 15 82 16 90 17 83 18 89 19 84 20 85 21 86 22 87 23 88 24
REMARK SMILES IDX 13 25 14 26 15 27 16 28 17 29 18 31 19 32 20 33 81 34 21 35
REMARK SMILES IDX 80 36 22 37 23 38 24 39 74 40 25 41 79 42 73 43 75 44 26 45
REMARK SMILES IDX 78 46 72 47 71 48 27 50 59 51 39 52 58 53 40 54 43 55 57 56
REMARK SMILES IDX 76 57 41 58 42 59 56 61 77 62 44 63 28 64 29 65 37 66 30 67
REMARK SMILES IDX 36 68 38 69 35 70 31 71 32 72 33 73 34 74 60 75 61 76 69 77
REMARK SMILES IDX 62 78 68 79 70 80 67 81 63 82 64 83 65 84 66 85 45 86 46 87
REMARK SMILES IDX 54 88 47 89 53 90 55 91 52 92 48 93 49 94 50 95 51 96
REMARK H PARENT 9 7 16 30 75 49 43 60
REMARK Flexibility Score: inf
ROOT
ATOM      1  C   UNL A   1      32.680  29.418  26.883  1.00  0.00     0.002 C 
ENDROOT
BRANCH   1   2
ATOM      2  C   UNL A   1      31.887  28.223  27.433  1.00  0.00     0.021 C 
BRANCH   2   3
ATOM      3  C   UNL A   1      31.291  27.321  26.350  1.00  0.00     0.116 C 
BRANCH   3   4
ATOM      4  N   UNL A   1      30.936  26.028  26.903  1.00  0.00    -0.355 N 
ATOM      5  C   UNL A   1      31.219  24.778  26.449  1.00  0.00     0.230 C 
ATOM      6  O   UNL A   1      30.710  23.822  27.043  1.00  0.00    -0.274 OA
ATOM      7  H   UNL A   1      30.408  26.061  27.734  1.00  0.00     0.163 HD
BRANCH   5   8
ATOM      8  C   UNL A   1      32.210  24.549  25.326  1.00  0.00     0.174 C 
BRANCH   8   9
ATOM      9  S   UNL A   1      32.363  22.833  24.741  1.00  0.00    -0.115 SA
BRANCH   9  10
ATOM     10  C   UNL A   1      34.069  22.326  25.026  1.00  0.00     0.019 A 
ATOM     11  C   UNL A   1      37.438  23.738  26.000  1.00  0.00     0.067 C 
ATOM     12  C   UNL A   1      36.353  22.790  25.587  1.00  0.00     0.039 A 
ATOM     13  C   UNL A   1      35.062  23.242  25.369  1.00  0.00     0.039 A 
ATOM     14  N   UNL A   1      36.711  21.500  25.423  1.00  0.00    -0.253 NA
ATOM     15  C   UNL A   1      35.777  20.612  25.056  1.00  0.00     0.072 A 
ATOM     16  C   UNL A   1      34.424  20.955  24.853  1.00  0.00     0.014 A 
ATOM     17  C   UNL A   1      36.181  19.297  24.865  1.00  0.00     0.029 A 
ATOM     18  C   UNL A   1      33.524  19.914  24.481  1.00  0.00     0.024 A 
ATOM     19  C   UNL A   1      35.291  18.290  24.482  1.00  0.00     0.015 A 
ATOM     20  C   UNL A   1      33.945  18.588  24.288  1.00  0.00     0.056 A 
BRANCH  20  21
ATOM     21  C   UNL A   1      32.949  17.530  23.880  1.00  0.00     0.416 C 
ATOM     22  F   UNL A   1      32.113  17.186  24.897  1.00  0.00    -0.166 F 
ATOM     23  F   UNL A   1      32.150  17.939  22.856  1.00  0.00    -0.166 F 
ATOM     24  F   UNL A   1      33.530  16.372  23.460  1.00  0.00    -0.166 F 
ENDBRANCH  20  21
ENDBRANCH   9  10
ENDBRANCH   8   9
ENDBRANCH   5   8
ENDBRANCH   3   4
ENDBRANCH   2   3
ENDBRANCH   1   2
BRANCH   1  25
ATOM     25  C   UNL A   1      31.884  30.368  25.981  1.00  0.00     0.002 C 
BRANCH  25  26
ATOM     26  C   UNL A   1      31.591  31.740  26.591  1.00  0.00     0.021 C 
BRANCH  26  27
ATOM     27  C   UNL A   1      32.780  32.384  27.297  1.00  0.00     0.116 C 
BRANCH  27  28
ATOM     28  N   UNL A   1      32.557  33.798  27.557  1.00  0.00    -0.352 N 
ATOM     29  C   UNL A   1      33.123  34.603  28.514  1.00  0.00     0.251 C 
ATOM     30  H   UNL A   1      31.910  34.240  26.962  1.00  0.00     0.163 HD
ATOM     31  O   UNL A   1      32.656  35.720  28.725  1.00  0.00    -0.269 OA
BRANCH  29  32
ATOM     32  C   UNL A   1      34.273  34.111  29.306  1.00  0.00     0.039 A 
ATOM     33  C   UNL A   1      34.037  33.259  30.386  1.00  0.00     0.014 A 
ATOM     34  C   UNL A   1      35.580  34.487  28.981  1.00  0.00     0.014 A 
ATOM     35  C   UNL A   1      35.117  32.733  31.101  1.00  0.00     0.010 A 
ATOM     36  C   UNL A   1      36.655  33.901  29.643  1.00  0.00     0.010 A 
ATOM     37  C   UNL A   1      36.436  33.019  30.712  1.00  0.00    -0.014 A 
BRANCH  37  38
ATOM     38  C   UNL A   1      37.596  32.408  31.414  1.00  0.00     0.031 A 
ATOM     39  C   UNL A   1      38.337  31.256  30.789  1.00  0.00     0.074 A 
ATOM     40  C   UNL A   1      37.951  32.857  32.635  1.00  0.00     0.049 A 
ATOM     41  N   UNL A   1      39.326  30.547  31.271  1.00  0.00    -0.248 NA
ATOM     42  C   UNL A   1      37.887  30.828  29.456  1.00  0.00     0.031 C 
ATOM     43  C   UNL A   1      37.293  33.947  33.357  1.00  0.00     0.029 A 
ATOM     44  N   UNL A   1      38.948  32.452  33.488  1.00  0.00    -0.354 N 
ATOM     45  C   UNL A   1      39.613  29.590  30.305  1.00  0.00     0.074 A 
ATOM     46  C   UNL A   1      38.646  29.765  29.243  1.00  0.00     0.031 C 
ATOM     47  C   UNL A   1      37.922  34.144  34.527  1.00  0.00     0.029 A 
ATOM     48  C   UNL A   1      38.993  33.162  34.666  1.00  0.00     0.049 A 
ATOM     49  H   UNL A   1      39.573  31.722  33.276  1.00  0.00     0.167 HD
ATOM     50  C   UNL A   1      40.608  28.667  30.293  1.00  0.00     0.034 A 
ATOM     51  C   UNL A   1      39.793  33.028  35.742  1.00  0.00     0.034 A 
ATOM     52  C   UNL A   1      41.564  28.505  31.362  1.00  0.00     0.049 A 
ATOM     53  C   UNL A   1      40.856  31.957  35.729  1.00  0.00     0.074 A 
ATOM     54  C   UNL A   1      42.632  27.627  31.436  1.00  0.00     0.029 A 
ATOM     55  N   UNL A   1      41.565  29.228  32.548  1.00  0.00    -0.354 N 
ATOM     56  N   UNL A   1      41.141  31.086  34.788  1.00  0.00    -0.248 NA
ATOM     57  C   UNL A   1      41.710  31.856  36.920  1.00  0.00     0.031 C 
ATOM     58  C   UNL A   1      43.228  27.766  32.693  1.00  0.00     0.029 A 
ATOM     59  C   UNL A   1      42.591  28.792  33.372  1.00  0.00     0.049 A 
ATOM     60  H   UNL A   1      40.929  29.946  32.770  1.00  0.00     0.167 HD
ATOM     61  C   UNL A   1      42.233  30.361  35.260  1.00  0.00     0.074 A 
ATOM     62  C   UNL A   1      42.562  30.907  36.561  1.00  0.00     0.031 C 
ATOM     63  C   UNL A   1      42.906  29.340  34.671  1.00  0.00     0.034 A 
BRANCH  50  64
ATOM     64  C   UNL A   1      40.690  27.749  29.096  1.00  0.00     0.023 A 
ATOM     65  C   UNL A   1      41.622  27.965  28.064  1.00  0.00     0.031 A 
ATOM     66  C   UNL A   1      39.814  26.656  28.969  1.00  0.00     0.131 A 
ATOM     67  C   UNL A   1      41.603  27.153  26.920  1.00  0.00     0.055 A 
ATOM     68  C   UNL A   1      39.860  25.798  27.869  1.00  0.00     0.041 A 
ATOM     69  F   UNL A   1      38.888  26.410  29.910  1.00  0.00    -0.206 F 
ATOM     70  C   UNL A   1      40.747  26.053  26.828  1.00  0.00     0.022 A 
BRANCH  67  71
ATOM     71  S   UNL A   1      42.605  27.649  25.491  1.00  0.00     0.124 S 
ATOM     72  O   UNL A   1      43.913  27.857  26.107  1.00  0.00    -0.237 OA
ATOM     73  O   UNL A   1      42.490  26.493  24.610  1.00  0.00    -0.237 OA
ATOM     74  O   UNL A   1      41.946  28.864  25.018  1.00  0.00    -0.744 OA
ENDBRANCH  67  71
ENDBRANCH  50  64
BRANCH  51  75
ATOM     75  C   UNL A   1      39.625  33.915  36.931  1.00  0.00     0.023 A 
ATOM     76  C   UNL A   1      39.062  33.429  38.121  1.00  0.00     0.031 A 
ATOM     77  C   UNL A   1      39.971  35.277  36.876  1.00  0.00     0.131 A 
ATOM     78  C   UNL A   1      38.807  34.308  39.186  1.00  0.00     0.055 A 
ATOM     79  C   UNL A   1      39.775  36.134  37.961  1.00  0.00     0.041 A 
ATOM     80  F   UNL A   1      40.513  35.797  35.763  1.00  0.00    -0.206 F 
ATOM     81  C   UNL A   1      39.175  35.654  39.120  1.00  0.00     0.022 A 
BRANCH  78  82
ATOM     82  S   UNL A   1      37.888  33.688  40.621  1.00  0.00     0.124 S 
ATOM     83  O   UNL A   1      37.686  34.909  41.394  1.00  0.00    -0.237 OA
ATOM     84  O   UNL A   1      36.698  33.119  39.996  1.00  0.00    -0.237 OA
ATOM     85  O   UNL A   1      38.802  32.716  41.217  1.00  0.00    -0.744 OA
ENDBRANCH  78  82
ENDBRANCH  51  75
BRANCH  63  86
ATOM     86  C   UNL A   1      44.102  28.785  35.410  1.00  0.00     0.023 A 
ATOM     87  C   UNL A   1      43.981  27.744  36.347  1.00  0.00     0.031 A 
ATOM     88  C   UNL A   1      45.384  29.316  35.177  1.00  0.00     0.131 A 
ATOM     89  C   UNL A   1      45.109  27.309  37.059  1.00  0.00     0.055 A 
ATOM     90  C   UNL A   1      46.513  28.833  35.837  1.00  0.00     0.041 A 
ATOM     91  F   UNL A   1      45.559  30.315  34.297  1.00  0.00    -0.206 F 
ATOM     92  C   UNL A   1      46.377  27.834  36.796  1.00  0.00     0.022 A 
BRANCH  89  93
ATOM     93  S   UNL A   1      44.881  26.122  38.411  1.00  0.00     0.124 S 
ATOM     94  O   UNL A   1      44.556  26.997  39.533  1.00  0.00    -0.237 OA
ATOM     95  O   UNL A   1      43.790  25.290  37.915  1.00  0.00    -0.237 OA
ATOM     96  O   UNL A   1      46.178  25.452  38.502  1.00  0.00    -0.744 OA
ENDBRANCH  89  93
ENDBRANCH  63  86
ENDBRANCH  37  38
ENDBRANCH  29  32
ENDBRANCH  27  28
ENDBRANCH  26  27
ENDBRANCH  25  26
ENDBRANCH   1  25
TORSDOF 19
ENDMDL
MODEL 2
REMARK VINA RESULT:     -12.0      5.815      9.402
REMARK SMILES Cc1cc(SCC(=O)NCCCCCCNC(=O)c2ccc(-c3c4nc(c(-c5cc(S(=O)(=O)[O-])ccc5F)c5ccc([nH]5)c(-c5cc(S(=O)(=O)[O-])ccc5F)c5nc(c(-c6cc(S(=O)(=O)[O-])ccc6F)c6ccc3[nH]6)C=C5)C=C4)cc2)c2cc(C(F)(F)F)ccc2n1
REMARK SMILES IDX 12 1 11 2 10 3 9 4 7 5 8 6 6 8 5 9 4 10 1 11 2 12 3 13 92 14
REMARK SMILES IDX 91 15 82 16 90 17 83 18 89 19 84 20 85 21 86 22 87 23 88 24
REMARK SMILES IDX 13 25 14 26 15 27 16 28 17 29 18 31 19 32 20 33 81 34 21 35
REMARK SMILES IDX 80 36 22 37 23 38 24 39 74 40 25 41 79 42 73 43 75 44 26 45
REMARK SMILES IDX 78 46 72 47 71 48 27 50 59 51 39 52 58 53 40 54 43 55 57 56
REMARK SMILES IDX 76 57 41 58 42 59 56 61 77 62 44 63 28 64 29 65 37 66 30 67
REMARK SMILES IDX 36 68 38 69 35 70 31 71 32 72 33 73 34 74 60 75 61 76 69 77
REMARK SMILES IDX 62 78 68 79 70 80 67 81 63 82 64 83 65 84 66 85 45 86 46 87
REMARK SMILES IDX 54 88 47 89 53 90 55 91 52 92 48 93 49 94 50 95 51 96
REMARK H PARENT 9 7 16 30 75 49 43 60
REMARK Flexibility Score: inf
ROOT
ATOM      1  C   UNL A   1      33.840  20.369  25.211  1.00  0.00     0.002 C 
ENDROOT
BRANCH   1   2
ATOM      2  C   UNL A   1      32.360  20.720  24.996  1.00  0.00     0.021 C 
BRANCH   2   3
ATOM      3  C   UNL A   1      32.126  22.137  24.469  1.00  0.00     0.116 C 
BRANCH   3   4
ATOM      4  N   UNL A   1      31.407  22.932  25.446  1.00  0.00    -0.355 N 
ATOM      5  C   UNL A   1      31.880  23.752  26.421  1.00  0.00     0.230 C 
ATOM      6  O   UNL A   1      31.063  24.244  27.205  1.00  0.00    -0.274 OA
ATOM      7  H   UNL A   1      30.426  22.866  25.395  1.00  0.00     0.163 HD
BRANCH   5   8
ATOM      8  C   UNL A   1      33.342  24.146  26.484  1.00  0.00     0.174 C 
BRANCH   8   9
ATOM      9  S   UNL A   1      33.928  25.240  25.154  1.00  0.00    -0.115 SA
BRANCH   9  10
ATOM     10  C   UNL A   1      32.739  26.587  25.014  1.00  0.00     0.019 A 
ATOM     11  C   UNL A   1      29.399  27.419  23.449  1.00  0.00     0.067 C 
ATOM     12  C   UNL A   1      30.687  27.530  24.207  1.00  0.00     0.039 A 
ATOM     13  C   UNL A   1      31.569  26.463  24.266  1.00  0.00     0.039 A 
ATOM     14  N   UNL A   1      30.940  28.717  24.796  1.00  0.00    -0.253 NA
ATOM     15  C   UNL A   1      32.077  28.867  25.488  1.00  0.00     0.072 A 
ATOM     16  C   UNL A   1      33.023  27.832  25.651  1.00  0.00     0.014 A 
ATOM     17  C   UNL A   1      32.324  30.109  26.057  1.00  0.00     0.029 A 
ATOM     18  C   UNL A   1      34.186  28.113  26.425  1.00  0.00     0.024 A 
ATOM     19  C   UNL A   1      33.479  30.376  26.798  1.00  0.00     0.015 A 
ATOM     20  C   UNL A   1      34.426  29.374  26.994  1.00  0.00     0.056 A 
BRANCH  20  21
ATOM     21  C   UNL A   1      35.683  29.618  27.793  1.00  0.00     0.416 C 
ATOM     22  F   UNL A   1      36.125  30.900  27.686  1.00  0.00    -0.166 F 
ATOM     23  F   UNL A   1      35.503  29.391  29.123  1.00  0.00    -0.166 F 
ATOM     24  F   UNL A   1      36.725  28.826  27.417  1.00  0.00    -0.166 F 
ENDBRANCH  20  21
ENDBRANCH   9  10
ENDBRANCH   8   9
ENDBRANCH   5   8
ENDBRANCH   3   4
ENDBRANCH   2   3
ENDBRANCH   1   2
BRANCH   1  25
ATOM     25  C   UNL A   1      34.838  21.335  24.562  1.00  0.00     0.002 C 
BRANCH  25  26
ATOM     26  C   UNL A   1      35.954  21.823  25.487  1.00  0.00     0.021 C 
BRANCH  26  27
ATOM     27  C   UNL A   1      37.345  21.801  24.864  1.00  0.00     0.116 C 
BRANCH  27  28
ATOM     28  N   UNL A   1      38.183  20.761  25.440  1.00  0.00    -0.352 N 
ATOM     29  C   UNL A   1      39.376  20.880  26.109  1.00  0.00     0.251 C 
ATOM     30  H   UNL A   1      37.847  19.842  25.337  1.00  0.00     0.163 HD
ATOM     31  O   UNL A   1      40.050  19.877  26.336  1.00  0.00    -0.269 OA
BRANCH  29  32
ATOM     32  C   UNL A   1      39.857  22.216  26.528  1.00  0.00     0.039 A 
ATOM     33  C   UNL A   1      40.976  22.304  27.357  1.00  0.00     0.014 A 
ATOM     34  C   UNL A   1      39.205  23.377  26.102  1.00  0.00     0.014 A 
ATOM     35  C   UNL A   1      41.481  23.559  27.707  1.00  0.00     0.010 A 
ATOM     36  C   UNL A   1      39.756  24.624  26.386  1.00  0.00     0.010 A 
ATOM     37  C   UNL A   1      40.899  24.729  27.193  1.00  0.00    -0.014 A 
BRANCH  37  38
ATOM     38  C   UNL A   1      41.469  26.070  27.493  1.00  0.00     0.031 A 
ATOM     39  C   UNL A   1      42.849  26.429  27.011  1.00  0.00     0.074 A 
ATOM     40  C   UNL A   1      40.765  26.944  28.241  1.00  0.00     0.049 A 
ATOM     41  N   UNL A   1      43.545  27.517  27.228  1.00  0.00    -0.248 NA
ATOM     42  C   UNL A   1      43.548  25.420  26.201  1.00  0.00     0.031 C 
ATOM     43  C   UNL A   1      39.430  26.701  28.791  1.00  0.00     0.029 A 
ATOM     44  N   UNL A   1      41.073  28.210  28.674  1.00  0.00    -0.354 N 
ATOM     45  C   UNL A   1      44.763  27.321  26.586  1.00  0.00     0.074 A 
ATOM     46  C   UNL A   1      44.735  25.983  26.034  1.00  0.00     0.031 C 
ATOM     47  C   UNL A   1      39.023  27.792  29.458  1.00  0.00     0.029 A 
ATOM     48  C   UNL A   1      40.085  28.793  29.434  1.00  0.00     0.049 A 
ATOM     49  H   UNL A   1      41.922  28.660  28.460  1.00  0.00     0.167 HD
ATOM     50  C   UNL A   1      45.798  28.187  26.446  1.00  0.00     0.034 A 
ATOM     51  C   UNL A   1      40.044  29.989  30.054  1.00  0.00     0.034 A 
ATOM     52  C   UNL A   1      45.811  29.519  27.003  1.00  0.00     0.049 A 
ATOM     53  C   UNL A   1      41.231  30.912  29.932  1.00  0.00     0.074 A 
ATOM     54  C   UNL A   1      46.791  30.490  26.891  1.00  0.00     0.029 A 
ATOM     55  N   UNL A   1      44.800  30.066  27.784  1.00  0.00    -0.354 N 
ATOM     56  N   UNL A   1      42.360  30.728  29.284  1.00  0.00    -0.248 NA
ATOM     57  C   UNL A   1      41.136  32.209  30.616  1.00  0.00     0.031 C 
ATOM     58  C   UNL A   1      46.410  31.589  27.666  1.00  0.00     0.029 A 
ATOM     59  C   UNL A   1      45.151  31.345  28.189  1.00  0.00     0.049 A 
ATOM     60  H   UNL A   1      43.959  29.611  28.016  1.00  0.00     0.167 HD
ATOM     61  C   UNL A   1      43.090  31.902  29.454  1.00  0.00     0.074 A 
ATOM     62  C   UNL A   1      42.268  32.790  30.250  1.00  0.00     0.031 C 
ATOM     63  C   UNL A   1      44.326  32.220  28.990  1.00  0.00     0.034 A 
BRANCH  50  64
ATOM     64  C   UNL A   1      47.010  27.706  25.681  1.00  0.00     0.023 A 
ATOM     65  C   UNL A   1      47.211  28.044  24.331  1.00  0.00     0.031 A 
ATOM     66  C   UNL A   1      47.965  26.880  26.299  1.00  0.00     0.131 A 
ATOM     67  C   UNL A   1      48.293  27.497  23.624  1.00  0.00     0.055 A 
ATOM     68  C   UNL A   1      49.088  26.411  25.614  1.00  0.00     0.041 A 
ATOM     69  F   UNL A   1      47.818  26.503  27.579  1.00  0.00    -0.206 F 
ATOM     70  C   UNL A   1      49.249  26.706  24.264  1.00  0.00     0.022 A 
BRANCH  67  71
ATOM     71  S   UNL A   1      48.345  27.710  21.823  1.00  0.00     0.124 S 
ATOM     72  O   UNL A   1      47.026  28.276  21.555  1.00  0.00    -0.237 OA
ATOM     73  O   UNL A   1      49.476  28.613  21.645  1.00  0.00    -0.237 OA
ATOM     74  O   UNL A   1      48.545  26.351  21.324  1.00  0.00    -0.744 OA
ENDBRANCH  67  71
ENDBRANCH  50  64
BRANCH  51  75
ATOM     75  C   UNL A   1      38.852  30.389  30.857  1.00  0.00     0.023 A 
ATOM     76  C   UNL A   1      37.895  31.275  30.339  1.00  0.00     0.031 A 
ATOM     77  C   UNL A   1      38.680  29.937  32.178  1.00  0.00     0.131 A 
ATOM     78  C   UNL A   1      36.844  31.727  31.153  1.00  0.00     0.055 A 
ATOM     79  C   UNL A   1      37.598  30.340  32.963  1.00  0.00     0.041 A 
ATOM     80  F   UNL A   1      39.564  29.088  32.727  1.00  0.00    -0.206 F 
ATOM     81  C   UNL A   1      36.680  31.253  32.456  1.00  0.00     0.022 A 
BRANCH  78  82
ATOM     82  S   UNL A   1      35.754  33.031  30.518  1.00  0.00     0.124 S 
ATOM     83  O   UNL A   1      35.543  33.846  31.709  1.00  0.00    -0.237 OA
ATOM     84  O   UNL A   1      36.574  33.626  29.468  1.00  0.00    -0.237 OA
ATOM     85  O   UNL A   1      34.582  32.295  30.049  1.00  0.00    -0.744 OA
ENDBRANCH  78  82
ENDBRANCH  51  75
BRANCH  63  86
ATOM     86  C   UNL A   1      44.838  33.609  29.288  1.00  0.00     0.023 A 
ATOM     87  C   UNL A   1      44.505  34.714  28.484  1.00  0.00     0.031 A 
ATOM     88  C   UNL A   1      45.684  33.828  30.390  1.00  0.00     0.131 A 
ATOM     89  C   UNL A   1      45.061  35.972  28.760  1.00  0.00     0.055 A 
ATOM     90  C   UNL A   1      46.179  35.095  30.700  1.00  0.00     0.041 A 
ATOM     91  F   UNL A   1      46.041  32.810  31.190  1.00  0.00    -0.206 F 
ATOM     92  C   UNL A   1      45.880  36.174  29.874  1.00  0.00     0.022 A 
BRANCH  89  93
ATOM     93  S   UNL A   1      44.785  37.323  27.581  1.00  0.00     0.124 S 
ATOM     94  O   UNL A   1      46.044  37.344  26.843  1.00  0.00    -0.237 OA
ATOM     95  O   UNL A   1      43.619  36.857  26.839  1.00  0.00    -0.237 OA
ATOM     96  O   UNL A   1      44.550  38.484  28.438  1.00  0.00    -0.744 OA
ENDBRANCH  89  93
ENDBRANCH  63  86
ENDBRANCH  37  38
ENDBRANCH  29  32
ENDBRANCH  27  28
ENDBRANCH  26  27
ENDBRANCH  25  26
ENDBRANCH   1  25
TORSDOF 19
ENDMDL
MODEL 3
REMARK VINA RESULT:     -11.9      3.373      8.542
REMARK SMILES Cc1cc(SCC(=O)NCCCCCCNC(=O)c2ccc(-c3c4nc(c(-c5cc(S(=O)(=O)[O-])ccc5F)c5ccc([nH]5)c(-c5cc(S(=O)(=O)[O-])ccc5F)c5nc(c(-c6cc(S(=O)(=O)[O-])ccc6F)c6ccc3[nH]6)C=C5)C=C4)cc2)c2cc(C(F)(F)F)ccc2n1
REMARK SMILES IDX 12 1 11 2 10 3 9 4 7 5 8 6 6 8 5 9 4 10 1 11 2 12 3 13 92 14
REMARK SMILES IDX 91 15 82 16 90 17 83 18 89 19 84 20 85 21 86 22 87 23 88 24
REMARK SMILES IDX 13 25 14 26 15 27 16 28 17 29 18 31 19 32 20 33 81 34 21 35
REMARK SMILES IDX 80 36 22 37 23 38 24 39 74 40 25 41 79 42 73 43 75 44 26 45
REMARK SMILES IDX 78 46 72 47 71 48 27 50 59 51 39 52 58 53 40 54 43 55 57 56
REMARK SMILES IDX 76 57 41 58 42 59 56 61 77 62 44 63 28 64 29 65 37 66 30 67
REMARK SMILES IDX 36 68 38 69 35 70 31 71 32 72 33 73 34 74 60 75 61 76 69 77
REMARK SMILES IDX 62 78 68 79 70 80 67 81 63 82 64 83 65 84 66 85 45 86 46 87
REMARK SMILES IDX 54 88 47 89 53 90 55 91 52 92 48 93 49 94 50 95 51 96
REMARK H PARENT 9 7 16 30 75 49 43 60
REMARK Flexibility Score: inf
ROOT
ATOM      1  C   UNL A   1      31.038  28.096  25.674  1.00  0.00     0.002 C 
ENDROOT
BRANCH   1   2
ATOM      2  C   UNL A   1      31.015  26.744  26.404  1.00  0.00     0.021 C 
BRANCH   2   3
ATOM      3  C   UNL A   1      30.464  25.592  25.562  1.00  0.00     0.116 C 
BRANCH   3   4
ATOM      4  N   UNL A   1      29.829  24.600  26.408  1.00  0.00    -0.355 N 
ATOM      5  C   UNL A   1      30.312  23.422  26.883  1.00  0.00     0.230 C 
ATOM      6  O   UNL A   1      29.535  22.691  27.506  1.00  0.00    -0.274 OA
ATOM      7  H   UNL A   1      28.907  24.813  26.679  1.00  0.00     0.163 HD
BRANCH   5   8
ATOM      8  C   UNL A   1      31.778  23.058  26.757  1.00  0.00     0.174 C 
BRANCH   8   9
ATOM      9  S   UNL A   1      32.264  22.256  25.198  1.00  0.00    -0.115 SA
BRANCH   9  10
ATOM     10  C   UNL A   1      34.036  21.941  25.295  1.00  0.00     0.019 A 
ATOM     11  C   UNL A   1      37.311  23.707  25.970  1.00  0.00     0.067 C 
ATOM     12  C   UNL A   1      36.301  22.650  25.639  1.00  0.00     0.039 A 
ATOM     13  C   UNL A   1      34.952  22.957  25.564  1.00  0.00     0.039 A 
ATOM     14  N   UNL A   1      36.780  21.412  25.401  1.00  0.00    -0.253 NA
ATOM     15  C   UNL A   1      35.918  20.431  25.102  1.00  0.00     0.072 A 
ATOM     16  C   UNL A   1      34.521  20.622  25.046  1.00  0.00     0.014 A 
ATOM     17  C   UNL A   1      36.444  19.174  24.831  1.00  0.00     0.029 A 
ATOM     18  C   UNL A   1      33.709  19.493  24.734  1.00  0.00     0.024 A 
ATOM     19  C   UNL A   1      35.636  18.080  24.509  1.00  0.00     0.015 A 
ATOM     20  C   UNL A   1      34.252  18.227  24.460  1.00  0.00     0.056 A 
BRANCH  20  21
ATOM     21  C   UNL A   1      33.343  17.071  24.121  1.00  0.00     0.416 C 
ATOM     22  F   UNL A   1      33.121  16.256  25.188  1.00  0.00    -0.166 F 
ATOM     23  F   UNL A   1      32.116  17.484  23.700  1.00  0.00    -0.166 F 
ATOM     24  F   UNL A   1      33.828  16.273  23.130  1.00  0.00    -0.166 F 
ENDBRANCH  20  21
ENDBRANCH   9  10
ENDBRANCH   8   9
ENDBRANCH   5   8
ENDBRANCH   3   4
ENDBRANCH   2   3
ENDBRANCH   1   2
BRANCH   1  25
ATOM     25  C   UNL A   1      31.942  28.151  24.438  1.00  0.00     0.002 C 
BRANCH  25  26
ATOM     26  C   UNL A   1      33.168  29.056  24.577  1.00  0.00     0.021 C 
BRANCH  26  27
ATOM     27  C   UNL A   1      33.713  29.167  25.997  1.00  0.00     0.116 C 
BRANCH  27  28
ATOM     28  N   UNL A   1      33.682  30.537  26.486  1.00  0.00    -0.352 N 
ATOM     29  C   UNL A   1      34.469  31.136  27.439  1.00  0.00     0.251 C 
ATOM     30  H   UNL A   1      33.001  31.117  26.076  1.00  0.00     0.163 HD
ATOM     31  O   UNL A   1      34.158  32.240  27.879  1.00  0.00    -0.269 OA
BRANCH  29  32
ATOM     32  C   UNL A   1      35.669  30.436  27.949  1.00  0.00     0.039 A 
ATOM     33  C   UNL A   1      36.875  30.570  27.259  1.00  0.00     0.014 A 
ATOM     34  C   UNL A   1      35.604  29.653  29.105  1.00  0.00     0.014 A 
ATOM     35  C   UNL A   1      38.032  29.970  27.766  1.00  0.00     0.010 A 
ATOM     36  C   UNL A   1      36.771  29.123  29.650  1.00  0.00     0.010 A 
ATOM     37  C   UNL A   1      37.998  29.274  28.985  1.00  0.00    -0.014 A 
BRANCH  37  38
ATOM     38  C   UNL A   1      39.233  28.694  29.577  1.00  0.00     0.031 A 
ATOM     39  C   UNL A   1      39.817  29.281  30.834  1.00  0.00     0.074 A 
ATOM     40  C   UNL A   1      39.857  27.673  28.955  1.00  0.00     0.049 A 
ATOM     41  N   UNL A   1      40.919  28.962  31.463  1.00  0.00    -0.248 NA
ATOM     42  C   UNL A   1      39.075  30.392  31.449  1.00  0.00     0.031 C 
ATOM     43  C   UNL A   1      39.405  27.038  27.715  1.00  0.00     0.029 A 
ATOM     44  N   UNL A   1      41.005  26.991  29.274  1.00  0.00    -0.354 N 
ATOM     45  C   UNL A   1      41.005  29.833  32.544  1.00  0.00     0.074 A 
ATOM     46  C   UNL A   1      39.881  30.739  32.441  1.00  0.00     0.031 C 
ATOM     47  C   UNL A   1      40.248  26.042  27.398  1.00  0.00     0.029 A 
ATOM     48  C   UNL A   1      41.330  25.999  28.377  1.00  0.00     0.049 A 
ATOM     49  H   UNL A   1      41.546  27.193  30.072  1.00  0.00     0.167 HD
ATOM     50  C   UNL A   1      41.922  29.859  33.543  1.00  0.00     0.034 A 
ATOM     51  C   UNL A   1      42.385  25.162  28.338  1.00  0.00     0.034 A 
ATOM     52  C   UNL A   1      43.039  28.948  33.631  1.00  0.00     0.049 A 
ATOM     53  C   UNL A   1      43.422  25.247  29.430  1.00  0.00     0.074 A 
ATOM     54  C   UNL A   1      44.005  28.863  34.618  1.00  0.00     0.029 A 
ATOM     55  N   UNL A   1      43.346  27.971  32.693  1.00  0.00    -0.354 N 
ATOM     56  N   UNL A   1      43.465  26.050  30.469  1.00  0.00    -0.248 NA
ATOM     57  C   UNL A   1      44.548  24.307  29.350  1.00  0.00     0.031 C 
ATOM     58  C   UNL A   1      44.936  27.891  34.240  1.00  0.00     0.029 A 
ATOM     59  C   UNL A   1      44.505  27.304  33.061  1.00  0.00     0.049 A 
ATOM     60  H   UNL A   1      42.818  27.780  31.884  1.00  0.00     0.167 HD
ATOM     61  C   UNL A   1      44.603  25.683  31.185  1.00  0.00     0.074 A 
ATOM     62  C   UNL A   1      45.206  24.579  30.466  1.00  0.00     0.031 C 
ATOM     63  C   UNL A   1      45.102  26.208  32.333  1.00  0.00     0.034 A 
BRANCH  50  64
ATOM     64  C   UNL A   1      41.764  30.922  34.605  1.00  0.00     0.023 A 
ATOM     65  C   UNL A   1      40.664  30.932  35.481  1.00  0.00     0.031 A 
ATOM     66  C   UNL A   1      42.711  31.954  34.732  1.00  0.00     0.131 A 
ATOM     67  C   UNL A   1      40.497  31.990  36.387  1.00  0.00     0.055 A 
ATOM     68  C   UNL A   1      42.585  32.957  35.696  1.00  0.00     0.041 A 
ATOM     69  F   UNL A   1      43.772  32.013  33.911  1.00  0.00    -0.206 F 
ATOM     70  C   UNL A   1      41.465  32.987  36.520  1.00  0.00     0.022 A 
BRANCH  67  71
ATOM     71  S   UNL A   1      38.922  32.125  37.278  1.00  0.00     0.124 S 
ATOM     72  O   UNL A   1      38.317  33.287  36.631  1.00  0.00    -0.237 OA
ATOM     73  O   UNL A   1      38.292  30.839  37.001  1.00  0.00    -0.237 OA
ATOM     74  O   UNL A   1      39.331  32.336  38.665  1.00  0.00    -0.744 OA
ENDBRANCH  67  71
ENDBRANCH  50  64
BRANCH  51  75
ATOM     75  C   UNL A   1      42.532  24.175  27.227  1.00  0.00     0.023 A 
ATOM     76  C   UNL A   1      41.884  22.931  27.274  1.00  0.00     0.031 A 
ATOM     77  C   UNL A   1      43.370  24.438  26.128  1.00  0.00     0.131 A 
ATOM     78  C   UNL A   1      42.129  21.975  26.276  1.00  0.00     0.055 A 
ATOM     79  C   UNL A   1      43.560  23.508  25.105  1.00  0.00     0.041 A 
ATOM     80  F   UNL A   1      44.016  25.611  26.031  1.00  0.00    -0.206 F 
ATOM     81  C   UNL A   1      42.950  22.261  25.183  1.00  0.00     0.022 A 
BRANCH  78  82
ATOM     82  S   UNL A   1      41.442  20.309  26.484  1.00  0.00     0.124 S 
ATOM     83  O   UNL A   1      40.010  20.563  26.367  1.00  0.00    -0.237 OA
ATOM     84  O   UNL A   1      42.060  19.587  25.376  1.00  0.00    -0.237 OA
ATOM     85  O   UNL A   1      41.900  19.916  27.814  1.00  0.00    -0.744 OA
ENDBRANCH  78  82
ENDBRANCH  51  75
BRANCH  63  86
ATOM     86  C   UNL A   1      46.335  25.554  32.912  1.00  0.00     0.023 A 
ATOM     87  C   UNL A   1      47.629  25.888  32.477  1.00  0.00     0.031 A 
ATOM     88  C   UNL A   1      46.209  24.570  33.910  1.00  0.00     0.131 A 
ATOM     89  C   UNL A   1      48.739  25.204  32.994  1.00  0.00     0.055 A 
ATOM     90  C   UNL A   1      47.321  23.942  34.470  1.00  0.00     0.041 A 
ATOM     91  F   UNL A   1      44.997  24.206  34.361  1.00  0.00    -0.206 F 
ATOM     92  C   UNL A   1      48.595  24.247  34.001  1.00  0.00     0.022 A 
BRANCH  89  93
ATOM     93  S   UNL A   1      50.369  25.505  32.257  1.00  0.00     0.124 S 
ATOM     94  O   UNL A   1      50.412  26.962  32.199  1.00  0.00    -0.237 OA
ATOM     95  O   UNL A   1      51.268  24.880  33.221  1.00  0.00    -0.237 OA
ATOM     96  O   UNL A   1      50.289  24.835  30.960  1.00  0.00    -0.744 OA
ENDBRANCH  89  93
ENDBRANCH  63  86
ENDBRANCH  37  38
ENDBRANCH  29  32
ENDBRANCH  27  28
ENDBRANCH  26  27
ENDBRANCH  25  26
ENDBRANCH   1  25
TORSDOF 19
ENDMDL
