MODEL 1
REMARK VINA RESULT:     -11.5      0.000      0.000
REMARK SMILES CO[C@@H]1C[C@@H](C(=O)NCCCCCCNC(=O)c2ccc(-c3c4nc(c(-c5cc(S(=O)(=O)[O-])ccc5F)c5ccc([nH]5)c(-c5cc(S(=O)(=O)[O-])ccc5F)c5nc(c(-c6cc(S(=O)(=O)[O-])ccc6F)c6ccc3[nH]6)C=C5)C=C4)cc2)N(S(=O)(=O)c2ccc(Cl)cc2F)C1
REMARK SMILES IDX 12 1 11 2 10 3 9 4 8 5 6 6 7 7 5 9 3 10 4 11 93 12 81 13
REMARK SMILES IDX 2 14 1 15 82 16 83 17 84 18 85 19 86 20 91 21 87 22 90 23
REMARK SMILES IDX 92 24 88 25 89 26 13 27 14 28 15 29 16 30 17 32 18 33 19 34
REMARK SMILES IDX 80 35 20 36 79 37 21 38 22 39 23 40 73 41 24 42 78 43 72 44
REMARK SMILES IDX 74 45 25 46 77 47 71 48 70 49 26 51 58 52 38 53 57 54 39 55
REMARK SMILES IDX 42 56 56 57 75 58 40 59 41 60 55 62 76 63 43 64 27 65 28 66
REMARK SMILES IDX 36 67 29 68 35 69 37 70 34 71 30 72 31 73 32 74 33 75 59 76
REMARK SMILES IDX 60 77 68 78 61 79 67 80 69 81 66 82 62 83 63 84 64 85 65 86
REMARK SMILES IDX 44 87 45 88 53 89 46 90 52 91 54 92 51 93 47 94 48 95 49 96
REMARK SMILES IDX 50 97
REMARK H PARENT 8 8 15 31 74 50 42 61
REMARK Flexibility Score: inf
ROOT
ATOM      1  C   UNL A   1      31.615  30.383  26.205  1.00  0.00     0.002 C 
ENDROOT
BRANCH   1   2
ATOM      2  C   UNL A   1      32.993  29.745  26.371  1.00  0.00     0.002 C 
BRANCH   2   3
ATOM      3  C   UNL A   1      32.974  28.303  26.888  1.00  0.00     0.021 C 
BRANCH   3   4
ATOM      4  C   UNL A   1      31.631  27.788  27.384  1.00  0.00     0.116 C 
BRANCH   4   5
ATOM      5  N   UNL A   1      31.329  26.505  26.784  1.00  0.00    -0.355 N 
ATOM      6  C   UNL A   1      30.999  26.128  25.529  1.00  0.00     0.238 C 
ATOM      7  O   UNL A   1      30.683  24.936  25.411  1.00  0.00    -0.273 OA
ATOM      8  H   UNL A   1      31.373  25.755  27.419  1.00  0.00     0.163 HD
BRANCH   6   9
ATOM      9  C   UNL A   1      31.071  27.015  24.302  1.00  0.00     0.165 C 
ATOM     10  C   UNL A   1      29.943  28.263  22.564  1.00  0.00     0.135 C 
ATOM     11  C   UNL A   1      29.704  27.571  23.894  1.00  0.00     0.064 C 
ATOM     12  C   UNL A   1      31.138  27.539  21.944  1.00  0.00     0.135 C 
ATOM     13  N   UNL A   1      31.850  26.811  23.057  1.00  0.00    -0.183 NA
BRANCH  10  14
ATOM     14  O   UNL A   1      30.072  29.682  22.633  1.00  0.00    -0.380 OA
ATOM     15  C   UNL A   1      29.036  30.406  23.274  1.00  0.00     0.195 C 
ENDBRANCH  10  14
BRANCH  13  16
ATOM     16  S   UNL A   1      32.546  25.385  22.504  1.00  0.00     0.246 S 
ATOM     17  O   UNL A   1      31.455  24.429  22.428  1.00  0.00    -0.207 OA
ATOM     18  O   UNL A   1      33.281  25.720  21.304  1.00  0.00    -0.207 OA
BRANCH  16  19
ATOM     19  C   UNL A   1      33.726  24.710  23.615  1.00  0.00     0.118 A 
ATOM     20  C   UNL A   1      34.151  25.529  24.676  1.00  0.00     0.026 A 
ATOM     21  C   UNL A   1      34.289  23.461  23.444  1.00  0.00     0.144 A 
ATOM     22  C   UNL A   1      35.217  25.136  25.484  1.00  0.00     0.022 A 
ATOM     23  C   UNL A   1      35.369  23.068  24.235  1.00  0.00     0.061 A 
ATOM     24  F   UNL A   1      33.829  22.610  22.520  1.00  0.00    -0.205 F 
ATOM     25  C   UNL A   1      35.844  23.916  25.237  1.00  0.00     0.044 A 
ATOM     26  Cl  UNL A   1      37.216  23.465  26.169  1.00  0.00    -0.084 Cl
ENDBRANCH  16  19
ENDBRANCH  13  16
ENDBRANCH   6   9
ENDBRANCH   4   5
ENDBRANCH   3   4
ENDBRANCH   2   3
ENDBRANCH   1   2
BRANCH   1  27
ATOM     27  C   UNL A   1      31.529  31.863  26.592  1.00  0.00     0.021 C 
BRANCH  27  28
ATOM     28  C   UNL A   1      32.837  32.487  27.078  1.00  0.00     0.116 C 
BRANCH  28  29
ATOM     29  N   UNL A   1      32.647  33.836  27.582  1.00  0.00    -0.352 N 
ATOM     30  C   UNL A   1      33.274  34.451  28.637  1.00  0.00     0.251 C 
ATOM     31  H   UNL A   1      31.980  34.381  27.104  1.00  0.00     0.163 HD
ATOM     32  O   UNL A   1      32.862  35.524  29.065  1.00  0.00    -0.269 OA
BRANCH  30  33
ATOM     33  C   UNL A   1      34.435  33.788  29.266  1.00  0.00     0.039 A 
ATOM     34  C   UNL A   1      35.724  34.210  28.930  1.00  0.00     0.014 A 
ATOM     35  C   UNL A   1      34.244  32.770  30.206  1.00  0.00     0.014 A 
ATOM     36  C   UNL A   1      36.823  33.650  29.583  1.00  0.00     0.010 A 
ATOM     37  C   UNL A   1      35.338  32.255  30.896  1.00  0.00     0.010 A 
ATOM     38  C   UNL A   1      36.638  32.687  30.590  1.00  0.00    -0.014 A 
BRANCH  38  39
ATOM     39  C   UNL A   1      37.792  32.102  31.318  1.00  0.00     0.031 A 
ATOM     40  C   UNL A   1      38.583  30.989  30.689  1.00  0.00     0.074 A 
ATOM     41  C   UNL A   1      38.084  32.523  32.564  1.00  0.00     0.049 A 
ATOM     42  N   UNL A   1      39.563  30.281  31.191  1.00  0.00    -0.248 NA
ATOM     43  C   UNL A   1      38.195  30.601  29.325  1.00  0.00     0.031 C 
ATOM     44  C   UNL A   1      37.365  33.568  33.295  1.00  0.00     0.029 A 
ATOM     45  N   UNL A   1      39.056  32.113  33.441  1.00  0.00    -0.354 N 
ATOM     46  C   UNL A   1      39.897  29.352  30.211  1.00  0.00     0.074 A 
ATOM     47  C   UNL A   1      38.978  29.555  29.110  1.00  0.00     0.031 C 
ATOM     48  C   UNL A   1      37.927  33.723  34.505  1.00  0.00     0.029 A 
ATOM     49  C   UNL A   1      39.022  32.769  34.649  1.00  0.00     0.049 A 
ATOM     50  H   UNL A   1      39.715  31.414  33.226  1.00  0.00     0.167 HD
ATOM     51  C   UNL A   1      40.891  28.429  30.220  1.00  0.00     0.034 A 
ATOM     52  C   UNL A   1      39.782  32.610  35.751  1.00  0.00     0.034 A 
ATOM     53  C   UNL A   1      41.811  28.249  31.317  1.00  0.00     0.049 A 
ATOM     54  C   UNL A   1      40.882  31.580  35.739  1.00  0.00     0.074 A 
ATOM     55  C   UNL A   1      42.886  27.383  31.411  1.00  0.00     0.029 A 
ATOM     56  N   UNL A   1      41.760  28.949  32.515  1.00  0.00    -0.354 N 
ATOM     57  N   UNL A   1      41.212  30.737  34.790  1.00  0.00    -0.248 NA
ATOM     58  C   UNL A   1      41.717  31.491  36.944  1.00  0.00     0.031 C 
ATOM     59  C   UNL A   1      43.455  27.524  32.683  1.00  0.00     0.029 A 
ATOM     60  C   UNL A   1      42.772  28.519  33.361  1.00  0.00     0.049 A 
ATOM     61  H   UNL A   1      41.103  29.649  32.733  1.00  0.00     0.167 HD
ATOM     62  C   UNL A   1      42.311  30.034  35.275  1.00  0.00     0.074 A 
ATOM     63  C   UNL A   1      42.592  30.560  36.595  1.00  0.00     0.031 C 
ATOM     64  C   UNL A   1      43.028  29.046  34.679  1.00  0.00     0.034 A 
BRANCH  51  65
ATOM     65  C   UNL A   1      41.005  27.530  29.012  1.00  0.00     0.023 A 
ATOM     66  C   UNL A   1      42.013  27.717  28.049  1.00  0.00     0.031 A 
ATOM     67  C   UNL A   1      40.068  26.506  28.794  1.00  0.00     0.131 A 
ATOM     68  C   UNL A   1      42.010  26.951  26.874  1.00  0.00     0.055 A 
ATOM     69  C   UNL A   1      40.118  25.692  27.660  1.00  0.00     0.041 A 
ATOM     70  F   UNL A   1      39.073  26.293  29.669  1.00  0.00    -0.206 F 
ATOM     71  C   UNL A   1      41.083  25.924  26.684  1.00  0.00     0.022 A 
BRANCH  68  72
ATOM     72  S   UNL A   1      43.140  27.416  25.536  1.00  0.00     0.124 S 
ATOM     73  O   UNL A   1      44.172  28.151  26.264  1.00  0.00    -0.237 OA
ATOM     74  O   UNL A   1      43.539  26.123  24.994  1.00  0.00    -0.237 OA
ATOM     75  O   UNL A   1      42.309  28.233  24.653  1.00  0.00    -0.744 OA
ENDBRANCH  68  72
ENDBRANCH  51  65
BRANCH  52  76
ATOM     76  C   UNL A   1      39.530  33.437  36.963  1.00  0.00     0.023 A 
ATOM     77  C   UNL A   1      40.299  34.580  37.229  1.00  0.00     0.031 A 
ATOM     78  C   UNL A   1      38.538  33.074  37.890  1.00  0.00     0.131 A 
ATOM     79  C   UNL A   1      40.091  35.302  38.414  1.00  0.00     0.055 A 
ATOM     80  C   UNL A   1      38.308  33.818  39.049  1.00  0.00     0.041 A 
ATOM     81  F   UNL A   1      37.770  31.994  37.676  1.00  0.00    -0.206 F 
ATOM     82  C   UNL A   1      39.095  34.933  39.322  1.00  0.00     0.022 A 
BRANCH  79  83
ATOM     83  S   UNL A   1      41.187  36.699  38.785  1.00  0.00     0.124 S 
ATOM     84  O   UNL A   1      41.864  36.894  37.508  1.00  0.00    -0.237 OA
ATOM     85  O   UNL A   1      40.235  37.734  39.172  1.00  0.00    -0.237 OA
ATOM     86  O   UNL A   1      42.028  36.193  39.868  1.00  0.00    -0.744 OA
ENDBRANCH  79  83
ENDBRANCH  52  76
BRANCH  64  87
ATOM     87  C   UNL A   1      44.210  28.511  35.445  1.00  0.00     0.023 A 
ATOM     88  C   UNL A   1      44.069  27.486  36.397  1.00  0.00     0.031 A 
ATOM     89  C   UNL A   1      45.491  29.047  35.230  1.00  0.00     0.131 A 
ATOM     90  C   UNL A   1      45.185  27.062  37.135  1.00  0.00     0.055 A 
ATOM     91  C   UNL A   1      46.606  28.588  35.932  1.00  0.00     0.041 A 
ATOM     92  F   UNL A   1      45.678  30.028  34.332  1.00  0.00    -0.206 F 
ATOM     93  C   UNL A   1      46.454  27.598  36.899  1.00  0.00     0.022 A 
BRANCH  90  94
ATOM     94  S   UNL A   1      44.943  25.851  38.463  1.00  0.00     0.124 S 
ATOM     95  O   UNL A   1      44.290  26.655  39.493  1.00  0.00    -0.237 OA
ATOM     96  O   UNL A   1      44.109  24.843  37.818  1.00  0.00    -0.237 OA
ATOM     97  O   UNL A   1      46.301  25.418  38.785  1.00  0.00    -0.744 OA
ENDBRANCH  90  94
ENDBRANCH  64  87
ENDBRANCH  38  39
ENDBRANCH  30  33
ENDBRANCH  28  29
ENDBRANCH  27  28
ENDBRANCH   1  27
TORSDOF 19
ENDMDL
MODEL 2
REMARK VINA RESULT:     -11.5      1.562      2.842
REMARK SMILES CO[C@@H]1C[C@@H](C(=O)NCCCCCCNC(=O)c2ccc(-c3c4nc(c(-c5cc(S(=O)(=O)[O-])ccc5F)c5ccc([nH]5)c(-c5cc(S(=O)(=O)[O-])ccc5F)c5nc(c(-c6cc(S(=O)(=O)[O-])ccc6F)c6ccc3[nH]6)C=C5)C=C4)cc2)N(S(=O)(=O)c2ccc(Cl)cc2F)C1
REMARK SMILES IDX 12 1 11 2 10 3 9 4 8 5 6 6 7 7 5 9 3 10 4 11 93 12 81 13
REMARK SMILES IDX 2 14 1 15 82 16 83 17 84 18 85 19 86 20 91 21 87 22 90 23
REMARK SMILES IDX 92 24 88 25 89 26 13 27 14 28 15 29 16 30 17 32 18 33 19 34
REMARK SMILES IDX 80 35 20 36 79 37 21 38 22 39 23 40 73 41 24 42 78 43 72 44
REMARK SMILES IDX 74 45 25 46 77 47 71 48 70 49 26 51 58 52 38 53 57 54 39 55
REMARK SMILES IDX 42 56 56 57 75 58 40 59 41 60 55 62 76 63 43 64 27 65 28 66
REMARK SMILES IDX 36 67 29 68 35 69 37 70 34 71 30 72 31 73 32 74 33 75 59 76
REMARK SMILES IDX 60 77 68 78 61 79 67 80 69 81 66 82 62 83 63 84 64 85 65 86
REMARK SMILES IDX 44 87 45 88 53 89 46 90 52 91 54 92 51 93 47 94 48 95 49 96
REMARK SMILES IDX 50 97
REMARK H PARENT 8 8 15 31 74 50 42 61
REMARK Flexibility Score: inf
ROOT
ATOM      1  C   UNL A   1      31.919  30.273  25.786  1.00  0.00     0.002 C 
ENDROOT
BRANCH   1   2
ATOM      2  C   UNL A   1      31.906  28.853  26.350  1.00  0.00     0.002 C 
BRANCH   2   3
ATOM      3  C   UNL A   1      33.290  28.230  26.552  1.00  0.00     0.021 C 
BRANCH   3   4
ATOM      4  C   UNL A   1      33.474  26.819  26.013  1.00  0.00     0.116 C 
BRANCH   4   5
ATOM      5  N   UNL A   1      32.517  25.918  26.620  1.00  0.00    -0.355 N 
ATOM      6  C   UNL A   1      32.315  24.585  26.524  1.00  0.00     0.238 C 
ATOM      7  O   UNL A   1      31.301  24.171  27.104  1.00  0.00    -0.273 OA
ATOM      8  H   UNL A   1      31.885  26.367  27.226  1.00  0.00     0.163 HD
BRANCH   6   9
ATOM      9  C   UNL A   1      33.254  23.604  25.852  1.00  0.00     0.165 C 
ATOM     10  C   UNL A   1      35.488  23.010  25.142  1.00  0.00     0.135 C 
ATOM     11  C   UNL A   1      34.727  23.982  26.025  1.00  0.00     0.064 C 
ATOM     12  C   UNL A   1      34.508  22.621  24.035  1.00  0.00     0.135 C 
ATOM     13  N   UNL A   1      33.120  22.956  24.525  1.00  0.00    -0.183 NA
BRANCH  10  14
ATOM     14  O   UNL A   1      36.087  21.910  25.825  1.00  0.00    -0.380 OA
ATOM     15  C   UNL A   1      36.376  20.745  25.071  1.00  0.00     0.195 C 
ENDBRANCH  10  14
BRANCH  13  16
ATOM     16  S   UNL A   1      32.121  23.415  23.254  1.00  0.00     0.246 S 
ATOM     17  O   UNL A   1      32.841  23.051  22.047  1.00  0.00    -0.207 OA
ATOM     18  O   UNL A   1      30.825  22.825  23.512  1.00  0.00    -0.207 OA
BRANCH  16  19
ATOM     19  C   UNL A   1      31.850  25.147  23.173  1.00  0.00     0.118 A 
ATOM     20  C   UNL A   1      30.571  25.615  23.526  1.00  0.00     0.026 A 
ATOM     21  C   UNL A   1      32.804  26.036  22.719  1.00  0.00     0.144 A 
ATOM     22  C   UNL A   1      30.226  26.948  23.309  1.00  0.00     0.022 A 
ATOM     23  C   UNL A   1      32.460  27.367  22.479  1.00  0.00     0.061 A 
ATOM     24  F   UNL A   1      34.063  25.647  22.485  1.00  0.00    -0.205 F 
ATOM     25  C   UNL A   1      31.166  27.813  22.754  1.00  0.00     0.044 A 
ATOM     26  Cl  UNL A   1      30.720  29.435  22.398  1.00  0.00    -0.084 Cl
ENDBRANCH  16  19
ENDBRANCH  13  16
ENDBRANCH   6   9
ENDBRANCH   4   5
ENDBRANCH   3   4
ENDBRANCH   2   3
ENDBRANCH   1   2
BRANCH   1  27
ATOM     27  C   UNL A   1      31.693  31.387  26.812  1.00  0.00     0.021 C 
BRANCH  27  28
ATOM     28  C   UNL A   1      32.949  32.147  27.238  1.00  0.00     0.116 C 
BRANCH  28  29
ATOM     29  N   UNL A   1      32.681  33.552  27.489  1.00  0.00    -0.352 N 
ATOM     30  C   UNL A   1      33.217  34.363  28.459  1.00  0.00     0.251 C 
ATOM     31  H   UNL A   1      32.030  33.978  26.886  1.00  0.00     0.163 HD
ATOM     32  O   UNL A   1      32.742  35.474  28.670  1.00  0.00    -0.269 OA
BRANCH  30  33
ATOM     33  C   UNL A   1      34.356  33.868  29.259  1.00  0.00     0.039 A 
ATOM     34  C   UNL A   1      34.112  32.994  30.321  1.00  0.00     0.014 A 
ATOM     35  C   UNL A   1      35.663  34.249  28.939  1.00  0.00     0.014 A 
ATOM     36  C   UNL A   1      35.188  32.453  31.027  1.00  0.00     0.010 A 
ATOM     37  C   UNL A   1      36.735  33.663  29.607  1.00  0.00     0.010 A 
ATOM     38  C   UNL A   1      36.508  32.762  30.659  1.00  0.00    -0.014 A 
BRANCH  38  39
ATOM     39  C   UNL A   1      37.666  32.173  31.378  1.00  0.00     0.031 A 
ATOM     40  C   UNL A   1      38.465  31.076  30.732  1.00  0.00     0.074 A 
ATOM     41  C   UNL A   1      37.955  32.576  32.631  1.00  0.00     0.049 A 
ATOM     42  N   UNL A   1      39.450  30.368  31.222  1.00  0.00    -0.248 NA
ATOM     43  C   UNL A   1      38.081  30.708  29.362  1.00  0.00     0.031 C 
ATOM     44  C   UNL A   1      37.228  33.603  33.379  1.00  0.00     0.029 A 
ATOM     45  N   UNL A   1      38.929  32.158  33.502  1.00  0.00    -0.354 N 
ATOM     46  C   UNL A   1      39.792  29.458  30.227  1.00  0.00     0.074 A 
ATOM     47  C   UNL A   1      38.871  29.672  29.130  1.00  0.00     0.031 C 
ATOM     48  C   UNL A   1      37.788  33.743  34.592  1.00  0.00     0.029 A 
ATOM     49  C   UNL A   1      38.890  32.794  34.721  1.00  0.00     0.049 A 
ATOM     50  H   UNL A   1      39.594  31.468  33.276  1.00  0.00     0.167 HD
ATOM     51  C   UNL A   1      40.792  28.542  30.222  1.00  0.00     0.034 A 
ATOM     52  C   UNL A   1      39.650  32.623  35.820  1.00  0.00     0.034 A 
ATOM     53  C   UNL A   1      41.713  28.351  31.316  1.00  0.00     0.049 A 
ATOM     54  C   UNL A   1      40.759  31.602  35.792  1.00  0.00     0.074 A 
ATOM     55  C   UNL A   1      42.795  27.491  31.396  1.00  0.00     0.029 A 
ATOM     56  N   UNL A   1      41.657  29.030  32.526  1.00  0.00    -0.354 N 
ATOM     57  N   UNL A   1      41.095  30.777  34.829  1.00  0.00    -0.248 NA
ATOM     58  C   UNL A   1      41.593  31.499  36.996  1.00  0.00     0.031 C 
ATOM     59  C   UNL A   1      43.362  27.615  32.671  1.00  0.00     0.029 A 
ATOM     60  C   UNL A   1      42.671  28.594  33.365  1.00  0.00     0.049 A 
ATOM     61  H   UNL A   1      40.994  29.722  32.755  1.00  0.00     0.167 HD
ATOM     62  C   UNL A   1      42.198  30.074  35.303  1.00  0.00     0.074 A 
ATOM     63  C   UNL A   1      42.476  30.580  36.632  1.00  0.00     0.031 C 
ATOM     64  C   UNL A   1      42.923  29.102  34.692  1.00  0.00     0.034 A 
BRANCH  51  65
ATOM     65  C   UNL A   1      40.914  27.664  28.999  1.00  0.00     0.023 A 
ATOM     66  C   UNL A   1      41.909  27.886  28.030  1.00  0.00     0.031 A 
ATOM     67  C   UNL A   1      39.995  26.624  28.774  1.00  0.00     0.131 A 
ATOM     68  C   UNL A   1      41.910  27.138  26.844  1.00  0.00     0.055 A 
ATOM     69  C   UNL A   1      40.052  25.829  27.627  1.00  0.00     0.041 A 
ATOM     70  F   UNL A   1      39.013  26.378  29.655  1.00  0.00    -0.206 F 
ATOM     71  C   UNL A   1      41.002  26.095  26.646  1.00  0.00     0.022 A 
BRANCH  68  72
ATOM     72  S   UNL A   1      43.018  27.647  25.502  1.00  0.00     0.124 S 
ATOM     73  O   UNL A   1      43.997  28.459  26.221  1.00  0.00    -0.237 OA
ATOM     74  O   UNL A   1      43.501  26.370  24.990  1.00  0.00    -0.237 OA
ATOM     75  O   UNL A   1      42.144  28.391  24.599  1.00  0.00    -0.744 OA
ENDBRANCH  68  72
ENDBRANCH  51  65
BRANCH  52  76
ATOM     76  C   UNL A   1      39.392  33.428  37.046  1.00  0.00     0.023 A 
ATOM     77  C   UNL A   1      40.093  34.620  37.287  1.00  0.00     0.031 A 
ATOM     78  C   UNL A   1      38.464  32.997  38.009  1.00  0.00     0.131 A 
ATOM     79  C   UNL A   1      39.884  35.322  38.483  1.00  0.00     0.055 A 
ATOM     80  C   UNL A   1      38.231  33.721  39.180  1.00  0.00     0.041 A 
ATOM     81  F   UNL A   1      37.762  31.869  37.819  1.00  0.00    -0.206 F 
ATOM     82  C   UNL A   1      38.951  34.885  39.428  1.00  0.00     0.022 A 
BRANCH  79  83
ATOM     83  S   UNL A   1      40.898  36.789  38.818  1.00  0.00     0.124 S 
ATOM     84  O   UNL A   1      41.658  36.914  37.580  1.00  0.00    -0.237 OA
ATOM     85  O   UNL A   1      39.883  37.809  39.055  1.00  0.00    -0.237 OA
ATOM     86  O   UNL A   1      41.676  36.403  39.994  1.00  0.00    -0.744 OA
ENDBRANCH  79  83
ENDBRANCH  52  76
BRANCH  64  87
ATOM     87  C   UNL A   1      44.109  28.562  35.449  1.00  0.00     0.023 A 
ATOM     88  C   UNL A   1      43.976  27.518  36.381  1.00  0.00     0.031 A 
ATOM     89  C   UNL A   1      45.385  29.115  35.246  1.00  0.00     0.131 A 
ATOM     90  C   UNL A   1      45.094  27.090  37.112  1.00  0.00     0.055 A 
ATOM     91  C   UNL A   1      46.503  28.652  35.942  1.00  0.00     0.041 A 
ATOM     92  F   UNL A   1      45.564  30.114  34.368  1.00  0.00    -0.206 F 
ATOM     93  C   UNL A   1      46.358  27.642  36.889  1.00  0.00     0.022 A 
BRANCH  90  94
ATOM     94  S   UNL A   1      44.861  25.852  38.417  1.00  0.00     0.124 S 
ATOM     95  O   UNL A   1      43.847  26.482  39.257  1.00  0.00    -0.237 OA
ATOM     96  O   UNL A   1      44.426  24.681  37.662  1.00  0.00    -0.237 OA
ATOM     97  O   UNL A   1      46.186  25.738  39.024  1.00  0.00    -0.744 OA
ENDBRANCH  90  94
ENDBRANCH  64  87
ENDBRANCH  38  39
ENDBRANCH  30  33
ENDBRANCH  28  29
ENDBRANCH  27  28
ENDBRANCH   1  27
TORSDOF 19
ENDMDL
MODEL 3
REMARK VINA RESULT:     -11.5      2.532      8.073
REMARK SMILES CO[C@@H]1C[C@@H](C(=O)NCCCCCCNC(=O)c2ccc(-c3c4nc(c(-c5cc(S(=O)(=O)[O-])ccc5F)c5ccc([nH]5)c(-c5cc(S(=O)(=O)[O-])ccc5F)c5nc(c(-c6cc(S(=O)(=O)[O-])ccc6F)c6ccc3[nH]6)C=C5)C=C4)cc2)N(S(=O)(=O)c2ccc(Cl)cc2F)C1
REMARK SMILES IDX 12 1 11 2 10 3 9 4 8 5 6 6 7 7 5 9 3 10 4 11 93 12 81 13
REMARK SMILES IDX 2 14 1 15 82 16 83 17 84 18 85 19 86 20 91 21 87 22 90 23
REMARK SMILES IDX 92 24 88 25 89 26 13 27 14 28 15 29 16 30 17 32 18 33 19 34
REMARK SMILES IDX 80 35 20 36 79 37 21 38 22 39 23 40 73 41 24 42 78 43 72 44
REMARK SMILES IDX 74 45 25 46 77 47 71 48 70 49 26 51 58 52 38 53 57 54 39 55
REMARK SMILES IDX 42 56 56 57 75 58 40 59 41 60 55 62 76 63 43 64 27 65 28 66
REMARK SMILES IDX 36 67 29 68 35 69 37 70 34 71 30 72 31 73 32 74 33 75 59 76
REMARK SMILES IDX 60 77 68 78 61 79 67 80 69 81 66 82 62 83 63 84 64 85 65 86
REMARK SMILES IDX 44 87 45 88 53 89 46 90 52 91 54 92 51 93 47 94 48 95 49 96
REMARK SMILES IDX 50 97
REMARK H PARENT 8 8 15 31 74 50 42 61
REMARK Flexibility Score: inf
ROOT
ATOM      1  C   UNL A   1      31.004  29.226  24.414  1.00  0.00     0.002 C 
ENDROOT
BRANCH   1   2
ATOM      2  C   UNL A   1      30.271  28.046  23.778  1.00  0.00     0.002 C 
BRANCH   2   3
ATOM      3  C   UNL A   1      30.675  27.742  22.332  1.00  0.00     0.021 C 
BRANCH   3   4
ATOM      4  C   UNL A   1      31.533  26.503  22.124  1.00  0.00     0.116 C 
BRANCH   4   5
ATOM      5  N   UNL A   1      32.720  26.566  22.951  1.00  0.00    -0.355 N 
ATOM      6  C   UNL A   1      33.056  25.994  24.128  1.00  0.00     0.238 C 
ATOM      7  O   UNL A   1      34.131  26.385  24.607  1.00  0.00    -0.273 OA
ATOM      8  H   UNL A   1      33.426  27.142  22.580  1.00  0.00     0.163 HD
BRANCH   6   9
ATOM      9  C   UNL A   1      32.275  24.896  24.822  1.00  0.00     0.165 C 
ATOM     10  C   UNL A   1      31.518  23.851  26.867  1.00  0.00     0.135 C 
ATOM     11  C   UNL A   1      32.151  25.122  26.332  1.00  0.00     0.064 C 
ATOM     12  C   UNL A   1      31.924  22.754  25.884  1.00  0.00     0.135 C 
ATOM     13  N   UNL A   1      32.343  23.431  24.602  1.00  0.00    -0.183 NA
BRANCH  10  14
ATOM     14  O   UNL A   1      30.118  23.934  27.128  1.00  0.00    -0.380 OA
ATOM     15  C   UNL A   1      29.402  22.719  27.270  1.00  0.00     0.195 C 
ENDBRANCH  10  14
BRANCH  13  16
ATOM     16  S   UNL A   1      33.556  22.566  23.825  1.00  0.00     0.246 S 
ATOM     17  O   UNL A   1      33.466  22.950  22.427  1.00  0.00    -0.207 OA
ATOM     18  O   UNL A   1      34.779  22.820  24.553  1.00  0.00    -0.207 OA
BRANCH  16  19
ATOM     19  C   UNL A   1      33.317  20.828  23.883  1.00  0.00     0.118 A 
ATOM     20  C   UNL A   1      34.160  20.092  24.735  1.00  0.00     0.026 A 
ATOM     21  C   UNL A   1      32.400  20.169  23.088  1.00  0.00     0.144 A 
ATOM     22  C   UNL A   1      34.157  18.698  24.695  1.00  0.00     0.022 A 
ATOM     23  C   UNL A   1      32.404  18.774  23.027  1.00  0.00     0.061 A 
ATOM     24  F   UNL A   1      31.505  20.840  22.354  1.00  0.00    -0.205 F 
ATOM     25  C   UNL A   1      33.298  18.046  23.814  1.00  0.00     0.044 A 
ATOM     26  Cl  UNL A   1      33.351  16.331  23.692  1.00  0.00    -0.084 Cl
ENDBRANCH  16  19
ENDBRANCH  13  16
ENDBRANCH   6   9
ENDBRANCH   4   5
ENDBRANCH   3   4
ENDBRANCH   2   3
ENDBRANCH   1   2
BRANCH   1  27
ATOM     27  C   UNL A   1      31.707  28.921  25.741  1.00  0.00     0.021 C 
BRANCH  27  28
ATOM     28  C   UNL A   1      33.000  29.697  25.987  1.00  0.00     0.116 C 
BRANCH  28  29
ATOM     29  N   UNL A   1      32.750  31.096  26.291  1.00  0.00    -0.352 N 
ATOM     30  C   UNL A   1      33.386  31.897  27.208  1.00  0.00     0.251 C 
ATOM     31  H   UNL A   1      32.031  31.524  25.773  1.00  0.00     0.163 HD
ATOM     32  O   UNL A   1      32.928  32.999  27.491  1.00  0.00    -0.269 OA
BRANCH  30  33
ATOM     33  C   UNL A   1      34.612  31.402  27.866  1.00  0.00     0.039 A 
ATOM     34  C   UNL A   1      35.708  32.257  27.995  1.00  0.00     0.014 A 
ATOM     35  C   UNL A   1      34.663  30.101  28.377  1.00  0.00     0.014 A 
ATOM     36  C   UNL A   1      36.839  31.827  28.692  1.00  0.00     0.010 A 
ATOM     37  C   UNL A   1      35.767  29.695  29.121  1.00  0.00     0.010 A 
ATOM     38  C   UNL A   1      36.867  30.553  29.284  1.00  0.00    -0.014 A 
BRANCH  38  39
ATOM     39  C   UNL A   1      38.047  30.088  30.055  1.00  0.00     0.031 A 
ATOM     40  C   UNL A   1      38.285  30.614  31.443  1.00  0.00     0.074 A 
ATOM     41  C   UNL A   1      38.935  29.249  29.485  1.00  0.00     0.049 A 
ATOM     42  N   UNL A   1      39.297  30.408  32.246  1.00  0.00    -0.248 NA
ATOM     43  C   UNL A   1      37.260  31.518  31.984  1.00  0.00     0.031 C 
ATOM     44  C   UNL A   1      38.834  28.703  28.131  1.00  0.00     0.029 A 
ATOM     45  N   UNL A   1      40.105  28.723  29.970  1.00  0.00    -0.354 N 
ATOM     46  C   UNL A   1      39.040  31.171  33.380  1.00  0.00     0.074 A 
ATOM     47  C   UNL A   1      37.803  31.884  33.134  1.00  0.00     0.031 C 
ATOM     48  C   UNL A   1      39.893  27.910  27.898  1.00  0.00     0.029 A 
ATOM     49  C   UNL A   1      40.763  27.917  29.070  1.00  0.00     0.049 A 
ATOM     50  H   UNL A   1      40.443  28.904  30.877  1.00  0.00     0.167 HD
ATOM     51  C   UNL A   1      39.759  31.255  34.528  1.00  0.00     0.034 A 
ATOM     52  C   UNL A   1      41.940  27.269  29.175  1.00  0.00     0.034 A 
ATOM     53  C   UNL A   1      40.981  30.527  34.767  1.00  0.00     0.049 A 
ATOM     54  C   UNL A   1      42.721  27.373  30.460  1.00  0.00     0.074 A 
ATOM     55  C   UNL A   1      41.760  30.495  35.910  1.00  0.00     0.029 A 
ATOM     56  N   UNL A   1      41.604  29.702  33.839  1.00  0.00    -0.354 N 
ATOM     57  N   UNL A   1      42.444  28.067  31.539  1.00  0.00    -0.248 NA
ATOM     58  C   UNL A   1      43.965  26.599  30.541  1.00  0.00     0.031 C 
ATOM     59  C   UNL A   1      42.879  29.691  35.658  1.00  0.00     0.029 A 
ATOM     60  C   UNL A   1      42.768  29.174  34.378  1.00  0.00     0.049 A 
ATOM     61  H   UNL A   1      41.269  29.517  32.933  1.00  0.00     0.167 HD
ATOM     62  C   UNL A   1      43.469  27.791  32.438  1.00  0.00     0.074 A 
ATOM     63  C   UNL A   1      44.363  26.860  31.778  1.00  0.00     0.031 C 
ATOM     64  C   UNL A   1      43.653  28.258  33.700  1.00  0.00     0.034 A 
BRANCH  51  65
ATOM     65  C   UNL A   1      39.243  32.192  35.594  1.00  0.00     0.023 A 
ATOM     66  C   UNL A   1      39.661  33.534  35.658  1.00  0.00     0.031 A 
ATOM     67  C   UNL A   1      38.362  31.728  36.586  1.00  0.00     0.131 A 
ATOM     68  C   UNL A   1      39.266  34.339  36.737  1.00  0.00     0.055 A 
ATOM     69  C   UNL A   1      37.908  32.558  37.613  1.00  0.00     0.041 A 
ATOM     70  F   UNL A   1      37.945  30.453  36.586  1.00  0.00    -0.206 F 
ATOM     71  C   UNL A   1      38.374  33.867  37.703  1.00  0.00     0.022 A 
BRANCH  68  72
ATOM     72  S   UNL A   1      40.053  35.959  36.940  1.00  0.00     0.124 S 
ATOM     73  O   UNL A   1      41.448  35.583  37.160  1.00  0.00    -0.237 OA
ATOM     74  O   UNL A   1      39.762  36.613  35.670  1.00  0.00    -0.237 OA
ATOM     75  O   UNL A   1      39.377  36.526  38.104  1.00  0.00    -0.744 OA
ENDBRANCH  68  72
ENDBRANCH  51  65
BRANCH  52  76
ATOM     76  C   UNL A   1      42.461  26.467  28.034  1.00  0.00     0.023 A 
ATOM     77  C   UNL A   1      42.240  25.083  27.964  1.00  0.00     0.031 A 
ATOM     78  C   UNL A   1      43.217  27.071  27.015  1.00  0.00     0.131 A 
ATOM     79  C   UNL A   1      42.803  24.338  26.917  1.00  0.00     0.055 A 
ATOM     80  C   UNL A   1      43.742  26.331  25.953  1.00  0.00     0.041 A 
ATOM     81  F   UNL A   1      43.448  28.393  27.032  1.00  0.00    -0.206 F 
ATOM     82  C   UNL A   1      43.545  24.954  25.906  1.00  0.00     0.022 A 
BRANCH  79  83
ATOM     83  S   UNL A   1      42.603  22.535  26.928  1.00  0.00     0.124 S 
ATOM     84  O   UNL A   1      41.450  22.358  26.052  1.00  0.00    -0.237 OA
ATOM     85  O   UNL A   1      43.886  22.086  26.399  1.00  0.00    -0.237 OA
ATOM     86  O   UNL A   1      42.371  22.227  28.337  1.00  0.00    -0.744 OA
ENDBRANCH  79  83
ENDBRANCH  52  76
BRANCH  64  87
ATOM     87  C   UNL A   1      44.846  27.728  34.452  1.00  0.00     0.023 A 
ATOM     88  C   UNL A   1      44.784  26.529  35.183  1.00  0.00     0.031 A 
ATOM     89  C   UNL A   1      46.056  28.444  34.448  1.00  0.00     0.131 A 
ATOM     90  C   UNL A   1      45.899  26.106  35.922  1.00  0.00     0.055 A 
ATOM     91  C   UNL A   1      47.177  27.993  35.146  1.00  0.00     0.041 A 
ATOM     92  F   UNL A   1      46.166  29.595  33.766  1.00  0.00    -0.206 F 
ATOM     93  C   UNL A   1      47.098  26.823  35.898  1.00  0.00     0.022 A 
BRANCH  90  94
ATOM     94  S   UNL A   1      45.738  24.641  36.980  1.00  0.00     0.124 S 
ATOM     95  O   UNL A   1      46.988  24.671  37.733  1.00  0.00    -0.237 OA
ATOM     96  O   UNL A   1      44.529  24.936  37.741  1.00  0.00    -0.237 OA
ATOM     97  O   UNL A   1      45.615  23.540  36.026  1.00  0.00    -0.744 OA
ENDBRANCH  90  94
ENDBRANCH  64  87
ENDBRANCH  38  39
ENDBRANCH  30  33
ENDBRANCH  28  29
ENDBRANCH  27  28
ENDBRANCH   1  27
TORSDOF 19
ENDMDL
