MODEL 1
REMARK VINA RESULT:     -10.8      0.000      0.000
REMARK SMILES C#CC[N@@H+](CC(=O)NCCCCCCNC(=O)c1ccc(-c2c3nc(c(-c4cc(S(=O)(=O)[O-])ccc4F)c4ccc([nH]4)c(-c4cc(S(=O)(=O)[O-])ccc4F)c4nc(c(-c5cc(S(=O)(=O)[O-])ccc5F)c5ccc2[nH]5)C=C4)C=C3)cc1)CC(=O)Nc1c(Cl)cccc1Cl
REMARK SMILES IDX 11 1 10 2 9 3 8 4 6 5 7 6 5 8 4 9 3 11 2 12 1 13 81 14 82 15
REMARK SMILES IDX 83 16 84 17 85 19 86 20 91 21 87 22 88 23 90 24 92 25 89 26
REMARK SMILES IDX 12 27 13 28 14 29 15 30 16 31 17 33 18 34 19 35 80 36 20 37
REMARK SMILES IDX 79 38 21 39 22 40 23 41 73 42 24 43 78 44 72 45 74 46 25 47
REMARK SMILES IDX 77 48 71 49 70 50 26 52 58 53 38 54 57 55 39 56 42 57 56 58
REMARK SMILES IDX 75 59 40 60 41 61 55 63 76 64 43 65 27 66 28 67 36 68 29 69
REMARK SMILES IDX 35 70 37 71 34 72 30 73 31 74 32 75 33 76 59 77 60 78 68 79
REMARK SMILES IDX 61 80 67 81 69 82 66 83 62 84 63 85 64 86 65 87 44 88 45 89
REMARK SMILES IDX 53 90 46 91 52 92 54 93 51 94 47 95 48 96 49 97 50 98
REMARK H PARENT 8 7 4 10 84 18 15 32 74 51 42 62
REMARK Flexibility Score: inf
ROOT
ATOM      1  C   UNL A   1      31.253  27.709  25.433  1.00  0.00     0.002 C 
ENDROOT
BRANCH   1   2
ATOM      2  C   UNL A   1      30.364  27.085  24.358  1.00  0.00     0.021 C 
BRANCH   2   3
ATOM      3  C   UNL A   1      29.888  25.663  24.696  1.00  0.00     0.116 C 
BRANCH   3   4
ATOM      4  N   UNL A   1      30.560  25.190  25.871  1.00  0.00    -0.351 N 
ATOM      5  C   UNL A   1      31.204  24.025  26.112  1.00  0.00     0.275 C 
ATOM      6  O   UNL A   1      31.191  23.713  27.304  1.00  0.00    -0.269 OA
ATOM      7  H   UNL A   1      30.551  25.817  26.630  1.00  0.00     0.163 HD
BRANCH   5   8
ATOM      8  C   UNL A   1      31.903  23.190  24.981  1.00  0.00     0.364 C 
BRANCH   8   9
ATOM      9  N   UNL A   1      33.187  23.727  24.459  1.00  0.00    -0.309 N 
ATOM     10  H   UNL A   1      33.584  24.487  25.013  1.00  0.00     0.349 HD
BRANCH   9  11
ATOM     11  C   UNL A   1      32.830  24.216  23.154  1.00  0.00     0.354 C 
BRANCH  11  12
ATOM     12  C   UNL A   1      33.135  25.549  22.491  1.00  0.00    -0.047 C 
ATOM     13  C   UNL A   1      33.398  26.693  21.923  1.00  0.00     0.010 C 
ENDBRANCH  11  12
ENDBRANCH   9  11
BRANCH   9  14
ATOM     14  C   UNL A   1      34.330  22.788  24.576  1.00  0.00     0.365 C 
BRANCH  14  15
ATOM     15  C   UNL A   1      34.493  21.903  25.824  1.00  0.00     0.279 C 
ATOM     16  O   UNL A   1      34.835  22.440  26.889  1.00  0.00    -0.268 OA
ATOM     17  N   UNL A   1      34.130  20.578  25.903  1.00  0.00    -0.319 N 
ATOM     18  H   UNL A   1      34.055  20.296  26.843  1.00  0.00     0.170 HD
BRANCH  17  19
ATOM     19  C   UNL A   1      33.827  19.490  25.028  1.00  0.00     0.079 A 
ATOM     20  C   UNL A   1      34.888  18.671  24.606  1.00  0.00     0.066 A 
ATOM     21  C   UNL A   1      32.586  19.168  24.456  1.00  0.00     0.066 A 
ATOM     22  Cl  UNL A   1      36.535  19.099  24.918  1.00  0.00    -0.082 Cl
ATOM     23  C   UNL A   1      34.643  17.470  23.922  1.00  0.00     0.023 A 
ATOM     24  C   UNL A   1      32.284  17.850  24.090  1.00  0.00     0.023 A 
ATOM     25  Cl  UNL A   1      32.182  20.110  22.938  1.00  0.00    -0.082 Cl
ATOM     26  C   UNL A   1      33.336  17.022  23.734  1.00  0.00     0.003 A 
ENDBRANCH  17  19
ENDBRANCH  14  15
ENDBRANCH   9  14
ENDBRANCH   8   9
ENDBRANCH   5   8
ENDBRANCH   3   4
ENDBRANCH   2   3
ENDBRANCH   1   2
BRANCH   1  27
ATOM     27  C   UNL A   1      32.094  28.863  24.909  1.00  0.00     0.002 C 
BRANCH  27  28
ATOM     28  C   UNL A   1      33.596  28.585  24.982  1.00  0.00     0.021 C 
BRANCH  28  29
ATOM     29  C   UNL A   1      34.205  28.940  26.331  1.00  0.00     0.116 C 
BRANCH  29  30
ATOM     30  N   UNL A   1      33.941  30.326  26.653  1.00  0.00    -0.352 N 
ATOM     31  C   UNL A   1      34.513  31.054  27.664  1.00  0.00     0.251 C 
ATOM     32  H   UNL A   1      33.285  30.794  26.087  1.00  0.00     0.163 HD
ATOM     33  O   UNL A   1      33.984  32.069  28.084  1.00  0.00    -0.269 OA
BRANCH  31  34
ATOM     34  C   UNL A   1      35.778  30.545  28.227  1.00  0.00     0.039 A 
ATOM     35  C   UNL A   1      35.737  29.703  29.335  1.00  0.00     0.014 A 
ATOM     36  C   UNL A   1      36.991  30.858  27.600  1.00  0.00     0.014 A 
ATOM     37  C   UNL A   1      36.927  29.159  29.812  1.00  0.00     0.010 A 
ATOM     38  C   UNL A   1      38.159  30.239  28.020  1.00  0.00     0.010 A 
ATOM     39  C   UNL A   1      38.143  29.409  29.150  1.00  0.00    -0.014 A 
BRANCH  39  40
ATOM     40  C   UNL A   1      39.416  28.853  29.665  1.00  0.00     0.031 A 
ATOM     41  C   UNL A   1      40.045  29.456  30.891  1.00  0.00     0.074 A 
ATOM     42  C   UNL A   1      40.009  27.832  29.016  1.00  0.00     0.049 A 
ATOM     43  N   UNL A   1      41.164  29.138  31.488  1.00  0.00    -0.248 NA
ATOM     44  C   UNL A   1      39.334  30.586  31.512  1.00  0.00     0.031 C 
ATOM     45  C   UNL A   1      39.503  27.198  27.797  1.00  0.00     0.029 A 
ATOM     46  N   UNL A   1      41.162  27.145  29.293  1.00  0.00    -0.354 N 
ATOM     47  C   UNL A   1      41.295  30.032  32.546  1.00  0.00     0.074 A 
ATOM     48  C   UNL A   1      40.181  30.950  32.461  1.00  0.00     0.031 C 
ATOM     49  C   UNL A   1      40.321  26.191  27.454  1.00  0.00     0.029 A 
ATOM     50  C   UNL A   1      41.435  26.139  28.395  1.00  0.00     0.049 A 
ATOM     51  H   UNL A   1      41.741  27.351  30.062  1.00  0.00     0.167 HD
ATOM     52  C   UNL A   1      42.241  30.061  33.515  1.00  0.00     0.034 A 
ATOM     53  C   UNL A   1      42.473  25.282  28.335  1.00  0.00     0.034 A 
ATOM     54  C   UNL A   1      43.337  29.128  33.582  1.00  0.00     0.049 A 
ATOM     55  C   UNL A   1      43.534  25.359  29.404  1.00  0.00     0.074 A 
ATOM     56  C   UNL A   1      44.329  29.032  34.541  1.00  0.00     0.029 A 
ATOM     57  N   UNL A   1      43.593  28.133  32.646  1.00  0.00    -0.354 N 
ATOM     58  N   UNL A   1      43.617  26.176  30.429  1.00  0.00    -0.248 NA
ATOM     59  C   UNL A   1      44.634  24.391  29.315  1.00  0.00     0.031 C 
ATOM     60  C   UNL A   1      45.227  28.037  34.144  1.00  0.00     0.029 A 
ATOM     61  C   UNL A   1      44.747  27.445  32.986  1.00  0.00     0.049 A 
ATOM     62  H   UNL A   1      43.035  27.944  31.856  1.00  0.00     0.167 HD
ATOM     63  C   UNL A   1      44.761  25.796  31.125  1.00  0.00     0.074 A 
ATOM     64  C   UNL A   1      45.323  24.667  30.412  1.00  0.00     0.031 C 
ATOM     65  C   UNL A   1      45.298  26.327  32.255  1.00  0.00     0.034 A 
BRANCH  52  66
ATOM     66  C   UNL A   1      42.140  31.154  34.554  1.00  0.00     0.023 A 
ATOM     67  C   UNL A   1      41.093  31.189  35.493  1.00  0.00     0.031 A 
ATOM     68  C   UNL A   1      43.088  32.190  34.591  1.00  0.00     0.131 A 
ATOM     69  C   UNL A   1      40.976  32.275  36.372  1.00  0.00     0.055 A 
ATOM     70  C   UNL A   1      43.015  33.223  35.528  1.00  0.00     0.041 A 
ATOM     71  F   UNL A   1      44.096  32.227  33.704  1.00  0.00    -0.206 F 
ATOM     72  C   UNL A   1      41.946  33.278  36.416  1.00  0.00     0.022 A 
BRANCH  69  73
ATOM     73  S   UNL A   1      39.458  32.437  37.352  1.00  0.00     0.124 S 
ATOM     74  O   UNL A   1      39.991  32.510  38.710  1.00  0.00    -0.237 OA
ATOM     75  O   UNL A   1      38.873  33.665  36.828  1.00  0.00    -0.237 OA
ATOM     76  O   UNL A   1      38.720  31.213  37.046  1.00  0.00    -0.744 OA
ENDBRANCH  69  73
ENDBRANCH  52  66
BRANCH  53  77
ATOM     77  C   UNL A   1      42.569  24.286  27.228  1.00  0.00     0.023 A 
ATOM     78  C   UNL A   1      41.920  23.044  27.311  1.00  0.00     0.031 A 
ATOM     79  C   UNL A   1      43.352  24.543  26.088  1.00  0.00     0.131 A 
ATOM     80  C   UNL A   1      42.108  22.087  26.301  1.00  0.00     0.055 A 
ATOM     81  C   UNL A   1      43.486  23.612  25.058  1.00  0.00     0.041 A 
ATOM     82  F   UNL A   1      43.994  25.716  25.955  1.00  0.00    -0.206 F 
ATOM     83  C   UNL A   1      42.875  22.368  25.168  1.00  0.00     0.022 A 
BRANCH  80  84
ATOM     84  S   UNL A   1      41.419  20.426  26.540  1.00  0.00     0.124 S 
ATOM     85  O   UNL A   1      39.986  20.690  26.485  1.00  0.00    -0.237 OA
ATOM     86  O   UNL A   1      41.983  19.698  25.409  1.00  0.00    -0.237 OA
ATOM     87  O   UNL A   1      41.932  20.032  27.852  1.00  0.00    -0.744 OA
ENDBRANCH  80  84
ENDBRANCH  53  77
BRANCH  65  88
ATOM     88  C   UNL A   1      46.531  25.655  32.809  1.00  0.00     0.023 A 
ATOM     89  C   UNL A   1      47.817  25.941  32.319  1.00  0.00     0.031 A 
ATOM     90  C   UNL A   1      46.414  24.708  33.842  1.00  0.00     0.131 A 
ATOM     91  C   UNL A   1      48.926  25.240  32.815  1.00  0.00     0.055 A 
ATOM     92  C   UNL A   1      47.529  24.068  34.383  1.00  0.00     0.041 A 
ATOM     93  F   UNL A   1      45.211  24.393  34.348  1.00  0.00    -0.206 F 
ATOM     94  C   UNL A   1      48.793  24.321  33.859  1.00  0.00     0.022 A 
BRANCH  91  95
ATOM     95  S   UNL A   1      50.532  25.467  32.004  1.00  0.00     0.124 S 
ATOM     96  O   UNL A   1      51.411  25.726  33.140  1.00  0.00    -0.237 OA
ATOM     97  O   UNL A   1      50.725  24.189  31.327  1.00  0.00    -0.237 OA
ATOM     98  O   UNL A   1      50.310  26.609  31.119  1.00  0.00    -0.744 OA
ENDBRANCH  91  95
ENDBRANCH  65  88
ENDBRANCH  39  40
ENDBRANCH  31  34
ENDBRANCH  29  30
ENDBRANCH  28  29
ENDBRANCH  27  28
ENDBRANCH   1  27
TORSDOF 22
ENDMDL
MODEL 2
REMARK VINA RESULT:     -10.6      1.220      2.059
REMARK SMILES C#CC[N@@H+](CC(=O)NCCCCCCNC(=O)c1ccc(-c2c3nc(c(-c4cc(S(=O)(=O)[O-])ccc4F)c4ccc([nH]4)c(-c4cc(S(=O)(=O)[O-])ccc4F)c4nc(c(-c5cc(S(=O)(=O)[O-])ccc5F)c5ccc2[nH]5)C=C4)C=C3)cc1)CC(=O)Nc1c(Cl)cccc1Cl
REMARK SMILES IDX 11 1 10 2 9 3 8 4 6 5 7 6 5 8 4 9 3 11 2 12 1 13 81 14 82 15
REMARK SMILES IDX 83 16 84 17 85 19 86 20 91 21 87 22 88 23 90 24 92 25 89 26
REMARK SMILES IDX 12 27 13 28 14 29 15 30 16 31 17 33 18 34 19 35 80 36 20 37
REMARK SMILES IDX 79 38 21 39 22 40 23 41 73 42 24 43 78 44 72 45 74 46 25 47
REMARK SMILES IDX 77 48 71 49 70 50 26 52 58 53 38 54 57 55 39 56 42 57 56 58
REMARK SMILES IDX 75 59 40 60 41 61 55 63 76 64 43 65 27 66 28 67 36 68 29 69
REMARK SMILES IDX 35 70 37 71 34 72 30 73 31 74 32 75 33 76 59 77 60 78 68 79
REMARK SMILES IDX 61 80 67 81 69 82 66 83 62 84 63 85 64 86 65 87 44 88 45 89
REMARK SMILES IDX 53 90 46 91 52 92 54 93 51 94 47 95 48 96 49 97 50 98
REMARK H PARENT 8 7 4 10 84 18 15 32 74 51 42 62
REMARK Flexibility Score: inf
ROOT
ATOM      1  C   UNL A   1      31.244  27.643  25.223  1.00  0.00     0.002 C 
ENDROOT
BRANCH   1   2
ATOM      2  C   UNL A   1      30.119  27.012  24.404  1.00  0.00     0.021 C 
BRANCH   2   3
ATOM      3  C   UNL A   1      29.310  25.955  25.172  1.00  0.00     0.116 C 
BRANCH   3   4
ATOM      4  N   UNL A   1      30.159  25.274  26.106  1.00  0.00    -0.351 N 
ATOM      5  C   UNL A   1      30.745  24.057  26.044  1.00  0.00     0.275 C 
ATOM      6  O   UNL A   1      30.940  23.566  27.157  1.00  0.00    -0.269 OA
ATOM      7  H   UNL A   1      30.347  25.777  26.932  1.00  0.00     0.163 HD
BRANCH   5   8
ATOM      8  C   UNL A   1      31.143  23.374  24.687  1.00  0.00     0.364 C 
BRANCH   8   9
ATOM      9  N   UNL A   1      32.524  22.832  24.600  1.00  0.00    -0.309 N 
ATOM     10  H   UNL A   1      33.046  22.861  25.476  1.00  0.00     0.349 HD
BRANCH   9  11
ATOM     11  C   UNL A   1      33.153  23.693  23.633  1.00  0.00     0.354 C 
BRANCH  11  12
ATOM     12  C   UNL A   1      32.542  24.722  22.697  1.00  0.00    -0.047 C 
ATOM     13  C   UNL A   1      32.017  25.606  21.894  1.00  0.00     0.010 C 
ENDBRANCH  11  12
ENDBRANCH   9  11
BRANCH   9  14
ATOM     14  C   UNL A   1      32.587  21.363  24.389  1.00  0.00     0.365 C 
BRANCH  14  15
ATOM     15  C   UNL A   1      33.431  20.474  25.318  1.00  0.00     0.279 C 
ATOM     16  O   UNL A   1      32.939  19.409  25.723  1.00  0.00    -0.268 OA
ATOM     17  N   UNL A   1      34.760  20.679  25.611  1.00  0.00    -0.319 N 
ATOM     18  H   UNL A   1      35.162  19.859  25.980  1.00  0.00     0.170 HD
BRANCH  17  19
ATOM     19  C   UNL A   1      35.730  21.725  25.540  1.00  0.00     0.079 A 
ATOM     20  C   UNL A   1      35.613  22.793  26.443  1.00  0.00     0.066 A 
ATOM     21  C   UNL A   1      36.770  21.867  24.608  1.00  0.00     0.066 A 
ATOM     22  Cl  UNL A   1      34.211  22.980  27.441  1.00  0.00    -0.082 Cl
ATOM     23  C   UNL A   1      36.638  23.744  26.573  1.00  0.00     0.023 A 
ATOM     24  C   UNL A   1      37.936  22.574  24.935  1.00  0.00     0.023 A 
ATOM     25  Cl  UNL A   1      36.268  22.633  23.021  1.00  0.00    -0.082 Cl
ATOM     26  C   UNL A   1      37.833  23.588  25.873  1.00  0.00     0.003 A 
ENDBRANCH  17  19
ENDBRANCH  14  15
ENDBRANCH   9  14
ENDBRANCH   8   9
ENDBRANCH   5   8
ENDBRANCH   3   4
ENDBRANCH   2   3
ENDBRANCH   1   2
BRANCH   1  27
ATOM     27  C   UNL A   1      32.181  28.497  24.382  1.00  0.00     0.002 C 
BRANCH  27  28
ATOM     28  C   UNL A   1      33.657  28.239  24.689  1.00  0.00     0.021 C 
BRANCH  28  29
ATOM     29  C   UNL A   1      34.045  28.614  26.112  1.00  0.00     0.116 C 
BRANCH  29  30
ATOM     30  N   UNL A   1      33.792  30.019  26.349  1.00  0.00    -0.352 N 
ATOM     31  C   UNL A   1      34.353  30.798  27.328  1.00  0.00     0.251 C 
ATOM     32  H   UNL A   1      33.153  30.461  25.745  1.00  0.00     0.163 HD
ATOM     33  O   UNL A   1      33.830  31.841  27.679  1.00  0.00    -0.269 OA
BRANCH  31  34
ATOM     34  C   UNL A   1      35.602  30.307  27.944  1.00  0.00     0.039 A 
ATOM     35  C   UNL A   1      35.548  29.708  29.199  1.00  0.00     0.014 A 
ATOM     36  C   UNL A   1      36.805  30.390  27.231  1.00  0.00     0.014 A 
ATOM     37  C   UNL A   1      36.715  29.173  29.740  1.00  0.00     0.010 A 
ATOM     38  C   UNL A   1      37.941  29.772  27.732  1.00  0.00     0.010 A 
ATOM     39  C   UNL A   1      37.914  29.186  29.006  1.00  0.00    -0.014 A 
BRANCH  39  40
ATOM     40  C   UNL A   1      39.165  28.640  29.584  1.00  0.00     0.031 A 
ATOM     41  C   UNL A   1      39.702  29.218  30.864  1.00  0.00     0.074 A 
ATOM     42  C   UNL A   1      39.819  27.650  28.945  1.00  0.00     0.049 A 
ATOM     43  N   UNL A   1      40.789  28.904  31.520  1.00  0.00    -0.248 NA
ATOM     44  C   UNL A   1      38.931  30.315  31.471  1.00  0.00     0.031 C 
ATOM     45  C   UNL A   1      39.403  27.044  27.678  1.00  0.00     0.029 A 
ATOM     46  N   UNL A   1      40.966  26.978  29.274  1.00  0.00    -0.354 N 
ATOM     47  C   UNL A   1      40.834  29.769  32.610  1.00  0.00     0.074 A 
ATOM     48  C   UNL A   1      39.708  30.667  32.482  1.00  0.00     0.031 C 
ATOM     49  C   UNL A   1      40.263  26.063  27.359  1.00  0.00     0.029 A 
ATOM     50  C   UNL A   1      41.317  26.005  28.367  1.00  0.00     0.049 A 
ATOM     51  H   UNL A   1      41.492  27.172  30.084  1.00  0.00     0.167 HD
ATOM     52  C   UNL A   1      41.717  29.788  33.637  1.00  0.00     0.034 A 
ATOM     53  C   UNL A   1      42.374  25.170  28.348  1.00  0.00     0.034 A 
ATOM     54  C   UNL A   1      42.827  28.874  33.746  1.00  0.00     0.049 A 
ATOM     55  C   UNL A   1      43.364  25.236  29.483  1.00  0.00     0.074 A 
ATOM     56  C   UNL A   1      43.758  28.769  34.764  1.00  0.00     0.029 A 
ATOM     57  N   UNL A   1      43.161  27.913  32.801  1.00  0.00    -0.354 N 
ATOM     58  N   UNL A   1      43.365  26.024  30.535  1.00  0.00    -0.248 NA
ATOM     59  C   UNL A   1      44.488  24.293  29.436  1.00  0.00     0.031 C 
ATOM     60  C   UNL A   1      44.701  27.804  34.395  1.00  0.00     0.029 A 
ATOM     61  C   UNL A   1      44.306  27.238  33.193  1.00  0.00     0.049 A 
ATOM     62  H   UNL A   1      42.658  27.737  31.972  1.00  0.00     0.167 HD
ATOM     63  C   UNL A   1      44.472  25.646  31.291  1.00  0.00     0.074 A 
ATOM     64  C   UNL A   1      45.101  24.550  30.582  1.00  0.00     0.031 C 
ATOM     65  C   UNL A   1      44.926  26.153  32.467  1.00  0.00     0.034 A 
BRANCH  52  66
ATOM     66  C   UNL A   1      41.528  30.847  34.698  1.00  0.00     0.023 A 
ATOM     67  C   UNL A   1      40.389  30.874  35.523  1.00  0.00     0.031 A 
ATOM     68  C   UNL A   1      42.486  31.860  34.871  1.00  0.00     0.131 A 
ATOM     69  C   UNL A   1      40.200  31.932  36.424  1.00  0.00     0.055 A 
ATOM     70  C   UNL A   1      42.335  32.862  35.832  1.00  0.00     0.041 A 
ATOM     71  F   UNL A   1      43.582  31.904  34.096  1.00  0.00    -0.206 F 
ATOM     72  C   UNL A   1      41.180  32.910  36.605  1.00  0.00     0.022 A 
BRANCH  69  73
ATOM     73  S   UNL A   1      38.591  32.095  37.245  1.00  0.00     0.124 S 
ATOM     74  O   UNL A   1      38.004  33.220  36.521  1.00  0.00    -0.237 OA
ATOM     75  O   UNL A   1      37.981  30.792  37.006  1.00  0.00    -0.237 OA
ATOM     76  O   UNL A   1      38.942  32.374  38.636  1.00  0.00    -0.744 OA
ENDBRANCH  69  73
ENDBRANCH  52  66
BRANCH  53  77
ATOM     77  C   UNL A   1      42.560  24.210  27.221  1.00  0.00     0.023 A 
ATOM     78  C   UNL A   1      41.984  22.930  27.256  1.00  0.00     0.031 A 
ATOM     79  C   UNL A   1      43.359  24.541  26.112  1.00  0.00     0.131 A 
ATOM     80  C   UNL A   1      42.257  22.011  26.230  1.00  0.00     0.055 A 
ATOM     81  C   UNL A   1      43.577  23.646  25.064  1.00  0.00     0.041 A 
ATOM     82  F   UNL A   1      43.933  25.752  26.026  1.00  0.00    -0.206 F 
ATOM     83  C   UNL A   1      43.037  22.365  25.127  1.00  0.00     0.022 A 
BRANCH  80  84
ATOM     84  S   UNL A   1      41.661  20.308  26.410  1.00  0.00     0.124 S 
ATOM     85  O   UNL A   1      42.327  19.642  25.297  1.00  0.00    -0.237 OA
ATOM     86  O   UNL A   1      42.137  19.960  27.745  1.00  0.00    -0.237 OA
ATOM     87  O   UNL A   1      40.211  20.441  26.282  1.00  0.00    -0.744 OA
ENDBRANCH  80  84
ENDBRANCH  53  77
BRANCH  65  88
ATOM     88  C   UNL A   1      46.136  25.489  33.079  1.00  0.00     0.023 A 
ATOM     89  C   UNL A   1      47.445  25.876  32.742  1.00  0.00     0.031 A 
ATOM     90  C   UNL A   1      45.974  24.447  34.009  1.00  0.00     0.131 A 
ATOM     91  C   UNL A   1      48.538  25.183  33.282  1.00  0.00     0.055 A 
ATOM     92  C   UNL A   1      47.066  23.811  34.598  1.00  0.00     0.041 A 
ATOM     93  F   UNL A   1      44.747  24.034  34.365  1.00  0.00    -0.206 F 
ATOM     94  C   UNL A   1      48.358  24.168  34.224  1.00  0.00     0.022 A 
BRANCH  91  95
ATOM     95  S   UNL A   1      50.198  25.555  32.655  1.00  0.00     0.124 S 
ATOM     96  O   UNL A   1      49.907  26.114  31.339  1.00  0.00    -0.237 OA
ATOM     97  O   UNL A   1      50.706  26.496  33.648  1.00  0.00    -0.237 OA
ATOM     98  O   UNL A   1      50.860  24.251  32.642  1.00  0.00    -0.744 OA
ENDBRANCH  91  95
ENDBRANCH  65  88
ENDBRANCH  39  40
ENDBRANCH  31  34
ENDBRANCH  29  30
ENDBRANCH  28  29
ENDBRANCH  27  28
ENDBRANCH   1  27
TORSDOF 22
ENDMDL
MODEL 3
REMARK VINA RESULT:     -10.6      3.600      8.749
REMARK SMILES C#CC[N@@H+](CC(=O)NCCCCCCNC(=O)c1ccc(-c2c3nc(c(-c4cc(S(=O)(=O)[O-])ccc4F)c4ccc([nH]4)c(-c4cc(S(=O)(=O)[O-])ccc4F)c4nc(c(-c5cc(S(=O)(=O)[O-])ccc5F)c5ccc2[nH]5)C=C4)C=C3)cc1)CC(=O)Nc1c(Cl)cccc1Cl
REMARK SMILES IDX 11 1 10 2 9 3 8 4 6 5 7 6 5 8 4 9 3 11 2 12 1 13 81 14 82 15
REMARK SMILES IDX 83 16 84 17 85 19 86 20 91 21 87 22 88 23 90 24 92 25 89 26
REMARK SMILES IDX 12 27 13 28 14 29 15 30 16 31 17 33 18 34 19 35 80 36 20 37
REMARK SMILES IDX 79 38 21 39 22 40 23 41 73 42 24 43 78 44 72 45 74 46 25 47
REMARK SMILES IDX 77 48 71 49 70 50 26 52 58 53 38 54 57 55 39 56 42 57 56 58
REMARK SMILES IDX 75 59 40 60 41 61 55 63 76 64 43 65 27 66 28 67 36 68 29 69
REMARK SMILES IDX 35 70 37 71 34 72 30 73 31 74 32 75 33 76 59 77 60 78 68 79
REMARK SMILES IDX 61 80 67 81 69 82 66 83 62 84 63 85 64 86 65 87 44 88 45 89
REMARK SMILES IDX 53 90 46 91 52 92 54 93 51 94 47 95 48 96 49 97 50 98
REMARK H PARENT 8 7 4 10 84 18 15 32 74 51 42 62
REMARK Flexibility Score: inf
ROOT
ATOM      1  C   UNL A   1      33.260  29.852  26.450  1.00  0.00     0.002 C 
ENDROOT
BRANCH   1   2
ATOM      2  C   UNL A   1      33.870  29.193  25.214  1.00  0.00     0.021 C 
BRANCH   2   3
ATOM      3  C   UNL A   1      33.469  27.720  25.035  1.00  0.00     0.116 C 
BRANCH   3   4
ATOM      4  N   UNL A   1      33.338  27.416  23.639  1.00  0.00    -0.351 N 
ATOM      5  C   UNL A   1      33.475  26.248  22.972  1.00  0.00     0.275 C 
ATOM      6  O   UNL A   1      33.823  26.408  21.801  1.00  0.00    -0.269 OA
ATOM      7  H   UNL A   1      33.109  28.187  23.071  1.00  0.00     0.163 HD
BRANCH   5   8
ATOM      8  C   UNL A   1      33.195  24.852  23.634  1.00  0.00     0.364 C 
BRANCH   8   9
ATOM      9  N   UNL A   1      32.334  23.916  22.865  1.00  0.00    -0.309 N 
ATOM     10  H   UNL A   1      32.223  24.155  21.880  1.00  0.00     0.349 HD
BRANCH   9  11
ATOM     11  C   UNL A   1      31.063  24.017  23.533  1.00  0.00     0.354 C 
BRANCH  11  12
ATOM     12  C   UNL A   1      30.541  25.080  24.486  1.00  0.00    -0.047 C 
ATOM     13  C   UNL A   1      30.093  25.992  25.304  1.00  0.00     0.010 C 
ENDBRANCH  11  12
ENDBRANCH   9  11
BRANCH   9  14
ATOM     14  C   UNL A   1      32.926  22.569  22.669  1.00  0.00     0.365 C 
BRANCH  14  15
ATOM     15  C   UNL A   1      33.014  21.573  23.838  1.00  0.00     0.279 C 
ATOM     16  O   UNL A   1      32.072  20.784  24.013  1.00  0.00    -0.268 OA
ATOM     17  N   UNL A   1      34.130  21.368  24.616  1.00  0.00    -0.319 N 
ATOM     18  H   UNL A   1      34.061  20.514  25.101  1.00  0.00     0.170 HD
BRANCH  17  19
ATOM     19  C   UNL A   1      35.359  22.024  24.931  1.00  0.00     0.079 A 
ATOM     20  C   UNL A   1      35.351  22.975  25.964  1.00  0.00     0.066 A 
ATOM     21  C   UNL A   1      36.592  21.897  24.272  1.00  0.00     0.066 A 
ATOM     22  Cl  UNL A   1      33.871  23.527  26.669  1.00  0.00    -0.082 Cl
ATOM     23  C   UNL A   1      36.551  23.503  26.467  1.00  0.00     0.023 A 
ATOM     24  C   UNL A   1      37.796  22.130  24.951  1.00  0.00     0.023 A 
ATOM     25  Cl  UNL A   1      36.766  22.939  22.776  1.00  0.00    -0.082 Cl
ATOM     26  C   UNL A   1      37.777  23.020  26.012  1.00  0.00     0.003 A 
ENDBRANCH  17  19
ENDBRANCH  14  15
ENDBRANCH   9  14
ENDBRANCH   8   9
ENDBRANCH   5   8
ENDBRANCH   3   4
ENDBRANCH   2   3
ENDBRANCH   1   2
BRANCH   1  27
ATOM     27  C   UNL A   1      31.846  30.360  26.212  1.00  0.00     0.002 C 
BRANCH  27  28
ATOM     28  C   UNL A   1      31.629  31.781  26.733  1.00  0.00     0.021 C 
BRANCH  28  29
ATOM     29  C   UNL A   1      32.883  32.391  27.343  1.00  0.00     0.116 C 
BRANCH  29  30
ATOM     30  N   UNL A   1      32.710  33.815  27.531  1.00  0.00    -0.352 N 
ATOM     31  C   UNL A   1      33.201  34.570  28.565  1.00  0.00     0.251 C 
ATOM     32  H   UNL A   1      32.187  34.292  26.846  1.00  0.00     0.163 HD
ATOM     33  O   UNL A   1      32.718  35.656  28.836  1.00  0.00    -0.269 OA
BRANCH  31  34
ATOM     34  C   UNL A   1      34.321  34.001  29.340  1.00  0.00     0.039 A 
ATOM     35  C   UNL A   1      34.047  33.112  30.375  1.00  0.00     0.014 A 
ATOM     36  C   UNL A   1      35.640  34.309  28.979  1.00  0.00     0.014 A 
ATOM     37  C   UNL A   1      35.110  32.515  31.049  1.00  0.00     0.010 A 
ATOM     38  C   UNL A   1      36.690  33.640  29.589  1.00  0.00     0.010 A 
ATOM     39  C   UNL A   1      36.436  32.761  30.651  1.00  0.00    -0.014 A 
BRANCH  39  40
ATOM     40  C   UNL A   1      37.573  32.147  31.377  1.00  0.00     0.031 A 
ATOM     41  C   UNL A   1      38.330  31.012  30.742  1.00  0.00     0.074 A 
ATOM     42  C   UNL A   1      37.899  32.593  32.606  1.00  0.00     0.049 A 
ATOM     43  N   UNL A   1      39.334  30.322  31.216  1.00  0.00    -0.248 NA
ATOM     44  C   UNL A   1      37.879  30.578  29.410  1.00  0.00     0.031 C 
ATOM     45  C   UNL A   1      37.207  33.662  33.327  1.00  0.00     0.029 A 
ATOM     46  N   UNL A   1      38.898  32.208  33.461  1.00  0.00    -0.354 N 
ATOM     47  C   UNL A   1      39.628  29.369  30.245  1.00  0.00     0.074 A 
ATOM     48  C   UNL A   1      38.648  29.523  29.194  1.00  0.00     0.031 C 
ATOM     49  C   UNL A   1      37.826  33.872  34.500  1.00  0.00     0.029 A 
ATOM     50  C   UNL A   1      38.925  32.922  34.637  1.00  0.00     0.049 A 
ATOM     51  H   UNL A   1      39.537  31.487  33.255  1.00  0.00     0.167 HD
ATOM     52  C   UNL A   1      40.642  28.471  30.223  1.00  0.00     0.034 A 
ATOM     53  C   UNL A   1      39.737  32.812  35.706  1.00  0.00     0.034 A 
ATOM     54  C   UNL A   1      41.612  28.343  31.281  1.00  0.00     0.049 A 
ATOM     55  C   UNL A   1      40.835  31.778  35.673  1.00  0.00     0.074 A 
ATOM     56  C   UNL A   1      42.709  27.503  31.346  1.00  0.00     0.029 A 
ATOM     57  N   UNL A   1      41.599  29.071  32.464  1.00  0.00    -0.354 N 
ATOM     58  N   UNL A   1      41.134  30.920  34.725  1.00  0.00    -0.248 NA
ATOM     59  C   UNL A   1      41.713  31.709  36.847  1.00  0.00     0.031 C 
ATOM     60  C   UNL A   1      43.308  27.662  32.599  1.00  0.00     0.029 A 
ATOM     61  C   UNL A   1      42.645  28.670  33.281  1.00  0.00     0.049 A 
ATOM     62  H   UNL A   1      40.942  29.769  32.690  1.00  0.00     0.167 HD
ATOM     63  C   UNL A   1      42.256  30.230  35.177  1.00  0.00     0.074 A 
ATOM     64  C   UNL A   1      42.588  30.788  36.472  1.00  0.00     0.031 C 
ATOM     65  C   UNL A   1      42.954  29.231  34.576  1.00  0.00     0.034 A 
BRANCH  52  66
ATOM     66  C   UNL A   1      40.726  27.546  29.031  1.00  0.00     0.023 A 
ATOM     67  C   UNL A   1      41.673  27.738  28.008  1.00  0.00     0.031 A 
ATOM     68  C   UNL A   1      39.830  26.471  28.899  1.00  0.00     0.131 A 
ATOM     69  C   UNL A   1      41.651  26.922  26.868  1.00  0.00     0.055 A 
ATOM     70  C   UNL A   1      39.871  25.606  27.803  1.00  0.00     0.041 A 
ATOM     71  F   UNL A   1      38.886  26.250  29.828  1.00  0.00    -0.206 F 
ATOM     72  C   UNL A   1      40.775  25.838  26.772  1.00  0.00     0.022 A 
BRANCH  69  73
ATOM     73  S   UNL A   1      42.678  27.388  25.448  1.00  0.00     0.124 S 
ATOM     74  O   UNL A   1      41.947  28.537  24.921  1.00  0.00    -0.237 OA
ATOM     75  O   UNL A   1      43.964  27.680  26.071  1.00  0.00    -0.237 OA
ATOM     76  O   UNL A   1      42.651  26.198  24.600  1.00  0.00    -0.744 OA
ENDBRANCH  69  73
ENDBRANCH  52  66
BRANCH  53  77
ATOM     77  C   UNL A   1      39.545  33.690  36.897  1.00  0.00     0.023 A 
ATOM     78  C   UNL A   1      38.934  33.205  38.064  1.00  0.00     0.031 A 
ATOM     79  C   UNL A   1      39.928  35.043  36.869  1.00  0.00     0.131 A 
ATOM     80  C   UNL A   1      38.675  34.078  39.134  1.00  0.00     0.055 A 
ATOM     81  C   UNL A   1      39.724  35.891  37.958  1.00  0.00     0.041 A 
ATOM     82  F   UNL A   1      40.518  35.559  35.779  1.00  0.00    -0.206 F 
ATOM     83  C   UNL A   1      39.080  35.413  39.094  1.00  0.00     0.022 A 
BRANCH  80  84
ATOM     84  S   UNL A   1      37.707  33.464  40.539  1.00  0.00     0.124 S 
ATOM     85  O   UNL A   1      37.527  34.678  41.327  1.00  0.00    -0.237 OA
ATOM     86  O   UNL A   1      36.514  32.942  39.880  1.00  0.00    -0.237 OA
ATOM     87  O   UNL A   1      38.579  32.454  41.137  1.00  0.00    -0.744 OA
ENDBRANCH  80  84
ENDBRANCH  53  77
BRANCH  65  88
ATOM     88  C   UNL A   1      44.174  28.715  35.300  1.00  0.00     0.023 A 
ATOM     89  C   UNL A   1      44.097  27.664  36.230  1.00  0.00     0.031 A 
ATOM     90  C   UNL A   1      45.434  29.292  35.058  1.00  0.00     0.131 A 
ATOM     91  C   UNL A   1      45.245  27.266  36.931  1.00  0.00     0.055 A 
ATOM     92  C   UNL A   1      46.585  28.842  35.704  1.00  0.00     0.041 A 
ATOM     93  F   UNL A   1      45.567  30.301  34.182  1.00  0.00    -0.206 F 
ATOM     94  C   UNL A   1      46.492  27.833  36.658  1.00  0.00     0.022 A 
BRANCH  91  95
ATOM     95  S   UNL A   1      45.067  26.070  38.282  1.00  0.00     0.124 S 
ATOM     96  O   UNL A   1      46.457  25.762  38.599  1.00  0.00    -0.237 OA
ATOM     97  O   UNL A   1      44.339  26.838  39.287  1.00  0.00    -0.237 OA
ATOM     98  O   UNL A   1      44.313  24.975  37.673  1.00  0.00    -0.744 OA
ENDBRANCH  91  95
ENDBRANCH  65  88
ENDBRANCH  39  40
ENDBRANCH  31  34
ENDBRANCH  29  30
ENDBRANCH  28  29
ENDBRANCH  27  28
ENDBRANCH   1  27
TORSDOF 22
ENDMDL
