MODEL 1
REMARK VINA RESULT:     -11.7      0.000      0.000
REMARK SMILES O=C(NCCCCCCNC(=O)c1cc(OC[C@@H]2Cc3cc(F)ccc3O2)cs1)c1ccc(-c2c3nc(c(-c4cc(S(=O)(=O)[O-])ccc4F)c4ccc([nH]4)c(-c4cc(S(=O)(=O)[O-])ccc4F)c4nc(c(-c5cc(S(=O)(=O)[O-])ccc5F)c5ccc2[nH]5)C=C4)C=C3)cc1
REMARK SMILES IDX 6 1 5 2 4 3 3 4 1 5 2 6 30 8 31 9 92 10 32 11 91 12 33 13
REMARK SMILES IDX 34 14 35 15 85 16 36 17 90 18 84 19 86 20 37 21 89 22 83 23
REMARK SMILES IDX 82 24 38 26 70 27 50 28 69 29 51 30 54 31 68 32 87 33 52 34
REMARK SMILES IDX 53 35 67 37 88 38 55 39 39 40 40 41 48 42 41 43 47 44 49 45
REMARK SMILES IDX 46 46 42 47 43 48 44 49 45 50 71 51 72 52 80 53 73 54 79 55
REMARK SMILES IDX 81 56 78 57 74 58 75 59 76 60 77 61 56 62 57 63 65 64 58 65
REMARK SMILES IDX 64 66 66 67 63 68 59 69 60 70 61 71 62 72 7 73 8 74 9 75
REMARK SMILES IDX 10 76 11 77 12 79 13 80 14 81 29 82 15 83 28 84 16 85 17 86
REMARK SMILES IDX 18 87 19 88 27 89 20 90 26 91 21 92 25 93 22 94 24 95 23 96
REMARK H PARENT 3 7 86 25 54 36 10 78
REMARK Flexibility Score: inf
ROOT
ATOM      1  C   UNL A   1      35.291  23.047  23.554  1.00  0.00     0.002 C 
ENDROOT
BRANCH   1   2
ATOM      2  C   UNL A   1      36.193  23.915  24.433  1.00  0.00     0.021 C 
BRANCH   2   3
ATOM      3  C   UNL A   1      36.291  23.466  25.885  1.00  0.00     0.116 C 
BRANCH   3   4
ATOM      4  N   UNL A   1      37.331  22.469  26.083  1.00  0.00    -0.352 N 
ATOM      5  O   UNL A   1      39.422  21.690  26.356  1.00  0.00    -0.269 OA
ATOM      6  C   UNL A   1      38.648  22.641  26.427  1.00  0.00     0.251 C 
ATOM      7  H   UNL A   1      37.049  21.536  25.953  1.00  0.00     0.163 HD
BRANCH   6   8
ATOM      8  C   UNL A   1      39.137  23.966  26.872  1.00  0.00     0.039 A 
ATOM      9  C   UNL A   1      38.959  24.339  28.206  1.00  0.00     0.014 A 
ATOM     10  C   UNL A   1      39.734  24.854  25.974  1.00  0.00     0.014 A 
ATOM     11  C   UNL A   1      39.399  25.592  28.639  1.00  0.00     0.010 A 
ATOM     12  C   UNL A   1      40.263  26.057  26.429  1.00  0.00     0.010 A 
ATOM     13  C   UNL A   1      40.066  26.458  27.757  1.00  0.00    -0.014 A 
BRANCH  13  14
ATOM     14  C   UNL A   1      40.504  27.810  28.190  1.00  0.00     0.031 A 
ATOM     15  C   UNL A   1      41.954  28.203  28.083  1.00  0.00     0.074 A 
ATOM     16  C   UNL A   1      39.608  28.677  28.700  1.00  0.00     0.049 A 
ATOM     17  N   UNL A   1      42.531  29.327  28.421  1.00  0.00    -0.248 NA
ATOM     18  C   UNL A   1      42.884  27.190  27.555  1.00  0.00     0.031 C 
ATOM     19  C   UNL A   1      38.188  28.390  28.903  1.00  0.00     0.029 A 
ATOM     20  N   UNL A   1      39.755  29.970  29.138  1.00  0.00    -0.354 N 
ATOM     21  C   UNL A   1      43.883  29.155  28.145  1.00  0.00     0.074 A 
ATOM     22  C   UNL A   1      44.053  27.789  27.707  1.00  0.00     0.031 C 
ATOM     23  C   UNL A   1      37.587  29.486  29.388  1.00  0.00     0.029 A 
ATOM     24  C   UNL A   1      38.583  30.540  29.577  1.00  0.00     0.049 A 
ATOM     25  H   UNL A   1      40.618  30.444  29.138  1.00  0.00     0.167 HD
ATOM     26  C   UNL A   1      44.884  30.065  28.200  1.00  0.00     0.034 A 
ATOM     27  C   UNL A   1      38.334  31.770  30.073  1.00  0.00     0.034 A 
ATOM     28  C   UNL A   1      44.697  31.428  28.625  1.00  0.00     0.049 A 
ATOM     29  C   UNL A   1      39.461  32.770  30.139  1.00  0.00     0.074 A 
ATOM     30  C   UNL A   1      45.639  32.439  28.692  1.00  0.00     0.029 A 
ATOM     31  N   UNL A   1      43.493  31.976  29.047  1.00  0.00    -0.354 N 
ATOM     32  N   UNL A   1      40.720  32.617  29.800  1.00  0.00    -0.248 NA
ATOM     33  C   UNL A   1      39.135  34.115  30.633  1.00  0.00     0.031 C 
ATOM     34  C   UNL A   1      45.020  33.576  29.216  1.00  0.00     0.029 A 
ATOM     35  C   UNL A   1      43.673  33.304  29.397  1.00  0.00     0.049 A 
ATOM     36  H   UNL A   1      42.636  31.491  29.092  1.00  0.00     0.167 HD
ATOM     37  C   UNL A   1      41.333  33.847  30.022  1.00  0.00     0.074 A 
ATOM     38  C   UNL A   1      40.295  34.743  30.491  1.00  0.00     0.031 C 
ATOM     39  C   UNL A   1      42.635  34.197  29.862  1.00  0.00     0.034 A 
BRANCH  26  40
ATOM     40  C   UNL A   1      46.264  29.639  27.754  1.00  0.00     0.023 A 
ATOM     41  C   UNL A   1      46.469  29.129  26.459  1.00  0.00     0.031 A 
ATOM     42  C   UNL A   1      47.355  29.640  28.645  1.00  0.00     0.131 A 
ATOM     43  C   UNL A   1      47.721  28.613  26.103  1.00  0.00     0.055 A 
ATOM     44  C   UNL A   1      48.616  29.180  28.266  1.00  0.00     0.041 A 
ATOM     45  F   UNL A   1      47.216  30.112  29.895  1.00  0.00    -0.206 F 
ATOM     46  C   UNL A   1      48.800  28.649  26.994  1.00  0.00     0.022 A 
BRANCH  43  47
ATOM     47  S   UNL A   1      47.986  27.808  24.500  1.00  0.00     0.124 S 
ATOM     48  O   UNL A   1      47.099  28.575  23.629  1.00  0.00    -0.237 OA
ATOM     49  O   UNL A   1      49.414  28.026  24.283  1.00  0.00    -0.237 OA
ATOM     50  O   UNL A   1      47.587  26.425  24.732  1.00  0.00    -0.744 OA
ENDBRANCH  43  47
ENDBRANCH  26  40
BRANCH  27  51
ATOM     51  C   UNL A   1      36.936  32.114  30.465  1.00  0.00     0.023 A 
ATOM     52  C   UNL A   1      36.063  32.723  29.544  1.00  0.00     0.031 A 
ATOM     53  C   UNL A   1      36.500  31.976  31.793  1.00  0.00     0.131 A 
ATOM     54  C   UNL A   1      34.843  33.253  29.984  1.00  0.00     0.055 A 
ATOM     55  C   UNL A   1      35.249  32.432  32.210  1.00  0.00     0.041 A 
ATOM     56  F   UNL A   1      37.301  31.414  32.713  1.00  0.00    -0.206 F 
ATOM     57  C   UNL A   1      34.422  33.096  31.308  1.00  0.00     0.022 A 
BRANCH  54  58
ATOM     58  S   UNL A   1      33.843  34.303  28.894  1.00  0.00     0.124 S 
ATOM     59  O   UNL A   1      32.867  34.867  29.820  1.00  0.00    -0.237 OA
ATOM     60  O   UNL A   1      34.843  35.238  28.383  1.00  0.00    -0.237 OA
ATOM     61  O   UNL A   1      33.309  33.369  27.908  1.00  0.00    -0.744 OA
ENDBRANCH  54  58
ENDBRANCH  27  51
BRANCH  39  62
ATOM     62  C   UNL A   1      43.052  35.614  30.196  1.00  0.00     0.023 A 
ATOM     63  C   UNL A   1      43.050  36.605  29.195  1.00  0.00     0.031 A 
ATOM     64  C   UNL A   1      43.590  35.943  31.452  1.00  0.00     0.131 A 
ATOM     65  C   UNL A   1      43.615  37.860  29.454  1.00  0.00     0.055 A 
ATOM     66  C   UNL A   1      44.097  37.215  31.723  1.00  0.00     0.041 A 
ATOM     67  F   UNL A   1      43.633  35.031  32.437  1.00  0.00    -0.206 F 
ATOM     68  C   UNL A   1      44.127  38.175  30.716  1.00  0.00     0.022 A 
BRANCH  65  69
ATOM     69  S   UNL A   1      43.805  39.094  28.135  1.00  0.00     0.124 S 
ATOM     70  O   UNL A   1      43.623  38.282  26.935  1.00  0.00    -0.237 OA
ATOM     71  O   UNL A   1      42.719  40.025  28.429  1.00  0.00    -0.237 OA
ATOM     72  O   UNL A   1      45.153  39.618  28.335  1.00  0.00    -0.744 OA
ENDBRANCH  65  69
ENDBRANCH  39  62
ENDBRANCH  13  14
ENDBRANCH   6   8
ENDBRANCH   3   4
ENDBRANCH   2   3
ENDBRANCH   1   2
BRANCH   1  73
ATOM     73  C   UNL A   1      33.991  23.714  23.096  1.00  0.00     0.002 C 
BRANCH  73  74
ATOM     74  C   UNL A   1      33.208  22.944  22.029  1.00  0.00     0.021 C 
BRANCH  74  75
ATOM     75  C   UNL A   1      31.939  22.269  22.540  1.00  0.00     0.116 C 
BRANCH  75  76
ATOM     76  N   UNL A   1      32.160  20.880  22.899  1.00  0.00    -0.351 N 
ATOM     77  C   UNL A   1      32.478  20.346  24.127  1.00  0.00     0.261 C 
ATOM     78  H   UNL A   1      32.071  20.231  22.164  1.00  0.00     0.163 HD
ATOM     79  O   UNL A   1      32.816  19.160  24.168  1.00  0.00    -0.268 OA
BRANCH  77  80
ATOM     80  C   UNL A   1      32.404  21.205  25.290  1.00  0.00     0.096 A 
ATOM     81  C   UNL A   1      31.477  22.188  25.595  1.00  0.00     0.072 A 
ATOM     82  S   UNL A   1      33.589  21.053  26.516  1.00  0.00    -0.135 S 
ATOM     83  C   UNL A   1      31.855  22.929  26.745  1.00  0.00     0.131 A 
ATOM     84  C   UNL A   1      32.958  22.393  27.369  1.00  0.00     0.112 A 
BRANCH  83  85
ATOM     85  O   UNL A   1      31.308  24.060  27.253  1.00  0.00    -0.489 OA
BRANCH  85  86
ATOM     86  C   UNL A   1      30.705  24.954  26.313  1.00  0.00     0.275 C 
BRANCH  86  87
ATOM     87  C   UNL A   1      31.613  26.057  25.724  1.00  0.00     0.215 C 
ATOM     88  C   UNL A   1      33.008  26.191  26.353  1.00  0.00     0.088 C 
ATOM     89  O   UNL A   1      30.925  27.341  25.818  1.00  0.00    -0.486 OA
ATOM     90  C   UNL A   1      33.126  27.657  26.427  1.00  0.00     0.001 A 
ATOM     91  C   UNL A   1      31.903  28.241  26.148  1.00  0.00     0.123 A 
ATOM     92  C   UNL A   1      34.220  28.417  26.802  1.00  0.00     0.047 A 
ATOM     93  C   UNL A   1      31.717  29.607  26.239  1.00  0.00     0.050 A 
ATOM     94  C   UNL A   1      34.046  29.793  26.897  1.00  0.00     0.123 A 
ATOM     95  C   UNL A   1      32.810  30.391  26.623  1.00  0.00     0.043 A 
ATOM     96  F   UNL A   1      35.079  30.553  27.279  1.00  0.00    -0.207 F 
ENDBRANCH  86  87
ENDBRANCH  85  86
ENDBRANCH  83  85
ENDBRANCH  77  80
ENDBRANCH  75  76
ENDBRANCH  74  75
ENDBRANCH  73  74
ENDBRANCH   1  73
TORSDOF 19
ENDMDL
MODEL 2
REMARK VINA RESULT:     -11.4      2.077      2.295
REMARK SMILES O=C(NCCCCCCNC(=O)c1cc(OC[C@@H]2Cc3cc(F)ccc3O2)cs1)c1ccc(-c2c3nc(c(-c4cc(S(=O)(=O)[O-])ccc4F)c4ccc([nH]4)c(-c4cc(S(=O)(=O)[O-])ccc4F)c4nc(c(-c5cc(S(=O)(=O)[O-])ccc5F)c5ccc2[nH]5)C=C4)C=C3)cc1
REMARK SMILES IDX 6 1 5 2 4 3 3 4 1 5 2 6 30 8 31 9 92 10 32 11 91 12 33 13
REMARK SMILES IDX 34 14 35 15 85 16 36 17 90 18 84 19 86 20 37 21 89 22 83 23
REMARK SMILES IDX 82 24 38 26 70 27 50 28 69 29 51 30 54 31 68 32 87 33 52 34
REMARK SMILES IDX 53 35 67 37 88 38 55 39 39 40 40 41 48 42 41 43 47 44 49 45
REMARK SMILES IDX 46 46 42 47 43 48 44 49 45 50 71 51 72 52 80 53 73 54 79 55
REMARK SMILES IDX 81 56 78 57 74 58 75 59 76 60 77 61 56 62 57 63 65 64 58 65
REMARK SMILES IDX 64 66 66 67 63 68 59 69 60 70 61 71 62 72 7 73 8 74 9 75
REMARK SMILES IDX 10 76 11 77 12 79 13 80 14 81 29 82 15 83 28 84 16 85 17 86
REMARK SMILES IDX 18 87 19 88 27 89 20 90 26 91 21 92 25 93 22 94 24 95 23 96
REMARK H PARENT 3 7 86 25 54 36 10 78
REMARK Flexibility Score: inf
ROOT
ATOM      1  C   UNL A   1      35.820  23.043  23.605  1.00  0.00     0.002 C 
ENDROOT
BRANCH   1   2
ATOM      2  C   UNL A   1      36.632  23.845  24.623  1.00  0.00     0.021 C 
BRANCH   2   3
ATOM      3  C   UNL A   1      36.779  23.182  25.986  1.00  0.00     0.116 C 
BRANCH   3   4
ATOM      4  N   UNL A   1      37.876  22.229  26.019  1.00  0.00    -0.352 N 
ATOM      5  O   UNL A   1      40.017  21.542  26.053  1.00  0.00    -0.269 OA
ATOM      6  C   UNL A   1      39.210  22.445  26.261  1.00  0.00     0.251 C 
ATOM      7  H   UNL A   1      37.626  21.294  25.843  1.00  0.00     0.163 HD
BRANCH   6   8
ATOM      8  C   UNL A   1      39.675  23.758  26.761  1.00  0.00     0.039 A 
ATOM      9  C   UNL A   1      39.815  23.945  28.138  1.00  0.00     0.014 A 
ATOM     10  C   UNL A   1      39.938  24.813  25.883  1.00  0.00     0.014 A 
ATOM     11  C   UNL A   1      40.236  25.184  28.628  1.00  0.00     0.010 A 
ATOM     12  C   UNL A   1      40.456  26.009  26.366  1.00  0.00     0.010 A 
ATOM     13  C   UNL A   1      40.573  26.224  27.746  1.00  0.00    -0.014 A 
BRANCH  13  14
ATOM     14  C   UNL A   1      40.984  27.559  28.251  1.00  0.00     0.031 A 
ATOM     15  C   UNL A   1      42.442  27.930  28.301  1.00  0.00     0.074 A 
ATOM     16  C   UNL A   1      40.053  28.430  28.686  1.00  0.00     0.049 A 
ATOM     17  N   UNL A   1      42.999  29.036  28.721  1.00  0.00    -0.248 NA
ATOM     18  C   UNL A   1      43.406  26.912  27.849  1.00  0.00     0.031 C 
ATOM     19  C   UNL A   1      38.616  28.164  28.737  1.00  0.00     0.029 A 
ATOM     20  N   UNL A   1      40.174  29.711  29.166  1.00  0.00    -0.354 N 
ATOM     21  C   UNL A   1      44.369  28.847  28.580  1.00  0.00     0.074 A 
ATOM     22  C   UNL A   1      44.563  27.488  28.132  1.00  0.00     0.031 C 
ATOM     23  C   UNL A   1      37.985  29.259  29.183  1.00  0.00     0.029 A 
ATOM     24  C   UNL A   1      38.972  30.292  29.495  1.00  0.00     0.049 A 
ATOM     25  H   UNL A   1      41.039  30.170  29.264  1.00  0.00     0.167 HD
ATOM     26  C   UNL A   1      45.372  29.739  28.758  1.00  0.00     0.034 A 
ATOM     27  C   UNL A   1      38.691  31.516  29.991  1.00  0.00     0.034 A 
ATOM     28  C   UNL A   1      45.163  31.096  29.191  1.00  0.00     0.049 A 
ATOM     29  C   UNL A   1      39.819  32.495  30.193  1.00  0.00     0.074 A 
ATOM     30  C   UNL A   1      46.107  32.090  29.377  1.00  0.00     0.029 A 
ATOM     31  N   UNL A   1      43.930  31.655  29.501  1.00  0.00    -0.354 N 
ATOM     32  N   UNL A   1      41.105  32.328  29.981  1.00  0.00    -0.248 NA
ATOM     33  C   UNL A   1      39.465  33.835  30.681  1.00  0.00     0.031 C 
ATOM     34  C   UNL A   1      45.456  33.225  29.860  1.00  0.00     0.029 A 
ATOM     35  C   UNL A   1      44.093  32.973  29.897  1.00  0.00     0.049 A 
ATOM     36  H   UNL A   1      43.066  31.185  29.447  1.00  0.00     0.167 HD
ATOM     37  C   UNL A   1      41.709  33.543  30.292  1.00  0.00     0.074 A 
ATOM     38  C   UNL A   1      40.642  34.446  30.671  1.00  0.00     0.031 C 
ATOM     39  C   UNL A   1      43.026  33.874  30.273  1.00  0.00     0.034 A 
BRANCH  26  40
ATOM     40  C   UNL A   1      46.785  29.299  28.446  1.00  0.00     0.023 A 
ATOM     41  C   UNL A   1      47.570  28.673  29.431  1.00  0.00     0.031 A 
ATOM     42  C   UNL A   1      47.387  29.593  27.207  1.00  0.00     0.131 A 
ATOM     43  C   UNL A   1      48.918  28.392  29.172  1.00  0.00     0.055 A 
ATOM     44  C   UNL A   1      48.713  29.259  26.935  1.00  0.00     0.041 A 
ATOM     45  F   UNL A   1      46.685  30.194  26.232  1.00  0.00    -0.206 F 
ATOM     46  C   UNL A   1      49.490  28.668  27.926  1.00  0.00     0.022 A 
BRANCH  43  47
ATOM     47  S   UNL A   1      50.004  27.727  30.463  1.00  0.00     0.124 S 
ATOM     48  O   UNL A   1      49.153  26.713  31.079  1.00  0.00    -0.237 OA
ATOM     49  O   UNL A   1      51.124  27.211  29.681  1.00  0.00    -0.237 OA
ATOM     50  O   UNL A   1      50.300  28.883  31.302  1.00  0.00    -0.744 OA
ENDBRANCH  43  47
ENDBRANCH  26  40
BRANCH  27  51
ATOM     51  C   UNL A   1      37.265  31.875  30.245  1.00  0.00     0.023 A 
ATOM     52  C   UNL A   1      36.491  32.488  29.242  1.00  0.00     0.031 A 
ATOM     53  C   UNL A   1      36.703  31.748  31.526  1.00  0.00     0.131 A 
ATOM     54  C   UNL A   1      35.240  33.032  29.561  1.00  0.00     0.055 A 
ATOM     55  C   UNL A   1      35.422  32.218  31.819  1.00  0.00     0.041 A 
ATOM     56  F   UNL A   1      37.407  31.183  32.520  1.00  0.00    -0.206 F 
ATOM     57  C   UNL A   1      34.692  32.885  30.839  1.00  0.00     0.022 A 
BRANCH  54  58
ATOM     58  S   UNL A   1      34.359  34.086  28.375  1.00  0.00     0.124 S 
ATOM     59  O   UNL A   1      34.072  35.274  29.174  1.00  0.00    -0.237 OA
ATOM     60  O   UNL A   1      35.363  34.256  27.328  1.00  0.00    -0.237 OA
ATOM     61  O   UNL A   1      33.198  33.286  27.997  1.00  0.00    -0.744 OA
ENDBRANCH  54  58
ENDBRANCH  27  51
BRANCH  39  62
ATOM     62  C   UNL A   1      43.427  35.276  30.679  1.00  0.00     0.023 A 
ATOM     63  C   UNL A   1      43.384  35.657  32.035  1.00  0.00     0.031 A 
ATOM     64  C   UNL A   1      43.700  36.268  29.723  1.00  0.00     0.131 A 
ATOM     65  C   UNL A   1      43.566  36.999  32.390  1.00  0.00     0.055 A 
ATOM     66  C   UNL A   1      43.941  37.594  30.087  1.00  0.00     0.041 A 
ATOM     67  F   UNL A   1      43.735  35.964  28.415  1.00  0.00    -0.206 F 
ATOM     68  C   UNL A   1      43.857  37.967  31.425  1.00  0.00     0.022 A 
BRANCH  65  69
ATOM     69  S   UNL A   1      43.328  37.559  34.100  1.00  0.00     0.124 S 
ATOM     70  O   UNL A   1      42.855  38.927  33.906  1.00  0.00    -0.237 OA
ATOM     71  O   UNL A   1      42.327  36.617  34.594  1.00  0.00    -0.237 OA
ATOM     72  O   UNL A   1      44.654  37.438  34.699  1.00  0.00    -0.744 OA
ENDBRANCH  65  69
ENDBRANCH  39  62
ENDBRANCH  13  14
ENDBRANCH   6   8
ENDBRANCH   3   4
ENDBRANCH   2   3
ENDBRANCH   1   2
BRANCH   1  73
ATOM     73  C   UNL A   1      34.330  23.393  23.540  1.00  0.00     0.002 C 
BRANCH  73  74
ATOM     74  C   UNL A   1      33.592  22.862  22.308  1.00  0.00     0.021 C 
BRANCH  74  75
ATOM     75  C   UNL A   1      32.204  22.298  22.596  1.00  0.00     0.116 C 
BRANCH  75  76
ATOM     76  N   UNL A   1      32.248  20.899  22.983  1.00  0.00    -0.351 N 
ATOM     77  C   UNL A   1      32.429  20.355  24.235  1.00  0.00     0.261 C 
ATOM     78  H   UNL A   1      32.133  20.251  22.251  1.00  0.00     0.163 HD
ATOM     79  O   UNL A   1      32.630  19.141  24.310  1.00  0.00    -0.268 OA
BRANCH  77  80
ATOM     80  C   UNL A   1      32.380  21.238  25.381  1.00  0.00     0.096 A 
ATOM     81  C   UNL A   1      31.438  22.200  25.706  1.00  0.00     0.072 A 
ATOM     82  S   UNL A   1      33.621  21.149  26.557  1.00  0.00    -0.135 S 
ATOM     83  C   UNL A   1      31.843  22.979  26.822  1.00  0.00     0.131 A 
ATOM     84  C   UNL A   1      32.987  22.488  27.408  1.00  0.00     0.112 A 
BRANCH  83  85
ATOM     85  O   UNL A   1      31.285  24.104  27.329  1.00  0.00    -0.489 OA
BRANCH  85  86
ATOM     86  C   UNL A   1      30.565  24.929  26.408  1.00  0.00     0.275 C 
BRANCH  86  87
ATOM     87  C   UNL A   1      31.316  26.153  25.840  1.00  0.00     0.215 C 
ATOM     88  C   UNL A   1      32.849  26.103  25.922  1.00  0.00     0.088 C 
ATOM     89  O   UNL A   1      30.844  27.358  26.515  1.00  0.00    -0.486 OA
ATOM     90  C   UNL A   1      33.138  27.488  26.332  1.00  0.00     0.001 A 
ATOM     91  C   UNL A   1      31.963  28.127  26.686  1.00  0.00     0.123 A 
ATOM     92  C   UNL A   1      34.367  28.111  26.463  1.00  0.00     0.047 A 
ATOM     93  C   UNL A   1      31.966  29.411  27.196  1.00  0.00     0.050 A 
ATOM     94  C   UNL A   1      34.382  29.403  26.975  1.00  0.00     0.123 A 
ATOM     95  C   UNL A   1      33.199  30.055  27.343  1.00  0.00     0.043 A 
ATOM     96  F   UNL A   1      35.557  30.024  27.135  1.00  0.00    -0.207 F 
ENDBRANCH  86  87
ENDBRANCH  85  86
ENDBRANCH  83  85
ENDBRANCH  77  80
ENDBRANCH  75  76
ENDBRANCH  74  75
ENDBRANCH  73  74
ENDBRANCH   1  73
TORSDOF 19
ENDMDL
MODEL 3
REMARK VINA RESULT:     -11.3      4.947      9.264
REMARK SMILES O=C(NCCCCCCNC(=O)c1cc(OC[C@@H]2Cc3cc(F)ccc3O2)cs1)c1ccc(-c2c3nc(c(-c4cc(S(=O)(=O)[O-])ccc4F)c4ccc([nH]4)c(-c4cc(S(=O)(=O)[O-])ccc4F)c4nc(c(-c5cc(S(=O)(=O)[O-])ccc5F)c5ccc2[nH]5)C=C4)C=C3)cc1
REMARK SMILES IDX 6 1 5 2 4 3 3 4 1 5 2 6 30 8 31 9 92 10 32 11 91 12 33 13
REMARK SMILES IDX 34 14 35 15 85 16 36 17 90 18 84 19 86 20 37 21 89 22 83 23
REMARK SMILES IDX 82 24 38 26 70 27 50 28 69 29 51 30 54 31 68 32 87 33 52 34
REMARK SMILES IDX 53 35 67 37 88 38 55 39 39 40 40 41 48 42 41 43 47 44 49 45
REMARK SMILES IDX 46 46 42 47 43 48 44 49 45 50 71 51 72 52 80 53 73 54 79 55
REMARK SMILES IDX 81 56 78 57 74 58 75 59 76 60 77 61 56 62 57 63 65 64 58 65
REMARK SMILES IDX 64 66 66 67 63 68 59 69 60 70 61 71 62 72 7 73 8 74 9 75
REMARK SMILES IDX 10 76 11 77 12 79 13 80 14 81 29 82 15 83 28 84 16 85 17 86
REMARK SMILES IDX 18 87 19 88 27 89 20 90 26 91 21 92 25 93 22 94 24 95 23 96
REMARK H PARENT 3 7 86 25 54 36 10 78
REMARK Flexibility Score: inf
ROOT
ATOM      1  C   UNL A   1      33.625  26.874  23.762  1.00  0.00     0.002 C 
ENDROOT
BRANCH   1   2
ATOM      2  C   UNL A   1      33.537  28.371  24.066  1.00  0.00     0.021 C 
BRANCH   2   3
ATOM      3  C   UNL A   1      33.934  28.757  25.485  1.00  0.00     0.116 C 
BRANCH   3   4
ATOM      4  N   UNL A   1      33.250  29.956  25.941  1.00  0.00    -0.352 N 
ATOM      5  O   UNL A   1      32.756  31.651  27.333  1.00  0.00    -0.269 OA
ATOM      6  C   UNL A   1      33.565  30.797  26.979  1.00  0.00     0.251 C 
ATOM      7  H   UNL A   1      32.445  30.200  25.431  1.00  0.00     0.163 HD
BRANCH   6   8
ATOM      8  C   UNL A   1      34.867  30.672  27.672  1.00  0.00     0.039 A 
ATOM      9  C   UNL A   1      35.717  31.779  27.719  1.00  0.00     0.014 A 
ATOM     10  C   UNL A   1      35.267  29.461  28.243  1.00  0.00     0.014 A 
ATOM     11  C   UNL A   1      36.956  31.673  28.354  1.00  0.00     0.010 A 
ATOM     12  C   UNL A   1      36.454  29.388  28.964  1.00  0.00     0.010 A 
ATOM     13  C   UNL A   1      37.331  30.480  28.994  1.00  0.00    -0.014 A 
BRANCH  13  14
ATOM     14  C   UNL A   1      38.662  30.338  29.639  1.00  0.00     0.031 A 
ATOM     15  C   UNL A   1      38.917  30.961  30.986  1.00  0.00     0.074 A 
ATOM     16  C   UNL A   1      39.648  29.671  29.009  1.00  0.00     0.049 A 
ATOM     17  N   UNL A   1      40.011  30.960  31.702  1.00  0.00    -0.248 NA
ATOM     18  C   UNL A   1      37.806  31.711  31.596  1.00  0.00     0.031 C 
ATOM     19  C   UNL A   1      39.537  29.071  27.680  1.00  0.00     0.029 A 
ATOM     20  N   UNL A   1      40.933  29.383  29.400  1.00  0.00    -0.354 N 
ATOM     21  C   UNL A   1      39.718  31.702  32.841  1.00  0.00     0.074 A 
ATOM     22  C   UNL A   1      38.380  32.219  32.674  1.00  0.00     0.031 C 
ATOM     23  C   UNL A   1      40.689  28.455  27.381  1.00  0.00     0.029 A 
ATOM     24  C   UNL A   1      41.640  28.652  28.475  1.00  0.00     0.049 A 
ATOM     25  H   UNL A   1      41.311  29.674  30.261  1.00  0.00     0.167 HD
ATOM     26  C   UNL A   1      40.474  31.893  33.948  1.00  0.00     0.034 A 
ATOM     27  C   UNL A   1      42.908  28.191  28.500  1.00  0.00     0.034 A 
ATOM     28  C   UNL A   1      41.802  31.358  34.107  1.00  0.00     0.049 A 
ATOM     29  C   UNL A   1      43.741  28.419  29.735  1.00  0.00     0.074 A 
ATOM     30  C   UNL A   1      42.643  31.469  35.200  1.00  0.00     0.029 A 
ATOM     31  N   UNL A   1      42.481  30.609  33.156  1.00  0.00    -0.354 N 
ATOM     32  N   UNL A   1      43.423  29.056  30.838  1.00  0.00    -0.248 NA
ATOM     33  C   UNL A   1      45.096  27.852  29.744  1.00  0.00     0.031 C 
ATOM     34  C   UNL A   1      43.851  30.845  34.884  1.00  0.00     0.029 A 
ATOM     35  C   UNL A   1      43.738  30.270  33.629  1.00  0.00     0.049 A 
ATOM     36  H   UNL A   1      42.121  30.355  32.274  1.00  0.00     0.167 HD
ATOM     37  C   UNL A   1      44.529  28.953  31.678  1.00  0.00     0.074 A 
ATOM     38  C   UNL A   1      45.510  28.159  30.967  1.00  0.00     0.031 C 
ATOM     39  C   UNL A   1      44.715  29.475  32.918  1.00  0.00     0.034 A 
BRANCH  26  40
ATOM     40  C   UNL A   1      39.877  32.675  35.096  1.00  0.00     0.023 A 
ATOM     41  C   UNL A   1      39.190  32.011  36.129  1.00  0.00     0.031 A 
ATOM     42  C   UNL A   1      39.897  34.083  35.112  1.00  0.00     0.131 A 
ATOM     43  C   UNL A   1      38.527  32.754  37.114  1.00  0.00     0.055 A 
ATOM     44  C   UNL A   1      39.285  34.817  36.128  1.00  0.00     0.041 A 
ATOM     45  F   UNL A   1      40.535  34.768  34.149  1.00  0.00    -0.206 F 
ATOM     46  C   UNL A   1      38.582  34.152  37.128  1.00  0.00     0.022 A 
BRANCH  43  47
ATOM     47  S   UNL A   1      37.505  31.945  38.374  1.00  0.00     0.124 S 
ATOM     48  O   UNL A   1      37.362  30.598  37.825  1.00  0.00    -0.237 OA
ATOM     49  O   UNL A   1      38.348  32.048  39.561  1.00  0.00    -0.237 OA
ATOM     50  O   UNL A   1      36.282  32.739  38.396  1.00  0.00    -0.744 OA
ENDBRANCH  43  47
ENDBRANCH  26  40
BRANCH  27  51
ATOM     51  C   UNL A   1      43.406  27.405  27.333  1.00  0.00     0.023 A 
ATOM     52  C   UNL A   1      43.180  26.018  27.253  1.00  0.00     0.031 A 
ATOM     53  C   UNL A   1      44.235  27.994  26.363  1.00  0.00     0.131 A 
ATOM     54  C   UNL A   1      43.848  25.256  26.286  1.00  0.00     0.055 A 
ATOM     55  C   UNL A   1      44.833  27.243  25.350  1.00  0.00     0.041 A 
ATOM     56  F   UNL A   1      44.493  29.311  26.404  1.00  0.00    -0.206 F 
ATOM     57  C   UNL A   1      44.660  25.862  25.322  1.00  0.00     0.022 A 
BRANCH  54  58
ATOM     58  S   UNL A   1      43.814  23.443  26.349  1.00  0.00     0.124 S 
ATOM     59  O   UNL A   1      45.202  23.099  26.060  1.00  0.00    -0.237 OA
ATOM     60  O   UNL A   1      43.376  23.203  27.722  1.00  0.00    -0.237 OA
ATOM     61  O   UNL A   1      42.847  23.079  25.318  1.00  0.00    -0.744 OA
ENDBRANCH  54  58
ENDBRANCH  27  51
BRANCH  39  62
ATOM     62  C   UNL A   1      46.034  29.227  33.618  1.00  0.00     0.023 A 
ATOM     63  C   UNL A   1      46.165  28.148  34.515  1.00  0.00     0.031 A 
ATOM     64  C   UNL A   1      47.101  30.136  33.517  1.00  0.00     0.131 A 
ATOM     65  C   UNL A   1      47.316  28.033  35.305  1.00  0.00     0.055 A 
ATOM     66  C   UNL A   1      48.271  29.982  34.263  1.00  0.00     0.041 A 
ATOM     67  F   UNL A   1      47.021  31.193  32.691  1.00  0.00    -0.206 F 
ATOM     68  C   UNL A   1      48.375  28.936  35.174  1.00  0.00     0.022 A 
BRANCH  65  69
ATOM     69  S   UNL A   1      47.439  26.771  36.605  1.00  0.00     0.124 S 
ATOM     70  O   UNL A   1      47.832  25.590  35.842  1.00  0.00    -0.237 OA
ATOM     71  O   UNL A   1      48.475  27.327  37.472  1.00  0.00    -0.237 OA
ATOM     72  O   UNL A   1      46.098  26.724  37.178  1.00  0.00    -0.744 OA
ENDBRANCH  65  69
ENDBRANCH  39  62
ENDBRANCH  13  14
ENDBRANCH   6   8
ENDBRANCH   3   4
ENDBRANCH   2   3
ENDBRANCH   1   2
BRANCH   1  73
ATOM     73  C   UNL A   1      33.363  26.489  22.303  1.00  0.00     0.002 C 
BRANCH  73  74
ATOM     74  C   UNL A   1      33.520  25.000  21.987  1.00  0.00     0.021 C 
BRANCH  74  75
ATOM     75  C   UNL A   1      34.183  24.184  23.092  1.00  0.00     0.116 C 
BRANCH  75  76
ATOM     76  N   UNL A   1      33.518  22.913  23.314  1.00  0.00    -0.351 N 
ATOM     77  C   UNL A   1      32.445  22.630  24.129  1.00  0.00     0.261 C 
ATOM     78  H   UNL A   1      33.886  22.148  22.815  1.00  0.00     0.163 HD
ATOM     79  O   UNL A   1      32.166  21.444  24.320  1.00  0.00    -0.268 OA
BRANCH  77  80
ATOM     80  C   UNL A   1      31.717  23.736  24.715  1.00  0.00     0.096 A 
ATOM     81  C   UNL A   1      30.706  24.507  24.167  1.00  0.00     0.072 A 
ATOM     82  S   UNL A   1      32.093  24.230  26.311  1.00  0.00    -0.135 S 
ATOM     83  C   UNL A   1      30.376  25.611  24.997  1.00  0.00     0.131 A 
ATOM     84  C   UNL A   1      31.022  25.557  26.210  1.00  0.00     0.112 A 
BRANCH  83  85
ATOM     85  O   UNL A   1      29.572  26.669  24.735  1.00  0.00    -0.489 OA
BRANCH  85  86
ATOM     86  C   UNL A   1      29.433  27.039  23.360  1.00  0.00     0.275 C 
BRANCH  86  87
ATOM     87  C   UNL A   1      29.950  28.439  22.963  1.00  0.00     0.215 C 
ATOM     88  C   UNL A   1      29.966  29.495  24.078  1.00  0.00     0.088 C 
ATOM     89  O   UNL A   1      29.156  28.941  21.846  1.00  0.00    -0.486 OA
ATOM     90  C   UNL A   1      29.469  30.669  23.340  1.00  0.00     0.001 A 
ATOM     91  C   UNL A   1      28.995  30.277  22.101  1.00  0.00     0.123 A 
ATOM     92  C   UNL A   1      29.366  31.979  23.772  1.00  0.00     0.047 A 
ATOM     93  C   UNL A   1      28.389  31.174  21.243  1.00  0.00     0.050 A 
ATOM     94  C   UNL A   1      28.758  32.892  22.917  1.00  0.00     0.123 A 
ATOM     95  C   UNL A   1      28.269  32.503  21.664  1.00  0.00     0.043 A 
ATOM     96  F   UNL A   1      28.622  34.163  23.315  1.00  0.00    -0.207 F 
ENDBRANCH  86  87
ENDBRANCH  85  86
ENDBRANCH  83  85
ENDBRANCH  77  80
ENDBRANCH  75  76
ENDBRANCH  74  75
ENDBRANCH  73  74
ENDBRANCH   1  73
TORSDOF 19
ENDMDL
