MODEL 1
REMARK VINA RESULT:     -12.3      0.000      0.000
REMARK SMILES O=C(NCCCCCCNC(=O)[C@H]1CCCCN1c1cc(-c2ccccc2)nc(-c2cccc(Cl)c2)n1)c1ccc(-c2c3nc(c(-c4cc(S(=O)(=O)[O-])ccc4F)c4ccc([nH]4)c(-c4cc(S(=O)(=O)[O-])ccc4F)c4nc(c(-c5cc(S(=O)(=O)[O-])ccc5F)c5ccc2[nH]5)C=C4)C=C3)cc1
REMARK SMILES IDX 6 1 5 2 4 3 3 4 1 5 2 6 38 8 39 9 100 10 40 11 99 12 41 13
REMARK SMILES IDX 42 14 43 15 93 16 44 17 98 18 92 19 94 20 45 21 97 22 91 23
REMARK SMILES IDX 90 24 46 26 78 27 58 28 77 29 59 30 62 31 76 32 95 33 60 34
REMARK SMILES IDX 61 35 75 37 96 38 63 39 47 40 48 41 56 42 49 43 55 44 57 45
REMARK SMILES IDX 54 46 50 47 51 48 52 49 53 50 79 51 80 52 88 53 81 54 87 55
REMARK SMILES IDX 89 56 86 57 82 58 83 59 84 60 85 61 64 62 65 63 73 64 66 65
REMARK SMILES IDX 72 66 74 67 71 68 67 69 68 70 69 71 70 72 7 73 8 74 9 75
REMARK SMILES IDX 10 76 11 77 12 79 13 80 14 81 18 82 15 83 17 84 16 85 19 86
REMARK SMILES IDX 20 87 37 88 21 89 29 90 28 91 22 92 23 93 27 94 24 95 26 96
REMARK SMILES IDX 25 97 30 98 31 99 36 100 32 101 34 102 33 103 35 104
REMARK H PARENT 3 7 94 25 62 36 10 78
REMARK Flexibility Score: inf
ROOT
ATOM      1  C   UNL A   1      31.727  28.669  26.105  1.00  0.00     0.002 C 
ENDROOT
BRANCH   1   2
ATOM      2  C   UNL A   1      32.537  29.270  27.253  1.00  0.00     0.021 C 
BRANCH   2   3
ATOM      3  C   UNL A   1      33.687  30.178  26.837  1.00  0.00     0.116 C 
BRANCH   3   4
ATOM      4  N   UNL A   1      33.394  31.591  27.013  1.00  0.00    -0.352 N 
ATOM      5  O   UNL A   1      33.567  33.637  27.950  1.00  0.00    -0.269 OA
ATOM      6  C   UNL A   1      34.017  32.499  27.835  1.00  0.00     0.251 C 
ATOM      7  H   UNL A   1      32.650  31.943  26.473  1.00  0.00     0.163 HD
BRANCH   6   8
ATOM      8  C   UNL A   1      35.215  32.091  28.601  1.00  0.00     0.039 A 
ATOM      9  C   UNL A   1      35.182  30.974  29.441  1.00  0.00     0.014 A 
ATOM     10  C   UNL A   1      36.387  32.845  28.483  1.00  0.00     0.014 A 
ATOM     11  C   UNL A   1      36.272  30.688  30.256  1.00  0.00     0.010 A 
ATOM     12  C   UNL A   1      37.509  32.509  29.247  1.00  0.00     0.010 A 
ATOM     13  C   UNL A   1      37.451  31.443  30.159  1.00  0.00    -0.014 A 
BRANCH  13  14
ATOM     14  C   UNL A   1      38.632  31.065  30.979  1.00  0.00     0.031 A 
ATOM     15  C   UNL A   1      39.691  30.147  30.437  1.00  0.00     0.074 A 
ATOM     16  C   UNL A   1      38.747  31.578  32.220  1.00  0.00     0.049 A 
ATOM     17  N   UNL A   1      40.779  29.707  31.020  1.00  0.00    -0.248 NA
ATOM     18  C   UNL A   1      39.502  29.650  29.067  1.00  0.00     0.031 C 
ATOM     19  C   UNL A   1      37.775  32.476  32.849  1.00  0.00     0.029 A 
ATOM     20  N   UNL A   1      39.724  31.430  33.169  1.00  0.00    -0.354 N 
ATOM     21  C   UNL A   1      41.397  28.871  30.096  1.00  0.00     0.074 A 
ATOM     22  C   UNL A   1      40.543  28.841  28.926  1.00  0.00     0.031 C 
ATOM     23  C   UNL A   1      38.224  32.828  34.063  1.00  0.00     0.029 A 
ATOM     24  C   UNL A   1      39.477  32.130  34.326  1.00  0.00     0.049 A 
ATOM     25  H   UNL A   1      40.527  30.875  33.035  1.00  0.00     0.167 HD
ATOM     26  C   UNL A   1      42.571  28.198  30.213  1.00  0.00     0.034 A 
ATOM     27  C   UNL A   1      40.166  32.186  35.481  1.00  0.00     0.034 A 
ATOM     28  C   UNL A   1      43.407  28.241  31.392  1.00  0.00     0.049 A 
ATOM     29  C   UNL A   1      41.441  31.398  35.601  1.00  0.00     0.074 A 
ATOM     30  C   UNL A   1      44.628  27.622  31.606  1.00  0.00     0.029 A 
ATOM     31  N   UNL A   1      43.105  28.929  32.560  1.00  0.00    -0.354 N 
ATOM     32  N   UNL A   1      42.020  30.625  34.712  1.00  0.00    -0.248 NA
ATOM     33  C   UNL A   1      42.156  31.494  36.879  1.00  0.00     0.031 C 
ATOM     34  C   UNL A   1      45.030  27.884  32.922  1.00  0.00     0.029 A 
ATOM     35  C   UNL A   1      44.099  28.726  33.507  1.00  0.00     0.049 A 
ATOM     36  H   UNL A   1      42.301  29.483  32.697  1.00  0.00     0.167 HD
ATOM     37  C   UNL A   1      43.178  30.153  35.320  1.00  0.00     0.074 A 
ATOM     38  C   UNL A   1      43.225  30.747  36.641  1.00  0.00     0.031 C 
ATOM     39  C   UNL A   1      44.119  29.307  34.830  1.00  0.00     0.034 A 
BRANCH  26  40
ATOM     40  C   UNL A   1      42.992  27.326  29.054  1.00  0.00     0.023 A 
ATOM     41  C   UNL A   1      42.824  25.930  29.076  1.00  0.00     0.031 A 
ATOM     42  C   UNL A   1      43.589  27.897  27.916  1.00  0.00     0.131 A 
ATOM     43  C   UNL A   1      43.308  25.148  28.014  1.00  0.00     0.055 A 
ATOM     44  C   UNL A   1      44.000  27.121  26.831  1.00  0.00     0.041 A 
ATOM     45  F   UNL A   1      43.794  29.222  27.844  1.00  0.00    -0.206 F 
ATOM     46  C   UNL A   1      43.874  25.736  26.882  1.00  0.00     0.022 A 
BRANCH  43  47
ATOM     47  S   UNL A   1      43.312  23.343  28.198  1.00  0.00     0.124 S 
ATOM     48  O   UNL A   1      44.536  23.125  28.965  1.00  0.00    -0.237 OA
ATOM     49  O   UNL A   1      42.062  23.095  28.908  1.00  0.00    -0.237 OA
ATOM     50  O   UNL A   1      43.355  22.857  26.820  1.00  0.00    -0.744 OA
ENDBRANCH  43  47
ENDBRANCH  26  40
BRANCH  27  51
ATOM     51  C   UNL A   1      39.645  32.989  36.622  1.00  0.00     0.023 A 
ATOM     52  C   UNL A   1      38.751  32.435  37.550  1.00  0.00     0.031 A 
ATOM     53  C   UNL A   1      40.025  34.333  36.790  1.00  0.00     0.131 A 
ATOM     54  C   UNL A   1      38.239  33.232  38.586  1.00  0.00     0.055 A 
ATOM     55  C   UNL A   1      39.553  35.106  37.850  1.00  0.00     0.041 A 
ATOM     56  F   UNL A   1      40.883  34.908  35.932  1.00  0.00    -0.206 F 
ATOM     57  C   UNL A   1      38.645  34.559  38.750  1.00  0.00     0.022 A 
BRANCH  54  58
ATOM     58  S   UNL A   1      36.975  32.527  39.680  1.00  0.00     0.124 S 
ATOM     59  O   UNL A   1      35.795  32.551  38.825  1.00  0.00    -0.237 OA
ATOM     60  O   UNL A   1      37.530  31.209  39.972  1.00  0.00    -0.237 OA
ATOM     61  O   UNL A   1      36.949  33.453  40.810  1.00  0.00    -0.744 OA
ENDBRANCH  54  58
ENDBRANCH  27  51
BRANCH  39  62
ATOM     62  C   UNL A   1      45.294  29.010  35.728  1.00  0.00     0.023 A 
ATOM     63  C   UNL A   1      45.203  28.076  36.776  1.00  0.00     0.031 A 
ATOM     64  C   UNL A   1      46.510  29.692  35.551  1.00  0.00     0.131 A 
ATOM     65  C   UNL A   1      46.290  27.893  37.644  1.00  0.00     0.055 A 
ATOM     66  C   UNL A   1      47.607  29.464  36.383  1.00  0.00     0.041 A 
ATOM     67  F   UNL A   1      46.649  30.596  34.568  1.00  0.00    -0.206 F 
ATOM     68  C   UNL A   1      47.497  28.571  37.444  1.00  0.00     0.022 A 
BRANCH  65  69
ATOM     69  S   UNL A   1      46.077  26.827  39.095  1.00  0.00     0.124 S 
ATOM     70  O   UNL A   1      46.962  27.460  40.069  1.00  0.00    -0.237 OA
ATOM     71  O   UNL A   1      44.647  26.946  39.363  1.00  0.00    -0.237 OA
ATOM     72  O   UNL A   1      46.510  25.514  38.624  1.00  0.00    -0.744 OA
ENDBRANCH  65  69
ENDBRANCH  39  62
ENDBRANCH  13  14
ENDBRANCH   6   8
ENDBRANCH   3   4
ENDBRANCH   2   3
ENDBRANCH   1   2
BRANCH   1  73
ATOM     73  C   UNL A   1      31.623  29.528  24.843  1.00  0.00     0.002 C 
BRANCH  73  74
ATOM     74  C   UNL A   1      32.263  28.948  23.573  1.00  0.00     0.021 C 
BRANCH  74  75
ATOM     75  C   UNL A   1      33.444  28.006  23.797  1.00  0.00     0.116 C 
BRANCH  75  76
ATOM     76  N   UNL A   1      33.608  27.077  22.701  1.00  0.00    -0.354 N 
ATOM     77  C   UNL A   1      33.515  25.719  22.675  1.00  0.00     0.242 C 
ATOM     78  H   UNL A   1      33.822  27.493  21.834  1.00  0.00     0.163 HD
ATOM     79  O   UNL A   1      33.756  25.187  21.585  1.00  0.00    -0.273 OA
BRANCH  77  80
ATOM     80  C   UNL A   1      33.155  24.911  23.961  1.00  0.00     0.173 C 
ATOM     81  C   UNL A   1      31.896  25.427  24.670  1.00  0.00     0.035 C 
ATOM     82  N   UNL A   1      32.932  23.494  23.615  1.00  0.00    -0.344 N 
ATOM     83  C   UNL A   1      30.635  25.171  23.846  1.00  0.00     0.004 C 
ATOM     84  C   UNL A   1      31.758  23.135  22.831  1.00  0.00     0.119 C 
ATOM     85  C   UNL A   1      30.501  23.690  23.502  1.00  0.00     0.022 C 
BRANCH  82  86
ATOM     86  C   UNL A   1      33.766  22.536  24.135  1.00  0.00     0.133 A 
ATOM     87  C   UNL A   1      33.369  21.215  24.190  1.00  0.00     0.076 A 
ATOM     88  N   UNL A   1      34.972  22.917  24.578  1.00  0.00    -0.211 NA
ATOM     89  C   UNL A   1      34.264  20.300  24.708  1.00  0.00     0.076 A 
ATOM     90  C   UNL A   1      35.770  21.967  25.096  1.00  0.00     0.162 A 
ATOM     91  N   UNL A   1      35.471  20.660  25.180  1.00  0.00    -0.228 NA
BRANCH  89  92
ATOM     92  C   UNL A   1      33.952  18.868  24.771  1.00  0.00     0.000 A 
ATOM     93  C   UNL A   1      34.860  17.912  24.288  1.00  0.00     0.010 A 
ATOM     94  C   UNL A   1      32.740  18.413  25.319  1.00  0.00     0.010 A 
ATOM     95  C   UNL A   1      34.576  16.546  24.365  1.00  0.00     0.001 A 
ATOM     96  C   UNL A   1      32.449  17.047  25.386  1.00  0.00     0.001 A 
ATOM     97  C   UNL A   1      33.370  16.115  24.914  1.00  0.00     0.000 A 
ENDBRANCH  89  92
BRANCH  90  98
ATOM     98  C   UNL A   1      37.064  22.400  25.628  1.00  0.00     0.021 A 
ATOM     99  C   UNL A   1      37.262  23.726  26.055  1.00  0.00     0.012 A 
ATOM    100  C   UNL A   1      38.143  21.506  25.719  1.00  0.00     0.032 A 
ATOM    101  C   UNL A   1      38.496  24.146  26.559  1.00  0.00     0.002 A 
ATOM    102  C   UNL A   1      39.379  21.933  26.205  1.00  0.00     0.041 A 
ATOM    103  C   UNL A   1      39.559  23.248  26.628  1.00  0.00     0.020 A 
ATOM    104  Cl  UNL A   1      40.696  20.828  26.275  1.00  0.00    -0.084 Cl
ENDBRANCH  90  98
ENDBRANCH  82  86
ENDBRANCH  77  80
ENDBRANCH  75  76
ENDBRANCH  74  75
ENDBRANCH  73  74
ENDBRANCH   1  73
TORSDOF 19
ENDMDL
MODEL 2
REMARK VINA RESULT:     -12.3      5.247      9.355
REMARK SMILES O=C(NCCCCCCNC(=O)[C@H]1CCCCN1c1cc(-c2ccccc2)nc(-c2cccc(Cl)c2)n1)c1ccc(-c2c3nc(c(-c4cc(S(=O)(=O)[O-])ccc4F)c4ccc([nH]4)c(-c4cc(S(=O)(=O)[O-])ccc4F)c4nc(c(-c5cc(S(=O)(=O)[O-])ccc5F)c5ccc2[nH]5)C=C4)C=C3)cc1
REMARK SMILES IDX 6 1 5 2 4 3 3 4 1 5 2 6 38 8 39 9 100 10 40 11 99 12 41 13
REMARK SMILES IDX 42 14 43 15 93 16 44 17 98 18 92 19 94 20 45 21 97 22 91 23
REMARK SMILES IDX 90 24 46 26 78 27 58 28 77 29 59 30 62 31 76 32 95 33 60 34
REMARK SMILES IDX 61 35 75 37 96 38 63 39 47 40 48 41 56 42 49 43 55 44 57 45
REMARK SMILES IDX 54 46 50 47 51 48 52 49 53 50 79 51 80 52 88 53 81 54 87 55
REMARK SMILES IDX 89 56 86 57 82 58 83 59 84 60 85 61 64 62 65 63 73 64 66 65
REMARK SMILES IDX 72 66 74 67 71 68 67 69 68 70 69 71 70 72 7 73 8 74 9 75
REMARK SMILES IDX 10 76 11 77 12 79 13 80 14 81 18 82 15 83 17 84 16 85 19 86
REMARK SMILES IDX 20 87 37 88 21 89 29 90 28 91 22 92 23 93 27 94 24 95 26 96
REMARK SMILES IDX 25 97 30 98 31 99 36 100 32 101 34 102 33 103 35 104
REMARK H PARENT 3 7 94 25 62 36 10 78
REMARK Flexibility Score: inf
ROOT
ATOM      1  C   UNL A   1      39.560  22.664  26.522  1.00  0.00     0.002 C 
ENDROOT
BRANCH   1   2
ATOM      2  C   UNL A   1      39.431  21.210  26.069  1.00  0.00     0.021 C 
BRANCH   2   3
ATOM      3  C   UNL A   1      40.204  20.195  26.901  1.00  0.00     0.116 C 
BRANCH   3   4
ATOM      4  N   UNL A   1      41.168  19.434  26.125  1.00  0.00    -0.352 N 
ATOM      5  O   UNL A   1      43.025  19.103  24.886  1.00  0.00    -0.269 OA
ATOM      6  C   UNL A   1      42.381  19.844  25.624  1.00  0.00     0.251 C 
ATOM      7  H   UNL A   1      40.918  18.502  25.930  1.00  0.00     0.163 HD
BRANCH   6   8
ATOM      8  C   UNL A   1      42.892  21.191  25.958  1.00  0.00     0.039 A 
ATOM      9  C   UNL A   1      43.319  21.493  27.255  1.00  0.00     0.014 A 
ATOM     10  C   UNL A   1      42.935  22.169  24.960  1.00  0.00     0.014 A 
ATOM     11  C   UNL A   1      43.665  22.800  27.583  1.00  0.00     0.010 A 
ATOM     12  C   UNL A   1      43.358  23.464  25.274  1.00  0.00     0.010 A 
ATOM     13  C   UNL A   1      43.701  23.796  26.595  1.00  0.00    -0.014 A 
BRANCH  13  14
ATOM     14  C   UNL A   1      44.156  25.165  26.952  1.00  0.00     0.031 A 
ATOM     15  C   UNL A   1      45.563  25.614  26.668  1.00  0.00     0.074 A 
ATOM     16  C   UNL A   1      43.276  26.011  27.522  1.00  0.00     0.049 A 
ATOM     17  N   UNL A   1      46.128  26.768  26.924  1.00  0.00    -0.248 NA
ATOM     18  C   UNL A   1      46.454  24.639  26.024  1.00  0.00     0.031 C 
ATOM     19  C   UNL A   1      41.885  25.679  27.847  1.00  0.00     0.029 A 
ATOM     20  N   UNL A   1      43.407  27.315  27.921  1.00  0.00    -0.354 N 
ATOM     21  C   UNL A   1      47.444  26.656  26.486  1.00  0.00     0.074 A 
ATOM     22  C   UNL A   1      47.598  25.307  25.978  1.00  0.00     0.031 C 
ATOM     23  C   UNL A   1      41.284  26.762  28.359  1.00  0.00     0.029 A 
ATOM     24  C   UNL A   1      42.259  27.842  28.464  1.00  0.00     0.049 A 
ATOM     25  H   UNL A   1      44.243  27.826  27.829  1.00  0.00     0.167 HD
ATOM     26  C   UNL A   1      48.425  27.594  26.500  1.00  0.00     0.034 A 
ATOM     27  C   UNL A   1      42.020  29.049  29.009  1.00  0.00     0.034 A 
ATOM     28  C   UNL A   1      48.249  28.933  27.013  1.00  0.00     0.049 A 
ATOM     29  C   UNL A   1      43.136  30.056  29.052  1.00  0.00     0.074 A 
ATOM     30  C   UNL A   1      49.166  29.971  27.049  1.00  0.00     0.029 A 
ATOM     31  N   UNL A   1      47.083  29.420  27.592  1.00  0.00    -0.354 N 
ATOM     32  N   UNL A   1      44.370  29.939  28.619  1.00  0.00    -0.248 NA
ATOM     33  C   UNL A   1      42.826  31.358  29.654  1.00  0.00     0.031 C 
ATOM     34  C   UNL A   1      48.577  31.059  27.706  1.00  0.00     0.029 A 
ATOM     35  C   UNL A   1      47.267  30.728  28.015  1.00  0.00     0.049 A 
ATOM     36  H   UNL A   1      46.246  28.909  27.687  1.00  0.00     0.167 HD
ATOM     37  C   UNL A   1      44.980  31.160  28.883  1.00  0.00     0.074 A 
ATOM     38  C   UNL A   1      43.971  32.004  29.492  1.00  0.00     0.031 C 
ATOM     39  C   UNL A   1      46.258  31.550  28.642  1.00  0.00     0.034 A 
BRANCH  26  40
ATOM     40  C   UNL A   1      49.786  27.185  25.986  1.00  0.00     0.023 A 
ATOM     41  C   UNL A   1      50.194  27.457  24.669  1.00  0.00     0.031 A 
ATOM     42  C   UNL A   1      50.683  26.496  26.823  1.00  0.00     0.131 A 
ATOM     43  C   UNL A   1      51.434  26.984  24.207  1.00  0.00     0.055 A 
ATOM     44  C   UNL A   1      51.944  26.094  26.379  1.00  0.00     0.041 A 
ATOM     45  F   UNL A   1      50.343  26.191  28.085  1.00  0.00    -0.206 F 
ATOM     46  C   UNL A   1      52.321  26.326  25.059  1.00  0.00     0.022 A 
BRANCH  43  47
ATOM     47  S   UNL A   1      51.809  27.123  22.437  1.00  0.00     0.124 S 
ATOM     48  O   UNL A   1      50.485  26.968  21.839  1.00  0.00    -0.237 OA
ATOM     49  O   UNL A   1      52.400  28.453  22.343  1.00  0.00    -0.237 OA
ATOM     50  O   UNL A   1      52.728  26.012  22.193  1.00  0.00    -0.744 OA
ENDBRANCH  43  47
ENDBRANCH  26  40
BRANCH  27  51
ATOM     51  C   UNL A   1      40.682  29.356  29.587  1.00  0.00     0.023 A 
ATOM     52  C   UNL A   1      40.443  29.237  30.964  1.00  0.00     0.031 A 
ATOM     53  C   UNL A   1      39.616  29.757  28.762  1.00  0.00     0.131 A 
ATOM     54  C   UNL A   1      39.158  29.486  31.472  1.00  0.00     0.055 A 
ATOM     55  C   UNL A   1      38.355  30.052  29.278  1.00  0.00     0.041 A 
ATOM     56  F   UNL A   1      39.796  29.892  27.438  1.00  0.00    -0.206 F 
ATOM     57  C   UNL A   1      38.116  29.905  30.640  1.00  0.00     0.022 A 
BRANCH  54  58
ATOM     58  S   UNL A   1      38.848  29.182  33.234  1.00  0.00     0.124 S 
ATOM     59  O   UNL A   1      40.014  28.391  33.609  1.00  0.00    -0.237 OA
ATOM     60  O   UNL A   1      38.792  30.538  33.768  1.00  0.00    -0.237 OA
ATOM     61  O   UNL A   1      37.577  28.462  33.235  1.00  0.00    -0.744 OA
ENDBRANCH  54  58
ENDBRANCH  27  51
BRANCH  39  62
ATOM     62  C   UNL A   1      46.612  32.968  29.013  1.00  0.00     0.023 A 
ATOM     63  C   UNL A   1      47.128  33.291  30.281  1.00  0.00     0.031 A 
ATOM     64  C   UNL A   1      46.404  34.012  28.096  1.00  0.00     0.131 A 
ATOM     65  C   UNL A   1      47.362  34.633  30.618  1.00  0.00     0.055 A 
ATOM     66  C   UNL A   1      46.692  35.340  28.417  1.00  0.00     0.041 A 
ATOM     67  F   UNL A   1      45.910  33.759  26.873  1.00  0.00    -0.206 F 
ATOM     68  C   UNL A   1      47.161  35.658  29.687  1.00  0.00     0.022 A 
BRANCH  65  69
ATOM     69  S   UNL A   1      47.844  35.033  32.320  1.00  0.00     0.124 S 
ATOM     70  O   UNL A   1      48.435  36.359  32.163  1.00  0.00    -0.237 OA
ATOM     71  O   UNL A   1      46.568  34.985  33.026  1.00  0.00    -0.237 OA
ATOM     72  O   UNL A   1      48.785  33.972  32.669  1.00  0.00    -0.744 OA
ENDBRANCH  65  69
ENDBRANCH  39  62
ENDBRANCH  13  14
ENDBRANCH   6   8
ENDBRANCH   3   4
ENDBRANCH   2   3
ENDBRANCH   1   2
BRANCH   1  73
ATOM     73  C   UNL A   1      38.342  23.553  26.257  1.00  0.00     0.002 C 
BRANCH  73  74
ATOM     74  C   UNL A   1      37.133  22.869  25.603  1.00  0.00     0.021 C 
BRANCH  74  75
ATOM     75  C   UNL A   1      36.012  23.800  25.142  1.00  0.00     0.116 C 
BRANCH  75  76
ATOM     76  N   UNL A   1      34.808  23.622  25.923  1.00  0.00    -0.354 N 
ATOM     77  C   UNL A   1      33.555  24.119  25.736  1.00  0.00     0.242 C 
ATOM     78  H   UNL A   1      34.911  23.050  26.718  1.00  0.00     0.163 HD
ATOM     79  O   UNL A   1      32.728  23.828  26.608  1.00  0.00    -0.273 OA
BRANCH  77  80
ATOM     80  C   UNL A   1      33.221  25.022  24.506  1.00  0.00     0.173 C 
ATOM     81  C   UNL A   1      33.252  24.265  23.172  1.00  0.00     0.035 C 
ATOM     82  N   UNL A   1      31.876  25.605  24.666  1.00  0.00    -0.344 N 
ATOM     83  C   UNL A   1      32.111  23.255  23.066  1.00  0.00     0.004 C 
ATOM     84  C   UNL A   1      30.712  24.732  24.582  1.00  0.00     0.119 C 
ATOM     85  C   UNL A   1      30.760  23.934  23.278  1.00  0.00     0.022 C 
BRANCH  82  86
ATOM     86  C   UNL A   1      31.741  26.967  24.771  1.00  0.00     0.133 A 
ATOM     87  C   UNL A   1      30.799  27.640  24.021  1.00  0.00     0.076 A 
ATOM     88  N   UNL A   1      32.542  27.619  25.626  1.00  0.00    -0.211 NA
ATOM     89  C   UNL A   1      30.705  29.008  24.190  1.00  0.00     0.076 A 
ATOM     90  C   UNL A   1      32.406  28.954  25.706  1.00  0.00     0.162 A 
ATOM     91  N   UNL A   1      31.512  29.688  25.024  1.00  0.00    -0.228 NA
BRANCH  89  92
ATOM     92  C   UNL A   1      29.708  29.807  23.469  1.00  0.00     0.000 A 
ATOM     93  C   UNL A   1      29.336  31.080  23.931  1.00  0.00     0.010 A 
ATOM     94  C   UNL A   1      29.102  29.324  22.296  1.00  0.00     0.010 A 
ATOM     95  C   UNL A   1      28.403  31.852  23.235  1.00  0.00     0.001 A 
ATOM     96  C   UNL A   1      28.160  30.091  21.606  1.00  0.00     0.001 A 
ATOM     97  C   UNL A   1      27.815  31.357  22.073  1.00  0.00     0.000 A 
ENDBRANCH  89  92
BRANCH  90  98
ATOM     98  C   UNL A   1      33.322  29.665  26.601  1.00  0.00     0.021 A 
ATOM     99  C   UNL A   1      34.444  29.016  27.151  1.00  0.00     0.012 A 
ATOM    100  C   UNL A   1      33.101  31.010  26.941  1.00  0.00     0.032 A 
ATOM    101  C   UNL A   1      35.319  29.688  28.009  1.00  0.00     0.002 A 
ATOM    102  C   UNL A   1      33.965  31.673  27.813  1.00  0.00     0.041 A 
ATOM    103  C   UNL A   1      35.075  31.018  28.346  1.00  0.00     0.020 A 
ATOM    104  Cl  UNL A   1      33.655  33.310  28.242  1.00  0.00    -0.084 Cl
ENDBRANCH  90  98
ENDBRANCH  82  86
ENDBRANCH  77  80
ENDBRANCH  75  76
ENDBRANCH  74  75
ENDBRANCH  73  74
ENDBRANCH   1  73
TORSDOF 19
ENDMDL
MODEL 3
REMARK VINA RESULT:     -12.0      5.787     11.795
REMARK SMILES O=C(NCCCCCCNC(=O)[C@H]1CCCCN1c1cc(-c2ccccc2)nc(-c2cccc(Cl)c2)n1)c1ccc(-c2c3nc(c(-c4cc(S(=O)(=O)[O-])ccc4F)c4ccc([nH]4)c(-c4cc(S(=O)(=O)[O-])ccc4F)c4nc(c(-c5cc(S(=O)(=O)[O-])ccc5F)c5ccc2[nH]5)C=C4)C=C3)cc1
REMARK SMILES IDX 6 1 5 2 4 3 3 4 1 5 2 6 38 8 39 9 100 10 40 11 99 12 41 13
REMARK SMILES IDX 42 14 43 15 93 16 44 17 98 18 92 19 94 20 45 21 97 22 91 23
REMARK SMILES IDX 90 24 46 26 78 27 58 28 77 29 59 30 62 31 76 32 95 33 60 34
REMARK SMILES IDX 61 35 75 37 96 38 63 39 47 40 48 41 56 42 49 43 55 44 57 45
REMARK SMILES IDX 54 46 50 47 51 48 52 49 53 50 79 51 80 52 88 53 81 54 87 55
REMARK SMILES IDX 89 56 86 57 82 58 83 59 84 60 85 61 64 62 65 63 73 64 66 65
REMARK SMILES IDX 72 66 74 67 71 68 67 69 68 70 69 71 70 72 7 73 8 74 9 75
REMARK SMILES IDX 10 76 11 77 12 79 13 80 14 81 18 82 15 83 17 84 16 85 19 86
REMARK SMILES IDX 20 87 37 88 21 89 29 90 28 91 22 92 23 93 27 94 24 95 26 96
REMARK SMILES IDX 25 97 30 98 31 99 36 100 32 101 34 102 33 103 35 104
REMARK H PARENT 3 7 94 25 62 36 10 78
REMARK Flexibility Score: inf
ROOT
ATOM      1  C   UNL A   1      39.759  22.718  26.693  1.00  0.00     0.002 C 
ENDROOT
BRANCH   1   2
ATOM      2  C   UNL A   1      39.664  21.291  26.156  1.00  0.00     0.021 C 
BRANCH   2   3
ATOM      3  C   UNL A   1      40.398  20.234  26.971  1.00  0.00     0.116 C 
BRANCH   3   4
ATOM      4  N   UNL A   1      41.398  19.511  26.205  1.00  0.00    -0.352 N 
ATOM      5  O   UNL A   1      43.268  19.257  24.966  1.00  0.00    -0.269 OA
ATOM      6  C   UNL A   1      42.588  19.975  25.695  1.00  0.00     0.251 C 
ATOM      7  H   UNL A   1      41.197  18.565  26.025  1.00  0.00     0.163 HD
BRANCH   6   8
ATOM      8  C   UNL A   1      43.030  21.352  26.007  1.00  0.00     0.039 A 
ATOM      9  C   UNL A   1      43.050  22.339  25.018  1.00  0.00     0.014 A 
ATOM     10  C   UNL A   1      43.441  21.655  27.309  1.00  0.00     0.014 A 
ATOM     11  C   UNL A   1      43.598  23.587  25.295  1.00  0.00     0.010 A 
ATOM     12  C   UNL A   1      43.920  22.935  27.605  1.00  0.00     0.010 A 
ATOM     13  C   UNL A   1      44.027  23.903  26.594  1.00  0.00    -0.014 A 
BRANCH  13  14
ATOM     14  C   UNL A   1      44.530  25.271  26.886  1.00  0.00     0.031 A 
ATOM     15  C   UNL A   1      43.654  26.294  27.553  1.00  0.00     0.074 A 
ATOM     16  C   UNL A   1      45.801  25.576  26.557  1.00  0.00     0.049 A 
ATOM     17  N   UNL A   1      43.928  27.535  27.870  1.00  0.00    -0.248 NA
ATOM     18  C   UNL A   1      42.288  25.874  27.900  1.00  0.00     0.031 C 
ATOM     19  C   UNL A   1      46.739  24.660  25.901  1.00  0.00     0.029 A 
ATOM     20  N   UNL A   1      46.526  26.725  26.731  1.00  0.00    -0.354 N 
ATOM     21  C   UNL A   1      42.769  28.050  28.441  1.00  0.00     0.074 A 
ATOM     22  C   UNL A   1      41.779  26.994  28.395  1.00  0.00     0.031 C 
ATOM     23  C   UNL A   1      47.925  25.272  25.764  1.00  0.00     0.029 A 
ATOM     24  C   UNL A   1      47.813  26.639  26.257  1.00  0.00     0.049 A 
ATOM     25  H   UNL A   1      46.160  27.535  27.155  1.00  0.00     0.167 HD
ATOM     26  C   UNL A   1      42.558  29.286  28.961  1.00  0.00     0.034 A 
ATOM     27  C   UNL A   1      48.790  27.564  26.200  1.00  0.00     0.034 A 
ATOM     28  C   UNL A   1      43.560  30.326  28.995  1.00  0.00     0.049 A 
ATOM     29  C   UNL A   1      48.517  28.939  26.743  1.00  0.00     0.074 A 
ATOM     30  C   UNL A   1      43.462  31.603  29.524  1.00  0.00     0.029 A 
ATOM     31  N   UNL A   1      44.842  30.217  28.470  1.00  0.00    -0.354 N 
ATOM     32  N   UNL A   1      47.420  29.405  27.294  1.00  0.00    -0.248 NA
ATOM     33  C   UNL A   1      49.613  29.911  26.660  1.00  0.00     0.031 C 
ATOM     34  C   UNL A   1      44.657  32.284  29.261  1.00  0.00     0.029 A 
ATOM     35  C   UNL A   1      45.531  31.410  28.633  1.00  0.00     0.049 A 
ATOM     36  H   UNL A   1      45.209  29.408  28.043  1.00  0.00     0.167 HD
ATOM     37  C   UNL A   1      47.701  30.723  27.637  1.00  0.00     0.074 A 
ATOM     38  C   UNL A   1      49.076  30.967  27.252  1.00  0.00     0.031 C 
ATOM     39  C   UNL A   1      46.896  31.647  28.222  1.00  0.00     0.034 A 
BRANCH  26  40
ATOM     40  C   UNL A   1      41.176  29.591  29.491  1.00  0.00     0.023 A 
ATOM     41  C   UNL A   1      40.926  29.747  30.866  1.00  0.00     0.031 A 
ATOM     42  C   UNL A   1      40.088  29.710  28.609  1.00  0.00     0.131 A 
ATOM     43  C   UNL A   1      39.613  29.945  31.322  1.00  0.00     0.055 A 
ATOM     44  C   UNL A   1      38.795  29.981  29.063  1.00  0.00     0.041 A 
ATOM     45  F   UNL A   1      40.259  29.552  27.287  1.00  0.00    -0.206 F 
ATOM     46  C   UNL A   1      38.549  30.086  30.429  1.00  0.00     0.022 A 
BRANCH  43  47
ATOM     47  S   UNL A   1      39.296  29.877  33.107  1.00  0.00     0.124 S 
ATOM     48  O   UNL A   1      40.155  30.950  33.603  1.00  0.00    -0.237 OA
ATOM     49  O   UNL A   1      37.861  30.124  33.183  1.00  0.00    -0.237 OA
ATOM     50  O   UNL A   1      39.719  28.528  33.480  1.00  0.00    -0.744 OA
ENDBRANCH  43  47
ENDBRANCH  26  40
BRANCH  27  51
ATOM     51  C   UNL A   1      50.100  27.228  25.575  1.00  0.00     0.023 A 
ATOM     52  C   UNL A   1      50.331  27.454  24.210  1.00  0.00     0.031 A 
ATOM     53  C   UNL A   1      51.136  26.659  26.337  1.00  0.00     0.131 A 
ATOM     54  C   UNL A   1      51.559  27.081  23.641  1.00  0.00     0.055 A 
ATOM     55  C   UNL A   1      52.372  26.337  25.778  1.00  0.00     0.041 A 
ATOM     56  F   UNL A   1      50.966  26.429  27.649  1.00  0.00    -0.206 F 
ATOM     57  C   UNL A   1      52.585  26.537  24.418  1.00  0.00     0.022 A 
BRANCH  54  58
ATOM     58  S   UNL A   1      51.771  27.253  21.847  1.00  0.00     0.124 S 
ATOM     59  O   UNL A   1      50.413  27.032  21.365  1.00  0.00    -0.237 OA
ATOM     60  O   UNL A   1      52.280  28.615  21.733  1.00  0.00    -0.237 OA
ATOM     61  O   UNL A   1      52.731  26.202  21.517  1.00  0.00    -0.744 OA
ENDBRANCH  54  58
ENDBRANCH  27  51
BRANCH  39  62
ATOM     62  C   UNL A   1      47.509  32.995  28.504  1.00  0.00     0.023 A 
ATOM     63  C   UNL A   1      47.423  34.052  27.580  1.00  0.00     0.031 A 
ATOM     64  C   UNL A   1      48.215  33.215  29.699  1.00  0.00     0.131 A 
ATOM     65  C   UNL A   1      48.083  35.263  27.841  1.00  0.00     0.055 A 
ATOM     66  C   UNL A   1      48.821  34.441  29.979  1.00  0.00     0.041 A 
ATOM     67  F   UNL A   1      48.330  32.239  30.614  1.00  0.00    -0.206 F 
ATOM     68  C   UNL A   1      48.768  35.468  29.042  1.00  0.00     0.022 A 
BRANCH  65  69
ATOM     69  S   UNL A   1      48.113  36.535  26.549  1.00  0.00     0.124 S 
ATOM     70  O   UNL A   1      48.485  37.727  27.306  1.00  0.00    -0.237 OA
ATOM     71  O   UNL A   1      49.124  36.023  25.629  1.00  0.00    -0.237 OA
ATOM     72  O   UNL A   1      46.747  36.531  26.031  1.00  0.00    -0.744 OA
ENDBRANCH  65  69
ENDBRANCH  39  62
ENDBRANCH  13  14
ENDBRANCH   6   8
ENDBRANCH   3   4
ENDBRANCH   2   3
ENDBRANCH   1   2
BRANCH   1  73
ATOM     73  C   UNL A   1      38.657  23.676  26.233  1.00  0.00     0.002 C 
BRANCH  73  74
ATOM     74  C   UNL A   1      37.428  23.030  25.578  1.00  0.00     0.021 C 
BRANCH  74  75
ATOM     75  C   UNL A   1      36.240  23.960  25.335  1.00  0.00     0.116 C 
BRANCH  75  76
ATOM     76  N   UNL A   1      35.037  23.477  25.977  1.00  0.00    -0.354 N 
ATOM     77  C   UNL A   1      33.729  23.753  25.720  1.00  0.00     0.242 C 
ATOM     78  H   UNL A   1      35.188  22.849  26.720  1.00  0.00     0.163 HD
ATOM     79  O   UNL A   1      32.911  23.219  26.478  1.00  0.00    -0.273 OA
BRANCH  77  80
ATOM     80  C   UNL A   1      33.321  24.710  24.555  1.00  0.00     0.173 C 
ATOM     81  C   UNL A   1      33.216  24.003  23.198  1.00  0.00     0.035 C 
ATOM     82  N   UNL A   1      32.013  25.325  24.850  1.00  0.00    -0.344 N 
ATOM     83  C   UNL A   1      32.039  23.030  23.155  1.00  0.00     0.004 C 
ATOM     84  C   UNL A   1      30.820  24.489  24.836  1.00  0.00     0.119 C 
ATOM     85  C   UNL A   1      30.732  23.739  23.505  1.00  0.00     0.022 C 
BRANCH  82  86
ATOM     86  C   UNL A   1      31.931  26.685  25.014  1.00  0.00     0.133 A 
ATOM     87  C   UNL A   1      32.801  27.345  25.857  1.00  0.00     0.076 A 
ATOM     88  N   UNL A   1      30.990  27.351  24.329  1.00  0.00    -0.211 NA
ATOM     89  C   UNL A   1      32.675  28.716  25.961  1.00  0.00     0.076 A 
ATOM     90  C   UNL A   1      30.915  28.681  24.512  1.00  0.00     0.162 A 
ATOM     91  N   UNL A   1      31.724  29.404  25.302  1.00  0.00    -0.228 NA
BRANCH  89  92
ATOM     92  C   UNL A   1      33.578  29.512  26.800  1.00  0.00     0.000 A 
ATOM     93  C   UNL A   1      33.235  30.818  27.187  1.00  0.00     0.010 A 
ATOM     94  C   UNL A   1      34.806  28.990  27.241  1.00  0.00     0.010 A 
ATOM     95  C   UNL A   1      34.083  31.571  28.003  1.00  0.00     0.001 A 
ATOM     96  C   UNL A   1      35.660  29.748  28.048  1.00  0.00     0.001 A 
ATOM     97  C   UNL A   1      35.295  31.035  28.432  1.00  0.00     0.000 A 
ENDBRANCH  89  92
BRANCH  90  98
ATOM     98  C   UNL A   1      29.850  29.392  23.803  1.00  0.00     0.021 A 
ATOM     99  C   UNL A   1      28.860  28.688  23.091  1.00  0.00     0.012 A 
ATOM    100  C   UNL A   1      29.792  30.796  23.806  1.00  0.00     0.032 A 
ATOM    101  C   UNL A   1      27.844  29.362  22.409  1.00  0.00     0.002 A 
ATOM    102  C   UNL A   1      28.788  31.466  23.108  1.00  0.00     0.041 A 
ATOM    103  C   UNL A   1      27.811  30.756  22.412  1.00  0.00     0.020 A 
ATOM    104  Cl  UNL A   1      28.758  33.187  23.098  1.00  0.00    -0.084 Cl
ENDBRANCH  90  98
ENDBRANCH  82  86
ENDBRANCH  77  80
ENDBRANCH  75  76
ENDBRANCH  74  75
ENDBRANCH  73  74
ENDBRANCH   1  73
TORSDOF 19
ENDMDL
