MODEL 1
REMARK VINA RESULT:     -11.4      0.000      0.000
REMARK SMILES Cc1cccc(CN(C)c2ccc(C(=O)NCCCCCCNC(=O)c3ccc(-c4c5nc(c(-c6cc(S(=O)(=O)[O-])ccc6F)c6ccc([nH]6)c(-c6cc(S(=O)(=O)[O-])ccc6F)c6nc(c(-c7cc(S(=O)(=O)[O-])ccc7F)c7ccc4[nH]7)C=C6)C=C5)cc3)cc2N)n1
REMARK SMILES IDX 19 1 18 2 17 3 16 4 14 5 15 6 13 8 10 9 11 10 90 11 12 12
REMARK SMILES IDX 89 13 8 14 9 15 7 16 6 17 1 18 2 19 3 20 92 21 4 22 5 23
REMARK SMILES IDX 91 24 20 27 21 28 22 29 23 30 24 31 25 33 26 34 27 35 88 36
REMARK SMILES IDX 28 37 87 38 29 39 30 40 31 41 81 42 32 43 86 44 80 45 82 46
REMARK SMILES IDX 33 47 85 48 79 49 78 50 34 52 66 53 46 54 65 55 47 56 50 57
REMARK SMILES IDX 64 58 83 59 48 60 49 61 63 63 84 64 51 65 35 66 36 67 44 68
REMARK SMILES IDX 37 69 43 70 45 71 42 72 38 73 39 74 40 75 41 76 67 77 68 78
REMARK SMILES IDX 76 79 69 80 75 81 77 82 74 83 70 84 71 85 72 86 73 87 52 88
REMARK SMILES IDX 53 89 61 90 54 91 60 92 62 93 59 94 55 95 56 96 57 97 58 98
REMARK H PARENT 16 7 91 25 91 26 23 32 82 51 50 62
REMARK Flexibility Score: inf
ROOT
ATOM      1  C   UNL A   1      32.035  29.139  25.944  1.00  0.00     0.002 C 
ENDROOT
BRANCH   1   2
ATOM      2  C   UNL A   1      31.613  29.464  24.506  1.00  0.00     0.021 C 
BRANCH   2   3
ATOM      3  C   UNL A   1      31.469  28.200  23.652  1.00  0.00     0.116 C 
BRANCH   3   4
ATOM      4  N   UNL A   1      30.110  27.690  23.741  1.00  0.00    -0.352 N 
ATOM      5  C   UNL A   1      29.585  26.436  23.946  1.00  0.00     0.251 C 
ATOM      6  O   UNL A   1      28.356  26.329  23.937  1.00  0.00    -0.269 OA
ATOM      7  H   UNL A   1      29.424  28.388  23.634  1.00  0.00     0.163 HD
BRANCH   5   8
ATOM      8  C   UNL A   1      30.413  25.237  24.254  1.00  0.00     0.041 A 
ATOM      9  C   UNL A   1      32.271  23.112  24.776  1.00  0.00     0.060 A 
ATOM     10  C   UNL A   1      32.007  24.128  25.715  1.00  0.00     0.029 A 
ATOM     11  C   UNL A   1      31.703  23.356  23.514  1.00  0.00     0.056 A 
ATOM     12  C   UNL A   1      31.148  25.209  25.438  1.00  0.00     0.016 A 
ATOM     13  C   UNL A   1      30.599  24.193  23.373  1.00  0.00     0.041 A 
BRANCH   9  14
ATOM     14  N   UNL A   1      32.956  21.938  25.088  1.00  0.00    -0.367 N 
ATOM     15  C   UNL A   1      34.405  21.942  25.291  1.00  0.00     0.144 C 
BRANCH  14  16
ATOM     16  C   UNL A   1      32.356  20.581  25.289  1.00  0.00     0.172 C 
BRANCH  16  17
ATOM     17  C   UNL A   1      32.822  19.386  24.456  1.00  0.00     0.060 A 
ATOM     18  C   UNL A   1      34.644  16.236  24.998  1.00  0.00     0.067 C 
ATOM     19  C   UNL A   1      33.827  17.293  24.321  1.00  0.00     0.038 A 
ATOM     20  C   UNL A   1      33.296  17.069  23.054  1.00  0.00     0.023 A 
ATOM     21  N   UNL A   1      33.624  18.443  25.014  1.00  0.00    -0.256 NA
ATOM     22  C   UNL A   1      32.554  18.075  22.452  1.00  0.00     0.004 A 
ATOM     23  C   UNL A   1      32.335  19.258  23.147  1.00  0.00     0.026 A 
ENDBRANCH  16  17
ENDBRANCH  14  16
ENDBRANCH   9  14
BRANCH  11  24
ATOM     24  N   UNL A   1      32.405  23.109  22.323  1.00  0.00    -0.397 N 
ATOM     25  H   UNL A   1      32.380  23.765  21.591  1.00  0.00     0.156 HD
ATOM     26  H   UNL A   1      32.924  22.277  22.222  1.00  0.00     0.156 HD
ENDBRANCH  11  24
ENDBRANCH   5   8
ENDBRANCH   3   4
ENDBRANCH   2   3
ENDBRANCH   1   2
BRANCH   1  27
ATOM     27  C   UNL A   1      31.420  30.064  27.001  1.00  0.00     0.002 C 
BRANCH  27  28
ATOM     28  C   UNL A   1      31.399  31.545  26.620  1.00  0.00     0.021 C 
BRANCH  28  29
ATOM     29  C   UNL A   1      32.751  32.234  26.760  1.00  0.00     0.116 C 
BRANCH  29  30
ATOM     30  N   UNL A   1      32.609  33.571  27.318  1.00  0.00    -0.352 N 
ATOM     31  C   UNL A   1      33.275  34.138  28.378  1.00  0.00     0.251 C 
ATOM     32  H   UNL A   1      31.943  34.147  26.877  1.00  0.00     0.163 HD
ATOM     33  O   UNL A   1      32.857  35.165  28.892  1.00  0.00    -0.269 OA
BRANCH  31  34
ATOM     34  C   UNL A   1      34.493  33.476  28.891  1.00  0.00     0.039 A 
ATOM     35  C   UNL A   1      35.742  34.041  28.631  1.00  0.00     0.014 A 
ATOM     36  C   UNL A   1      34.385  32.308  29.650  1.00  0.00     0.014 A 
ATOM     37  C   UNL A   1      36.884  33.471  29.196  1.00  0.00     0.010 A 
ATOM     38  C   UNL A   1      35.512  31.787  30.273  1.00  0.00     0.010 A 
ATOM     39  C   UNL A   1      36.774  32.363  30.053  1.00  0.00    -0.014 A 
BRANCH  39  40
ATOM     40  C   UNL A   1      37.959  31.781  30.735  1.00  0.00     0.031 A 
ATOM     41  C   UNL A   1      38.776  30.728  30.040  1.00  0.00     0.074 A 
ATOM     42  C   UNL A   1      38.243  32.136  32.004  1.00  0.00     0.049 A 
ATOM     43  N   UNL A   1      39.755  29.998  30.505  1.00  0.00    -0.248 NA
ATOM     44  C   UNL A   1      38.417  30.435  28.644  1.00  0.00     0.031 C 
ATOM     45  C   UNL A   1      37.507  33.129  32.789  1.00  0.00     0.029 A 
ATOM     46  N   UNL A   1      39.217  31.692  32.863  1.00  0.00    -0.354 N 
ATOM     47  C   UNL A   1      40.122  29.150  29.466  1.00  0.00     0.074 A 
ATOM     48  C   UNL A   1      39.215  29.413  28.370  1.00  0.00     0.031 C 
ATOM     49  C   UNL A   1      38.067  33.232  34.005  1.00  0.00     0.029 A 
ATOM     50  C   UNL A   1      39.162  32.273  34.110  1.00  0.00     0.049 A 
ATOM     51  H   UNL A   1      39.891  31.020  32.611  1.00  0.00     0.167 HD
ATOM     52  C   UNL A   1      41.135  28.249  29.426  1.00  0.00     0.034 A 
ATOM     53  C   UNL A   1      39.893  32.041  35.219  1.00  0.00     0.034 A 
ATOM     54  C   UNL A   1      42.033  28.008  30.527  1.00  0.00     0.049 A 
ATOM     55  C   UNL A   1      40.983  30.997  35.166  1.00  0.00     0.074 A 
ATOM     56  C   UNL A   1      43.123  27.156  30.579  1.00  0.00     0.029 A 
ATOM     57  N   UNL A   1      41.943  28.610  31.776  1.00  0.00    -0.354 N 
ATOM     58  N   UNL A   1      41.342  30.228  34.163  1.00  0.00    -0.248 NA
ATOM     59  C   UNL A   1      41.768  30.793  36.390  1.00  0.00     0.031 C 
ATOM     60  C   UNL A   1      43.639  27.181  31.877  1.00  0.00     0.029 A 
ATOM     61  C   UNL A   1      42.932  28.119  32.613  1.00  0.00     0.049 A 
ATOM     62  H   UNL A   1      41.274  29.287  32.029  1.00  0.00     0.167 HD
ATOM     63  C   UNL A   1      42.420  29.479  34.626  1.00  0.00     0.074 A 
ATOM     64  C   UNL A   1      42.655  29.892  35.995  1.00  0.00     0.031 C 
ATOM     65  C   UNL A   1      43.153  28.539  33.978  1.00  0.00     0.034 A 
BRANCH  52  66
ATOM     66  C   UNL A   1      41.300  27.442  28.159  1.00  0.00     0.023 A 
ATOM     67  C   UNL A   1      40.922  26.090  28.089  1.00  0.00     0.031 A 
ATOM     68  C   UNL A   1      41.867  28.025  27.012  1.00  0.00     0.131 A 
ATOM     69  C   UNL A   1      41.185  25.347  26.929  1.00  0.00     0.055 A 
ATOM     70  C   UNL A   1      42.044  27.303  25.830  1.00  0.00     0.041 A 
ATOM     71  F   UNL A   1      42.271  29.305  27.023  1.00  0.00    -0.206 F 
ATOM     72  C   UNL A   1      41.717  25.952  25.788  1.00  0.00     0.022 A 
BRANCH  69  73
ATOM     73  S   UNL A   1      40.964  23.548  26.986  1.00  0.00     0.124 S 
ATOM     74  O   UNL A   1      41.426  23.239  28.338  1.00  0.00    -0.237 OA
ATOM     75  O   UNL A   1      39.533  23.398  26.750  1.00  0.00    -0.237 OA
ATOM     76  O   UNL A   1      41.830  23.062  25.913  1.00  0.00    -0.744 OA
ENDBRANCH  69  73
ENDBRANCH  52  66
BRANCH  53  77
ATOM     77  C   UNL A   1      39.616  32.788  36.480  1.00  0.00     0.023 A 
ATOM     78  C   UNL A   1      38.693  32.301  37.420  1.00  0.00     0.031 A 
ATOM     79  C   UNL A   1      40.232  34.024  36.745  1.00  0.00     0.131 A 
ATOM     80  C   UNL A   1      38.374  33.068  38.551  1.00  0.00     0.055 A 
ATOM     81  C   UNL A   1      39.957  34.755  37.902  1.00  0.00     0.041 A 
ATOM     82  F   UNL A   1      41.123  34.538  35.882  1.00  0.00    -0.206 F 
ATOM     83  C   UNL A   1      39.011  34.284  38.806  1.00  0.00     0.022 A 
BRANCH  80  84
ATOM     84  S   UNL A   1      37.034  32.500  39.633  1.00  0.00     0.124 S 
ATOM     85  O   UNL A   1      37.410  31.111  39.865  1.00  0.00    -0.237 OA
ATOM     86  O   UNL A   1      37.163  33.402  40.772  1.00  0.00    -0.237 OA
ATOM     87  O   UNL A   1      35.835  32.695  38.819  1.00  0.00    -0.744 OA
ENDBRANCH  80  84
ENDBRANCH  53  77
BRANCH  65  88
ATOM     88  C   UNL A   1      44.320  27.934  34.723  1.00  0.00     0.023 A 
ATOM     89  C   UNL A   1      44.173  26.804  35.545  1.00  0.00     0.031 A 
ATOM     90  C   UNL A   1      45.603  28.495  34.590  1.00  0.00     0.131 A 
ATOM     91  C   UNL A   1      45.283  26.297  36.238  1.00  0.00     0.055 A 
ATOM     92  C   UNL A   1      46.714  27.949  35.233  1.00  0.00     0.041 A 
ATOM     93  F   UNL A   1      45.800  29.579  33.822  1.00  0.00    -0.206 F 
ATOM     94  C   UNL A   1      46.556  26.849  36.071  1.00  0.00     0.022 A 
BRANCH  91  95
ATOM     95  S   UNL A   1      45.028  24.953  37.428  1.00  0.00     0.124 S 
ATOM     96  O   UNL A   1      43.761  25.331  38.046  1.00  0.00    -0.237 OA
ATOM     97  O   UNL A   1      44.989  23.775  36.567  1.00  0.00    -0.237 OA
ATOM     98  O   UNL A   1      46.196  25.042  38.302  1.00  0.00    -0.744 OA
ENDBRANCH  91  95
ENDBRANCH  65  88
ENDBRANCH  39  40
ENDBRANCH  31  34
ENDBRANCH  29  30
ENDBRANCH  28  29
ENDBRANCH  27  28
ENDBRANCH   1  27
TORSDOF 20
ENDMDL
MODEL 2
REMARK VINA RESULT:     -11.2      1.869      2.155
REMARK SMILES Cc1cccc(CN(C)c2ccc(C(=O)NCCCCCCNC(=O)c3ccc(-c4c5nc(c(-c6cc(S(=O)(=O)[O-])ccc6F)c6ccc([nH]6)c(-c6cc(S(=O)(=O)[O-])ccc6F)c6nc(c(-c7cc(S(=O)(=O)[O-])ccc7F)c7ccc4[nH]7)C=C6)C=C5)cc3)cc2N)n1
REMARK SMILES IDX 19 1 18 2 17 3 16 4 14 5 15 6 13 8 10 9 11 10 90 11 12 12
REMARK SMILES IDX 89 13 8 14 9 15 7 16 6 17 1 18 2 19 3 20 92 21 4 22 5 23
REMARK SMILES IDX 91 24 20 27 21 28 22 29 23 30 24 31 25 33 26 34 27 35 88 36
REMARK SMILES IDX 28 37 87 38 29 39 30 40 31 41 81 42 32 43 86 44 80 45 82 46
REMARK SMILES IDX 33 47 85 48 79 49 78 50 34 52 66 53 46 54 65 55 47 56 50 57
REMARK SMILES IDX 64 58 83 59 48 60 49 61 63 63 84 64 51 65 35 66 36 67 44 68
REMARK SMILES IDX 37 69 43 70 45 71 42 72 38 73 39 74 40 75 41 76 67 77 68 78
REMARK SMILES IDX 76 79 69 80 75 81 77 82 74 83 70 84 71 85 72 86 73 87 52 88
REMARK SMILES IDX 53 89 61 90 54 91 60 92 62 93 59 94 55 95 56 96 57 97 58 98
REMARK H PARENT 16 7 91 25 91 26 23 32 82 51 50 62
REMARK Flexibility Score: inf
ROOT
ATOM      1  C   UNL A   1      32.194  28.886  25.602  1.00  0.00     0.002 C 
ENDROOT
BRANCH   1   2
ATOM      2  C   UNL A   1      31.895  29.346  24.170  1.00  0.00     0.021 C 
BRANCH   2   3
ATOM      3  C   UNL A   1      31.521  28.172  23.259  1.00  0.00     0.116 C 
BRANCH   3   4
ATOM      4  N   UNL A   1      30.171  27.720  23.558  1.00  0.00    -0.352 N 
ATOM      5  C   UNL A   1      29.646  26.509  23.942  1.00  0.00     0.251 C 
ATOM      6  O   UNL A   1      28.423  26.444  24.090  1.00  0.00    -0.269 OA
ATOM      7  H   UNL A   1      29.494  28.429  23.468  1.00  0.00     0.163 HD
BRANCH   5   8
ATOM      8  C   UNL A   1      30.476  25.315  24.261  1.00  0.00     0.041 A 
ATOM      9  C   UNL A   1      32.335  23.186  24.766  1.00  0.00     0.060 A 
ATOM     10  C   UNL A   1      32.188  24.279  25.642  1.00  0.00     0.029 A 
ATOM     11  C   UNL A   1      31.648  23.346  23.551  1.00  0.00     0.056 A 
ATOM     12  C   UNL A   1      31.327  25.358  25.365  1.00  0.00     0.016 A 
ATOM     13  C   UNL A   1      30.552  24.201  23.452  1.00  0.00     0.041 A 
BRANCH   9  14
ATOM     14  N   UNL A   1      33.025  22.021  25.101  1.00  0.00    -0.367 N 
ATOM     15  C   UNL A   1      34.469  22.041  25.338  1.00  0.00     0.144 C 
BRANCH  14  16
ATOM     16  C   UNL A   1      32.433  20.659  25.297  1.00  0.00     0.172 C 
BRANCH  16  17
ATOM     17  C   UNL A   1      32.830  19.494  24.388  1.00  0.00     0.060 A 
ATOM     18  C   UNL A   1      34.660  16.316  24.679  1.00  0.00     0.067 C 
ATOM     19  C   UNL A   1      33.805  17.403  24.103  1.00  0.00     0.038 A 
ATOM     20  C   UNL A   1      33.183  17.230  22.869  1.00  0.00     0.023 A 
ATOM     21  N   UNL A   1      33.662  18.527  24.851  1.00  0.00    -0.256 NA
ATOM     22  C   UNL A   1      32.409  18.263  22.360  1.00  0.00     0.004 A 
ATOM     23  C   UNL A   1      32.249  19.419  23.113  1.00  0.00     0.026 A 
ENDBRANCH  16  17
ENDBRANCH  14  16
ENDBRANCH   9  14
BRANCH  11  24
ATOM     24  N   UNL A   1      32.221  22.988  22.320  1.00  0.00    -0.397 N 
ATOM     25  H   UNL A   1      32.793  22.191  22.256  1.00  0.00     0.156 HD
ATOM     26  H   UNL A   1      32.049  23.536  21.519  1.00  0.00     0.156 HD
ENDBRANCH  11  24
ENDBRANCH   5   8
ENDBRANCH   3   4
ENDBRANCH   2   3
ENDBRANCH   1   2
BRANCH   1  27
ATOM     27  C   UNL A   1      31.442  29.674  26.682  1.00  0.00     0.002 C 
BRANCH  27  28
ATOM     28  C   UNL A   1      31.452  31.191  26.490  1.00  0.00     0.021 C 
BRANCH  28  29
ATOM     29  C   UNL A   1      32.785  31.844  26.835  1.00  0.00     0.116 C 
BRANCH  29  30
ATOM     30  N   UNL A   1      32.603  33.224  27.261  1.00  0.00    -0.352 N 
ATOM     31  C   UNL A   1      33.246  33.910  28.264  1.00  0.00     0.251 C 
ATOM     32  H   UNL A   1      31.925  33.737  26.764  1.00  0.00     0.163 HD
ATOM     33  O   UNL A   1      32.797  34.970  28.674  1.00  0.00    -0.269 OA
BRANCH  31  34
ATOM     34  C   UNL A   1      34.478  33.334  28.843  1.00  0.00     0.039 A 
ATOM     35  C   UNL A   1      35.674  34.048  28.761  1.00  0.00     0.014 A 
ATOM     36  C   UNL A   1      34.432  32.095  29.489  1.00  0.00     0.014 A 
ATOM     37  C   UNL A   1      36.815  33.550  29.391  1.00  0.00     0.010 A 
ATOM     38  C   UNL A   1      35.548  31.640  30.180  1.00  0.00     0.010 A 
ATOM     39  C   UNL A   1      36.751  32.362  30.139  1.00  0.00    -0.014 A 
BRANCH  39  40
ATOM     40  C   UNL A   1      37.926  31.846  30.889  1.00  0.00     0.031 A 
ATOM     41  C   UNL A   1      38.750  30.732  30.308  1.00  0.00     0.074 A 
ATOM     42  C   UNL A   1      38.193  32.319  32.123  1.00  0.00     0.049 A 
ATOM     43  N   UNL A   1      39.722  30.049  30.854  1.00  0.00    -0.248 NA
ATOM     44  C   UNL A   1      38.411  30.309  28.941  1.00  0.00     0.031 C 
ATOM     45  C   UNL A   1      37.447  33.383  32.801  1.00  0.00     0.029 A 
ATOM     46  N   UNL A   1      39.154  31.958  33.034  1.00  0.00    -0.354 N 
ATOM     47  C   UNL A   1      40.101  29.107  29.905  1.00  0.00     0.074 A 
ATOM     48  C   UNL A   1      39.210  29.266  28.776  1.00  0.00     0.031 C 
ATOM     49  C   UNL A   1      37.991  33.600  34.009  1.00  0.00     0.029 A 
ATOM     50  C   UNL A   1      39.083  32.654  34.220  1.00  0.00     0.049 A 
ATOM     51  H   UNL A   1      39.830  31.266  32.856  1.00  0.00     0.167 HD
ATOM     52  C   UNL A   1      41.113  28.206  29.964  1.00  0.00     0.034 A 
ATOM     53  C   UNL A   1      39.798  32.528  35.356  1.00  0.00     0.034 A 
ATOM     54  C   UNL A   1      41.996  28.069  31.096  1.00  0.00     0.049 A 
ATOM     55  C   UNL A   1      40.886  31.483  35.416  1.00  0.00     0.074 A 
ATOM     56  C   UNL A   1      43.083  27.225  31.243  1.00  0.00     0.029 A 
ATOM     57  N   UNL A   1      41.889  28.786  32.280  1.00  0.00    -0.354 N 
ATOM     58  N   UNL A   1      41.258  30.623  34.495  1.00  0.00    -0.248 NA
ATOM     59  C   UNL A   1      41.654  31.395  36.665  1.00  0.00     0.031 C 
ATOM     60  C   UNL A   1      43.581  27.373  32.540  1.00  0.00     0.029 A 
ATOM     61  C   UNL A   1      42.866  28.375  33.175  1.00  0.00     0.049 A 
ATOM     62  H   UNL A   1      41.218  29.484  32.459  1.00  0.00     0.167 HD
ATOM     63  C   UNL A   1      42.328  29.920  35.043  1.00  0.00     0.074 A 
ATOM     64  C   UNL A   1      42.545  30.461  36.369  1.00  0.00     0.031 C 
ATOM     65  C   UNL A   1      43.069  28.923  34.497  1.00  0.00     0.034 A 
BRANCH  52  66
ATOM     66  C   UNL A   1      41.295  27.282  28.781  1.00  0.00     0.023 A 
ATOM     67  C   UNL A   1      42.320  27.480  27.839  1.00  0.00     0.031 A 
ATOM     68  C   UNL A   1      40.417  26.203  28.579  1.00  0.00     0.131 A 
ATOM     69  C   UNL A   1      42.394  26.663  26.702  1.00  0.00     0.055 A 
ATOM     70  C   UNL A   1      40.551  25.339  27.491  1.00  0.00     0.041 A 
ATOM     71  F   UNL A   1      39.404  25.976  29.429  1.00  0.00    -0.206 F 
ATOM     72  C   UNL A   1      41.534  25.575  26.535  1.00  0.00     0.022 A 
BRANCH  69  73
ATOM     73  S   UNL A   1      43.530  27.137  25.370  1.00  0.00     0.124 S 
ATOM     74  O   UNL A   1      44.567  27.854  26.111  1.00  0.00    -0.237 OA
ATOM     75  O   UNL A   1      43.919  25.848  24.813  1.00  0.00    -0.237 OA
ATOM     76  O   UNL A   1      42.706  27.974  24.499  1.00  0.00    -0.744 OA
ENDBRANCH  69  73
ENDBRANCH  52  66
BRANCH  53  77
ATOM     77  C   UNL A   1      39.504  33.391  36.537  1.00  0.00     0.023 A 
ATOM     78  C   UNL A   1      40.273  34.535  36.804  1.00  0.00     0.031 A 
ATOM     79  C   UNL A   1      38.481  33.060  37.443  1.00  0.00     0.131 A 
ATOM     80  C   UNL A   1      40.043  35.276  37.974  1.00  0.00     0.055 A 
ATOM     81  C   UNL A   1      38.214  33.836  38.573  1.00  0.00     0.041 A 
ATOM     82  F   UNL A   1      37.713  31.978  37.236  1.00  0.00    -0.206 F 
ATOM     83  C   UNL A   1      39.009  34.943  38.852  1.00  0.00     0.022 A 
BRANCH  80  84
ATOM     84  S   UNL A   1      41.184  36.623  38.385  1.00  0.00     0.124 S 
ATOM     85  O   UNL A   1      41.846  36.851  37.105  1.00  0.00    -0.237 OA
ATOM     86  O   UNL A   1      40.270  37.668  38.833  1.00  0.00    -0.237 OA
ATOM     87  O   UNL A   1      42.028  36.046  39.430  1.00  0.00    -0.744 OA
ENDBRANCH  80  84
ENDBRANCH  53  77
BRANCH  65  88
ATOM     88  C   UNL A   1      44.223  28.390  35.311  1.00  0.00     0.023 A 
ATOM     89  C   UNL A   1      44.039  27.452  36.340  1.00  0.00     0.031 A 
ATOM     90  C   UNL A   1      45.534  28.823  35.036  1.00  0.00     0.131 A 
ATOM     91  C   UNL A   1      45.142  27.009  37.088  1.00  0.00     0.055 A 
ATOM     92  C   UNL A   1      46.633  28.332  35.741  1.00  0.00     0.041 A 
ATOM     93  F   UNL A   1      45.768  29.722  34.068  1.00  0.00    -0.206 F 
ATOM     94  C   UNL A   1      46.439  27.427  36.780  1.00  0.00     0.022 A 
BRANCH  91  95
ATOM     95  S   UNL A   1      44.850  25.939  38.522  1.00  0.00     0.124 S 
ATOM     96  O   UNL A   1      46.014  26.223  39.355  1.00  0.00    -0.237 OA
ATOM     97  O   UNL A   1      43.571  26.430  39.025  1.00  0.00    -0.237 OA
ATOM     98  O   UNL A   1      44.813  24.595  37.945  1.00  0.00    -0.744 OA
ENDBRANCH  91  95
ENDBRANCH  65  88
ENDBRANCH  39  40
ENDBRANCH  31  34
ENDBRANCH  29  30
ENDBRANCH  28  29
ENDBRANCH  27  28
ENDBRANCH   1  27
TORSDOF 20
ENDMDL
MODEL 3
REMARK VINA RESULT:     -11.0      6.092     10.156
REMARK SMILES Cc1cccc(CN(C)c2ccc(C(=O)NCCCCCCNC(=O)c3ccc(-c4c5nc(c(-c6cc(S(=O)(=O)[O-])ccc6F)c6ccc([nH]6)c(-c6cc(S(=O)(=O)[O-])ccc6F)c6nc(c(-c7cc(S(=O)(=O)[O-])ccc7F)c7ccc4[nH]7)C=C6)C=C5)cc3)cc2N)n1
REMARK SMILES IDX 19 1 18 2 17 3 16 4 14 5 15 6 13 8 10 9 11 10 90 11 12 12
REMARK SMILES IDX 89 13 8 14 9 15 7 16 6 17 1 18 2 19 3 20 92 21 4 22 5 23
REMARK SMILES IDX 91 24 20 27 21 28 22 29 23 30 24 31 25 33 26 34 27 35 88 36
REMARK SMILES IDX 28 37 87 38 29 39 30 40 31 41 81 42 32 43 86 44 80 45 82 46
REMARK SMILES IDX 33 47 85 48 79 49 78 50 34 52 66 53 46 54 65 55 47 56 50 57
REMARK SMILES IDX 64 58 83 59 48 60 49 61 63 63 84 64 51 65 35 66 36 67 44 68
REMARK SMILES IDX 37 69 43 70 45 71 42 72 38 73 39 74 40 75 41 76 67 77 68 78
REMARK SMILES IDX 76 79 69 80 75 81 77 82 74 83 70 84 71 85 72 86 73 87 52 88
REMARK SMILES IDX 53 89 61 90 54 91 60 92 62 93 59 94 55 95 56 96 57 97 58 98
REMARK H PARENT 16 7 91 25 91 26 23 32 82 51 50 62
REMARK Flexibility Score: inf
ROOT
ATOM      1  C   UNL A   1      39.214  23.306  26.181  1.00  0.00     0.002 C 
ENDROOT
BRANCH   1   2
ATOM      2  C   UNL A   1      37.715  22.991  26.106  1.00  0.00     0.021 C 
BRANCH   2   3
ATOM      3  C   UNL A   1      37.316  22.431  24.735  1.00  0.00     0.116 C 
BRANCH   3   4
ATOM      4  N   UNL A   1      36.005  21.806  24.816  1.00  0.00    -0.352 N 
ATOM      5  C   UNL A   1      34.723  22.283  24.680  1.00  0.00     0.251 C 
ATOM      6  O   UNL A   1      33.801  21.480  24.841  1.00  0.00    -0.269 OA
ATOM      7  H   UNL A   1      36.045  20.841  25.006  1.00  0.00     0.163 HD
BRANCH   5   8
ATOM      8  C   UNL A   1      34.403  23.679  24.273  1.00  0.00     0.041 A 
ATOM      9  C   UNL A   1      33.505  26.335  23.657  1.00  0.00     0.060 A 
ATOM     10  C   UNL A   1      34.096  26.010  24.893  1.00  0.00     0.029 A 
ATOM     11  C   UNL A   1      33.219  25.214  22.861  1.00  0.00     0.056 A 
ATOM     12  C   UNL A   1      34.476  24.695  25.226  1.00  0.00     0.016 A 
ATOM     13  C   UNL A   1      33.911  24.017  23.030  1.00  0.00     0.041 A 
BRANCH   9  14
ATOM     14  N   UNL A   1      33.298  27.646  23.227  1.00  0.00    -0.367 N 
ATOM     15  C   UNL A   1      34.086  28.213  22.131  1.00  0.00     0.144 C 
BRANCH  14  16
ATOM     16  C   UNL A   1      32.278  28.608  23.753  1.00  0.00     0.172 C 
BRANCH  16  17
ATOM     17  C   UNL A   1      30.818  28.524  23.306  1.00  0.00     0.060 A 
ATOM     18  C   UNL A   1      27.869  26.444  24.020  1.00  0.00     0.067 C 
ATOM     19  C   UNL A   1      28.708  27.564  23.486  1.00  0.00     0.038 A 
ATOM     20  C   UNL A   1      28.115  28.630  22.816  1.00  0.00     0.023 A 
ATOM     21  N   UNL A   1      30.045  27.484  23.711  1.00  0.00    -0.256 NA
ATOM     22  C   UNL A   1      28.924  29.643  22.323  1.00  0.00     0.004 A 
ATOM     23  C   UNL A   1      30.294  29.580  22.546  1.00  0.00     0.026 A 
ENDBRANCH  16  17
ENDBRANCH  14  16
ENDBRANCH   9  14
BRANCH  11  24
ATOM     24  N   UNL A   1      32.015  25.096  22.148  1.00  0.00    -0.397 N 
ATOM     25  H   UNL A   1      31.318  24.475  22.458  1.00  0.00     0.156 HD
ATOM     26  H   UNL A   1      31.868  25.636  21.338  1.00  0.00     0.156 HD
ENDBRANCH  11  24
ENDBRANCH   5   8
ENDBRANCH   3   4
ENDBRANCH   2   3
ENDBRANCH   1   2
BRANCH   1  27
ATOM     27  C   UNL A   1      40.018  22.319  27.037  1.00  0.00     0.002 C 
BRANCH  27  28
ATOM     28  C   UNL A   1      40.173  20.925  26.428  1.00  0.00     0.021 C 
BRANCH  28  29
ATOM     29  C   UNL A   1      41.101  20.010  27.219  1.00  0.00     0.116 C 
BRANCH  29  30
ATOM     30  N   UNL A   1      42.056  19.343  26.347  1.00  0.00    -0.352 N 
ATOM     31  C   UNL A   1      43.047  19.894  25.570  1.00  0.00     0.251 C 
ATOM     32  H   UNL A   1      41.981  18.362  26.306  1.00  0.00     0.163 HD
ATOM     33  O   UNL A   1      43.585  19.233  24.694  1.00  0.00    -0.269 OA
BRANCH  31  34
ATOM     34  C   UNL A   1      43.436  21.300  25.806  1.00  0.00     0.039 A 
ATOM     35  C   UNL A   1      43.239  22.245  24.797  1.00  0.00     0.014 A 
ATOM     36  C   UNL A   1      43.971  21.679  27.039  1.00  0.00     0.014 A 
ATOM     37  C   UNL A   1      43.515  23.589  25.053  1.00  0.00     0.010 A 
ATOM     38  C   UNL A   1      44.172  23.026  27.317  1.00  0.00     0.010 A 
ATOM     39  C   UNL A   1      43.946  23.995  26.326  1.00  0.00    -0.014 A 
BRANCH  39  40
ATOM     40  C   UNL A   1      44.171  25.426  26.657  1.00  0.00     0.031 A 
ATOM     41  C   UNL A   1      45.551  26.010  26.536  1.00  0.00     0.074 A 
ATOM     42  C   UNL A   1      43.158  26.169  27.145  1.00  0.00     0.049 A 
ATOM     43  N   UNL A   1      45.988  27.187  26.902  1.00  0.00    -0.248 NA
ATOM     44  C   UNL A   1      46.584  25.139  25.955  1.00  0.00     0.031 C 
ATOM     45  C   UNL A   1      41.781  25.703  27.329  1.00  0.00     0.029 A 
ATOM     46  N   UNL A   1      43.130  27.467  27.590  1.00  0.00    -0.354 N 
ATOM     47  C   UNL A   1      47.347  27.194  26.611  1.00  0.00     0.074 A 
ATOM     48  C   UNL A   1      47.673  25.880  26.098  1.00  0.00     0.031 C 
ATOM     49  C   UNL A   1      41.041  26.706  27.830  1.00  0.00     0.029 A 
ATOM     50  C   UNL A   1      41.898  27.865  28.060  1.00  0.00     0.049 A 
ATOM     51  H   UNL A   1      43.917  28.058  27.575  1.00  0.00     0.167 HD
ATOM     52  C   UNL A   1      48.236  28.209  26.741  1.00  0.00     0.034 A 
ATOM     53  C   UNL A   1      41.509  29.022  28.632  1.00  0.00     0.034 A 
ATOM     54  C   UNL A   1      47.889  29.514  27.247  1.00  0.00     0.049 A 
ATOM     55  C   UNL A   1      42.529  30.121  28.814  1.00  0.00     0.074 A 
ATOM     56  C   UNL A   1      48.697  30.630  27.375  1.00  0.00     0.029 A 
ATOM     57  N   UNL A   1      46.634  29.878  27.718  1.00  0.00    -0.354 N 
ATOM     58  N   UNL A   1      43.804  30.125  28.498  1.00  0.00    -0.248 NA
ATOM     59  C   UNL A   1      42.057  31.371  29.422  1.00  0.00     0.031 C 
ATOM     60  C   UNL A   1      47.956  31.640  27.997  1.00  0.00     0.029 A 
ATOM     61  C   UNL A   1      46.658  31.188  28.173  1.00  0.00     0.049 A 
ATOM     62  H   UNL A   1      45.843  29.292  27.729  1.00  0.00     0.167 HD
ATOM     63  C   UNL A   1      44.275  31.391  28.836  1.00  0.00     0.074 A 
ATOM     64  C   UNL A   1      43.146  32.124  29.372  1.00  0.00     0.031 C 
ATOM     65  C   UNL A   1      45.524  31.905  28.708  1.00  0.00     0.034 A 
BRANCH  52  66
ATOM     66  C   UNL A   1      49.671  27.934  26.357  1.00  0.00     0.023 A 
ATOM     67  C   UNL A   1      50.133  28.118  25.042  1.00  0.00     0.031 A 
ATOM     68  C   UNL A   1      50.586  27.457  27.313  1.00  0.00     0.131 A 
ATOM     69  C   UNL A   1      51.445  27.755  24.703  1.00  0.00     0.055 A 
ATOM     70  C   UNL A   1      51.915  27.182  26.988  1.00  0.00     0.041 A 
ATOM     71  F   UNL A   1      50.199  27.238  28.579  1.00  0.00    -0.206 F 
ATOM     72  C   UNL A   1      52.349  27.316  25.673  1.00  0.00     0.022 A 
BRANCH  69  73
ATOM     73  S   UNL A   1      51.905  27.720  22.949  1.00  0.00     0.124 S 
ATOM     74  O   UNL A   1      50.749  27.049  22.356  1.00  0.00    -0.237 OA
ATOM     75  O   UNL A   1      52.053  29.135  22.632  1.00  0.00    -0.237 OA
ATOM     76  O   UNL A   1      53.142  26.942  22.935  1.00  0.00    -0.744 OA
ENDBRANCH  69  73
ENDBRANCH  52  66
BRANCH  53  77
ATOM     77  C   UNL A   1      40.103  29.204  29.097  1.00  0.00     0.023 A 
ATOM     78  C   UNL A   1      39.778  29.124  30.460  1.00  0.00     0.031 A 
ATOM     79  C   UNL A   1      39.056  29.412  28.182  1.00  0.00     0.131 A 
ATOM     80  C   UNL A   1      38.436  29.199  30.865  1.00  0.00     0.055 A 
ATOM     81  C   UNL A   1      37.729  29.547  28.594  1.00  0.00     0.041 A 
ATOM     82  F   UNL A   1      39.309  29.497  26.866  1.00  0.00    -0.206 F 
ATOM     83  C   UNL A   1      37.411  29.425  29.943  1.00  0.00     0.022 A 
BRANCH  80  84
ATOM     84  S   UNL A   1      38.038  28.891  32.607  1.00  0.00     0.124 S 
ATOM     85  O   UNL A   1      38.143  27.438  32.681  1.00  0.00    -0.237 OA
ATOM     86  O   UNL A   1      39.079  29.647  33.293  1.00  0.00    -0.237 OA
ATOM     87  O   UNL A   1      36.685  29.427  32.746  1.00  0.00    -0.744 OA
ENDBRANCH  80  84
ENDBRANCH  53  77
BRANCH  65  88
ATOM     88  C   UNL A   1      45.724  33.349  29.102  1.00  0.00     0.023 A 
ATOM     89  C   UNL A   1      45.571  34.400  28.182  1.00  0.00     0.031 A 
ATOM     90  C   UNL A   1      46.059  33.675  30.429  1.00  0.00     0.131 A 
ATOM     91  C   UNL A   1      45.796  35.724  28.589  1.00  0.00     0.055 A 
ATOM     92  C   UNL A   1      46.220  34.997  30.843  1.00  0.00     0.041 A 
ATOM     93  F   UNL A   1      46.223  32.711  31.349  1.00  0.00    -0.206 F 
ATOM     94  C   UNL A   1      46.099  36.030  29.919  1.00  0.00     0.022 A 
BRANCH  91  95
ATOM     95  S   UNL A   1      45.768  37.038  27.341  1.00  0.00     0.124 S 
ATOM     96  O   UNL A   1      44.340  37.315  27.224  1.00  0.00    -0.237 OA
ATOM     97  O   UNL A   1      46.570  38.084  27.967  1.00  0.00    -0.237 OA
ATOM     98  O   UNL A   1      46.375  36.410  26.168  1.00  0.00    -0.744 OA
ENDBRANCH  91  95
ENDBRANCH  65  88
ENDBRANCH  39  40
ENDBRANCH  31  34
ENDBRANCH  29  30
ENDBRANCH  28  29
ENDBRANCH  27  28
ENDBRANCH   1  27
TORSDOF 20
ENDMDL
