MODEL 1
REMARK VINA RESULT:     -11.7      0.000      0.000
REMARK SMILES O=C(NCCCCCCNC(=O)c1cccc(Br)c1O[C@@H]1CCOC2(CCC2)C1)c1ccc(-c2c3nc(c(-c4cc(S(=O)(=O)[O-])ccc4F)c4ccc([nH]4)c(-c4cc(S(=O)(=O)[O-])ccc4F)c4nc(c(-c5cc(S(=O)(=O)[O-])ccc5F)c5ccc2[nH]5)C=C4)C=C3)cc1
REMARK SMILES IDX 6 1 5 2 4 3 3 4 1 5 2 6 30 8 31 9 92 10 32 11 91 12 33 13
REMARK SMILES IDX 34 14 35 15 85 16 36 17 90 18 84 19 86 20 37 21 89 22 83 23
REMARK SMILES IDX 82 24 38 26 70 27 50 28 69 29 51 30 54 31 68 32 87 33 52 34
REMARK SMILES IDX 53 35 67 37 88 38 55 39 39 40 40 41 48 42 41 43 47 44 49 45
REMARK SMILES IDX 46 46 42 47 43 48 44 49 45 50 71 51 72 52 80 53 73 54 79 55
REMARK SMILES IDX 81 56 78 57 74 58 75 59 76 60 77 61 56 62 57 63 65 64 58 65
REMARK SMILES IDX 64 66 66 67 63 68 59 69 60 70 61 71 62 72 7 73 8 74 9 75
REMARK SMILES IDX 10 76 11 77 12 79 13 80 14 81 19 82 15 83 17 84 16 85 18 86
REMARK SMILES IDX 20 87 21 88 22 89 29 90 23 91 25 92 24 93 26 94 28 95 27 96
REMARK H PARENT 3 7 86 25 54 36 10 78
REMARK Flexibility Score: inf
ROOT
ATOM      1  C   UNL A   1      31.563  30.154  26.137  1.00  0.00     0.002 C 
ENDROOT
BRANCH   1   2
ATOM      2  C   UNL A   1      31.423  31.635  26.479  1.00  0.00     0.021 C 
BRANCH   2   3
ATOM      3  C   UNL A   1      32.707  32.298  26.948  1.00  0.00     0.116 C 
BRANCH   3   4
ATOM      4  N   UNL A   1      32.490  33.637  27.477  1.00  0.00    -0.352 N 
ATOM      5  O   UNL A   1      32.783  35.369  28.899  1.00  0.00    -0.269 OA
ATOM      6  C   UNL A   1      33.188  34.297  28.463  1.00  0.00     0.251 C 
ATOM      7  H   UNL A   1      31.743  34.137  27.075  1.00  0.00     0.163 HD
BRANCH   6   8
ATOM      8  C   UNL A   1      34.422  33.684  29.002  1.00  0.00     0.039 A 
ATOM      9  C   UNL A   1      34.340  32.514  29.756  1.00  0.00     0.014 A 
ATOM     10  C   UNL A   1      35.658  34.300  28.791  1.00  0.00     0.014 A 
ATOM     11  C   UNL A   1      35.454  32.066  30.448  1.00  0.00     0.010 A 
ATOM     12  C   UNL A   1      36.808  33.769  29.390  1.00  0.00     0.010 A 
ATOM     13  C   UNL A   1      36.711  32.664  30.248  1.00  0.00    -0.014 A 
BRANCH  13  14
ATOM     14  C   UNL A   1      37.895  32.039  30.896  1.00  0.00     0.031 A 
ATOM     15  C   UNL A   1      38.273  32.337  32.320  1.00  0.00     0.074 A 
ATOM     16  C   UNL A   1      38.589  31.124  30.186  1.00  0.00     0.049 A 
ATOM     17  N   UNL A   1      39.238  31.818  33.039  1.00  0.00    -0.248 NA
ATOM     18  C   UNL A   1      37.478  33.350  33.029  1.00  0.00     0.031 C 
ATOM     19  C   UNL A   1      38.318  30.769  28.788  1.00  0.00     0.029 A 
ATOM     20  N   UNL A   1      39.626  30.301  30.537  1.00  0.00    -0.354 N 
ATOM     21  C   UNL A   1      39.169  32.437  34.282  1.00  0.00     0.074 A 
ATOM     22  C   UNL A   1      38.095  33.407  34.202  1.00  0.00     0.031 C 
ATOM     23  C   UNL A   1      39.113  29.754  28.428  1.00  0.00     0.029 A 
ATOM     24  C   UNL A   1      40.017  29.451  29.528  1.00  0.00     0.049 A 
ATOM     25  H   UNL A   1      40.051  30.316  31.425  1.00  0.00     0.167 HD
ATOM     26  C   UNL A   1      39.922  32.207  35.387  1.00  0.00     0.034 A 
ATOM     27  C   UNL A   1      41.012  28.545  29.477  1.00  0.00     0.034 A 
ATOM     28  C   UNL A   1      40.998  31.243  35.440  1.00  0.00     0.049 A 
ATOM     29  C   UNL A   1      41.860  28.345  30.703  1.00  0.00     0.074 A 
ATOM     30  C   UNL A   1      41.826  30.932  36.507  1.00  0.00     0.029 A 
ATOM     31  N   UNL A   1      41.402  30.436  34.383  1.00  0.00    -0.354 N 
ATOM     32  N   UNL A   1      41.771  28.935  31.873  1.00  0.00    -0.248 NA
ATOM     33  C   UNL A   1      42.936  27.353  30.605  1.00  0.00     0.031 C 
ATOM     34  C   UNL A   1      42.769  29.992  36.076  1.00  0.00     0.029 A 
ATOM     35  C   UNL A   1      42.481  29.649  34.765  1.00  0.00     0.049 A 
ATOM     36  H   UNL A   1      40.984  30.424  33.492  1.00  0.00     0.167 HD
ATOM     37  C   UNL A   1      42.773  28.373  32.655  1.00  0.00     0.074 A 
ATOM     38  C   UNL A   1      43.422  27.369  31.835  1.00  0.00     0.031 C 
ATOM     39  C   UNL A   1      43.133  28.666  33.931  1.00  0.00     0.034 A 
BRANCH  26  40
ATOM     40  C   UNL A   1      39.631  33.033  36.619  1.00  0.00     0.023 A 
ATOM     41  C   UNL A   1      38.896  32.512  37.700  1.00  0.00     0.031 A 
ATOM     42  C   UNL A   1      40.098  34.356  36.722  1.00  0.00     0.131 A 
ATOM     43  C   UNL A   1      38.602  33.324  38.806  1.00  0.00     0.055 A 
ATOM     44  C   UNL A   1      39.868  35.134  37.859  1.00  0.00     0.041 A 
ATOM     45  F   UNL A   1      40.787  34.918  35.715  1.00  0.00    -0.206 F 
ATOM     46  C   UNL A   1      39.106  34.623  38.905  1.00  0.00     0.022 A 
BRANCH  43  47
ATOM     47  S   UNL A   1      37.447  32.699  40.057  1.00  0.00     0.124 S 
ATOM     48  O   UNL A   1      37.734  33.577  41.190  1.00  0.00    -0.237 OA
ATOM     49  O   UNL A   1      36.152  32.891  39.415  1.00  0.00    -0.237 OA
ATOM     50  O   UNL A   1      37.854  31.308  40.238  1.00  0.00    -0.744 OA
ENDBRANCH  43  47
ENDBRANCH  26  40
BRANCH  27  51
ATOM     51  C   UNL A   1      41.293  27.806  28.212  1.00  0.00     0.023 A 
ATOM     52  C   UNL A   1      40.948  26.455  28.062  1.00  0.00     0.031 A 
ATOM     53  C   UNL A   1      41.961  28.438  27.146  1.00  0.00     0.131 A 
ATOM     54  C   UNL A   1      41.324  25.765  26.898  1.00  0.00     0.055 A 
ATOM     55  C   UNL A   1      42.265  27.767  25.962  1.00  0.00     0.041 A 
ATOM     56  F   UNL A   1      42.315  29.730  27.234  1.00  0.00    -0.206 F 
ATOM     57  C   UNL A   1      41.963  26.415  25.840  1.00  0.00     0.022 A 
BRANCH  54  58
ATOM     58  S   UNL A   1      41.071  23.970  26.837  1.00  0.00     0.124 S 
ATOM     59  O   UNL A   1      39.662  23.882  26.470  1.00  0.00    -0.237 OA
ATOM     60  O   UNL A   1      42.028  23.565  25.813  1.00  0.00    -0.237 OA
ATOM     61  O   UNL A   1      41.392  23.536  28.195  1.00  0.00    -0.744 OA
ENDBRANCH  54  58
ENDBRANCH  27  51
BRANCH  39  62
ATOM     62  C   UNL A   1      44.267  27.855  34.514  1.00  0.00     0.023 A 
ATOM     63  C   UNL A   1      44.060  26.560  35.022  1.00  0.00     0.031 A 
ATOM     64  C   UNL A   1      45.557  28.405  34.613  1.00  0.00     0.131 A 
ATOM     65  C   UNL A   1      45.102  25.894  35.684  1.00  0.00     0.055 A 
ATOM     66  C   UNL A   1      46.610  27.705  35.204  1.00  0.00     0.041 A 
ATOM     67  F   UNL A   1      45.813  29.638  34.150  1.00  0.00    -0.206 F 
ATOM     68  C   UNL A   1      46.381  26.450  35.761  1.00  0.00     0.022 A 
BRANCH  65  69
ATOM     69  S   UNL A   1      44.725  24.353  36.563  1.00  0.00     0.124 S 
ATOM     70  O   UNL A   1      45.919  23.556  36.303  1.00  0.00    -0.237 OA
ATOM     71  O   UNL A   1      44.551  24.812  37.937  1.00  0.00    -0.237 OA
ATOM     72  O   UNL A   1      43.507  23.876  35.910  1.00  0.00    -0.744 OA
ENDBRANCH  65  69
ENDBRANCH  39  62
ENDBRANCH  13  14
ENDBRANCH   6   8
ENDBRANCH   3   4
ENDBRANCH   2   3
ENDBRANCH   1   2
BRANCH   1  73
ATOM     73  C   UNL A   1      31.834  29.229  27.327  1.00  0.00     0.002 C 
BRANCH  73  74
ATOM     74  C   UNL A   1      33.142  28.438  27.259  1.00  0.00     0.021 C 
BRANCH  74  75
ATOM     75  C   UNL A   1      33.016  27.089  26.570  1.00  0.00     0.116 C 
BRANCH  75  76
ATOM     76  N   UNL A   1      31.773  26.399  26.901  1.00  0.00    -0.352 N 
ATOM     77  C   UNL A   1      30.712  26.109  26.074  1.00  0.00     0.255 C 
ATOM     78  H   UNL A   1      31.682  26.104  27.836  1.00  0.00     0.163 HD
ATOM     79  O   UNL A   1      29.714  25.539  26.517  1.00  0.00    -0.269 OA
BRANCH  77  80
ATOM     80  C   UNL A   1      30.833  26.462  24.648  1.00  0.00     0.083 A 
ATOM     81  C   UNL A   1      30.279  27.716  24.282  1.00  0.00     0.018 A 
ATOM     82  C   UNL A   1      31.434  25.604  23.709  1.00  0.00     0.146 A 
ATOM     83  C   UNL A   1      30.129  28.068  22.955  1.00  0.00     0.002 A 
ATOM     84  C   UNL A   1      31.464  26.125  22.391  1.00  0.00     0.060 A 
ATOM     85  C   UNL A   1      30.700  27.250  22.003  1.00  0.00     0.019 A 
ATOM     86  Br  UNL A   1      32.745  25.686  21.051  1.00  0.00    -0.047 Br
BRANCH  82  87
ATOM     87  O   UNL A   1      32.160  24.534  24.150  1.00  0.00    -0.488 OA
BRANCH  87  88
ATOM     88  C   UNL A   1      32.038  23.081  23.975  1.00  0.00     0.178 C 
ATOM     89  C   UNL A   1      31.529  22.595  25.321  1.00  0.00     0.074 C 
ATOM     90  C   UNL A   1      33.124  21.993  23.643  1.00  0.00     0.080 C 
ATOM     91  C   UNL A   1      32.731  22.541  26.267  1.00  0.00     0.165 C 
ATOM     92  C   UNL A   1      34.390  22.342  24.388  1.00  0.00     0.072 C 
ATOM     93  O   UNL A   1      33.977  22.968  25.643  1.00  0.00    -0.375 OA
ATOM     94  C   UNL A   1      35.836  21.699  24.588  1.00  0.00     0.036 C 
ATOM     95  C   UNL A   1      35.108  23.050  23.189  1.00  0.00     0.036 C 
ATOM     96  C   UNL A   1      36.417  22.979  23.923  1.00  0.00     0.006 C 
ENDBRANCH  87  88
ENDBRANCH  82  87
ENDBRANCH  77  80
ENDBRANCH  75  76
ENDBRANCH  74  75
ENDBRANCH  73  74
ENDBRANCH   1  73
TORSDOF 18
ENDMDL
MODEL 2
REMARK VINA RESULT:     -11.4      1.738      2.362
REMARK SMILES O=C(NCCCCCCNC(=O)c1cccc(Br)c1O[C@@H]1CCOC2(CCC2)C1)c1ccc(-c2c3nc(c(-c4cc(S(=O)(=O)[O-])ccc4F)c4ccc([nH]4)c(-c4cc(S(=O)(=O)[O-])ccc4F)c4nc(c(-c5cc(S(=O)(=O)[O-])ccc5F)c5ccc2[nH]5)C=C4)C=C3)cc1
REMARK SMILES IDX 6 1 5 2 4 3 3 4 1 5 2 6 30 8 31 9 92 10 32 11 91 12 33 13
REMARK SMILES IDX 34 14 35 15 85 16 36 17 90 18 84 19 86 20 37 21 89 22 83 23
REMARK SMILES IDX 82 24 38 26 70 27 50 28 69 29 51 30 54 31 68 32 87 33 52 34
REMARK SMILES IDX 53 35 67 37 88 38 55 39 39 40 40 41 48 42 41 43 47 44 49 45
REMARK SMILES IDX 46 46 42 47 43 48 44 49 45 50 71 51 72 52 80 53 73 54 79 55
REMARK SMILES IDX 81 56 78 57 74 58 75 59 76 60 77 61 56 62 57 63 65 64 58 65
REMARK SMILES IDX 64 66 66 67 63 68 59 69 60 70 61 71 62 72 7 73 8 74 9 75
REMARK SMILES IDX 10 76 11 77 12 79 13 80 14 81 19 82 15 83 17 84 16 85 18 86
REMARK SMILES IDX 20 87 21 88 22 89 29 90 23 91 25 92 24 93 26 94 28 95 27 96
REMARK H PARENT 3 7 86 25 54 36 10 78
REMARK Flexibility Score: inf
ROOT
ATOM      1  C   UNL A   1      31.822  30.442  25.752  1.00  0.00     0.002 C 
ENDROOT
BRANCH   1   2
ATOM      2  C   UNL A   1      31.729  31.361  26.967  1.00  0.00     0.021 C 
BRANCH   2   3
ATOM      3  C   UNL A   1      32.975  32.191  27.227  1.00  0.00     0.116 C 
BRANCH   3   4
ATOM      4  N   UNL A   1      32.670  33.570  27.581  1.00  0.00    -0.352 N 
ATOM      5  O   UNL A   1      32.750  35.446  28.839  1.00  0.00    -0.269 OA
ATOM      6  C   UNL A   1      33.225  34.347  28.573  1.00  0.00     0.251 C 
ATOM      7  H   UNL A   1      31.974  34.005  27.038  1.00  0.00     0.163 HD
BRANCH   6   8
ATOM      8  C   UNL A   1      34.389  33.829  29.325  1.00  0.00     0.039 A 
ATOM      9  C   UNL A   1      35.674  34.249  28.987  1.00  0.00     0.014 A 
ATOM     10  C   UNL A   1      34.200  32.889  30.342  1.00  0.00     0.014 A 
ATOM     11  C   UNL A   1      36.772  33.600  29.529  1.00  0.00     0.010 A 
ATOM     12  C   UNL A   1      35.313  32.327  30.980  1.00  0.00     0.010 A 
ATOM     13  C   UNL A   1      36.610  32.656  30.559  1.00  0.00    -0.014 A 
BRANCH  13  14
ATOM     14  C   UNL A   1      37.833  32.113  31.210  1.00  0.00     0.031 A 
ATOM     15  C   UNL A   1      38.286  32.582  32.565  1.00  0.00     0.074 A 
ATOM     16  C   UNL A   1      38.492  31.119  30.579  1.00  0.00     0.049 A 
ATOM     17  N   UNL A   1      39.293  32.153  33.286  1.00  0.00    -0.248 NA
ATOM     18  C   UNL A   1      37.525  33.673  33.189  1.00  0.00     0.031 C 
ATOM     19  C   UNL A   1      38.146  30.598  29.251  1.00  0.00     0.029 A 
ATOM     20  N   UNL A   1      39.552  30.345  30.968  1.00  0.00    -0.354 N 
ATOM     21  C   UNL A   1      39.289  32.919  34.447  1.00  0.00     0.074 A 
ATOM     22  C   UNL A   1      38.206  33.872  34.311  1.00  0.00     0.031 C 
ATOM     23  C   UNL A   1      38.927  29.548  28.972  1.00  0.00     0.029 A 
ATOM     24  C   UNL A   1      39.893  29.379  30.049  1.00  0.00     0.049 A 
ATOM     25  H   UNL A   1      40.026  30.467  31.823  1.00  0.00     0.167 HD
ATOM     26  C   UNL A   1      40.104  32.824  35.528  1.00  0.00     0.034 A 
ATOM     27  C   UNL A   1      40.890  28.474  30.051  1.00  0.00     0.034 A 
ATOM     28  C   UNL A   1      41.188  31.873  35.637  1.00  0.00     0.049 A 
ATOM     29  C   UNL A   1      41.805  28.424  31.243  1.00  0.00     0.074 A 
ATOM     30  C   UNL A   1      42.076  31.693  36.686  1.00  0.00     0.029 A 
ATOM     31  N   UNL A   1      41.538  30.944  34.664  1.00  0.00    -0.354 N 
ATOM     32  N   UNL A   1      41.777  29.151  32.337  1.00  0.00    -0.248 NA
ATOM     33  C   UNL A   1      42.881  27.428  31.206  1.00  0.00     0.031 C 
ATOM     34  C   UNL A   1      43.000  30.708  36.319  1.00  0.00     0.029 A 
ATOM     35  C   UNL A   1      42.642  30.209  35.078  1.00  0.00     0.049 A 
ATOM     36  H   UNL A   1      41.072  30.824  33.805  1.00  0.00     0.167 HD
ATOM     37  C   UNL A   1      42.825  28.688  33.124  1.00  0.00     0.074 A 
ATOM     38  C   UNL A   1      43.434  27.592  32.396  1.00  0.00     0.031 C 
ATOM     39  C   UNL A   1      43.254  29.133  34.333  1.00  0.00     0.034 A 
BRANCH  26  40
ATOM     40  C   UNL A   1      39.876  33.792  36.665  1.00  0.00     0.023 A 
ATOM     41  C   UNL A   1      39.326  33.375  37.891  1.00  0.00     0.031 A 
ATOM     42  C   UNL A   1      40.218  35.150  36.530  1.00  0.00     0.131 A 
ATOM     43  C   UNL A   1      39.082  34.312  38.908  1.00  0.00     0.055 A 
ATOM     44  C   UNL A   1      40.045  36.063  37.573  1.00  0.00     0.041 A 
ATOM     45  F   UNL A   1      40.727  35.615  35.378  1.00  0.00    -0.206 F 
ATOM     46  C   UNL A   1      39.462  35.648  38.767  1.00  0.00     0.022 A 
BRANCH  43  47
ATOM     47  S   UNL A   1      38.146  33.782  40.369  1.00  0.00     0.124 S 
ATOM     48  O   UNL A   1      37.874  35.059  41.025  1.00  0.00    -0.237 OA
ATOM     49  O   UNL A   1      36.994  33.110  39.778  1.00  0.00    -0.237 OA
ATOM     50  O   UNL A   1      39.081  32.911  41.079  1.00  0.00    -0.744 OA
ENDBRANCH  43  47
ENDBRANCH  26  40
BRANCH  27  51
ATOM     51  C   UNL A   1      41.105  27.587  28.872  1.00  0.00     0.023 A 
ATOM     52  C   UNL A   1      42.122  27.842  27.941  1.00  0.00     0.031 A 
ATOM     53  C   UNL A   1      40.255  26.490  28.635  1.00  0.00     0.131 A 
ATOM     54  C   UNL A   1      42.226  27.049  26.787  1.00  0.00     0.055 A 
ATOM     55  C   UNL A   1      40.410  25.660  27.525  1.00  0.00     0.041 A 
ATOM     56  F   UNL A   1      39.264  26.199  29.493  1.00  0.00    -0.206 F 
ATOM     57  C   UNL A   1      41.390  25.949  26.582  1.00  0.00     0.022 A 
BRANCH  54  58
ATOM     58  S   UNL A   1      43.397  27.548  25.496  1.00  0.00     0.124 S 
ATOM     59  O   UNL A   1      44.226  26.355  25.369  1.00  0.00    -0.237 OA
ATOM     60  O   UNL A   1      42.508  27.834  24.375  1.00  0.00    -0.237 OA
ATOM     61  O   UNL A   1      44.063  28.714  26.074  1.00  0.00    -0.744 OA
ENDBRANCH  54  58
ENDBRANCH  27  51
BRANCH  39  62
ATOM     62  C   UNL A   1      44.423  28.398  34.945  1.00  0.00     0.023 A 
ATOM     63  C   UNL A   1      44.249  27.193  35.649  1.00  0.00     0.031 A 
ATOM     64  C   UNL A   1      45.719  28.938  34.871  1.00  0.00     0.131 A 
ATOM     65  C   UNL A   1      45.334  26.615  36.325  1.00  0.00     0.055 A 
ATOM     66  C   UNL A   1      46.810  28.316  35.481  1.00  0.00     0.041 A 
ATOM     67  F   UNL A   1      45.946  30.088  34.217  1.00  0.00    -0.206 F 
ATOM     68  C   UNL A   1      46.617  27.158  36.229  1.00  0.00     0.022 A 
BRANCH  65  69
ATOM     69  S   UNL A   1      45.015  25.223  37.443  1.00  0.00     0.124 S 
ATOM     70  O   UNL A   1      44.666  24.158  36.509  1.00  0.00    -0.237 OA
ATOM     71  O   UNL A   1      46.294  25.076  38.129  1.00  0.00    -0.237 OA
ATOM     72  O   UNL A   1      43.915  25.700  38.279  1.00  0.00    -0.744 OA
ENDBRANCH  65  69
ENDBRANCH  39  62
ENDBRANCH  13  14
ENDBRANCH   6   8
ENDBRANCH   3   4
ENDBRANCH   2   3
ENDBRANCH   1   2
BRANCH   1  73
ATOM     73  C   UNL A   1      33.023  29.492  25.738  1.00  0.00     0.002 C 
BRANCH  73  74
ATOM     74  C   UNL A   1      32.745  28.075  26.242  1.00  0.00     0.021 C 
BRANCH  74  75
ATOM     75  C   UNL A   1      33.545  26.996  25.532  1.00  0.00     0.116 C 
BRANCH  75  76
ATOM     76  N   UNL A   1      33.891  27.358  24.161  1.00  0.00    -0.352 N 
ATOM     77  C   UNL A   1      33.522  26.730  22.993  1.00  0.00     0.255 C 
ATOM     78  H   UNL A   1      34.461  28.155  24.058  1.00  0.00     0.163 HD
ATOM     79  O   UNL A   1      33.923  27.148  21.906  1.00  0.00    -0.269 OA
BRANCH  77  80
ATOM     80  C   UNL A   1      32.605  25.579  23.089  1.00  0.00     0.083 A 
ATOM     81  C   UNL A   1      31.231  25.879  22.904  1.00  0.00     0.018 A 
ATOM     82  C   UNL A   1      33.058  24.278  23.370  1.00  0.00     0.146 A 
ATOM     83  C   UNL A   1      30.254  24.944  23.183  1.00  0.00     0.002 A 
ATOM     84  C   UNL A   1      32.027  23.306  23.411  1.00  0.00     0.060 A 
ATOM     85  C   UNL A   1      30.658  23.656  23.468  1.00  0.00     0.019 A 
ATOM     86  Br  UNL A   1      32.232  21.450  23.036  1.00  0.00    -0.047 Br
BRANCH  82  87
ATOM     87  O   UNL A   1      34.395  24.005  23.296  1.00  0.00    -0.488 OA
BRANCH  87  88
ATOM     88  C   UNL A   1      35.517  24.159  24.231  1.00  0.00     0.178 C 
ATOM     89  C   UNL A   1      36.539  23.148  23.740  1.00  0.00     0.074 C 
ATOM     90  C   UNL A   1      35.592  23.944  25.787  1.00  0.00     0.080 C 
ATOM     91  C   UNL A   1      36.097  21.773  24.246  1.00  0.00     0.165 C 
ATOM     92  C   UNL A   1      34.756  22.738  26.142  1.00  0.00     0.072 C 
ATOM     93  O   UNL A   1      34.860  21.812  25.015  1.00  0.00    -0.375 OA
ATOM     94  C   UNL A   1      34.415  21.905  27.459  1.00  0.00     0.036 C 
ATOM     95  C   UNL A   1      33.477  23.534  26.574  1.00  0.00     0.036 C 
ATOM     96  C   UNL A   1      32.928  22.302  27.238  1.00  0.00     0.006 C 
ENDBRANCH  87  88
ENDBRANCH  82  87
ENDBRANCH  77  80
ENDBRANCH  75  76
ENDBRANCH  74  75
ENDBRANCH  73  74
ENDBRANCH   1  73
TORSDOF 18
ENDMDL
MODEL 3
REMARK VINA RESULT:     -11.3      1.472      7.600
REMARK SMILES O=C(NCCCCCCNC(=O)c1cccc(Br)c1O[C@@H]1CCOC2(CCC2)C1)c1ccc(-c2c3nc(c(-c4cc(S(=O)(=O)[O-])ccc4F)c4ccc([nH]4)c(-c4cc(S(=O)(=O)[O-])ccc4F)c4nc(c(-c5cc(S(=O)(=O)[O-])ccc5F)c5ccc2[nH]5)C=C4)C=C3)cc1
REMARK SMILES IDX 6 1 5 2 4 3 3 4 1 5 2 6 30 8 31 9 92 10 32 11 91 12 33 13
REMARK SMILES IDX 34 14 35 15 85 16 36 17 90 18 84 19 86 20 37 21 89 22 83 23
REMARK SMILES IDX 82 24 38 26 70 27 50 28 69 29 51 30 54 31 68 32 87 33 52 34
REMARK SMILES IDX 53 35 67 37 88 38 55 39 39 40 40 41 48 42 41 43 47 44 49 45
REMARK SMILES IDX 46 46 42 47 43 48 44 49 45 50 71 51 72 52 80 53 73 54 79 55
REMARK SMILES IDX 81 56 78 57 74 58 75 59 76 60 77 61 56 62 57 63 65 64 58 65
REMARK SMILES IDX 64 66 66 67 63 68 59 69 60 70 61 71 62 72 7 73 8 74 9 75
REMARK SMILES IDX 10 76 11 77 12 79 13 80 14 81 19 82 15 83 17 84 16 85 18 86
REMARK SMILES IDX 20 87 21 88 22 89 29 90 23 91 25 92 24 93 26 94 28 95 27 96
REMARK H PARENT 3 7 86 25 54 36 10 78
REMARK Flexibility Score: inf
ROOT
ATOM      1  C   UNL A   1      33.875  31.276  27.698  1.00  0.00     0.002 C 
ENDROOT
BRANCH   1   2
ATOM      2  C   UNL A   1      32.787  32.345  27.632  1.00  0.00     0.021 C 
BRANCH   2   3
ATOM      3  C   UNL A   1      33.291  33.736  27.287  1.00  0.00     0.116 C 
BRANCH   3   4
ATOM      4  N   UNL A   1      32.854  34.747  28.239  1.00  0.00    -0.352 N 
ATOM      5  O   UNL A   1      32.706  35.761  30.254  1.00  0.00    -0.269 OA
ATOM      6  C   UNL A   1      33.285  34.958  29.530  1.00  0.00     0.251 C 
ATOM      7  H   UNL A   1      32.157  35.363  27.916  1.00  0.00     0.163 HD
BRANCH   6   8
ATOM      8  C   UNL A   1      34.441  34.187  30.036  1.00  0.00     0.039 A 
ATOM      9  C   UNL A   1      34.236  33.143  30.937  1.00  0.00     0.014 A 
ATOM     10  C   UNL A   1      35.737  34.532  29.643  1.00  0.00     0.014 A 
ATOM     11  C   UNL A   1      35.321  32.573  31.583  1.00  0.00     0.010 A 
ATOM     12  C   UNL A   1      36.832  33.864  30.204  1.00  0.00     0.010 A 
ATOM     13  C   UNL A   1      36.635  32.898  31.201  1.00  0.00    -0.014 A 
BRANCH  13  14
ATOM     14  C   UNL A   1      37.753  32.135  31.820  1.00  0.00     0.031 A 
ATOM     15  C   UNL A   1      38.455  31.023  31.092  1.00  0.00     0.074 A 
ATOM     16  C   UNL A   1      38.178  32.524  33.040  1.00  0.00     0.049 A 
ATOM     17  N   UNL A   1      39.488  30.315  31.477  1.00  0.00    -0.248 NA
ATOM     18  C   UNL A   1      37.933  30.648  29.771  1.00  0.00     0.031 C 
ATOM     19  C   UNL A   1      37.557  33.583  33.844  1.00  0.00     0.029 A 
ATOM     20  N   UNL A   1      39.240  32.115  33.803  1.00  0.00    -0.354 N 
ATOM     21  C   UNL A   1      39.741  29.412  30.451  1.00  0.00     0.074 A 
ATOM     22  C   UNL A   1      38.721  29.632  29.445  1.00  0.00     0.031 C 
ATOM     23  C   UNL A   1      38.290  33.789  34.945  1.00  0.00     0.029 A 
ATOM     24  C   UNL A   1      39.373  32.816  34.980  1.00  0.00     0.049 A 
ATOM     25  H   UNL A   1      39.850  31.390  33.535  1.00  0.00     0.167 HD
ATOM     26  C   UNL A   1      40.738  28.496  30.353  1.00  0.00     0.034 A 
ATOM     27  C   UNL A   1      40.248  32.677  35.993  1.00  0.00     0.034 A 
ATOM     28  C   UNL A   1      41.739  28.285  31.375  1.00  0.00     0.049 A 
ATOM     29  C   UNL A   1      41.314  31.623  35.876  1.00  0.00     0.074 A 
ATOM     30  C   UNL A   1      42.791  27.383  31.379  1.00  0.00     0.029 A 
ATOM     31  N   UNL A   1      41.812  28.977  32.579  1.00  0.00    -0.354 N 
ATOM     32  N   UNL A   1      41.541  30.785  34.890  1.00  0.00    -0.248 NA
ATOM     33  C   UNL A   1      42.245  31.500  37.002  1.00  0.00     0.031 C 
ATOM     34  C   UNL A   1      43.454  27.482  32.607  1.00  0.00     0.029 A 
ATOM     35  C   UNL A   1      42.873  28.504  33.340  1.00  0.00     0.049 A 
ATOM     36  H   UNL A   1      41.200  29.698  32.852  1.00  0.00     0.167 HD
ATOM     37  C   UNL A   1      42.654  30.044  35.275  1.00  0.00     0.074 A 
ATOM     38  C   UNL A   1      43.072  30.567  36.560  1.00  0.00     0.031 C 
ATOM     39  C   UNL A   1      43.267  29.019  34.631  1.00  0.00     0.034 A 
BRANCH  26  40
ATOM     40  C   UNL A   1      40.779  27.633  29.113  1.00  0.00     0.023 A 
ATOM     41  C   UNL A   1      41.708  27.865  28.083  1.00  0.00     0.031 A 
ATOM     42  C   UNL A   1      39.884  26.559  28.958  1.00  0.00     0.131 A 
ATOM     43  C   UNL A   1      41.684  27.074  26.923  1.00  0.00     0.055 A 
ATOM     44  C   UNL A   1      39.915  25.727  27.836  1.00  0.00     0.041 A 
ATOM     45  F   UNL A   1      38.959  26.299  29.896  1.00  0.00    -0.206 F 
ATOM     46  C   UNL A   1      40.812  25.990  26.804  1.00  0.00     0.022 A 
BRANCH  43  47
ATOM     47  S   UNL A   1      42.725  27.561  25.519  1.00  0.00     0.124 S 
ATOM     48  O   UNL A   1      43.938  28.016  26.195  1.00  0.00    -0.237 OA
ATOM     49  O   UNL A   1      42.842  26.318  24.767  1.00  0.00    -0.237 OA
ATOM     50  O   UNL A   1      41.951  28.615  24.867  1.00  0.00    -0.744 OA
ENDBRANCH  43  47
ENDBRANCH  26  40
BRANCH  27  51
ATOM     51  C   UNL A   1      40.119  33.515  37.220  1.00  0.00     0.023 A 
ATOM     52  C   UNL A   1      39.334  33.105  38.307  1.00  0.00     0.031 A 
ATOM     53  C   UNL A   1      40.749  34.772  37.300  1.00  0.00     0.131 A 
ATOM     54  C   UNL A   1      39.150  33.967  39.400  1.00  0.00     0.055 A 
ATOM     55  C   UNL A   1      40.624  35.592  38.420  1.00  0.00     0.041 A 
ATOM     56  F   UNL A   1      41.513  35.216  36.289  1.00  0.00    -0.206 F 
ATOM     57  C   UNL A   1      39.804  35.199  39.472  1.00  0.00     0.022 A 
BRANCH  54  58
ATOM     58  S   UNL A   1      37.947  33.505  40.674  1.00  0.00     0.124 S 
ATOM     59  O   UNL A   1      37.690  34.788  41.319  1.00  0.00    -0.237 OA
ATOM     60  O   UNL A   1      36.855  32.959  39.875  1.00  0.00    -0.237 OA
ATOM     61  O   UNL A   1      38.671  32.530  41.487  1.00  0.00    -0.744 OA
ENDBRANCH  54  58
ENDBRANCH  27  51
BRANCH  39  62
ATOM     62  C   UNL A   1      44.479  28.426  35.311  1.00  0.00     0.023 A 
ATOM     63  C   UNL A   1      44.359  27.404  36.270  1.00  0.00     0.031 A 
ATOM     64  C   UNL A   1      45.764  28.927  35.038  1.00  0.00     0.131 A 
ATOM     65  C   UNL A   1      45.490  26.979  36.983  1.00  0.00     0.055 A 
ATOM     66  C   UNL A   1      46.896  28.444  35.695  1.00  0.00     0.041 A 
ATOM     67  F   UNL A   1      45.940  29.906  34.135  1.00  0.00    -0.206 F 
ATOM     68  C   UNL A   1      46.760  27.479  36.688  1.00  0.00     0.022 A 
BRANCH  65  69
ATOM     69  S   UNL A   1      45.254  25.865  38.395  1.00  0.00     0.124 S 
ATOM     70  O   UNL A   1      43.950  26.283  38.896  1.00  0.00    -0.237 OA
ATOM     71  O   UNL A   1      45.305  24.550  37.765  1.00  0.00    -0.237 OA
ATOM     72  O   UNL A   1      46.384  26.177  39.269  1.00  0.00    -0.744 OA
ENDBRANCH  65  69
ENDBRANCH  39  62
ENDBRANCH  13  14
ENDBRANCH   6   8
ENDBRANCH   3   4
ENDBRANCH   2   3
ENDBRANCH   1   2
BRANCH   1  73
ATOM     73  C   UNL A   1      33.403  29.844  27.425  1.00  0.00     0.002 C 
BRANCH  73  74
ATOM     74  C   UNL A   1      34.475  28.889  26.898  1.00  0.00     0.021 C 
BRANCH  74  75
ATOM     75  C   UNL A   1      33.922  27.693  26.141  1.00  0.00     0.116 C 
BRANCH  75  76
ATOM     76  N   UNL A   1      32.740  27.119  26.776  1.00  0.00    -0.352 N 
ATOM     77  C   UNL A   1      31.529  26.808  26.201  1.00  0.00     0.255 C 
ATOM     78  H   UNL A   1      32.819  26.930  27.740  1.00  0.00     0.163 HD
ATOM     79  O   UNL A   1      30.613  26.350  26.885  1.00  0.00    -0.269 OA
BRANCH  77  80
ATOM     80  C   UNL A   1      31.387  27.001  24.746  1.00  0.00     0.083 A 
ATOM     81  C   UNL A   1      30.879  28.263  24.346  1.00  0.00     0.018 A 
ATOM     82  C   UNL A   1      31.708  25.993  23.819  1.00  0.00     0.146 A 
ATOM     83  C   UNL A   1      30.493  28.494  23.040  1.00  0.00     0.002 A 
ATOM     84  C   UNL A   1      31.514  26.372  22.468  1.00  0.00     0.060 A 
ATOM     85  C   UNL A   1      30.786  27.527  22.101  1.00  0.00     0.019 A 
ATOM     86  Br  UNL A   1      32.453  25.664  20.968  1.00  0.00    -0.047 Br
BRANCH  82  87
ATOM     87  O   UNL A   1      32.415  24.901  24.238  1.00  0.00    -0.488 OA
BRANCH  87  88
ATOM     88  C   UNL A   1      32.171  23.453  24.191  1.00  0.00     0.178 C 
ATOM     89  C   UNL A   1      31.775  23.106  25.616  1.00  0.00     0.074 C 
ATOM     90  C   UNL A   1      33.135  22.262  23.838  1.00  0.00     0.080 C 
ATOM     91  C   UNL A   1      33.064  23.024  26.437  1.00  0.00     0.165 C 
ATOM     92  C   UNL A   1      34.495  22.561  24.423  1.00  0.00     0.072 C 
ATOM     93  O   UNL A   1      34.263  23.305  25.659  1.00  0.00    -0.375 OA
ATOM     94  C   UNL A   1      35.904  21.821  24.526  1.00  0.00     0.036 C 
ATOM     95  C   UNL A   1      35.130  23.123  23.105  1.00  0.00     0.036 C 
ATOM     96  C   UNL A   1      36.501  23.000  23.707  1.00  0.00     0.006 C 
ENDBRANCH  87  88
ENDBRANCH  82  87
ENDBRANCH  77  80
ENDBRANCH  75  76
ENDBRANCH  74  75
ENDBRANCH  73  74
ENDBRANCH   1  73
TORSDOF 18
ENDMDL
