MODEL 1
REMARK VINA RESULT:      -8.0      0.000      0.000
REMARK SMILES CC(C)Oc1ccc(-c2ccc(/C(=C\c3ccc(S(C)(=O)=O)cc3)C(=O)NCCCCCCNC(=O)c3ccc(-c4c5nc(c(-c6cc(S(=O)(=O)[O-])ccc6F)c6ccc([nH]6)c(-c6cc(S(=O)(=O)[O-])ccc6F)c6nc(c(-c7cc(S(=O)(=O)[O-])ccc7F)c7ccc4[nH]7)C=C6)C=C5)cc3)cc2)cc1
REMARK SMILES IDX 30 1 29 2 28 3 27 4 25 5 26 6 13 8 14 9 12 10 9 11 10 12
REMARK SMILES IDX 101 13 11 14 100 15 8 16 5 17 6 18 103 19 7 20 102 21 4 22
REMARK SMILES IDX 2 23 1 24 3 25 15 26 16 27 24 28 17 29 23 30 18 31 19 32
REMARK SMILES IDX 20 33 21 34 22 35 31 36 32 37 33 38 34 39 35 40 36 42 37 43
REMARK SMILES IDX 38 44 99 45 39 46 98 47 40 48 41 49 42 50 92 51 43 52 97 53
REMARK SMILES IDX 91 54 93 55 44 56 96 57 90 58 89 59 45 61 77 62 57 63 76 64
REMARK SMILES IDX 58 65 61 66 75 67 94 68 59 69 60 70 74 72 95 73 62 74 46 75
REMARK SMILES IDX 47 76 55 77 48 78 54 79 56 80 53 81 49 82 50 83 51 84 52 85
REMARK SMILES IDX 78 86 79 87 87 88 80 89 86 90 88 91 85 92 81 93 82 94 83 95
REMARK SMILES IDX 84 96 63 97 64 98 72 99 65 100 71 101 73 102 70 103 66 104
REMARK SMILES IDX 67 105 68 106 69 107
REMARK H PARENT 27 7 34 41 93 60 61 71
REMARK Flexibility Score: inf
ROOT
ATOM      1  C   UNL A   1      40.089  28.453  27.405  1.00  0.00     0.002 C 
ENDROOT
BRANCH   1   2
ATOM      2  C   UNL A   1      41.103  29.002  26.389  1.00  0.00     0.021 C 
BRANCH   2   3
ATOM      3  C   UNL A   1      42.407  29.480  27.035  1.00  0.00     0.116 C 
BRANCH   3   4
ATOM      4  N   UNL A   1      43.526  29.139  26.183  1.00  0.00    -0.352 N 
ATOM      5  C   UNL A   1      44.183  27.994  25.868  1.00  0.00     0.251 C 
ATOM      6  O   UNL A   1      45.146  28.161  25.113  1.00  0.00    -0.269 OA
ATOM      7  H   UNL A   1      43.899  29.925  25.721  1.00  0.00     0.163 HD
BRANCH   5   8
ATOM      8  C   UNL A   1      43.755  26.601  26.317  1.00  0.00     0.047 C 
ATOM      9  C   UNL A   1      42.993  25.837  25.495  1.00  0.00     0.022 C 
BRANCH   8  10
ATOM     10  C   UNL A   1      44.044  26.170  27.734  1.00  0.00    -0.013 A 
ATOM     11  C   UNL A   1      44.333  25.011  30.354  1.00  0.00    -0.018 A 
ATOM     12  C   UNL A   1      45.293  24.823  29.351  1.00  0.00     0.009 A 
ATOM     13  C   UNL A   1      43.270  25.866  30.043  1.00  0.00     0.009 A 
ATOM     14  C   UNL A   1      45.181  25.438  28.094  1.00  0.00     0.009 A 
ATOM     15  C   UNL A   1      43.112  26.401  28.757  1.00  0.00     0.009 A 
BRANCH  11  16
ATOM     16  C   UNL A   1      44.429  24.332  31.668  1.00  0.00    -0.018 A 
ATOM     17  C   UNL A   1      44.583  23.047  34.195  1.00  0.00     0.119 A 
ATOM     18  C   UNL A   1      45.387  24.147  33.910  1.00  0.00     0.047 A 
ATOM     19  C   UNL A   1      43.693  22.592  33.233  1.00  0.00     0.047 A 
ATOM     20  C   UNL A   1      45.311  24.780  32.665  1.00  0.00     0.012 A 
ATOM     21  C   UNL A   1      43.632  23.215  31.980  1.00  0.00     0.012 A 
BRANCH  17  22
ATOM     22  O   UNL A   1      44.642  22.574  35.472  1.00  0.00    -0.491 OA
BRANCH  22  23
ATOM     23  C   UNL A   1      45.651  21.616  35.823  1.00  0.00     0.167 C 
ATOM     24  C   UNL A   1      45.950  20.614  34.712  1.00  0.00     0.052 C 
ATOM     25  C   UNL A   1      46.909  22.230  36.432  1.00  0.00     0.052 C 
ENDBRANCH  22  23
ENDBRANCH  17  22
ENDBRANCH  11  16
ENDBRANCH   8  10
BRANCH   9  26
ATOM     26  C   UNL A   1      42.622  24.419  25.622  1.00  0.00    -0.025 A 
ATOM     27  C   UNL A   1      43.415  23.464  24.958  1.00  0.00     0.009 A 
ATOM     28  C   UNL A   1      41.570  23.994  26.437  1.00  0.00     0.009 A 
ATOM     29  C   UNL A   1      43.192  22.098  25.148  1.00  0.00     0.021 A 
ATOM     30  C   UNL A   1      41.343  22.628  26.631  1.00  0.00     0.021 A 
ATOM     31  C   UNL A   1      42.157  21.689  25.989  1.00  0.00     0.067 A 
BRANCH  31  32
ATOM     32  S   UNL A   1      41.946  19.954  26.318  1.00  0.00     0.175 S 
ATOM     33  C   UNL A   1      40.206  19.690  26.104  1.00  0.00     0.163 C 
ATOM     34  O   UNL A   1      42.652  19.232  25.278  1.00  0.00    -0.224 OA
ATOM     35  O   UNL A   1      42.262  19.729  27.717  1.00  0.00    -0.224 OA
ENDBRANCH  31  32
ENDBRANCH   9  26
ENDBRANCH   5   8
ENDBRANCH   3   4
ENDBRANCH   2   3
ENDBRANCH   1   2
BRANCH   1  36
ATOM     36  C   UNL A   1      38.862  29.345  27.623  1.00  0.00     0.002 C 
BRANCH  36  37
ATOM     37  C   UNL A   1      38.578  29.688  29.089  1.00  0.00     0.021 C 
BRANCH  37  38
ATOM     38  C   UNL A   1      38.885  31.136  29.453  1.00  0.00     0.116 C 
BRANCH  38  39
ATOM     39  N   UNL A   1      38.314  31.482  30.743  1.00  0.00    -0.352 N 
ATOM     40  C   UNL A   1      38.689  31.068  31.994  1.00  0.00     0.251 C 
ATOM     41  H   UNL A   1      37.549  32.100  30.714  1.00  0.00     0.163 HD
ATOM     42  O   UNL A   1      37.911  31.210  32.933  1.00  0.00    -0.269 OA
BRANCH  40  43
ATOM     43  C   UNL A   1      40.019  30.457  32.207  1.00  0.00     0.039 A 
ATOM     44  C   UNL A   1      41.109  31.292  32.456  1.00  0.00     0.014 A 
ATOM     45  C   UNL A   1      40.203  29.073  32.111  1.00  0.00     0.014 A 
ATOM     46  C   UNL A   1      42.377  30.738  32.625  1.00  0.00     0.010 A 
ATOM     47  C   UNL A   1      41.452  28.517  32.367  1.00  0.00     0.010 A 
ATOM     48  C   UNL A   1      42.559  29.346  32.598  1.00  0.00    -0.014 A 
BRANCH  48  49
ATOM     49  C   UNL A   1      43.914  28.758  32.767  1.00  0.00     0.031 A 
ATOM     50  C   UNL A   1      44.351  28.238  34.111  1.00  0.00     0.074 A 
ATOM     51  C   UNL A   1      44.748  28.706  31.712  1.00  0.00     0.049 A 
ATOM     52  N   UNL A   1      45.482  27.674  34.452  1.00  0.00    -0.248 NA
ATOM     53  C   UNL A   1      43.405  28.401  35.225  1.00  0.00     0.031 C 
ATOM     54  C   UNL A   1      44.451  29.228  30.376  1.00  0.00     0.029 A 
ATOM     55  N   UNL A   1      46.012  28.187  31.591  1.00  0.00    -0.354 N 
ATOM     56  C   UNL A   1      45.386  27.424  35.818  1.00  0.00     0.074 A 
ATOM     57  C   UNL A   1      44.118  27.967  36.252  1.00  0.00     0.031 C 
ATOM     58  C   UNL A   1      45.484  28.965  29.562  1.00  0.00     0.029 A 
ATOM     59  C   UNL A   1      46.534  28.297  30.323  1.00  0.00     0.049 A 
ATOM     60  H   UNL A   1      46.499  27.776  32.341  1.00  0.00     0.167 HD
ATOM     61  C   UNL A   1      46.263  26.777  36.626  1.00  0.00     0.034 A 
ATOM     62  C   UNL A   1      47.725  27.904  29.831  1.00  0.00     0.034 A 
ATOM     63  C   UNL A   1      47.520  26.238  36.167  1.00  0.00     0.049 A 
ATOM     64  C   UNL A   1      48.684  27.189  30.747  1.00  0.00     0.074 A 
ATOM     65  C   UNL A   1      48.462  25.518  36.881  1.00  0.00     0.029 A 
ATOM     66  N   UNL A   1      48.019  26.367  34.875  1.00  0.00    -0.354 N 
ATOM     67  N   UNL A   1      48.553  26.901  32.023  1.00  0.00    -0.248 NA
ATOM     68  C   UNL A   1      49.941  26.725  30.151  1.00  0.00     0.031 C 
ATOM     69  C   UNL A   1      49.562  25.284  36.048  1.00  0.00     0.029 A 
ATOM     70  C   UNL A   1      49.270  25.773  34.784  1.00  0.00     0.049 A 
ATOM     71  H   UNL A   1      47.553  26.815  34.133  1.00  0.00     0.167 HD
ATOM     72  C   UNL A   1      49.701  26.194  32.373  1.00  0.00     0.074 A 
ATOM     73  C   UNL A   1      50.495  26.080  31.166  1.00  0.00     0.031 C 
ATOM     74  C   UNL A   1      50.064  25.684  33.579  1.00  0.00     0.034 A 
BRANCH  61  75
ATOM     75  C   UNL A   1      45.899  26.655  38.090  1.00  0.00     0.023 A 
ATOM     76  C   UNL A   1      46.252  27.641  39.030  1.00  0.00     0.031 A 
ATOM     77  C   UNL A   1      45.222  25.517  38.563  1.00  0.00     0.131 A 
ATOM     78  C   UNL A   1      46.009  27.430  40.395  1.00  0.00     0.055 A 
ATOM     79  C   UNL A   1      44.899  25.356  39.912  1.00  0.00     0.041 A 
ATOM     80  F   UNL A   1      44.878  24.527  37.723  1.00  0.00    -0.206 F 
ATOM     81  C   UNL A   1      45.310  26.308  40.841  1.00  0.00     0.022 A 
BRANCH  78  82
ATOM     82  S   UNL A   1      46.772  28.558  41.595  1.00  0.00     0.124 S 
ATOM     83  O   UNL A   1      45.600  29.218  42.166  1.00  0.00    -0.237 OA
ATOM     84  O   UNL A   1      47.485  27.644  42.479  1.00  0.00    -0.237 OA
ATOM     85  O   UNL A   1      47.619  29.417  40.768  1.00  0.00    -0.744 OA
ENDBRANCH  78  82
ENDBRANCH  61  75
BRANCH  62  86
ATOM     86  C   UNL A   1      48.078  28.174  28.407  1.00  0.00     0.023 A 
ATOM     87  C   UNL A   1      47.874  27.208  27.409  1.00  0.00     0.031 A 
ATOM     88  C   UNL A   1      48.652  29.401  28.029  1.00  0.00     0.131 A 
ATOM     89  C   UNL A   1      48.287  27.467  26.092  1.00  0.00     0.055 A 
ATOM     90  C   UNL A   1      49.008  29.675  26.708  1.00  0.00     0.041 A 
ATOM     91  F   UNL A   1      48.862  30.363  28.944  1.00  0.00    -0.206 F 
ATOM     92  C   UNL A   1      48.838  28.699  25.732  1.00  0.00     0.022 A 
BRANCH  89  93
ATOM     93  S   UNL A   1      48.169  26.135  24.866  1.00  0.00     0.124 S 
ATOM     94  O   UNL A   1      47.057  25.348  25.388  1.00  0.00    -0.237 OA
ATOM     95  O   UNL A   1      47.911  26.877  23.636  1.00  0.00    -0.237 OA
ATOM     96  O   UNL A   1      49.479  25.491  24.939  1.00  0.00    -0.744 OA
ENDBRANCH  89  93
ENDBRANCH  62  86
BRANCH  74  97
ATOM     97  C   UNL A   1      51.368  24.920  33.630  1.00  0.00     0.023 A 
ATOM     98  C   UNL A   1      51.456  23.576  33.224  1.00  0.00     0.031 A 
ATOM     99  C   UNL A   1      52.529  25.532  34.137  1.00  0.00     0.131 A 
ATOM    100  C   UNL A   1      52.649  22.864  33.417  1.00  0.00     0.055 A 
ATOM    101  C   UNL A   1      53.737  24.841  34.249  1.00  0.00     0.041 A 
ATOM    102  F   UNL A   1      52.508  26.811  34.543  1.00  0.00    -0.206 F 
ATOM    103  C   UNL A   1      53.796  23.493  33.908  1.00  0.00     0.022 A 
BRANCH 100 104
ATOM    104  S   UNL A   1      52.638  21.068  33.159  1.00  0.00     0.124 S 
ATOM    105  O   UNL A   1      53.099  20.574  34.452  1.00  0.00    -0.237 OA
ATOM    106  O   UNL A   1      51.238  20.809  32.841  1.00  0.00    -0.237 OA
ATOM    107  O   UNL A   1      53.572  20.875  32.052  1.00  0.00    -0.744 OA
ENDBRANCH 100 104
ENDBRANCH  74  97
ENDBRANCH  48  49
ENDBRANCH  40  43
ENDBRANCH  38  39
ENDBRANCH  37  38
ENDBRANCH  36  37
ENDBRANCH   1  36
TORSDOF 22
ENDMDL
MODEL 2
REMARK VINA RESULT:      -7.8      6.550     11.225
REMARK SMILES CC(C)Oc1ccc(-c2ccc(/C(=C\c3ccc(S(C)(=O)=O)cc3)C(=O)NCCCCCCNC(=O)c3ccc(-c4c5nc(c(-c6cc(S(=O)(=O)[O-])ccc6F)c6ccc([nH]6)c(-c6cc(S(=O)(=O)[O-])ccc6F)c6nc(c(-c7cc(S(=O)(=O)[O-])ccc7F)c7ccc4[nH]7)C=C6)C=C5)cc3)cc2)cc1
REMARK SMILES IDX 30 1 29 2 28 3 27 4 25 5 26 6 13 8 14 9 12 10 9 11 10 12
REMARK SMILES IDX 101 13 11 14 100 15 8 16 5 17 6 18 103 19 7 20 102 21 4 22
REMARK SMILES IDX 2 23 1 24 3 25 15 26 16 27 24 28 17 29 23 30 18 31 19 32
REMARK SMILES IDX 20 33 21 34 22 35 31 36 32 37 33 38 34 39 35 40 36 42 37 43
REMARK SMILES IDX 38 44 99 45 39 46 98 47 40 48 41 49 42 50 92 51 43 52 97 53
REMARK SMILES IDX 91 54 93 55 44 56 96 57 90 58 89 59 45 61 77 62 57 63 76 64
REMARK SMILES IDX 58 65 61 66 75 67 94 68 59 69 60 70 74 72 95 73 62 74 46 75
REMARK SMILES IDX 47 76 55 77 48 78 54 79 56 80 53 81 49 82 50 83 51 84 52 85
REMARK SMILES IDX 78 86 79 87 87 88 80 89 86 90 88 91 85 92 81 93 82 94 83 95
REMARK SMILES IDX 84 96 63 97 64 98 72 99 65 100 71 101 73 102 70 103 66 104
REMARK SMILES IDX 67 105 68 106 69 107
REMARK H PARENT 27 7 34 41 93 60 61 71
REMARK Flexibility Score: inf
ROOT
ATOM      1  C   UNL A   1      40.691  30.222  30.748  1.00  0.00     0.002 C 
ENDROOT
BRANCH   1   2
ATOM      2  C   UNL A   1      42.068  29.540  30.735  1.00  0.00     0.021 C 
BRANCH   2   3
ATOM      3  C   UNL A   1      41.992  28.023  30.933  1.00  0.00     0.116 C 
BRANCH   3   4
ATOM      4  N   UNL A   1      42.995  27.375  30.114  1.00  0.00    -0.352 N 
ATOM      5  C   UNL A   1      42.974  26.476  29.097  1.00  0.00     0.251 C 
ATOM      6  O   UNL A   1      44.096  26.142  28.703  1.00  0.00    -0.269 OA
ATOM      7  H   UNL A   1      43.909  27.653  30.351  1.00  0.00     0.163 HD
BRANCH   5   8
ATOM      8  C   UNL A   1      41.706  25.966  28.421  1.00  0.00     0.047 C 
ATOM      9  C   UNL A   1      41.693  24.726  27.873  1.00  0.00     0.022 C 
BRANCH   8  10
ATOM     10  C   UNL A   1      40.551  26.916  28.225  1.00  0.00    -0.013 A 
ATOM     11  C   UNL A   1      38.516  28.954  28.183  1.00  0.00    -0.018 A 
ATOM     12  C   UNL A   1      39.599  28.969  27.293  1.00  0.00     0.009 A 
ATOM     13  C   UNL A   1      38.428  27.847  29.035  1.00  0.00     0.009 A 
ATOM     14  C   UNL A   1      40.556  27.943  27.275  1.00  0.00     0.009 A 
ATOM     15  C   UNL A   1      39.437  26.875  29.078  1.00  0.00     0.009 A 
BRANCH  11  16
ATOM     16  C   UNL A   1      37.526  30.055  28.232  1.00  0.00    -0.018 A 
ATOM     17  C   UNL A   1      35.631  32.168  28.292  1.00  0.00     0.119 A 
ATOM     18  C   UNL A   1      36.940  32.380  28.713  1.00  0.00     0.047 A 
ATOM     19  C   UNL A   1      35.263  30.913  27.828  1.00  0.00     0.047 A 
ATOM     20  C   UNL A   1      37.874  31.339  28.684  1.00  0.00     0.012 A 
ATOM     21  C   UNL A   1      36.194  29.867  27.818  1.00  0.00     0.012 A 
BRANCH  17  22
ATOM     22  O   UNL A   1      34.829  33.269  28.244  1.00  0.00    -0.491 OA
BRANCH  22  23
ATOM     23  C   UNL A   1      34.094  33.658  29.414  1.00  0.00     0.167 C 
ATOM     24  C   UNL A   1      34.633  33.042  30.701  1.00  0.00     0.052 C 
ATOM     25  C   UNL A   1      33.847  35.160  29.524  1.00  0.00     0.052 C 
ENDBRANCH  22  23
ENDBRANCH  17  22
ENDBRANCH  11  16
ENDBRANCH   8  10
BRANCH   9  26
ATOM     26  C   UNL A   1      40.556  23.954  27.346  1.00  0.00    -0.025 A 
ATOM     27  C   UNL A   1      39.468  24.662  26.802  1.00  0.00     0.009 A 
ATOM     28  C   UNL A   1      40.564  22.558  27.295  1.00  0.00     0.009 A 
ATOM     29  C   UNL A   1      38.423  23.985  26.169  1.00  0.00     0.021 A 
ATOM     30  C   UNL A   1      39.521  21.875  26.661  1.00  0.00     0.021 A 
ATOM     31  C   UNL A   1      38.460  22.592  26.099  1.00  0.00     0.067 A 
BRANCH  31  32
ATOM     32  S   UNL A   1      37.187  21.738  25.195  1.00  0.00     0.175 S 
ATOM     33  C   UNL A   1      36.830  22.823  23.840  1.00  0.00     0.163 C 
ATOM     34  O   UNL A   1      37.779  20.524  24.669  1.00  0.00    -0.224 OA
ATOM     35  O   UNL A   1      36.010  21.679  26.043  1.00  0.00    -0.224 OA
ENDBRANCH  31  32
ENDBRANCH   9  26
ENDBRANCH   5   8
ENDBRANCH   3   4
ENDBRANCH   2   3
ENDBRANCH   1   2
BRANCH   1  36
ATOM     36  C   UNL A   1      39.751  29.735  31.856  1.00  0.00     0.002 C 
BRANCH  36  37
ATOM     37  C   UNL A   1      38.513  30.612  32.071  1.00  0.00     0.021 C 
BRANCH  37  38
ATOM     38  C   UNL A   1      38.771  31.838  32.940  1.00  0.00     0.116 C 
BRANCH  38  39
ATOM     39  N   UNL A   1      37.896  32.935  32.565  1.00  0.00    -0.352 N 
ATOM     40  C   UNL A   1      38.203  34.108  31.926  1.00  0.00     0.251 C 
ATOM     41  H   UNL A   1      36.949  32.820  32.803  1.00  0.00     0.163 HD
ATOM     42  O   UNL A   1      37.409  35.042  31.970  1.00  0.00    -0.269 OA
BRANCH  40  43
ATOM     43  C   UNL A   1      39.481  34.242  31.195  1.00  0.00     0.039 A 
ATOM     44  C   UNL A   1      40.677  34.173  31.913  1.00  0.00     0.014 A 
ATOM     45  C   UNL A   1      39.504  34.486  29.817  1.00  0.00     0.014 A 
ATOM     46  C   UNL A   1      41.891  34.332  31.247  1.00  0.00     0.010 A 
ATOM     47  C   UNL A   1      40.719  34.556  29.141  1.00  0.00     0.010 A 
ATOM     48  C   UNL A   1      41.925  34.509  29.853  1.00  0.00    -0.014 A 
BRANCH  48  49
ATOM     49  C   UNL A   1      43.220  34.689  29.147  1.00  0.00     0.031 A 
ATOM     50  C   UNL A   1      43.658  36.060  28.705  1.00  0.00     0.074 A 
ATOM     51  C   UNL A   1      43.991  33.614  28.894  1.00  0.00     0.049 A 
ATOM     52  N   UNL A   1      44.759  36.421  28.096  1.00  0.00    -0.248 NA
ATOM     53  C   UNL A   1      42.723  37.168  28.955  1.00  0.00     0.031 C 
ATOM     54  C   UNL A   1      43.642  32.231  29.229  1.00  0.00     0.029 A 
ATOM     55  N   UNL A   1      45.225  33.512  28.306  1.00  0.00    -0.354 N 
ATOM     56  C   UNL A   1      44.643  37.792  27.882  1.00  0.00     0.074 A 
ATOM     57  C   UNL A   1      43.334  38.179  28.360  1.00  0.00     0.031 C 
ATOM     58  C   UNL A   1      44.657  31.426  28.878  1.00  0.00     0.029 A 
ATOM     59  C   UNL A   1      45.708  32.224  28.256  1.00  0.00     0.049 A 
ATOM     60  H   UNL A   1      45.718  34.287  27.953  1.00  0.00     0.167 HD
ATOM     61  C   UNL A   1      45.556  38.650  27.361  1.00  0.00     0.034 A 
ATOM     62  C   UNL A   1      46.867  31.743  27.765  1.00  0.00     0.034 A 
ATOM     63  C   UNL A   1      46.860  38.240  26.897  1.00  0.00     0.049 A 
ATOM     64  C   UNL A   1      47.865  32.714  27.190  1.00  0.00     0.074 A 
ATOM     65  C   UNL A   1      47.885  39.026  26.401  1.00  0.00     0.029 A 
ATOM     66  N   UNL A   1      47.317  36.928  26.861  1.00  0.00    -0.354 N 
ATOM     67  N   UNL A   1      47.769  34.018  27.053  1.00  0.00    -0.248 NA
ATOM     68  C   UNL A   1      49.137  32.151  26.724  1.00  0.00     0.031 C 
ATOM     69  C   UNL A   1      48.925  38.185  25.990  1.00  0.00     0.029 A 
ATOM     70  C   UNL A   1      48.592  36.880  26.317  1.00  0.00     0.049 A 
ATOM     71  H   UNL A   1      46.808  36.145  27.175  1.00  0.00     0.167 HD
ATOM     72  C   UNL A   1      48.984  34.433  26.513  1.00  0.00     0.074 A 
ATOM     73  C   UNL A   1      49.799  33.243  26.375  1.00  0.00     0.031 C 
ATOM     74  C   UNL A   1      49.389  35.682  26.164  1.00  0.00     0.034 A 
BRANCH  61  75
ATOM     75  C   UNL A   1      45.153  40.103  27.239  1.00  0.00     0.023 A 
ATOM     76  C   UNL A   1      44.579  40.620  26.062  1.00  0.00     0.031 A 
ATOM     77  C   UNL A   1      45.382  40.997  28.300  1.00  0.00     0.131 A 
ATOM     78  C   UNL A   1      44.339  41.998  25.944  1.00  0.00     0.055 A 
ATOM     79  C   UNL A   1      45.052  42.351  28.210  1.00  0.00     0.041 A 
ATOM     80  F   UNL A   1      45.949  40.574  29.441  1.00  0.00    -0.206 F 
ATOM     81  C   UNL A   1      44.545  42.863  27.019  1.00  0.00     0.022 A 
BRANCH  78  82
ATOM     82  S   UNL A   1      43.917  42.666  24.310  1.00  0.00     0.124 S 
ATOM     83  O   UNL A   1      42.661  41.975  24.025  1.00  0.00    -0.237 OA
ATOM     84  O   UNL A   1      43.815  44.097  24.571  1.00  0.00    -0.237 OA
ATOM     85  O   UNL A   1      45.045  42.262  23.473  1.00  0.00    -0.744 OA
ENDBRANCH  78  82
ENDBRANCH  61  75
BRANCH  62  86
ATOM     86  C   UNL A   1      47.146  30.279  27.795  1.00  0.00     0.023 A 
ATOM     87  C   UNL A   1      46.775  29.443  26.730  1.00  0.00     0.031 A 
ATOM     88  C   UNL A   1      47.768  29.688  28.910  1.00  0.00     0.131 A 
ATOM     89  C   UNL A   1      46.985  28.057  26.823  1.00  0.00     0.055 A 
ATOM     90  C   UNL A   1      48.026  28.318  28.973  1.00  0.00     0.041 A 
ATOM     91  F   UNL A   1      48.150  30.443  29.954  1.00  0.00    -0.206 F 
ATOM     92  C   UNL A   1      47.621  27.492  27.930  1.00  0.00     0.022 A 
BRANCH  89  93
ATOM     93  S   UNL A   1      46.337  26.990  25.507  1.00  0.00     0.124 S 
ATOM     94  O   UNL A   1      46.890  27.620  24.314  1.00  0.00    -0.237 OA
ATOM     95  O   UNL A   1      46.897  25.691  25.867  1.00  0.00    -0.237 OA
ATOM     96  O   UNL A   1      44.888  27.104  25.660  1.00  0.00    -0.744 OA
ENDBRANCH  89  93
ENDBRANCH  62  86
BRANCH  74  97
ATOM     97  C   UNL A   1      50.800  35.818  25.638  1.00  0.00     0.023 A 
ATOM     98  C   UNL A   1      51.922  35.620  26.462  1.00  0.00     0.031 A 
ATOM     99  C   UNL A   1      51.024  36.199  24.301  1.00  0.00     0.131 A 
ATOM    100  C   UNL A   1      53.208  35.890  25.971  1.00  0.00     0.055 A 
ATOM    101  C   UNL A   1      52.311  36.386  23.795  1.00  0.00     0.041 A 
ATOM    102  F   UNL A   1      49.994  36.407  23.466  1.00  0.00    -0.206 F 
ATOM    103  C   UNL A   1      53.411  36.253  24.637  1.00  0.00     0.022 A 
BRANCH 100 104
ATOM    104  S   UNL A   1      54.595  35.908  27.140  1.00  0.00     0.124 S 
ATOM    105  O   UNL A   1      54.051  36.694  28.242  1.00  0.00    -0.237 OA
ATOM    106  O   UNL A   1      54.795  34.489  27.407  1.00  0.00    -0.237 OA
ATOM    107  O   UNL A   1      55.668  36.555  26.387  1.00  0.00    -0.744 OA
ENDBRANCH 100 104
ENDBRANCH  74  97
ENDBRANCH  48  49
ENDBRANCH  40  43
ENDBRANCH  38  39
ENDBRANCH  37  38
ENDBRANCH  36  37
ENDBRANCH   1  36
TORSDOF 22
ENDMDL
MODEL 3
REMARK VINA RESULT:      -7.8      4.663     10.236
REMARK SMILES CC(C)Oc1ccc(-c2ccc(/C(=C\c3ccc(S(C)(=O)=O)cc3)C(=O)NCCCCCCNC(=O)c3ccc(-c4c5nc(c(-c6cc(S(=O)(=O)[O-])ccc6F)c6ccc([nH]6)c(-c6cc(S(=O)(=O)[O-])ccc6F)c6nc(c(-c7cc(S(=O)(=O)[O-])ccc7F)c7ccc4[nH]7)C=C6)C=C5)cc3)cc2)cc1
REMARK SMILES IDX 30 1 29 2 28 3 27 4 25 5 26 6 13 8 14 9 12 10 9 11 10 12
REMARK SMILES IDX 101 13 11 14 100 15 8 16 5 17 6 18 103 19 7 20 102 21 4 22
REMARK SMILES IDX 2 23 1 24 3 25 15 26 16 27 24 28 17 29 23 30 18 31 19 32
REMARK SMILES IDX 20 33 21 34 22 35 31 36 32 37 33 38 34 39 35 40 36 42 37 43
REMARK SMILES IDX 38 44 99 45 39 46 98 47 40 48 41 49 42 50 92 51 43 52 97 53
REMARK SMILES IDX 91 54 93 55 44 56 96 57 90 58 89 59 45 61 77 62 57 63 76 64
REMARK SMILES IDX 58 65 61 66 75 67 94 68 59 69 60 70 74 72 95 73 62 74 46 75
REMARK SMILES IDX 47 76 55 77 48 78 54 79 56 80 53 81 49 82 50 83 51 84 52 85
REMARK SMILES IDX 78 86 79 87 87 88 80 89 86 90 88 91 85 92 81 93 82 94 83 95
REMARK SMILES IDX 84 96 63 97 64 98 72 99 65 100 71 101 73 102 70 103 66 104
REMARK SMILES IDX 67 105 68 106 69 107
REMARK H PARENT 27 7 34 41 93 60 61 71
REMARK Flexibility Score: inf
ROOT
ATOM      1  C   UNL A   1      36.714  32.192  33.740  1.00  0.00     0.002 C 
ENDROOT
BRANCH   1   2
ATOM      2  C   UNL A   1      37.595  30.981  34.085  1.00  0.00     0.021 C 
BRANCH   2   3
ATOM      3  C   UNL A   1      38.392  31.163  35.381  1.00  0.00     0.116 C 
BRANCH   3   4
ATOM      4  N   UNL A   1      37.505  31.599  36.439  1.00  0.00    -0.352 N 
ATOM      5  C   UNL A   1      37.522  32.597  37.359  1.00  0.00     0.251 C 
ATOM      6  O   UNL A   1      36.559  32.580  38.132  1.00  0.00    -0.269 OA
ATOM      7  H   UNL A   1      36.699  31.038  36.507  1.00  0.00     0.163 HD
BRANCH   5   8
ATOM      8  C   UNL A   1      38.570  33.704  37.414  1.00  0.00     0.047 C 
ATOM      9  C   UNL A   1      38.764  34.385  38.570  1.00  0.00     0.022 C 
BRANCH   8  10
ATOM     10  C   UNL A   1      39.245  34.133  36.135  1.00  0.00    -0.013 A 
ATOM     11  C   UNL A   1      40.477  34.541  33.564  1.00  0.00    -0.018 A 
ATOM     12  C   UNL A   1      39.148  34.906  33.815  1.00  0.00     0.009 A 
ATOM     13  C   UNL A   1      41.202  34.049  34.655  1.00  0.00     0.009 A 
ATOM     14  C   UNL A   1      38.568  34.763  35.085  1.00  0.00     0.009 A 
ATOM     15  C   UNL A   1      40.592  33.819  35.896  1.00  0.00     0.009 A 
BRANCH  11  16
ATOM     16  C   UNL A   1      41.081  34.654  32.215  1.00  0.00    -0.018 A 
ATOM     17  C   UNL A   1      42.239  34.839  29.629  1.00  0.00     0.119 A 
ATOM     18  C   UNL A   1      43.001  35.092  30.766  1.00  0.00     0.047 A 
ATOM     19  C   UNL A   1      40.906  34.480  29.774  1.00  0.00     0.047 A 
ATOM     20  C   UNL A   1      42.430  35.002  32.039  1.00  0.00     0.012 A 
ATOM     21  C   UNL A   1      40.331  34.409  31.050  1.00  0.00     0.012 A 
BRANCH  17  22
ATOM     22  O   UNL A   1      42.910  34.834  28.443  1.00  0.00    -0.491 OA
BRANCH  22  23
ATOM     23  C   UNL A   1      42.409  35.613  27.347  1.00  0.00     0.167 C 
ATOM     24  C   UNL A   1      42.301  37.102  27.659  1.00  0.00     0.052 C 
ATOM     25  C   UNL A   1      43.098  35.327  26.014  1.00  0.00     0.052 C 
ENDBRANCH  22  23
ENDBRANCH  17  22
ENDBRANCH  11  16
ENDBRANCH   8  10
BRANCH   9  26
ATOM     26  C   UNL A   1      39.824  35.344  38.918  1.00  0.00    -0.025 A 
ATOM     27  C   UNL A   1      39.504  36.715  38.921  1.00  0.00     0.009 A 
ATOM     28  C   UNL A   1      41.097  34.933  39.321  1.00  0.00     0.009 A 
ATOM     29  C   UNL A   1      40.429  37.661  39.369  1.00  0.00     0.021 A 
ATOM     30  C   UNL A   1      42.027  35.876  39.772  1.00  0.00     0.021 A 
ATOM     31  C   UNL A   1      41.686  37.232  39.797  1.00  0.00     0.067 A 
BRANCH  31  32
ATOM     32  S   UNL A   1      42.821  38.423  40.473  1.00  0.00     0.175 S 
ATOM     33  C   UNL A   1      42.060  38.918  41.996  1.00  0.00     0.163 C 
ATOM     34  O   UNL A   1      44.049  37.717  40.781  1.00  0.00    -0.224 OA
ATOM     35  O   UNL A   1      42.833  39.573  39.586  1.00  0.00    -0.224 OA
ENDBRANCH  31  32
ENDBRANCH   9  26
ENDBRANCH   5   8
ENDBRANCH   3   4
ENDBRANCH   2   3
ENDBRANCH   1   2
BRANCH   1  36
ATOM     36  C   UNL A   1      37.060  32.871  32.410  1.00  0.00     0.002 C 
BRANCH  36  37
ATOM     37  C   UNL A   1      35.851  33.411  31.639  1.00  0.00     0.021 C 
BRANCH  37  38
ATOM     38  C   UNL A   1      34.705  32.414  31.514  1.00  0.00     0.116 C 
BRANCH  38  39
ATOM     39  N   UNL A   1      34.427  32.111  30.121  1.00  0.00    -0.352 N 
ATOM     40  C   UNL A   1      35.278  31.658  29.148  1.00  0.00     0.251 C 
ATOM     41  H   UNL A   1      33.496  32.251  29.837  1.00  0.00     0.163 HD
ATOM     42  O   UNL A   1      34.949  31.753  27.969  1.00  0.00    -0.269 OA
BRANCH  40  43
ATOM     43  C   UNL A   1      36.579  31.061  29.518  1.00  0.00     0.039 A 
ATOM     44  C   UNL A   1      37.752  31.704  29.116  1.00  0.00     0.014 A 
ATOM     45  C   UNL A   1      36.648  29.848  30.212  1.00  0.00     0.014 A 
ATOM     46  C   UNL A   1      38.988  31.139  29.425  1.00  0.00     0.010 A 
ATOM     47  C   UNL A   1      37.882  29.332  30.595  1.00  0.00     0.010 A 
ATOM     48  C   UNL A   1      39.066  29.957  30.180  1.00  0.00    -0.014 A 
BRANCH  48  49
ATOM     49  C   UNL A   1      40.385  29.351  30.499  1.00  0.00     0.031 A 
ATOM     50  C   UNL A   1      41.162  29.817  31.702  1.00  0.00     0.074 A 
ATOM     51  C   UNL A   1      40.884  28.393  29.696  1.00  0.00     0.049 A 
ATOM     52  N   UNL A   1      42.316  29.398  32.155  1.00  0.00    -0.248 NA
ATOM     53  C   UNL A   1      40.579  30.919  32.482  1.00  0.00     0.031 C 
ATOM     54  C   UNL A   1      40.243  27.901  28.474  1.00  0.00     0.029 A 
ATOM     55  N   UNL A   1      42.037  27.655  29.786  1.00  0.00    -0.354 N 
ATOM     56  C   UNL A   1      42.601  30.190  33.263  1.00  0.00     0.074 A 
ATOM     57  C   UNL A   1      41.533  31.161  33.366  1.00  0.00     0.031 C 
ATOM     58  C   UNL A   1      40.991  26.916  27.952  1.00  0.00     0.029 A 
ATOM     59  C   UNL A   1      42.183  26.734  28.774  1.00  0.00     0.049 A 
ATOM     60  H   UNL A   1      42.697  27.775  30.506  1.00  0.00     0.167 HD
ATOM     61  C   UNL A   1      43.640  30.096  34.130  1.00  0.00     0.034 A 
ATOM     62  C   UNL A   1      43.167  25.845  28.537  1.00  0.00     0.034 A 
ATOM     63  C   UNL A   1      44.691  29.113  34.010  1.00  0.00     0.049 A 
ATOM     64  C   UNL A   1      44.313  25.759  29.511  1.00  0.00     0.074 A 
ATOM     65  C   UNL A   1      45.763  28.890  34.856  1.00  0.00     0.029 A 
ATOM     66  N   UNL A   1      44.809  28.195  32.973  1.00  0.00    -0.354 N 
ATOM     67  N   UNL A   1      44.536  26.472  30.593  1.00  0.00    -0.248 NA
ATOM     68  C   UNL A   1      45.327  24.734  29.245  1.00  0.00     0.031 C 
ATOM     69  C   UNL A   1      46.570  27.896  34.289  1.00  0.00     0.029 A 
ATOM     70  C   UNL A   1      45.954  27.430  33.139  1.00  0.00     0.049 A 
ATOM     71  H   UNL A   1      44.171  28.102  32.227  1.00  0.00     0.167 HD
ATOM     72  C   UNL A   1      45.703  25.957  31.153  1.00  0.00     0.074 A 
ATOM     73  C   UNL A   1      46.117  24.861  30.300  1.00  0.00     0.031 C 
ATOM     74  C   UNL A   1      46.369  26.352  32.269  1.00  0.00     0.034 A 
BRANCH  61  75
ATOM     75  C   UNL A   1      43.701  31.106  35.255  1.00  0.00     0.023 A 
ATOM     76  C   UNL A   1      44.410  32.316  35.132  1.00  0.00     0.031 A 
ATOM     77  C   UNL A   1      43.074  30.840  36.485  1.00  0.00     0.131 A 
ATOM     78  C   UNL A   1      44.548  33.165  36.241  1.00  0.00     0.055 A 
ATOM     79  C   UNL A   1      43.136  31.735  37.556  1.00  0.00     0.041 A 
ATOM     80  F   UNL A   1      42.402  29.694  36.677  1.00  0.00    -0.206 F 
ATOM     81  C   UNL A   1      43.893  32.898  37.443  1.00  0.00     0.022 A 
BRANCH  78  82
ATOM     82  S   UNL A   1      45.736  34.534  36.140  1.00  0.00     0.124 S 
ATOM     83  O   UNL A   1      46.911  33.864  35.588  1.00  0.00    -0.237 OA
ATOM     84  O   UNL A   1      45.059  35.473  35.253  1.00  0.00    -0.237 OA
ATOM     85  O   UNL A   1      45.873  34.972  37.528  1.00  0.00    -0.744 OA
ENDBRANCH  78  82
ENDBRANCH  61  75
BRANCH  62  86
ATOM     86  C   UNL A   1      43.113  24.967  27.332  1.00  0.00     0.023 A 
ATOM     87  C   UNL A   1      42.482  23.713  27.370  1.00  0.00     0.031 A 
ATOM     88  C   UNL A   1      43.721  25.362  26.127  1.00  0.00     0.131 A 
ATOM     89  C   UNL A   1      42.516  22.880  26.241  1.00  0.00     0.055 A 
ATOM     90  C   UNL A   1      43.702  24.554  24.990  1.00  0.00     0.041 A 
ATOM     91  F   UNL A   1      44.332  26.555  26.034  1.00  0.00    -0.206 F 
ATOM     92  C   UNL A   1      43.107  23.298  25.047  1.00  0.00     0.022 A 
BRANCH  89  93
ATOM     93  S   UNL A   1      41.843  21.200  26.380  1.00  0.00     0.124 S 
ATOM     94  O   UNL A   1      40.445  21.409  26.021  1.00  0.00    -0.237 OA
ATOM     95  O   UNL A   1      42.655  20.469  25.412  1.00  0.00    -0.237 OA
ATOM     96  O   UNL A   1      42.084  20.854  27.779  1.00  0.00    -0.744 OA
ENDBRANCH  89  93
ENDBRANCH  62  86
BRANCH  74  97
ATOM     97  C   UNL A   1      47.598  25.556  32.645  1.00  0.00     0.023 A 
ATOM     98  C   UNL A   1      47.570  24.584  33.662  1.00  0.00     0.031 A 
ATOM     99  C   UNL A   1      48.828  25.806  32.009  1.00  0.00     0.131 A 
ATOM    100  C   UNL A   1      48.761  23.967  34.074  1.00  0.00     0.055 A 
ATOM    101  C   UNL A   1      49.995  25.129  32.368  1.00  0.00     0.041 A 
ATOM    102  F   UNL A   1      48.920  26.724  31.034  1.00  0.00    -0.206 F 
ATOM    103  C   UNL A   1      49.969  24.218  33.420  1.00  0.00     0.022 A 
BRANCH 100 104
ATOM    104  S   UNL A   1      48.734  22.947  35.574  1.00  0.00     0.124 S 
ATOM    105  O   UNL A   1      47.767  23.656  36.404  1.00  0.00    -0.237 OA
ATOM    106  O   UNL A   1      48.303  21.651  35.060  1.00  0.00    -0.237 OA
ATOM    107  O   UNL A   1      50.115  22.999  36.048  1.00  0.00    -0.744 OA
ENDBRANCH 100 104
ENDBRANCH  74  97
ENDBRANCH  48  49
ENDBRANCH  40  43
ENDBRANCH  38  39
ENDBRANCH  37  38
ENDBRANCH  36  37
ENDBRANCH   1  36
TORSDOF 22
ENDMDL
