MODEL 1
REMARK VINA RESULT:     -13.0      0.000      0.000
REMARK SMILES O=C(NCCCCCCNC(=O)[C@@H]1[C@@H](C(=O)Nc2nc(-c3ccc(F)cc3)cs2)[C@H]2C=C[C@@H]1O2)c1ccc(-c2c3nc(c(-c4cc(S(=O)(=O)[O-])ccc4F)c4ccc([nH]4)c(-c4cc(S(=O)(=O)[O-])ccc4F)c4nc(c(-c5cc(S(=O)(=O)[O-])ccc5F)c5ccc2[nH]5)C=C4)C=C3)cc1
REMARK SMILES IDX 6 1 5 2 4 3 3 4 1 5 2 6 35 8 36 9 97 10 37 11 96 12 38 13
REMARK SMILES IDX 39 14 40 15 90 16 41 17 95 18 89 19 91 20 42 21 94 22 88 23
REMARK SMILES IDX 87 24 43 26 75 27 55 28 74 29 56 30 59 31 73 32 92 33 57 34
REMARK SMILES IDX 58 35 72 37 93 38 60 39 44 40 45 41 53 42 46 43 52 44 54 45
REMARK SMILES IDX 51 46 47 47 48 48 49 49 50 50 76 51 77 52 85 53 78 54 84 55
REMARK SMILES IDX 86 56 83 57 79 58 80 59 81 60 82 61 61 62 62 63 70 64 63 65
REMARK SMILES IDX 69 66 71 67 68 68 64 69 65 70 66 71 67 72 7 73 8 74 9 75
REMARK SMILES IDX 10 76 11 77 12 79 13 80 14 81 33 82 30 83 32 84 34 85 31 86
REMARK SMILES IDX 15 87 16 88 17 89 18 91 19 92 29 93 20 94 28 95 21 96 22 97
REMARK SMILES IDX 27 98 23 99 26 100 24 101 25 102
REMARK H PARENT 3 7 91 25 59 36 10 78 17 90
REMARK Flexibility Score: inf
ROOT
ATOM      1  C   UNL A   1      37.000  20.812  25.024  1.00  0.00     0.002 C 
ENDROOT
BRANCH   1   2
ATOM      2  C   UNL A   1      38.218  19.887  24.958  1.00  0.00     0.021 C 
BRANCH   2   3
ATOM      3  C   UNL A   1      39.338  20.264  25.917  1.00  0.00     0.116 C 
BRANCH   3   4
ATOM      4  N   UNL A   1      40.357  19.229  25.989  1.00  0.00    -0.352 N 
ATOM      5  O   UNL A   1      42.460  18.416  25.901  1.00  0.00    -0.269 OA
ATOM      6  C   UNL A   1      41.719  19.381  26.064  1.00  0.00     0.251 C 
ATOM      7  H   UNL A   1      40.028  18.302  25.982  1.00  0.00     0.163 HD
BRANCH   6   8
ATOM      8  C   UNL A   1      42.281  20.719  26.341  1.00  0.00     0.039 A 
ATOM      9  C   UNL A   1      42.562  21.592  25.286  1.00  0.00     0.014 A 
ATOM     10  C   UNL A   1      42.510  21.108  27.664  1.00  0.00     0.014 A 
ATOM     11  C   UNL A   1      43.161  22.817  25.548  1.00  0.00     0.010 A 
ATOM     12  C   UNL A   1      43.039  22.373  27.929  1.00  0.00     0.010 A 
ATOM     13  C   UNL A   1      43.370  23.234  26.872  1.00  0.00    -0.014 A 
BRANCH  13  14
ATOM     14  C   UNL A   1      43.814  24.626  27.126  1.00  0.00     0.031 A 
ATOM     15  C   UNL A   1      42.878  25.662  27.670  1.00  0.00     0.074 A 
ATOM     16  C   UNL A   1      45.103  24.930  26.879  1.00  0.00     0.049 A 
ATOM     17  N   UNL A   1      43.119  26.918  27.949  1.00  0.00    -0.248 NA
ATOM     18  C   UNL A   1      41.494  25.240  27.930  1.00  0.00     0.031 C 
ATOM     19  C   UNL A   1      46.100  23.988  26.360  1.00  0.00     0.029 A 
ATOM     20  N   UNL A   1      45.805  26.091  27.057  1.00  0.00    -0.354 N 
ATOM     21  C   UNL A   1      41.918  27.442  28.414  1.00  0.00     0.074 A 
ATOM     22  C   UNL A   1      40.943  26.371  28.349  1.00  0.00     0.031 C 
ATOM     23  C   UNL A   1      47.295  24.589  26.326  1.00  0.00     0.029 A 
ATOM     24  C   UNL A   1      47.138  25.976  26.746  1.00  0.00     0.049 A 
ATOM     25  H   UNL A   1      45.395  26.927  27.377  1.00  0.00     0.167 HD
ATOM     26  C   UNL A   1      41.663  28.698  28.859  1.00  0.00     0.034 A 
ATOM     27  C   UNL A   1      48.127  26.887  26.776  1.00  0.00     0.034 A 
ATOM     28  C   UNL A   1      42.651  29.752  28.901  1.00  0.00     0.049 A 
ATOM     29  C   UNL A   1      47.807  28.288  27.204  1.00  0.00     0.074 A 
ATOM     30  C   UNL A   1      42.497  31.060  29.328  1.00  0.00     0.029 A 
ATOM     31  N   UNL A   1      43.974  29.623  28.494  1.00  0.00    -0.354 N 
ATOM     32  N   UNL A   1      46.657  28.781  27.601  1.00  0.00    -0.248 NA
ATOM     33  C   UNL A   1      48.908  29.256  27.179  1.00  0.00     0.031 C 
ATOM     34  C   UNL A   1      43.706  31.735  29.122  1.00  0.00     0.029 A 
ATOM     35  C   UNL A   1      44.639  30.832  28.637  1.00  0.00     0.049 A 
ATOM     36  H   UNL A   1      44.380  28.793  28.154  1.00  0.00     0.167 HD
ATOM     37  C   UNL A   1      46.899  30.119  27.887  1.00  0.00     0.074 A 
ATOM     38  C   UNL A   1      48.306  30.353  27.620  1.00  0.00     0.031 C 
ATOM     39  C   UNL A   1      46.034  31.061  28.340  1.00  0.00     0.034 A 
BRANCH  26  40
ATOM     40  C   UNL A   1      40.252  29.008  29.292  1.00  0.00     0.023 A 
ATOM     41  C   UNL A   1      39.856  28.920  30.638  1.00  0.00     0.031 A 
ATOM     42  C   UNL A   1      39.286  29.392  28.345  1.00  0.00     0.131 A 
ATOM     43  C   UNL A   1      38.519  29.156  30.992  1.00  0.00     0.055 A 
ATOM     44  C   UNL A   1      37.972  29.692  28.713  1.00  0.00     0.041 A 
ATOM     45  F   UNL A   1      39.600  29.474  27.042  1.00  0.00    -0.206 F 
ATOM     46  C   UNL A   1      37.579  29.564  30.041  1.00  0.00     0.022 A 
BRANCH  43  47
ATOM     47  S   UNL A   1      37.998  28.814  32.696  1.00  0.00     0.124 S 
ATOM     48  O   UNL A   1      39.015  29.529  33.464  1.00  0.00    -0.237 OA
ATOM     49  O   UNL A   1      36.655  29.381  32.735  1.00  0.00    -0.237 OA
ATOM     50  O   UNL A   1      38.063  27.358  32.790  1.00  0.00    -0.744 OA
ENDBRANCH  43  47
ENDBRANCH  26  40
BRANCH  27  51
ATOM     51  C   UNL A   1      49.498  26.480  26.373  1.00  0.00     0.023 A 
ATOM     52  C   UNL A   1      50.028  26.873  25.135  1.00  0.00     0.031 A 
ATOM     53  C   UNL A   1      50.325  25.768  27.260  1.00  0.00     0.131 A 
ATOM     54  C   UNL A   1      51.357  26.553  24.818  1.00  0.00     0.055 A 
ATOM     55  C   UNL A   1      51.654  25.481  26.952  1.00  0.00     0.041 A 
ATOM     56  F   UNL A   1      49.863  25.393  28.463  1.00  0.00    -0.206 F 
ATOM     57  C   UNL A   1      52.178  25.874  25.724  1.00  0.00     0.022 A 
BRANCH  54  58
ATOM     58  S   UNL A   1      52.013  27.059  23.205  1.00  0.00     0.124 S 
ATOM     59  O   UNL A   1      52.572  28.371  23.510  1.00  0.00    -0.237 OA
ATOM     60  O   UNL A   1      52.977  26.001  22.920  1.00  0.00    -0.237 OA
ATOM     61  O   UNL A   1      50.831  27.066  22.346  1.00  0.00    -0.744 OA
ENDBRANCH  54  58
ENDBRANCH  27  51
BRANCH  39  62
ATOM     62  C   UNL A   1      46.596  32.430  28.606  1.00  0.00     0.023 A 
ATOM     63  C   UNL A   1      46.553  33.448  27.639  1.00  0.00     0.031 A 
ATOM     64  C   UNL A   1      47.165  32.725  29.859  1.00  0.00     0.131 A 
ATOM     65  C   UNL A   1      47.100  34.707  27.929  1.00  0.00     0.055 A 
ATOM     66  C   UNL A   1      47.664  33.992  30.158  1.00  0.00     0.041 A 
ATOM     67  F   UNL A   1      47.230  31.785  30.816  1.00  0.00    -0.206 F 
ATOM     68  C   UNL A   1      47.639  34.990  29.188  1.00  0.00     0.022 A 
BRANCH  65  69
ATOM     69  S   UNL A   1      47.140  35.966  26.623  1.00  0.00     0.124 S 
ATOM     70  O   UNL A   1      46.422  37.071  27.250  1.00  0.00    -0.237 OA
ATOM     71  O   UNL A   1      48.571  36.166  26.423  1.00  0.00    -0.237 OA
ATOM     72  O   UNL A   1      46.444  35.326  25.509  1.00  0.00    -0.744 OA
ENDBRANCH  65  69
ENDBRANCH  39  62
ENDBRANCH  13  14
ENDBRANCH   6   8
ENDBRANCH   3   4
ENDBRANCH   2   3
ENDBRANCH   1   2
BRANCH   1  73
ATOM     73  C   UNL A   1      37.315  22.303  24.856  1.00  0.00     0.002 C 
BRANCH  73  74
ATOM     74  C   UNL A   1      36.569  23.238  25.818  1.00  0.00     0.021 C 
BRANCH  74  75
ATOM     75  C   UNL A   1      35.566  24.159  25.124  1.00  0.00     0.116 C 
BRANCH  75  76
ATOM     76  N   UNL A   1      35.272  23.668  23.797  1.00  0.00    -0.356 N 
ATOM     77  C   UNL A   1      34.234  23.913  22.956  1.00  0.00     0.227 C 
ATOM     78  H   UNL A   1      35.945  23.045  23.438  1.00  0.00     0.163 HD
ATOM     79  O   UNL A   1      34.243  23.286  21.893  1.00  0.00    -0.275 OA
BRANCH  77  80
ATOM     80  C   UNL A   1      33.222  25.015  23.239  1.00  0.00     0.127 C 
ATOM     81  C   UNL A   1      31.801  24.871  22.581  1.00  0.00     0.127 C 
ATOM     82  C   UNL A   1      33.727  26.318  22.585  1.00  0.00     0.155 C 
ATOM     83  C   UNL A   1      31.793  26.092  21.635  1.00  0.00     0.155 C 
ATOM     84  C   UNL A   1      32.900  27.496  23.023  1.00  0.00     0.004 C 
ATOM     85  O   UNL A   1      33.188  26.151  21.247  1.00  0.00    -0.365 OA
ATOM     86  C   UNL A   1      31.717  27.373  22.412  1.00  0.00     0.004 C 
BRANCH  81  87
ATOM     87  C   UNL A   1      30.696  24.922  23.649  1.00  0.00     0.233 C 
ATOM     88  O   UNL A   1      29.873  25.844  23.671  1.00  0.00    -0.274 OA
ATOM     89  N   UNL A   1      30.549  23.957  24.596  1.00  0.00    -0.302 N 
ATOM     90  H   UNL A   1      29.728  23.986  25.138  1.00  0.00     0.172 HD
BRANCH  89  91
ATOM     91  C   UNL A   1      31.428  22.958  24.865  1.00  0.00     0.189 A 
ATOM     92  N   UNL A   1      31.647  21.876  24.170  1.00  0.00    -0.220 NA
ATOM     93  S   UNL A   1      32.287  23.129  26.326  1.00  0.00    -0.105 S 
ATOM     94  C   UNL A   1      32.528  21.073  24.865  1.00  0.00     0.084 A 
ATOM     95  C   UNL A   1      32.934  21.553  26.095  1.00  0.00     0.097 A 
BRANCH  94  96
ATOM     96  C   UNL A   1      32.972  19.816  24.311  1.00  0.00     0.001 A 
ATOM     97  C   UNL A   1      32.247  19.234  23.263  1.00  0.00     0.013 A 
ATOM     98  C   UNL A   1      34.090  19.159  24.841  1.00  0.00     0.013 A 
ATOM     99  C   UNL A   1      32.647  18.007  22.736  1.00  0.00     0.040 A 
ATOM    100  C   UNL A   1      34.485  17.930  24.313  1.00  0.00     0.040 A 
ATOM    101  C   UNL A   1      33.762  17.366  23.266  1.00  0.00     0.123 A 
ATOM    102  F   UNL A   1      34.143  16.184  22.764  1.00  0.00    -0.207 F 
ENDBRANCH  94  96
ENDBRANCH  89  91
ENDBRANCH  81  87
ENDBRANCH  77  80
ENDBRANCH  75  76
ENDBRANCH  74  75
ENDBRANCH  73  74
ENDBRANCH   1  73
TORSDOF 19
ENDMDL
MODEL 2
REMARK VINA RESULT:     -12.9      0.491      7.452
REMARK SMILES O=C(NCCCCCCNC(=O)[C@@H]1[C@@H](C(=O)Nc2nc(-c3ccc(F)cc3)cs2)[C@H]2C=C[C@@H]1O2)c1ccc(-c2c3nc(c(-c4cc(S(=O)(=O)[O-])ccc4F)c4ccc([nH]4)c(-c4cc(S(=O)(=O)[O-])ccc4F)c4nc(c(-c5cc(S(=O)(=O)[O-])ccc5F)c5ccc2[nH]5)C=C4)C=C3)cc1
REMARK SMILES IDX 6 1 5 2 4 3 3 4 1 5 2 6 35 8 36 9 97 10 37 11 96 12 38 13
REMARK SMILES IDX 39 14 40 15 90 16 41 17 95 18 89 19 91 20 42 21 94 22 88 23
REMARK SMILES IDX 87 24 43 26 75 27 55 28 74 29 56 30 59 31 73 32 92 33 57 34
REMARK SMILES IDX 58 35 72 37 93 38 60 39 44 40 45 41 53 42 46 43 52 44 54 45
REMARK SMILES IDX 51 46 47 47 48 48 49 49 50 50 76 51 77 52 85 53 78 54 84 55
REMARK SMILES IDX 86 56 83 57 79 58 80 59 81 60 82 61 61 62 62 63 70 64 63 65
REMARK SMILES IDX 69 66 71 67 68 68 64 69 65 70 66 71 67 72 7 73 8 74 9 75
REMARK SMILES IDX 10 76 11 77 12 79 13 80 14 81 33 82 30 83 32 84 34 85 31 86
REMARK SMILES IDX 15 87 16 88 17 89 18 91 19 92 29 93 20 94 28 95 21 96 22 97
REMARK SMILES IDX 27 98 23 99 26 100 24 101 25 102
REMARK H PARENT 3 7 91 25 59 36 10 78 17 90
REMARK Flexibility Score: inf
ROOT
ATOM      1  C   UNL A   1      36.947  20.735  25.012  1.00  0.00     0.002 C 
ENDROOT
BRANCH   1   2
ATOM      2  C   UNL A   1      38.140  19.776  25.000  1.00  0.00     0.021 C 
BRANCH   2   3
ATOM      3  C   UNL A   1      39.316  20.236  25.851  1.00  0.00     0.116 C 
BRANCH   3   4
ATOM      4  N   UNL A   1      40.330  19.201  25.973  1.00  0.00    -0.352 N 
ATOM      5  O   UNL A   1      42.435  18.389  26.000  1.00  0.00    -0.269 OA
ATOM      6  C   UNL A   1      41.685  19.352  26.128  1.00  0.00     0.251 C 
ATOM      7  H   UNL A   1      40.002  18.273  25.939  1.00  0.00     0.163 HD
BRANCH   6   8
ATOM      8  C   UNL A   1      42.229  20.687  26.448  1.00  0.00     0.039 A 
ATOM      9  C   UNL A   1      42.557  21.575  25.419  1.00  0.00     0.014 A 
ATOM     10  C   UNL A   1      42.394  21.060  27.784  1.00  0.00     0.014 A 
ATOM     11  C   UNL A   1      43.140  22.798  25.724  1.00  0.00     0.010 A 
ATOM     12  C   UNL A   1      42.907  22.323  28.090  1.00  0.00     0.010 A 
ATOM     13  C   UNL A   1      43.285  23.199  27.061  1.00  0.00    -0.014 A 
BRANCH  13  14
ATOM     14  C   UNL A   1      43.712  24.588  27.353  1.00  0.00     0.031 A 
ATOM     15  C   UNL A   1      45.124  25.039  27.133  1.00  0.00     0.074 A 
ATOM     16  C   UNL A   1      42.779  25.452  27.798  1.00  0.00     0.049 A 
ATOM     17  N   UNL A   1      45.647  26.221  27.335  1.00  0.00    -0.248 NA
ATOM     18  C   UNL A   1      46.072  24.037  26.624  1.00  0.00     0.031 C 
ATOM     19  C   UNL A   1      41.371  25.115  28.035  1.00  0.00     0.029 A 
ATOM     20  N   UNL A   1      42.856  26.784  28.102  1.00  0.00    -0.354 N 
ATOM     21  C   UNL A   1      46.988  26.110  26.985  1.00  0.00     0.074 A 
ATOM     22  C   UNL A   1      47.201  24.733  26.586  1.00  0.00     0.031 C 
ATOM     23  C   UNL A   1      40.707  26.224  28.379  1.00  0.00     0.029 A 
ATOM     24  C   UNL A   1      41.649  27.332  28.464  1.00  0.00     0.049 A 
ATOM     25  H   UNL A   1      43.694  27.300  28.063  1.00  0.00     0.167 HD
ATOM     26  C   UNL A   1      47.943  27.073  26.992  1.00  0.00     0.034 A 
ATOM     27  C   UNL A   1      41.333  28.584  28.841  1.00  0.00     0.034 A 
ATOM     28  C   UNL A   1      47.708  28.436  27.408  1.00  0.00     0.049 A 
ATOM     29  C   UNL A   1      42.420  29.615  28.908  1.00  0.00     0.074 A 
ATOM     30  C   UNL A   1      48.605  29.489  27.459  1.00  0.00     0.029 A 
ATOM     31  N   UNL A   1      46.490  28.936  27.853  1.00  0.00    -0.354 N 
ATOM     32  N   UNL A   1      43.692  29.485  28.615  1.00  0.00    -0.248 NA
ATOM     33  C   UNL A   1      42.034  30.954  29.366  1.00  0.00     0.031 C 
ATOM     34  C   UNL A   1      47.948  30.604  27.990  1.00  0.00     0.029 A 
ATOM     35  C   UNL A   1      46.618  30.272  28.203  1.00  0.00     0.049 A 
ATOM     36  H   UNL A   1      45.655  28.416  27.912  1.00  0.00     0.167 HD
ATOM     37  C   UNL A   1      44.261  30.732  28.841  1.00  0.00     0.074 A 
ATOM     38  C   UNL A   1      43.189  31.602  29.291  1.00  0.00     0.031 C 
ATOM     39  C   UNL A   1      45.550  31.121  28.678  1.00  0.00     0.034 A 
BRANCH  26  40
ATOM     40  C   UNL A   1      49.337  26.670  26.579  1.00  0.00     0.023 A 
ATOM     41  C   UNL A   1      49.906  27.112  25.371  1.00  0.00     0.031 A 
ATOM     42  C   UNL A   1      50.107  25.828  27.401  1.00  0.00     0.131 A 
ATOM     43  C   UNL A   1      51.181  26.665  24.993  1.00  0.00     0.055 A 
ATOM     44  C   UNL A   1      51.403  25.442  27.051  1.00  0.00     0.041 A 
ATOM     45  F   UNL A   1      49.610  25.359  28.556  1.00  0.00    -0.206 F 
ATOM     46  C   UNL A   1      51.943  25.851  25.836  1.00  0.00     0.022 A 
BRANCH  43  47
ATOM     47  S   UNL A   1      51.787  27.073  23.332  1.00  0.00     0.124 S 
ATOM     48  O   UNL A   1      52.784  26.025  23.118  1.00  0.00    -0.237 OA
ATOM     49  O   UNL A   1      50.579  26.977  22.522  1.00  0.00    -0.237 OA
ATOM     50  O   UNL A   1      52.331  28.420  23.486  1.00  0.00    -0.744 OA
ENDBRANCH  43  47
ENDBRANCH  26  40
BRANCH  27  51
ATOM     51  C   UNL A   1      39.924  28.900  29.188  1.00  0.00     0.023 A 
ATOM     52  C   UNL A   1      39.499  28.906  30.524  1.00  0.00     0.031 A 
ATOM     53  C   UNL A   1      39.008  29.286  28.193  1.00  0.00     0.131 A 
ATOM     54  C   UNL A   1      38.186  29.298  30.833  1.00  0.00     0.055 A 
ATOM     55  C   UNL A   1      37.716  29.705  28.508  1.00  0.00     0.041 A 
ATOM     56  F   UNL A   1      39.382  29.316  26.904  1.00  0.00    -0.206 F 
ATOM     57  C   UNL A   1      37.298  29.712  29.836  1.00  0.00     0.022 A 
BRANCH  54  58
ATOM     58  S   UNL A   1      37.658  29.282  32.567  1.00  0.00     0.124 S 
ATOM     59  O   UNL A   1      38.700  30.079  33.202  1.00  0.00    -0.237 OA
ATOM     60  O   UNL A   1      36.336  29.895  32.491  1.00  0.00    -0.237 OA
ATOM     61  O   UNL A   1      37.661  27.861  32.909  1.00  0.00    -0.744 OA
ENDBRANCH  54  58
ENDBRANCH  27  51
BRANCH  39  62
ATOM     62  C   UNL A   1      45.868  32.564  28.960  1.00  0.00     0.023 A 
ATOM     63  C   UNL A   1      45.623  33.573  28.014  1.00  0.00     0.031 A 
ATOM     64  C   UNL A   1      46.406  32.934  30.205  1.00  0.00     0.131 A 
ATOM     65  C   UNL A   1      45.946  34.904  28.318  1.00  0.00     0.055 A 
ATOM     66  C   UNL A   1      46.681  34.265  30.519  1.00  0.00     0.041 A 
ATOM     67  F   UNL A   1      46.660  32.005  31.142  1.00  0.00    -0.206 F 
ATOM     68  C   UNL A   1      46.457  35.258  29.570  1.00  0.00     0.022 A 
BRANCH  65  69
ATOM     69  S   UNL A   1      45.731  36.171  27.037  1.00  0.00     0.124 S 
ATOM     70  O   UNL A   1      46.692  35.741  26.026  1.00  0.00    -0.237 OA
ATOM     71  O   UNL A   1      44.323  36.025  26.682  1.00  0.00    -0.237 OA
ATOM     72  O   UNL A   1      46.069  37.415  27.726  1.00  0.00    -0.744 OA
ENDBRANCH  65  69
ENDBRANCH  39  62
ENDBRANCH  13  14
ENDBRANCH   6   8
ENDBRANCH   3   4
ENDBRANCH   2   3
ENDBRANCH   1   2
BRANCH   1  73
ATOM     73  C   UNL A   1      37.317  22.222  24.965  1.00  0.00     0.002 C 
BRANCH  73  74
ATOM     74  C   UNL A   1      36.451  23.136  25.844  1.00  0.00     0.021 C 
BRANCH  74  75
ATOM     75  C   UNL A   1      35.651  24.171  25.053  1.00  0.00     0.116 C 
BRANCH  75  76
ATOM     76  N   UNL A   1      35.304  23.644  23.752  1.00  0.00    -0.356 N 
ATOM     77  C   UNL A   1      34.229  23.863  22.951  1.00  0.00     0.227 C 
ATOM     78  H   UNL A   1      35.964  23.016  23.380  1.00  0.00     0.163 HD
ATOM     79  O   UNL A   1      34.196  23.209  21.904  1.00  0.00    -0.275 OA
BRANCH  77  80
ATOM     80  C   UNL A   1      33.223  24.966  23.249  1.00  0.00     0.127 C 
ATOM     81  C   UNL A   1      31.797  24.832  22.600  1.00  0.00     0.127 C 
ATOM     82  C   UNL A   1      33.728  26.272  22.603  1.00  0.00     0.155 C 
ATOM     83  C   UNL A   1      31.787  26.062  21.664  1.00  0.00     0.155 C 
ATOM     84  C   UNL A   1      32.909  27.450  23.056  1.00  0.00     0.004 C 
ATOM     85  O   UNL A   1      33.180  26.119  21.268  1.00  0.00    -0.365 OA
ATOM     86  C   UNL A   1      31.721  27.336  22.452  1.00  0.00     0.004 C 
BRANCH  81  87
ATOM     87  C   UNL A   1      30.699  24.878  23.676  1.00  0.00     0.233 C 
ATOM     88  O   UNL A   1      29.874  25.798  23.705  1.00  0.00    -0.274 OA
ATOM     89  N   UNL A   1      30.562  23.912  24.621  1.00  0.00    -0.302 N 
ATOM     90  H   UNL A   1      29.744  23.938  25.169  1.00  0.00     0.172 HD
BRANCH  89  91
ATOM     91  C   UNL A   1      31.444  22.914  24.883  1.00  0.00     0.189 A 
ATOM     92  N   UNL A   1      31.665  21.837  24.182  1.00  0.00    -0.220 NA
ATOM     93  S   UNL A   1      32.308  23.081  26.342  1.00  0.00    -0.105 S 
ATOM     94  C   UNL A   1      32.552  21.034  24.870  1.00  0.00     0.084 A 
ATOM     95  C   UNL A   1      32.960  21.509  26.101  1.00  0.00     0.097 A 
BRANCH  94  96
ATOM     96  C   UNL A   1      32.999  19.781  24.308  1.00  0.00     0.001 A 
ATOM     97  C   UNL A   1      32.285  19.214  23.243  1.00  0.00     0.013 A 
ATOM     98  C   UNL A   1      34.105  19.113  24.847  1.00  0.00     0.013 A 
ATOM     99  C   UNL A   1      32.688  17.991  22.709  1.00  0.00     0.040 A 
ATOM    100  C   UNL A   1      34.503  17.888  24.311  1.00  0.00     0.040 A 
ATOM    101  C   UNL A   1      33.793  17.339  23.247  1.00  0.00     0.123 A 
ATOM    102  F   UNL A   1      34.176  16.162  22.738  1.00  0.00    -0.207 F 
ENDBRANCH  94  96
ENDBRANCH  89  91
ENDBRANCH  81  87
ENDBRANCH  77  80
ENDBRANCH  75  76
ENDBRANCH  74  75
ENDBRANCH  73  74
ENDBRANCH   1  73
TORSDOF 19
ENDMDL
MODEL 3
REMARK VINA RESULT:     -12.5      5.406      9.224
REMARK SMILES O=C(NCCCCCCNC(=O)[C@@H]1[C@@H](C(=O)Nc2nc(-c3ccc(F)cc3)cs2)[C@H]2C=C[C@@H]1O2)c1ccc(-c2c3nc(c(-c4cc(S(=O)(=O)[O-])ccc4F)c4ccc([nH]4)c(-c4cc(S(=O)(=O)[O-])ccc4F)c4nc(c(-c5cc(S(=O)(=O)[O-])ccc5F)c5ccc2[nH]5)C=C4)C=C3)cc1
REMARK SMILES IDX 6 1 5 2 4 3 3 4 1 5 2 6 35 8 36 9 97 10 37 11 96 12 38 13
REMARK SMILES IDX 39 14 40 15 90 16 41 17 95 18 89 19 91 20 42 21 94 22 88 23
REMARK SMILES IDX 87 24 43 26 75 27 55 28 74 29 56 30 59 31 73 32 92 33 57 34
REMARK SMILES IDX 58 35 72 37 93 38 60 39 44 40 45 41 53 42 46 43 52 44 54 45
REMARK SMILES IDX 51 46 47 47 48 48 49 49 50 50 76 51 77 52 85 53 78 54 84 55
REMARK SMILES IDX 86 56 83 57 79 58 80 59 81 60 82 61 61 62 62 63 70 64 63 65
REMARK SMILES IDX 69 66 71 67 68 68 64 69 65 70 66 71 67 72 7 73 8 74 9 75
REMARK SMILES IDX 10 76 11 77 12 79 13 80 14 81 33 82 30 83 32 84 34 85 31 86
REMARK SMILES IDX 15 87 16 88 17 89 18 91 19 92 29 93 20 94 28 95 21 96 22 97
REMARK SMILES IDX 27 98 23 99 26 100 24 101 25 102
REMARK H PARENT 3 7 91 25 59 36 10 78 17 90
REMARK Flexibility Score: inf
ROOT
ATOM      1  C   UNL A   1      32.047  29.711  25.696  1.00  0.00     0.002 C 
ENDROOT
BRANCH   1   2
ATOM      2  C   UNL A   1      31.724  31.100  26.251  1.00  0.00     0.021 C 
BRANCH   2   3
ATOM      3  C   UNL A   1      32.829  31.698  27.111  1.00  0.00     0.116 C 
BRANCH   3   4
ATOM      4  N   UNL A   1      32.625  33.121  27.336  1.00  0.00    -0.352 N 
ATOM      5  O   UNL A   1      32.796  35.058  28.481  1.00  0.00    -0.269 OA
ATOM      6  C   UNL A   1      33.226  33.929  28.268  1.00  0.00     0.251 C 
ATOM      7  H   UNL A   1      31.971  33.559  26.745  1.00  0.00     0.163 HD
BRANCH   6   8
ATOM      8  C   UNL A   1      34.396  33.421  29.014  1.00  0.00     0.039 A 
ATOM      9  C   UNL A   1      34.217  32.526  30.074  1.00  0.00     0.014 A 
ATOM     10  C   UNL A   1      35.679  33.828  28.641  1.00  0.00     0.014 A 
ATOM     11  C   UNL A   1      35.313  32.113  30.819  1.00  0.00     0.010 A 
ATOM     12  C   UNL A   1      36.788  33.349  29.343  1.00  0.00     0.010 A 
ATOM     13  C   UNL A   1      36.611  32.490  30.438  1.00  0.00    -0.014 A 
BRANCH  13  14
ATOM     14  C   UNL A   1      37.770  31.867  31.121  1.00  0.00     0.031 A 
ATOM     15  C   UNL A   1      38.143  32.230  32.526  1.00  0.00     0.074 A 
ATOM     16  C   UNL A   1      38.469  30.934  30.447  1.00  0.00     0.049 A 
ATOM     17  N   UNL A   1      39.123  31.769  33.259  1.00  0.00    -0.248 NA
ATOM     18  C   UNL A   1      37.313  33.242  33.195  1.00  0.00     0.031 C 
ATOM     19  C   UNL A   1      38.180  30.499  29.076  1.00  0.00     0.029 A 
ATOM     20  N   UNL A   1      39.536  30.162  30.820  1.00  0.00    -0.354 N 
ATOM     21  C   UNL A   1      39.037  32.435  34.476  1.00  0.00     0.074 A 
ATOM     22  C   UNL A   1      37.923  33.356  34.367  1.00  0.00     0.031 C 
ATOM     23  C   UNL A   1      39.003  29.494  28.752  1.00  0.00     0.029 A 
ATOM     24  C   UNL A   1      39.926  29.265  29.856  1.00  0.00     0.049 A 
ATOM     25  H   UNL A   1      39.981  30.242  31.695  1.00  0.00     0.167 HD
ATOM     26  C   UNL A   1      39.814  32.282  35.577  1.00  0.00     0.034 A 
ATOM     27  C   UNL A   1      40.927  28.366  29.847  1.00  0.00     0.034 A 
ATOM     28  C   UNL A   1      40.929  31.367  35.654  1.00  0.00     0.049 A 
ATOM     29  C   UNL A   1      41.817  28.265  31.050  1.00  0.00     0.074 A 
ATOM     30  C   UNL A   1      41.783  31.137  36.718  1.00  0.00     0.029 A 
ATOM     31  N   UNL A   1      41.350  30.533  34.624  1.00  0.00    -0.354 N 
ATOM     32  N   UNL A   1      41.749  28.932  32.178  1.00  0.00    -0.248 NA
ATOM     33  C   UNL A   1      42.920  27.301  30.977  1.00  0.00     0.031 C 
ATOM     34  C   UNL A   1      42.755  30.214  36.313  1.00  0.00     0.029 A 
ATOM     35  C   UNL A   1      42.465  29.809  35.019  1.00  0.00     0.049 A 
ATOM     36  H   UNL A   1      40.919  30.467  33.741  1.00  0.00     0.167 HD
ATOM     37  C   UNL A   1      42.797  28.459  32.959  1.00  0.00     0.074 A 
ATOM     38  C   UNL A   1      43.477  27.447  32.172  1.00  0.00     0.031 C 
ATOM     39  C   UNL A   1      43.152  28.824  34.216  1.00  0.00     0.034 A 
BRANCH  26  40
ATOM     40  C   UNL A   1      39.510  33.157  36.767  1.00  0.00     0.023 A 
ATOM     41  C   UNL A   1      40.159  34.389  36.965  1.00  0.00     0.031 A 
ATOM     42  C   UNL A   1      38.560  32.753  37.722  1.00  0.00     0.131 A 
ATOM     43  C   UNL A   1      39.893  35.144  38.117  1.00  0.00     0.055 A 
ATOM     44  C   UNL A   1      38.249  33.542  38.833  1.00  0.00     0.041 A 
ATOM     45  F   UNL A   1      37.922  31.578  37.597  1.00  0.00    -0.206 F 
ATOM     46  C   UNL A   1      38.925  34.740  39.041  1.00  0.00     0.022 A 
BRANCH  43  47
ATOM     47  S   UNL A   1      40.910  36.609  38.449  1.00  0.00     0.124 S 
ATOM     48  O   UNL A   1      41.546  36.826  37.152  1.00  0.00    -0.237 OA
ATOM     49  O   UNL A   1      39.916  37.600  38.845  1.00  0.00    -0.237 OA
ATOM     50  O   UNL A   1      41.810  36.169  39.513  1.00  0.00    -0.744 OA
ENDBRANCH  43  47
ENDBRANCH  26  40
BRANCH  27  51
ATOM     51  C   UNL A   1      41.125  27.516  28.646  1.00  0.00     0.023 A 
ATOM     52  C   UNL A   1      42.102  27.837  27.693  1.00  0.00     0.031 A 
ATOM     53  C   UNL A   1      40.397  26.323  28.483  1.00  0.00     0.131 A 
ATOM     54  C   UNL A   1      42.331  26.967  26.615  1.00  0.00     0.055 A 
ATOM     55  C   UNL A   1      40.651  25.448  27.428  1.00  0.00     0.041 A 
ATOM     56  F   UNL A   1      39.469  25.968  29.385  1.00  0.00    -0.206 F 
ATOM     57  C   UNL A   1      41.624  25.769  26.486  1.00  0.00     0.022 A 
BRANCH  54  58
ATOM     58  S   UNL A   1      43.590  27.413  25.389  1.00  0.00     0.124 S 
ATOM     59  O   UNL A   1      42.769  27.815  24.253  1.00  0.00    -0.237 OA
ATOM     60  O   UNL A   1      44.316  28.482  26.068  1.00  0.00    -0.237 OA
ATOM     61  O   UNL A   1      44.342  26.173  25.209  1.00  0.00    -0.744 OA
ENDBRANCH  54  58
ENDBRANCH  27  51
BRANCH  39  62
ATOM     62  C   UNL A   1      44.316  28.099  34.834  1.00  0.00     0.023 A 
ATOM     63  C   UNL A   1      44.156  26.866  35.489  1.00  0.00     0.031 A 
ATOM     64  C   UNL A   1      45.610  28.643  34.744  1.00  0.00     0.131 A 
ATOM     65  C   UNL A   1      45.270  26.232  36.058  1.00  0.00     0.055 A 
ATOM     66  C   UNL A   1      46.721  27.984  35.271  1.00  0.00     0.041 A 
ATOM     67  F   UNL A   1      45.814  29.819  34.129  1.00  0.00    -0.206 F 
ATOM     68  C   UNL A   1      46.553  26.774  35.938  1.00  0.00     0.022 A 
BRANCH  65  69
ATOM     69  S   UNL A   1      45.018  24.703  37.002  1.00  0.00     0.124 S 
ATOM     70  O   UNL A   1      44.056  23.991  36.168  1.00  0.00    -0.237 OA
ATOM     71  O   UNL A   1      46.363  24.138  37.050  1.00  0.00    -0.237 OA
ATOM     72  O   UNL A   1      44.500  25.173  38.285  1.00  0.00    -0.744 OA
ENDBRANCH  65  69
ENDBRANCH  39  62
ENDBRANCH  13  14
ENDBRANCH   6   8
ENDBRANCH   3   4
ENDBRANCH   2   3
ENDBRANCH   1   2
BRANCH   1  73
ATOM     73  C   UNL A   1      31.144  29.252  24.545  1.00  0.00     0.002 C 
BRANCH  73  74
ATOM     74  C   UNL A   1      31.749  29.409  23.142  1.00  0.00     0.021 C 
BRANCH  74  75
ATOM     75  C   UNL A   1      33.223  29.012  23.060  1.00  0.00     0.116 C 
BRANCH  75  76
ATOM     76  N   UNL A   1      33.392  27.914  22.135  1.00  0.00    -0.356 N 
ATOM     77  C   UNL A   1      33.249  26.573  22.295  1.00  0.00     0.227 C 
ATOM     78  H   UNL A   1      33.660  28.186  21.228  1.00  0.00     0.163 HD
ATOM     79  O   UNL A   1      33.524  25.881  21.311  1.00  0.00    -0.275 OA
BRANCH  77  80
ATOM     80  C   UNL A   1      32.626  25.982  23.552  1.00  0.00     0.127 C 
ATOM     81  C   UNL A   1      33.211  24.618  24.071  1.00  0.00     0.127 C 
ATOM     82  C   UNL A   1      31.170  25.585  23.233  1.00  0.00     0.155 C 
ATOM     83  C   UNL A   1      31.988  23.690  23.893  1.00  0.00     0.155 C 
ATOM     84  C   UNL A   1      30.424  25.216  24.487  1.00  0.00     0.004 C 
ATOM     85  O   UNL A   1      31.386  24.251  22.701  1.00  0.00    -0.365 OA
ATOM     86  C   UNL A   1      30.908  24.031  24.877  1.00  0.00     0.004 C 
BRANCH  81  87
ATOM     87  C   UNL A   1      33.674  24.741  25.532  1.00  0.00     0.233 C 
ATOM     88  O   UNL A   1      33.557  25.805  26.150  1.00  0.00    -0.274 OA
ATOM     89  N   UNL A   1      34.203  23.695  26.222  1.00  0.00    -0.302 N 
ATOM     90  H   UNL A   1      34.326  23.818  27.191  1.00  0.00     0.172 HD
BRANCH  89  91
ATOM     91  C   UNL A   1      34.578  22.499  25.701  1.00  0.00     0.189 A 
ATOM     92  N   UNL A   1      33.888  21.393  25.658  1.00  0.00    -0.220 NA
ATOM     93  S   UNL A   1      36.170  22.444  25.098  1.00  0.00    -0.105 S 
ATOM     94  C   UNL A   1      34.691  20.389  25.157  1.00  0.00     0.084 A 
ATOM     95  C   UNL A   1      35.990  20.751  24.862  1.00  0.00     0.097 A 
BRANCH  94  96
ATOM     96  C   UNL A   1      34.171  19.055  24.971  1.00  0.00     0.001 A 
ATOM     97  C   UNL A   1      32.896  18.741  25.462  1.00  0.00     0.013 A 
ATOM     98  C   UNL A   1      34.946  18.069  24.348  1.00  0.00     0.013 A 
ATOM     99  C   UNL A   1      32.392  17.450  25.316  1.00  0.00     0.040 A 
ATOM    100  C   UNL A   1      34.438  16.777  24.207  1.00  0.00     0.040 A 
ATOM    101  C   UNL A   1      33.167  16.480  24.689  1.00  0.00     0.123 A 
ATOM    102  F   UNL A   1      32.686  15.237  24.554  1.00  0.00    -0.207 F 
ENDBRANCH  94  96
ENDBRANCH  89  91
ENDBRANCH  81  87
ENDBRANCH  77  80
ENDBRANCH  75  76
ENDBRANCH  74  75
ENDBRANCH  73  74
ENDBRANCH   1  73
TORSDOF 19
ENDMDL
