MODEL 1
REMARK VINA RESULT:     -11.0      0.000      0.000
REMARK SMILES CCOC(=O)N1CCc2nnc(N3CCC[C@@H]3C(=O)NCCCCCCNC(=O)c3ccc(-c4c5nc(c(-c6cc(S(=O)(=O)[O-])ccc6F)c6ccc([nH]6)c(-c6cc(S(=O)(=O)[O-])ccc6F)c6nc(c(-c7cc(S(=O)(=O)[O-])ccc7F)c7ccc4[nH]7)C=C6)C=C5)cc3)cc2C1
REMARK SMILES IDX 23 1 22 2 21 3 20 4 18 5 19 6 17 8 13 9 14 10 15 11 16 12
REMARK SMILES IDX 12 13 6 14 7 15 95 16 8 17 94 18 9 19 93 20 10 21 11 22 4 23
REMARK SMILES IDX 5 24 3 25 2 26 1 27 24 28 25 29 26 30 27 31 28 32 29 34
REMARK SMILES IDX 30 35 31 36 92 37 32 38 91 39 33 40 34 41 35 42 85 43 36 44
REMARK SMILES IDX 90 45 84 46 86 47 37 48 89 49 83 50 82 51 38 53 70 54 50 55
REMARK SMILES IDX 69 56 51 57 54 58 68 59 87 60 52 61 53 62 67 64 88 65 55 66
REMARK SMILES IDX 39 67 40 68 48 69 41 70 47 71 49 72 46 73 42 74 43 75 44 76
REMARK SMILES IDX 45 77 71 78 72 79 80 80 73 81 79 82 81 83 78 84 74 85 75 86
REMARK SMILES IDX 76 87 77 88 56 89 57 90 65 91 58 92 64 93 66 94 63 95 59 96
REMARK SMILES IDX 60 97 61 98 62 99
REMARK H PARENT 20 7 27 33 86 52 54 63
REMARK Flexibility Score: inf
ROOT
ATOM      1  C   UNL A   1      38.872  22.459  26.093  1.00  0.00     0.002 C 
ENDROOT
BRANCH   1   2
ATOM      2  C   UNL A   1      38.097  23.773  26.228  1.00  0.00     0.021 C 
BRANCH   2   3
ATOM      3  C   UNL A   1      36.628  23.645  25.835  1.00  0.00     0.116 C 
BRANCH   3   4
ATOM      4  N   UNL A   1      35.899  22.876  26.825  1.00  0.00    -0.354 N 
ATOM      5  C   UNL A   1      34.870  21.998  26.664  1.00  0.00     0.242 C 
ATOM      6  O   UNL A   1      34.410  21.472  27.685  1.00  0.00    -0.273 OA
ATOM      7  H   UNL A   1      36.194  23.008  27.754  1.00  0.00     0.163 HD
BRANCH   5   8
ATOM      8  C   UNL A   1      34.267  21.664  25.280  1.00  0.00     0.173 C 
ATOM      9  N   UNL A   1      32.912  22.165  25.091  1.00  0.00    -0.343 N 
ATOM     10  C   UNL A   1      31.999  21.195  24.526  1.00  0.00     0.119 C 
ATOM     11  C   UNL A   1      32.696  19.853  24.744  1.00  0.00     0.024 C 
ATOM     12  C   UNL A   1      34.176  20.167  24.975  1.00  0.00     0.037 C 
BRANCH   9  13
ATOM     13  C   UNL A   1      32.517  23.434  25.412  1.00  0.00     0.152 A 
ATOM     14  N   UNL A   1      32.642  28.229  24.762  1.00  0.00    -0.303 N 
ATOM     15  C   UNL A   1      32.198  28.460  26.132  1.00  0.00     0.130 C 
ATOM     16  C   UNL A   1      33.387  27.006  24.544  1.00  0.00     0.160 C 
ATOM     17  C   UNL A   1      31.241  27.338  26.558  1.00  0.00     0.080 C 
ATOM     18  C   UNL A   1      32.742  25.825  25.201  1.00  0.00    -0.001 A 
ATOM     19  C   UNL A   1      31.739  25.977  26.147  1.00  0.00     0.070 A 
ATOM     20  C   UNL A   1      33.161  24.533  24.874  1.00  0.00     0.056 A 
ATOM     21  N   UNL A   1      31.128  24.901  26.675  1.00  0.00    -0.153 NA
ATOM     22  N   UNL A   1      31.502  23.628  26.277  1.00  0.00    -0.133 NA
BRANCH  14  23
ATOM     23  C   UNL A   1      32.240  28.976  23.679  1.00  0.00     0.410 C 
ATOM     24  O   UNL A   1      32.989  29.277  22.753  1.00  0.00    -0.224 OA
BRANCH  23  25
ATOM     25  O   UNL A   1      30.955  29.397  23.782  1.00  0.00    -0.450 OA
BRANCH  25  26
ATOM     26  C   UNL A   1      29.918  28.470  23.408  1.00  0.00     0.231 C 
ATOM     27  C   UNL A   1      28.770  29.078  22.612  1.00  0.00     0.049 C 
ENDBRANCH  25  26
ENDBRANCH  23  25
ENDBRANCH  14  23
ENDBRANCH   9  13
ENDBRANCH   5   8
ENDBRANCH   3   4
ENDBRANCH   2   3
ENDBRANCH   1   2
BRANCH   1  28
ATOM     28  C   UNL A   1      38.179  21.397  25.230  1.00  0.00     0.002 C 
BRANCH  28  29
ATOM     29  C   UNL A   1      38.857  20.025  25.243  1.00  0.00     0.021 C 
BRANCH  29  30
ATOM     30  C   UNL A   1      39.801  19.822  26.422  1.00  0.00     0.116 C 
BRANCH  30  31
ATOM     31  N   UNL A   1      41.041  19.184  26.002  1.00  0.00    -0.352 N 
ATOM     32  C   UNL A   1      42.260  19.771  25.771  1.00  0.00     0.251 C 
ATOM     33  H   UNL A   1      41.000  18.209  25.868  1.00  0.00     0.163 HD
ATOM     34  O   UNL A   1      43.153  19.162  25.194  1.00  0.00    -0.269 OA
BRANCH  32  35
ATOM     35  C   UNL A   1      42.465  21.156  26.231  1.00  0.00     0.039 A 
ATOM     36  C   UNL A   1      42.678  21.403  27.588  1.00  0.00     0.014 A 
ATOM     37  C   UNL A   1      42.491  22.196  25.297  1.00  0.00     0.014 A 
ATOM     38  C   UNL A   1      42.955  22.704  28.005  1.00  0.00     0.010 A 
ATOM     39  C   UNL A   1      42.835  23.478  25.707  1.00  0.00     0.010 A 
ATOM     40  C   UNL A   1      43.047  23.746  27.067  1.00  0.00    -0.014 A 
BRANCH  40  41
ATOM     41  C   UNL A   1      43.302  25.137  27.503  1.00  0.00     0.031 A 
ATOM     42  C   UNL A   1      44.684  25.708  27.370  1.00  0.00     0.074 A 
ATOM     43  C   UNL A   1      42.308  25.872  28.038  1.00  0.00     0.049 A 
ATOM     44  N   UNL A   1      45.111  26.904  27.677  1.00  0.00    -0.248 NA
ATOM     45  C   UNL A   1      45.730  24.816  26.840  1.00  0.00     0.031 C 
ATOM     46  C   UNL A   1      40.940  25.403  28.259  1.00  0.00     0.029 A 
ATOM     47  N   UNL A   1      42.298  27.165  28.498  1.00  0.00    -0.354 N 
ATOM     48  C   UNL A   1      46.465  26.909  27.375  1.00  0.00     0.074 A 
ATOM     49  C   UNL A   1      46.809  25.581  26.923  1.00  0.00     0.031 C 
ATOM     50  C   UNL A   1      40.218  26.400  28.795  1.00  0.00     0.029 A 
ATOM     51  C   UNL A   1      41.075  27.570  28.980  1.00  0.00     0.049 A 
ATOM     52  H   UNL A   1      43.091  27.748  28.484  1.00  0.00     0.167 HD
ATOM     53  C   UNL A   1      47.337  27.940  27.437  1.00  0.00     0.034 A 
ATOM     54  C   UNL A   1      40.687  28.752  29.504  1.00  0.00     0.034 A 
ATOM     55  C   UNL A   1      46.980  29.264  27.868  1.00  0.00     0.049 A 
ATOM     56  C   UNL A   1      41.677  29.888  29.562  1.00  0.00     0.074 A 
ATOM     57  C   UNL A   1      47.783  30.389  27.915  1.00  0.00     0.029 A 
ATOM     58  N   UNL A   1      45.726  29.644  28.322  1.00  0.00    -0.354 N 
ATOM     59  N   UNL A   1      42.934  29.904  29.184  1.00  0.00    -0.248 NA
ATOM     60  C   UNL A   1      41.198  31.171  30.093  1.00  0.00     0.031 C 
ATOM     61  C   UNL A   1      47.034  31.434  28.452  1.00  0.00     0.029 A 
ATOM     62  C   UNL A   1      45.741  30.984  28.667  1.00  0.00     0.049 A 
ATOM     63  H   UNL A   1      44.943  29.050  28.387  1.00  0.00     0.167 HD
ATOM     64  C   UNL A   1      43.381  31.205  29.391  1.00  0.00     0.074 A 
ATOM     65  C   UNL A   1      42.260  31.950  29.922  1.00  0.00     0.031 C 
ATOM     66  C   UNL A   1      44.609  31.732  29.159  1.00  0.00     0.034 A 
BRANCH  53  67
ATOM     67  C   UNL A   1      48.759  27.710  27.003  1.00  0.00     0.023 A 
ATOM     68  C   UNL A   1      49.116  27.885  25.656  1.00  0.00     0.031 A 
ATOM     69  C   UNL A   1      49.715  27.179  27.888  1.00  0.00     0.131 A 
ATOM     70  C   UNL A   1      50.383  27.484  25.218  1.00  0.00     0.055 A 
ATOM     71  C   UNL A   1      50.990  26.821  27.455  1.00  0.00     0.041 A 
ATOM     72  F   UNL A   1      49.418  27.003  29.187  1.00  0.00    -0.206 F 
ATOM     73  C   UNL A   1      51.324  26.959  26.111  1.00  0.00     0.022 A 
BRANCH  70  74
ATOM     74  S   UNL A   1      50.835  27.579  23.466  1.00  0.00     0.124 S 
ATOM     75  O   UNL A   1      52.065  26.790  23.428  1.00  0.00    -0.237 OA
ATOM     76  O   UNL A   1      49.679  26.965  22.821  1.00  0.00    -0.237 OA
ATOM     77  O   UNL A   1      51.011  29.008  23.226  1.00  0.00    -0.744 OA
ENDBRANCH  70  74
ENDBRANCH  53  67
BRANCH  54  78
ATOM     78  C   UNL A   1      39.275  28.922  29.947  1.00  0.00     0.023 A 
ATOM     79  C   UNL A   1      38.313  29.479  29.086  1.00  0.00     0.031 A 
ATOM     80  C   UNL A   1      38.888  28.611  31.261  1.00  0.00     0.131 A 
ATOM     81  C   UNL A   1      37.026  29.755  29.565  1.00  0.00     0.055 A 
ATOM     82  C   UNL A   1      37.587  28.831  31.717  1.00  0.00     0.041 A 
ATOM     83  F   UNL A   1      39.775  28.088  32.121  1.00  0.00    -0.206 F 
ATOM     84  C   UNL A   1      36.652  29.419  30.871  1.00  0.00     0.022 A 
BRANCH  81  85
ATOM     85  S   UNL A   1      35.824  30.643  28.539  1.00  0.00     0.124 S 
ATOM     86  O   UNL A   1      35.136  31.475  29.521  1.00  0.00    -0.237 OA
ATOM     87  O   UNL A   1      36.700  31.354  27.610  1.00  0.00    -0.237 OA
ATOM     88  O   UNL A   1      35.024  29.577  27.946  1.00  0.00    -0.744 OA
ENDBRANCH  81  85
ENDBRANCH  54  78
BRANCH  66  89
ATOM     89  C   UNL A   1      44.838  33.198  29.419  1.00  0.00     0.023 A 
ATOM     90  C   UNL A   1      44.777  34.108  28.344  1.00  0.00     0.031 A 
ATOM     91  C   UNL A   1      45.285  33.668  30.665  1.00  0.00     0.131 A 
ATOM     92  C   UNL A   1      45.203  35.429  28.524  1.00  0.00     0.055 A 
ATOM     93  C   UNL A   1      45.661  34.998  30.851  1.00  0.00     0.041 A 
ATOM     94  F   UNL A   1      45.372  32.836  31.715  1.00  0.00    -0.206 F 
ATOM     95  C   UNL A   1      45.637  35.882  29.774  1.00  0.00     0.022 A 
BRANCH  92  96
ATOM     96  S   UNL A   1      45.288  36.581  27.126  1.00  0.00     0.124 S 
ATOM     97  O   UNL A   1      43.893  36.997  26.990  1.00  0.00    -0.237 OA
ATOM     98  O   UNL A   1      46.198  37.607  27.629  1.00  0.00    -0.237 OA
ATOM     99  O   UNL A   1      45.801  35.768  26.028  1.00  0.00    -0.744 OA
ENDBRANCH  92  96
ENDBRANCH  66  89
ENDBRANCH  40  41
ENDBRANCH  32  35
ENDBRANCH  30  31
ENDBRANCH  29  30
ENDBRANCH  28  29
ENDBRANCH   1  28
TORSDOF 20
ENDMDL
MODEL 2
REMARK VINA RESULT:     -10.9      0.865      7.298
REMARK SMILES CCOC(=O)N1CCc2nnc(N3CCC[C@@H]3C(=O)NCCCCCCNC(=O)c3ccc(-c4c5nc(c(-c6cc(S(=O)(=O)[O-])ccc6F)c6ccc([nH]6)c(-c6cc(S(=O)(=O)[O-])ccc6F)c6nc(c(-c7cc(S(=O)(=O)[O-])ccc7F)c7ccc4[nH]7)C=C6)C=C5)cc3)cc2C1
REMARK SMILES IDX 23 1 22 2 21 3 20 4 18 5 19 6 17 8 13 9 14 10 15 11 16 12
REMARK SMILES IDX 12 13 6 14 7 15 95 16 8 17 94 18 9 19 93 20 10 21 11 22 4 23
REMARK SMILES IDX 5 24 3 25 2 26 1 27 24 28 25 29 26 30 27 31 28 32 29 34
REMARK SMILES IDX 30 35 31 36 92 37 32 38 91 39 33 40 34 41 35 42 85 43 36 44
REMARK SMILES IDX 90 45 84 46 86 47 37 48 89 49 83 50 82 51 38 53 70 54 50 55
REMARK SMILES IDX 69 56 51 57 54 58 68 59 87 60 52 61 53 62 67 64 88 65 55 66
REMARK SMILES IDX 39 67 40 68 48 69 41 70 47 71 49 72 46 73 42 74 43 75 44 76
REMARK SMILES IDX 45 77 71 78 72 79 80 80 73 81 79 82 81 83 78 84 74 85 75 86
REMARK SMILES IDX 76 87 77 88 56 89 57 90 65 91 58 92 64 93 66 94 63 95 59 96
REMARK SMILES IDX 60 97 61 98 62 99
REMARK H PARENT 20 7 27 33 86 52 54 63
REMARK Flexibility Score: inf
ROOT
ATOM      1  C   UNL A   1      38.756  22.585  25.968  1.00  0.00     0.002 C 
ENDROOT
BRANCH   1   2
ATOM      2  C   UNL A   1      37.935  23.866  26.145  1.00  0.00     0.021 C 
BRANCH   2   3
ATOM      3  C   UNL A   1      36.469  23.695  25.757  1.00  0.00     0.116 C 
BRANCH   3   4
ATOM      4  N   UNL A   1      35.763  22.917  26.757  1.00  0.00    -0.354 N 
ATOM      5  C   UNL A   1      34.829  21.937  26.602  1.00  0.00     0.242 C 
ATOM      6  O   UNL A   1      34.367  21.428  27.630  1.00  0.00    -0.273 OA
ATOM      7  H   UNL A   1      35.995  23.129  27.689  1.00  0.00     0.163 HD
BRANCH   5   8
ATOM      8  C   UNL A   1      34.334  21.470  25.214  1.00  0.00     0.173 C 
ATOM      9  N   UNL A   1      32.933  21.775  24.955  1.00  0.00    -0.343 N 
ATOM     10  C   UNL A   1      32.181  20.669  24.402  1.00  0.00     0.119 C 
ATOM     11  C   UNL A   1      33.042  19.443  24.704  1.00  0.00     0.024 C 
ATOM     12  C   UNL A   1      34.456  19.963  24.972  1.00  0.00     0.037 C 
BRANCH   9  13
ATOM     13  C   UNL A   1      32.359  22.991  25.204  1.00  0.00     0.152 A 
ATOM     14  N   UNL A   1      31.171  27.494  23.883  1.00  0.00    -0.303 N 
ATOM     15  C   UNL A   1      31.090  27.917  25.277  1.00  0.00     0.130 C 
ATOM     16  C   UNL A   1      32.089  26.406  23.612  1.00  0.00     0.160 C 
ATOM     17  C   UNL A   1      30.582  26.753  26.139  1.00  0.00     0.080 C 
ATOM     18  C   UNL A   1      31.950  25.289  24.599  1.00  0.00    -0.001 A 
ATOM     19  C   UNL A   1      31.248  25.449  25.785  1.00  0.00     0.070 A 
ATOM     20  C   UNL A   1      32.550  24.054  24.340  1.00  0.00     0.056 A 
ATOM     21  N   UNL A   1      31.079  24.411  26.626  1.00  0.00    -0.153 NA
ATOM     22  N   UNL A   1      31.613  23.173  26.312  1.00  0.00    -0.133 NA
BRANCH  14  23
ATOM     23  C   UNL A   1      30.318  27.919  22.892  1.00  0.00     0.410 C 
ATOM     24  O   UNL A   1      30.572  27.816  21.695  1.00  0.00    -0.224 OA
BRANCH  23  25
ATOM     25  O   UNL A   1      29.205  28.520  23.382  1.00  0.00    -0.450 OA
BRANCH  25  26
ATOM     26  C   UNL A   1      28.635  29.596  22.614  1.00  0.00     0.231 C 
ATOM     27  C   UNL A   1      27.761  30.559  23.407  1.00  0.00     0.049 C 
ENDBRANCH  25  26
ENDBRANCH  23  25
ENDBRANCH  14  23
ENDBRANCH   9  13
ENDBRANCH   5   8
ENDBRANCH   3   4
ENDBRANCH   2   3
ENDBRANCH   1   2
BRANCH   1  28
ATOM     28  C   UNL A   1      38.161  21.579  24.975  1.00  0.00     0.002 C 
BRANCH  28  29
ATOM     29  C   UNL A   1      38.674  20.146  25.136  1.00  0.00     0.021 C 
BRANCH  29  30
ATOM     30  C   UNL A   1      39.417  19.908  26.445  1.00  0.00     0.116 C 
BRANCH  30  31
ATOM     31  N   UNL A   1      40.550  19.013  26.254  1.00  0.00    -0.352 N 
ATOM     32  C   UNL A   1      41.867  19.345  26.055  1.00  0.00     0.251 C 
ATOM     33  H   UNL A   1      40.346  18.050  26.270  1.00  0.00     0.163 HD
ATOM     34  O   UNL A   1      42.677  18.509  25.671  1.00  0.00    -0.269 OA
BRANCH  32  35
ATOM     35  C   UNL A   1      42.281  20.736  26.312  1.00  0.00     0.039 A 
ATOM     36  C   UNL A   1      42.364  21.634  25.247  1.00  0.00     0.014 A 
ATOM     37  C   UNL A   1      42.538  21.148  27.624  1.00  0.00     0.014 A 
ATOM     38  C   UNL A   1      42.674  22.968  25.508  1.00  0.00     0.010 A 
ATOM     39  C   UNL A   1      42.779  22.490  27.886  1.00  0.00     0.010 A 
ATOM     40  C   UNL A   1      42.872  23.406  26.828  1.00  0.00    -0.014 A 
BRANCH  40  41
ATOM     41  C   UNL A   1      43.240  24.812  27.112  1.00  0.00     0.031 A 
ATOM     42  C   UNL A   1      42.223  25.729  27.728  1.00  0.00     0.074 A 
ATOM     43  C   UNL A   1      44.467  25.268  26.795  1.00  0.00     0.049 A 
ATOM     44  N   UNL A   1      42.349  26.983  28.069  1.00  0.00    -0.248 NA
ATOM     45  C   UNL A   1      40.883  25.171  27.980  1.00  0.00     0.031 C 
ATOM     46  C   UNL A   1      45.517  24.479  26.150  1.00  0.00     0.029 A 
ATOM     47  N   UNL A   1      45.035  26.505  26.968  1.00  0.00    -0.354 N 
ATOM     48  C   UNL A   1      41.114  27.361  28.575  1.00  0.00     0.074 A 
ATOM     49  C   UNL A   1      40.229  26.228  28.439  1.00  0.00     0.031 C 
ATOM     50  C   UNL A   1      46.608  25.246  25.998  1.00  0.00     0.029 A 
ATOM     51  C   UNL A   1      46.330  26.587  26.510  1.00  0.00     0.049 A 
ATOM     52  H   UNL A   1      44.561  27.262  27.381  1.00  0.00     0.167 HD
ATOM     53  C   UNL A   1      40.759  28.539  29.135  1.00  0.00     0.034 A 
ATOM     54  C   UNL A   1      47.195  27.622  26.510  1.00  0.00     0.034 A 
ATOM     55  C   UNL A   1      41.654  29.654  29.286  1.00  0.00     0.049 A 
ATOM     56  C   UNL A   1      46.777  28.926  27.141  1.00  0.00     0.074 A 
ATOM     57  C   UNL A   1      41.401  30.873  29.889  1.00  0.00     0.029 A 
ATOM     58  N   UNL A   1      42.965  29.691  28.836  1.00  0.00    -0.354 N 
ATOM     59  N   UNL A   1      45.633  29.239  27.702  1.00  0.00    -0.248 NA
ATOM     60  C   UNL A   1      47.769  30.011  27.165  1.00  0.00     0.031 C 
ATOM     61  C   UNL A   1      42.537  31.668  29.753  1.00  0.00     0.029 A 
ATOM     62  C   UNL A   1      43.526  30.920  29.135  1.00  0.00     0.049 A 
ATOM     63  H   UNL A   1      43.427  28.954  28.375  1.00  0.00     0.167 HD
ATOM     64  C   UNL A   1      45.782  30.537  28.181  1.00  0.00     0.074 A 
ATOM     65  C   UNL A   1      47.129  30.950  27.850  1.00  0.00     0.031 C 
ATOM     66  C   UNL A   1      44.883  31.313  28.837  1.00  0.00     0.034 A 
BRANCH  53  67
ATOM     67  C   UNL A   1      39.360  28.694  29.664  1.00  0.00     0.023 A 
ATOM     68  C   UNL A   1      38.380  29.322  28.877  1.00  0.00     0.031 A 
ATOM     69  C   UNL A   1      39.041  28.358  30.993  1.00  0.00     0.131 A 
ATOM     70  C   UNL A   1      37.140  29.640  29.440  1.00  0.00     0.055 A 
ATOM     71  C   UNL A   1      37.789  28.640  31.535  1.00  0.00     0.041 A 
ATOM     72  F   UNL A   1      39.945  27.749  31.778  1.00  0.00    -0.206 F 
ATOM     73  C   UNL A   1      36.836  29.298  30.763  1.00  0.00     0.022 A 
BRANCH  70  74
ATOM     74  S   UNL A   1      35.897  30.560  28.495  1.00  0.00     0.124 S 
ATOM     75  O   UNL A   1      36.730  31.424  27.661  1.00  0.00    -0.237 OA
ATOM     76  O   UNL A   1      35.202  29.491  27.786  1.00  0.00    -0.237 OA
ATOM     77  O   UNL A   1      35.121  31.253  29.518  1.00  0.00    -0.744 OA
ENDBRANCH  70  74
ENDBRANCH  53  67
BRANCH  54  78
ATOM     78  C   UNL A   1      48.561  27.428  25.947  1.00  0.00     0.023 A 
ATOM     79  C   UNL A   1      48.827  27.695  24.593  1.00  0.00     0.031 A 
ATOM     80  C   UNL A   1      49.595  26.893  26.733  1.00  0.00     0.131 A 
ATOM     81  C   UNL A   1      50.080  27.377  24.054  1.00  0.00     0.055 A 
ATOM     82  C   UNL A   1      50.862  26.635  26.207  1.00  0.00     0.041 A 
ATOM     83  F   UNL A   1      49.384  26.613  28.028  1.00  0.00    -0.206 F 
ATOM     84  C   UNL A   1      51.105  26.865  24.856  1.00  0.00     0.022 A 
BRANCH  81  85
ATOM     85  S   UNL A   1      50.391  27.534  22.275  1.00  0.00     0.124 S 
ATOM     86  O   UNL A   1      50.610  28.970  22.127  1.00  0.00    -0.237 OA
ATOM     87  O   UNL A   1      51.575  26.694  22.109  1.00  0.00    -0.237 OA
ATOM     88  O   UNL A   1      49.171  27.018  21.665  1.00  0.00    -0.744 OA
ENDBRANCH  81  85
ENDBRANCH  54  78
BRANCH  66  89
ATOM     89  C   UNL A   1      45.301  32.683  29.305  1.00  0.00     0.023 A 
ATOM     90  C   UNL A   1      45.181  33.779  28.428  1.00  0.00     0.031 A 
ATOM     91  C   UNL A   1      45.970  32.875  30.526  1.00  0.00     0.131 A 
ATOM     92  C   UNL A   1      45.766  35.006  28.762  1.00  0.00     0.055 A 
ATOM     93  C   UNL A   1      46.508  34.114  30.875  1.00  0.00     0.041 A 
ATOM     94  F   UNL A   1      46.120  31.857  31.388  1.00  0.00    -0.206 F 
ATOM     95  C   UNL A   1      46.422  35.183  29.984  1.00  0.00     0.022 A 
BRANCH  92  96
ATOM     96  S   UNL A   1      45.770  36.389  27.588  1.00  0.00     0.124 S 
ATOM     97  O   UNL A   1      46.383  37.455  28.377  1.00  0.00    -0.237 OA
ATOM     98  O   UNL A   1      46.593  35.865  26.501  1.00  0.00    -0.237 OA
ATOM     99  O   UNL A   1      44.359  36.585  27.270  1.00  0.00    -0.744 OA
ENDBRANCH  92  96
ENDBRANCH  66  89
ENDBRANCH  40  41
ENDBRANCH  32  35
ENDBRANCH  30  31
ENDBRANCH  29  30
ENDBRANCH  28  29
ENDBRANCH   1  28
TORSDOF 20
ENDMDL
MODEL 3
REMARK VINA RESULT:     -10.8      6.068     10.022
REMARK SMILES CCOC(=O)N1CCc2nnc(N3CCC[C@@H]3C(=O)NCCCCCCNC(=O)c3ccc(-c4c5nc(c(-c6cc(S(=O)(=O)[O-])ccc6F)c6ccc([nH]6)c(-c6cc(S(=O)(=O)[O-])ccc6F)c6nc(c(-c7cc(S(=O)(=O)[O-])ccc7F)c7ccc4[nH]7)C=C6)C=C5)cc3)cc2C1
REMARK SMILES IDX 23 1 22 2 21 3 20 4 18 5 19 6 17 8 13 9 14 10 15 11 16 12
REMARK SMILES IDX 12 13 6 14 7 15 95 16 8 17 94 18 9 19 93 20 10 21 11 22 4 23
REMARK SMILES IDX 5 24 3 25 2 26 1 27 24 28 25 29 26 30 27 31 28 32 29 34
REMARK SMILES IDX 30 35 31 36 92 37 32 38 91 39 33 40 34 41 35 42 85 43 36 44
REMARK SMILES IDX 90 45 84 46 86 47 37 48 89 49 83 50 82 51 38 53 70 54 50 55
REMARK SMILES IDX 69 56 51 57 54 58 68 59 87 60 52 61 53 62 67 64 88 65 55 66
REMARK SMILES IDX 39 67 40 68 48 69 41 70 47 71 49 72 46 73 42 74 43 75 44 76
REMARK SMILES IDX 45 77 71 78 72 79 80 80 73 81 79 82 81 83 78 84 74 85 75 86
REMARK SMILES IDX 76 87 77 88 56 89 57 90 65 91 58 92 64 93 66 94 63 95 59 96
REMARK SMILES IDX 60 97 61 98 62 99
REMARK H PARENT 20 7 27 33 86 52 54 63
REMARK Flexibility Score: inf
ROOT
ATOM      1  C   UNL A   1      35.162  30.394  27.911  1.00  0.00     0.002 C 
ENDROOT
BRANCH   1   2
ATOM      2  C   UNL A   1      33.855  29.934  27.258  1.00  0.00     0.021 C 
BRANCH   2   3
ATOM      3  C   UNL A   1      34.031  28.712  26.362  1.00  0.00     0.116 C 
BRANCH   3   4
ATOM      4  N   UNL A   1      34.115  29.107  24.969  1.00  0.00    -0.354 N 
ATOM      5  C   UNL A   1      33.187  29.011  23.977  1.00  0.00     0.242 C 
ATOM      6  O   UNL A   1      33.513  29.419  22.855  1.00  0.00    -0.273 OA
ATOM      7  H   UNL A   1      34.974  29.506  24.701  1.00  0.00     0.163 HD
BRANCH   5   8
ATOM      8  C   UNL A   1      31.782  28.409  24.205  1.00  0.00     0.173 C 
ATOM      9  N   UNL A   1      31.562  27.148  23.509  1.00  0.00    -0.343 N 
ATOM     10  C   UNL A   1      30.300  27.076  22.805  1.00  0.00     0.119 C 
ATOM     11  C   UNL A   1      29.851  28.532  22.691  1.00  0.00     0.024 C 
ATOM     12  C   UNL A   1      30.627  29.308  23.757  1.00  0.00     0.037 C 
BRANCH   9  13
ATOM     13  C   UNL A   1      32.454  26.111  23.508  1.00  0.00     0.152 A 
ATOM     14  N   UNL A   1      34.744  22.457  25.708  1.00  0.00    -0.303 N 
ATOM     15  C   UNL A   1      35.847  22.532  24.755  1.00  0.00     0.130 C 
ATOM     16  C   UNL A   1      34.040  23.701  25.946  1.00  0.00     0.160 C 
ATOM     17  C   UNL A   1      35.310  22.947  23.379  1.00  0.00     0.080 C 
ATOM     18  C   UNL A   1      33.722  24.426  24.675  1.00  0.00    -0.001 A 
ATOM     19  C   UNL A   1      34.318  24.078  23.471  1.00  0.00     0.070 A 
ATOM     20  C   UNL A   1      32.817  25.490  24.689  1.00  0.00     0.056 A 
ATOM     21  N   UNL A   1      33.967  24.698  22.330  1.00  0.00    -0.153 NA
ATOM     22  N   UNL A   1      33.008  25.696  22.352  1.00  0.00    -0.133 NA
BRANCH  14  23
ATOM     23  C   UNL A   1      34.235  21.286  26.217  1.00  0.00     0.410 C 
ATOM     24  O   UNL A   1      33.946  21.136  27.401  1.00  0.00    -0.224 OA
BRANCH  23  25
ATOM     25  O   UNL A   1      34.155  20.303  25.286  1.00  0.00    -0.450 OA
BRANCH  25  26
ATOM     26  C   UNL A   1      32.933  20.199  24.530  1.00  0.00     0.231 C 
ATOM     27  C   UNL A   1      32.532  18.779  24.152  1.00  0.00     0.049 C 
ENDBRANCH  25  26
ENDBRANCH  23  25
ENDBRANCH  14  23
ENDBRANCH   9  13
ENDBRANCH   5   8
ENDBRANCH   3   4
ENDBRANCH   2   3
ENDBRANCH   1   2
BRANCH   1  28
ATOM     28  C   UNL A   1      35.315  31.916  28.025  1.00  0.00     0.002 C 
BRANCH  28  29
ATOM     29  C   UNL A   1      33.995  32.690  28.027  1.00  0.00     0.021 C 
BRANCH  29  30
ATOM     30  C   UNL A   1      34.173  34.198  27.894  1.00  0.00     0.116 C 
BRANCH  30  31
ATOM     31  N   UNL A   1      33.388  34.913  28.891  1.00  0.00    -0.352 N 
ATOM     32  C   UNL A   1      33.473  34.824  30.258  1.00  0.00     0.251 C 
ATOM     33  H   UNL A   1      32.713  35.538  28.541  1.00  0.00     0.163 HD
ATOM     34  O   UNL A   1      32.599  35.295  30.976  1.00  0.00    -0.269 OA
BRANCH  32  35
ATOM     35  C   UNL A   1      34.643  34.142  30.841  1.00  0.00     0.039 A 
ATOM     36  C   UNL A   1      34.451  33.010  31.633  1.00  0.00     0.014 A 
ATOM     37  C   UNL A   1      35.928  34.611  30.552  1.00  0.00     0.014 A 
ATOM     38  C   UNL A   1      35.565  32.321  32.111  1.00  0.00     0.010 A 
ATOM     39  C   UNL A   1      37.034  33.883  30.973  1.00  0.00     0.010 A 
ATOM     40  C   UNL A   1      36.861  32.746  31.775  1.00  0.00    -0.014 A 
BRANCH  40  41
ATOM     41  C   UNL A   1      38.051  32.044  32.309  1.00  0.00     0.031 A 
ATOM     42  C   UNL A   1      38.673  30.938  31.509  1.00  0.00     0.074 A 
ATOM     43  C   UNL A   1      38.549  32.380  33.515  1.00  0.00     0.049 A 
ATOM     44  N   UNL A   1      39.723  30.212  31.790  1.00  0.00    -0.248 NA
ATOM     45  C   UNL A   1      38.025  30.586  30.234  1.00  0.00     0.031 C 
ATOM     46  C   UNL A   1      37.996  33.406  34.398  1.00  0.00     0.029 A 
ATOM     47  N   UNL A   1      39.630  31.891  34.204  1.00  0.00    -0.354 N 
ATOM     48  C   UNL A   1      39.862  29.326  30.731  1.00  0.00     0.074 A 
ATOM     49  C   UNL A   1      38.755  29.555  29.832  1.00  0.00     0.031 C 
ATOM     50  C   UNL A   1      38.752  33.483  35.506  1.00  0.00     0.029 A 
ATOM     51  C   UNL A   1      39.827  32.496  35.424  1.00  0.00     0.049 A 
ATOM     52  H   UNL A   1      40.210  31.174  33.859  1.00  0.00     0.167 HD
ATOM     53  C   UNL A   1      40.844  28.425  30.512  1.00  0.00     0.034 A 
ATOM     54  C   UNL A   1      40.771  32.284  36.365  1.00  0.00     0.034 A 
ATOM     55  C   UNL A   1      41.954  28.220  31.404  1.00  0.00     0.049 A 
ATOM     56  C   UNL A   1      41.858  31.274  36.098  1.00  0.00     0.074 A 
ATOM     57  C   UNL A   1      43.029  27.365  31.241  1.00  0.00     0.029 A 
ATOM     58  N   UNL A   1      42.135  28.870  32.614  1.00  0.00    -0.354 N 
ATOM     59  N   UNL A   1      42.029  30.508  35.046  1.00  0.00    -0.248 NA
ATOM     60  C   UNL A   1      42.895  31.113  37.127  1.00  0.00     0.031 C 
ATOM     61  C   UNL A   1      43.830  27.453  32.378  1.00  0.00     0.029 A 
ATOM     62  C   UNL A   1      43.297  28.421  33.216  1.00  0.00     0.049 A 
ATOM     63  H   UNL A   1      41.529  29.550  32.988  1.00  0.00     0.167 HD
ATOM     64  C   UNL A   1      43.210  29.807  35.269  1.00  0.00     0.074 A 
ATOM     65  C   UNL A   1      43.717  30.244  36.552  1.00  0.00     0.031 C 
ATOM     66  C   UNL A   1      43.819  28.888  34.478  1.00  0.00     0.034 A 
BRANCH  53  67
ATOM     67  C   UNL A   1      40.804  27.605  29.252  1.00  0.00     0.023 A 
ATOM     68  C   UNL A   1      41.689  27.895  28.200  1.00  0.00     0.031 A 
ATOM     69  C   UNL A   1      39.800  26.643  29.039  1.00  0.00     0.131 A 
ATOM     70  C   UNL A   1      41.521  27.266  26.962  1.00  0.00     0.055 A 
ATOM     71  C   UNL A   1      39.664  25.988  27.817  1.00  0.00     0.041 A 
ATOM     72  F   UNL A   1      38.938  26.328  30.021  1.00  0.00    -0.206 F 
ATOM     73  C   UNL A   1      40.518  26.310  26.766  1.00  0.00     0.022 A 
BRANCH  70  74
ATOM     74  S   UNL A   1      42.563  27.707  25.546  1.00  0.00     0.124 S 
ATOM     75  O   UNL A   1      42.414  26.535  24.685  1.00  0.00    -0.237 OA
ATOM     76  O   UNL A   1      41.919  28.924  25.062  1.00  0.00    -0.237 OA
ATOM     77  O   UNL A   1      43.890  27.879  26.128  1.00  0.00    -0.744 OA
ENDBRANCH  70  74
ENDBRANCH  53  67
BRANCH  54  78
ATOM     78  C   UNL A   1      40.752  33.102  37.610  1.00  0.00     0.023 A 
ATOM     79  C   UNL A   1      40.007  32.692  38.730  1.00  0.00     0.031 A 
ATOM     80  C   UNL A   1      41.407  34.343  37.668  1.00  0.00     0.131 A 
ATOM     81  C   UNL A   1      39.893  33.539  39.839  1.00  0.00     0.055 A 
ATOM     82  C   UNL A   1      41.342  35.158  38.800  1.00  0.00     0.041 A 
ATOM     83  F   UNL A   1      42.121  34.780  36.619  1.00  0.00    -0.206 F 
ATOM     84  C   UNL A   1      40.570  34.763  39.888  1.00  0.00     0.022 A 
BRANCH  81  85
ATOM     85  S   UNL A   1      38.791  33.122  41.216  1.00  0.00     0.124 S 
ATOM     86  O   UNL A   1      37.539  33.753  40.809  1.00  0.00    -0.237 OA
ATOM     87  O   UNL A   1      38.805  31.661  41.171  1.00  0.00    -0.237 OA
ATOM     88  O   UNL A   1      39.447  33.715  42.375  1.00  0.00    -0.744 OA
ENDBRANCH  81  85
ENDBRANCH  54  78
BRANCH  66  89
ATOM     89  C   UNL A   1      45.134  28.299  34.918  1.00  0.00     0.023 A 
ATOM     90  C   UNL A   1      45.138  27.190  35.787  1.00  0.00     0.031 A 
ATOM     91  C   UNL A   1      46.358  28.927  34.631  1.00  0.00     0.131 A 
ATOM     92  C   UNL A   1      46.336  26.773  36.378  1.00  0.00     0.055 A 
ATOM     93  C   UNL A   1      47.556  28.476  35.186  1.00  0.00     0.041 A 
ATOM     94  F   UNL A   1      46.402  29.995  33.819  1.00  0.00    -0.206 F 
ATOM     95  C   UNL A   1      47.547  27.404  36.076  1.00  0.00     0.022 A 
BRANCH  92  96
ATOM     96  S   UNL A   1      46.353  25.452  37.622  1.00  0.00     0.124 S 
ATOM     97  O   UNL A   1      45.624  24.385  36.941  1.00  0.00    -0.237 OA
ATOM     98  O   UNL A   1      47.783  25.217  37.798  1.00  0.00    -0.237 OA
ATOM     99  O   UNL A   1      45.666  26.039  38.768  1.00  0.00    -0.744 OA
ENDBRANCH  92  96
ENDBRANCH  66  89
ENDBRANCH  40  41
ENDBRANCH  32  35
ENDBRANCH  30  31
ENDBRANCH  29  30
ENDBRANCH  28  29
ENDBRANCH   1  28
TORSDOF 20
ENDMDL
