MODEL 1
REMARK VINA RESULT:     -11.1      0.000      0.000
REMARK SMILES CC1(C)C(C(=O)Nc2ccc(CC(=O)NCCCCCCNC(=O)c3ccc(-c4c5nc(c(-c6cc(S(=O)(=O)[O-])ccc6F)c6ccc([nH]6)c(-c6cc(S(=O)(=O)[O-])ccc6F)c6nc(c(-c7cc(S(=O)(=O)[O-])ccc7F)c7ccc4[nH]7)C=C6)C=C5)cc3)cc2)C1(C)C
REMARK SMILES IDX 18 1 17 2 16 3 15 4 13 5 14 6 12 8 11 9 8 10 9 11 89 12
REMARK SMILES IDX 10 13 88 14 7 15 5 16 6 17 4 19 1 20 2 21 3 22 90 23 91 24
REMARK SMILES IDX 92 25 19 26 20 27 21 28 22 29 23 30 24 32 25 33 26 34 87 35
REMARK SMILES IDX 27 36 86 37 28 38 29 39 30 40 80 41 31 42 85 43 79 44 81 45
REMARK SMILES IDX 32 46 84 47 78 48 77 49 33 51 65 52 45 53 64 54 46 55 49 56
REMARK SMILES IDX 63 57 82 58 47 59 48 60 62 62 83 63 50 64 34 65 35 66 43 67
REMARK SMILES IDX 36 68 42 69 44 70 41 71 37 72 38 73 39 74 40 75 66 76 67 77
REMARK SMILES IDX 75 78 68 79 74 80 76 81 73 82 69 83 70 84 71 85 72 86 51 87
REMARK SMILES IDX 52 88 60 89 53 90 59 91 61 92 58 93 54 94 55 95 56 96 57 97
REMARK H PARENT 15 7 7 18 22 31 81 50 49 61
REMARK Flexibility Score: inf
ROOT
ATOM      1  C   UNL A   1      40.926  22.547  26.846  1.00  0.00     0.002 C 
ENDROOT
BRANCH   1   2
ATOM      2  C   UNL A   1      39.647  23.327  27.159  1.00  0.00     0.021 C 
BRANCH   2   3
ATOM      3  C   UNL A   1      38.585  23.210  26.061  1.00  0.00     0.116 C 
BRANCH   3   4
ATOM      4  N   UNL A   1      38.468  21.844  25.592  1.00  0.00    -0.356 N 
ATOM      5  C   UNL A   1      37.458  21.272  24.876  1.00  0.00     0.224 C 
ATOM      6  O   UNL A   1      37.491  20.057  24.670  1.00  0.00    -0.275 OA
ATOM      7  H   UNL A   1      39.219  21.249  25.821  1.00  0.00     0.163 HD
BRANCH   5   8
ATOM      8  C   UNL A   1      36.359  22.136  24.293  1.00  0.00     0.135 C 
BRANCH   8   9
ATOM      9  C   UNL A   1      35.001  21.948  24.917  1.00  0.00    -0.039 A 
ATOM     10  C   UNL A   1      32.442  21.937  26.014  1.00  0.00     0.041 A 
ATOM     11  C   UNL A   1      32.654  21.370  24.758  1.00  0.00     0.026 A 
ATOM     12  C   UNL A   1      33.515  22.294  26.800  1.00  0.00     0.026 A 
ATOM     13  C   UNL A   1      33.938  21.381  24.206  1.00  0.00     0.006 A 
ATOM     14  C   UNL A   1      34.778  22.366  26.233  1.00  0.00     0.006 A 
BRANCH  10  15
ATOM     15  N   UNL A   1      31.147  22.152  26.457  1.00  0.00    -0.326 N 
ATOM     16  C   UNL A   1      30.482  23.309  26.770  1.00  0.00     0.228 C 
ATOM     17  O   UNL A   1      29.517  23.160  27.531  1.00  0.00    -0.274 OA
ATOM     18  H   UNL A   1      30.613  21.333  26.564  1.00  0.00     0.169 HD
BRANCH  16  19
ATOM     19  C   UNL A   1      30.621  24.668  26.149  1.00  0.00     0.091 C 
ATOM     20  C   UNL A   1      31.851  26.821  26.518  1.00  0.00     0.012 C 
ATOM     21  C   UNL A   1      31.779  25.553  25.662  1.00  0.00    -0.017 C 
ATOM     22  C   UNL A   1      33.100  25.407  24.946  1.00  0.00     0.012 C 
ATOM     23  C   UNL A   1      30.573  25.155  24.734  1.00  0.00    -0.017 C 
ATOM     24  C   UNL A   1      29.653  26.285  24.336  1.00  0.00     0.012 C 
ATOM     25  C   UNL A   1      30.644  24.109  23.638  1.00  0.00     0.012 C 
ENDBRANCH  16  19
ENDBRANCH  10  15
ENDBRANCH   8   9
ENDBRANCH   5   8
ENDBRANCH   3   4
ENDBRANCH   2   3
ENDBRANCH   1   2
BRANCH   1  26
ATOM     26  C   UNL A   1      41.383  21.611  27.969  1.00  0.00     0.002 C 
BRANCH  26  27
ATOM     27  C   UNL A   1      41.871  20.241  27.493  1.00  0.00     0.021 C 
BRANCH  27  28
ATOM     28  C   UNL A   1      41.760  20.035  25.986  1.00  0.00     0.116 C 
BRANCH  28  29
ATOM     29  N   UNL A   1      42.963  19.419  25.445  1.00  0.00    -0.352 N 
ATOM     30  C   UNL A   1      44.110  20.023  24.995  1.00  0.00     0.251 C 
ATOM     31  H   UNL A   1      42.953  18.435  25.397  1.00  0.00     0.163 HD
ATOM     32  O   UNL A   1      44.924  19.385  24.333  1.00  0.00    -0.269 OA
BRANCH  30  33
ATOM     33  C   UNL A   1      44.342  21.448  25.304  1.00  0.00     0.039 A 
ATOM     34  C   UNL A   1      43.954  22.422  24.382  1.00  0.00     0.014 A 
ATOM     35  C   UNL A   1      44.930  21.814  26.518  1.00  0.00     0.014 A 
ATOM     36  C   UNL A   1      44.103  23.772  24.706  1.00  0.00     0.010 A 
ATOM     37  C   UNL A   1      45.007  23.156  26.868  1.00  0.00     0.010 A 
ATOM     38  C   UNL A   1      44.599  24.150  25.964  1.00  0.00    -0.014 A 
BRANCH  38  39
ATOM     39  C   UNL A   1      44.731  25.576  26.359  1.00  0.00     0.031 A 
ATOM     40  C   UNL A   1      46.082  26.237  26.307  1.00  0.00     0.074 A 
ATOM     41  C   UNL A   1      43.665  26.244  26.840  1.00  0.00     0.049 A 
ATOM     42  N   UNL A   1      46.447  27.414  26.744  1.00  0.00    -0.248 NA
ATOM     43  C   UNL A   1      47.175  25.449  25.716  1.00  0.00     0.031 C 
ATOM     44  C   UNL A   1      42.310  25.702  26.959  1.00  0.00     0.029 A 
ATOM     45  N   UNL A   1      43.555  27.519  27.339  1.00  0.00    -0.354 N 
ATOM     46  C   UNL A   1      47.813  27.500  26.499  1.00  0.00     0.074 A 
ATOM     47  C   UNL A   1      48.219  26.231  25.932  1.00  0.00     0.031 C 
ATOM     48  C   UNL A   1      41.504  26.641  27.480  1.00  0.00     0.029 A 
ATOM     49  C   UNL A   1      42.292  27.831  27.786  1.00  0.00     0.049 A 
ATOM     50  H   UNL A   1      44.310  28.150  27.372  1.00  0.00     0.167 HD
ATOM     51  C   UNL A   1      48.647  28.549  26.709  1.00  0.00     0.034 A 
ATOM     52  C   UNL A   1      41.828  28.941  28.396  1.00  0.00     0.034 A 
ATOM     53  C   UNL A   1      48.220  29.810  27.263  1.00  0.00     0.049 A 
ATOM     54  C   UNL A   1      42.782  30.081  28.656  1.00  0.00     0.074 A 
ATOM     55  C   UNL A   1      48.966  30.956  27.474  1.00  0.00     0.029 A 
ATOM     56  N   UNL A   1      46.930  30.091  27.698  1.00  0.00    -0.354 N 
ATOM     57  N   UNL A   1      44.066  30.161  28.390  1.00  0.00    -0.248 NA
ATOM     58  C   UNL A   1      42.225  31.282  29.293  1.00  0.00     0.031 C 
ATOM     59  C   UNL A   1      48.150  31.901  28.102  1.00  0.00     0.029 A 
ATOM     60  C   UNL A   1      46.870  31.379  28.205  1.00  0.00     0.049 A 
ATOM     61  H   UNL A   1      46.171  29.466  27.654  1.00  0.00     0.167 HD
ATOM     62  C   UNL A   1      44.457  31.436  28.788  1.00  0.00     0.074 A 
ATOM     63  C   UNL A   1      43.275  32.090  29.310  1.00  0.00     0.031 C 
ATOM     64  C   UNL A   1      45.681  32.019  28.719  1.00  0.00     0.034 A 
BRANCH  51  65
ATOM     65  C   UNL A   1      50.106  28.358  26.366  1.00  0.00     0.023 A 
ATOM     66  C   UNL A   1      50.605  28.637  25.082  1.00  0.00     0.031 A 
ATOM     67  C   UNL A   1      51.006  27.867  27.328  1.00  0.00     0.131 A 
ATOM     68  C   UNL A   1      51.943  28.346  24.771  1.00  0.00     0.055 A 
ATOM     69  C   UNL A   1      52.356  27.663  27.037  1.00  0.00     0.041 A 
ATOM     70  F   UNL A   1      50.585  27.562  28.565  1.00  0.00    -0.206 F 
ATOM     71  C   UNL A   1      52.828  27.887  25.748  1.00  0.00     0.022 A 
BRANCH  68  72
ATOM     72  S   UNL A   1      52.465  28.434  23.037  1.00  0.00     0.124 S 
ATOM     73  O   UNL A   1      52.287  27.049  22.605  1.00  0.00    -0.237 OA
ATOM     74  O   UNL A   1      51.533  29.403  22.474  1.00  0.00    -0.237 OA
ATOM     75  O   UNL A   1      53.855  28.879  23.119  1.00  0.00    -0.744 OA
ENDBRANCH  68  72
ENDBRANCH  51  65
BRANCH  52  76
ATOM     76  C   UNL A   1      40.401  29.030  28.822  1.00  0.00     0.023 A 
ATOM     77  C   UNL A   1      40.040  28.893  30.171  1.00  0.00     0.031 A 
ATOM     78  C   UNL A   1      39.370  29.206  27.880  1.00  0.00     0.131 A 
ATOM     79  C   UNL A   1      38.685  28.882  30.536  1.00  0.00     0.055 A 
ATOM     80  C   UNL A   1      38.027  29.253  28.255  1.00  0.00     0.041 A 
ATOM     81  F   UNL A   1      39.658  29.346  26.576  1.00  0.00    -0.206 F 
ATOM     82  C   UNL A   1      37.676  29.075  29.589  1.00  0.00     0.022 A 
BRANCH  79  83
ATOM     83  S   UNL A   1      38.253  28.510  32.258  1.00  0.00     0.124 S 
ATOM     84  O   UNL A   1      38.390  27.059  32.292  1.00  0.00    -0.237 OA
ATOM     85  O   UNL A   1      39.262  29.269  32.993  1.00  0.00    -0.237 OA
ATOM     86  O   UNL A   1      36.886  29.013  32.382  1.00  0.00    -0.744 OA
ENDBRANCH  79  83
ENDBRANCH  52  76
BRANCH  64  87
ATOM     87  C   UNL A   1      45.791  33.459  29.156  1.00  0.00     0.023 A 
ATOM     88  C   UNL A   1      45.548  34.528  28.278  1.00  0.00     0.031 A 
ATOM     89  C   UNL A   1      46.128  33.761  30.489  1.00  0.00     0.131 A 
ATOM     90  C   UNL A   1      45.686  35.849  28.731  1.00  0.00     0.055 A 
ATOM     91  C   UNL A   1      46.205  35.074  30.949  1.00  0.00     0.041 A 
ATOM     92  F   UNL A   1      46.374  32.778  31.370  1.00  0.00    -0.206 F 
ATOM     93  C   UNL A   1      45.993  36.129  30.066  1.00  0.00     0.022 A 
BRANCH  90  94
ATOM     94  S   UNL A   1      45.527  37.205  27.537  1.00  0.00     0.124 S 
ATOM     95  O   UNL A   1      46.460  36.797  26.491  1.00  0.00    -0.237 OA
ATOM     96  O   UNL A   1      44.113  37.150  27.186  1.00  0.00    -0.237 OA
ATOM     97  O   UNL A   1      45.930  38.384  28.300  1.00  0.00    -0.744 OA
ENDBRANCH  90  94
ENDBRANCH  64  87
ENDBRANCH  38  39
ENDBRANCH  30  33
ENDBRANCH  28  29
ENDBRANCH  27  28
ENDBRANCH  26  27
ENDBRANCH   1  26
TORSDOF 19
ENDMDL
MODEL 2
REMARK VINA RESULT:     -10.9      2.029      7.806
REMARK SMILES CC1(C)C(C(=O)Nc2ccc(CC(=O)NCCCCCCNC(=O)c3ccc(-c4c5nc(c(-c6cc(S(=O)(=O)[O-])ccc6F)c6ccc([nH]6)c(-c6cc(S(=O)(=O)[O-])ccc6F)c6nc(c(-c7cc(S(=O)(=O)[O-])ccc7F)c7ccc4[nH]7)C=C6)C=C5)cc3)cc2)C1(C)C
REMARK SMILES IDX 18 1 17 2 16 3 15 4 13 5 14 6 12 8 11 9 8 10 9 11 89 12
REMARK SMILES IDX 10 13 88 14 7 15 5 16 6 17 4 19 1 20 2 21 3 22 90 23 91 24
REMARK SMILES IDX 92 25 19 26 20 27 21 28 22 29 23 30 24 32 25 33 26 34 87 35
REMARK SMILES IDX 27 36 86 37 28 38 29 39 30 40 80 41 31 42 85 43 79 44 81 45
REMARK SMILES IDX 32 46 84 47 78 48 77 49 33 51 65 52 45 53 64 54 46 55 49 56
REMARK SMILES IDX 63 57 82 58 47 59 48 60 62 62 83 63 50 64 34 65 35 66 43 67
REMARK SMILES IDX 36 68 42 69 44 70 41 71 37 72 38 73 39 74 40 75 66 76 67 77
REMARK SMILES IDX 75 78 68 79 74 80 76 81 73 82 69 83 70 84 71 85 72 86 51 87
REMARK SMILES IDX 52 88 60 89 53 90 59 91 61 92 58 93 54 94 55 95 56 96 57 97
REMARK H PARENT 15 7 7 18 22 31 81 50 49 61
REMARK Flexibility Score: inf
ROOT
ATOM      1  C   UNL A   1      37.417  22.098  24.560  1.00  0.00     0.002 C 
ENDROOT
BRANCH   1   2
ATOM      2  C   UNL A   1      37.309  23.100  25.711  1.00  0.00     0.021 C 
BRANCH   2   3
ATOM      3  C   UNL A   1      35.876  23.579  25.961  1.00  0.00     0.116 C 
BRANCH   3   4
ATOM      4  N   UNL A   1      35.249  22.818  27.023  1.00  0.00    -0.356 N 
ATOM      5  C   UNL A   1      34.240  21.904  26.936  1.00  0.00     0.224 C 
ATOM      6  O   UNL A   1      33.765  21.445  27.976  1.00  0.00    -0.275 OA
ATOM      7  H   UNL A   1      35.599  22.983  27.929  1.00  0.00     0.163 HD
BRANCH   5   8
ATOM      8  C   UNL A   1      33.771  21.421  25.579  1.00  0.00     0.135 C 
BRANCH   8   9
ATOM      9  C   UNL A   1      32.646  22.218  24.973  1.00  0.00    -0.039 A 
ATOM     10  C   UNL A   1      30.715  23.970  23.994  1.00  0.00     0.041 A 
ATOM     11  C   UNL A   1      31.667  23.441  23.125  1.00  0.00     0.026 A 
ATOM     12  C   UNL A   1      30.587  23.462  25.269  1.00  0.00     0.026 A 
ATOM     13  C   UNL A   1      32.640  22.566  23.617  1.00  0.00     0.006 A 
ATOM     14  C   UNL A   1      31.586  22.647  25.778  1.00  0.00     0.006 A 
BRANCH  10  15
ATOM     15  N   UNL A   1      29.911  25.016  23.574  1.00  0.00    -0.326 N 
ATOM     16  C   UNL A   1      29.715  26.269  24.094  1.00  0.00     0.228 C 
ATOM     17  O   UNL A   1      28.647  26.803  23.770  1.00  0.00    -0.274 OA
ATOM     18  H   UNL A   1      29.390  24.827  22.761  1.00  0.00     0.169 HD
BRANCH  16  19
ATOM     19  C   UNL A   1      30.700  27.154  24.801  1.00  0.00     0.091 C 
ATOM     20  C   UNL A   1      31.669  27.491  27.089  1.00  0.00     0.012 C 
ATOM     21  C   UNL A   1      31.943  26.951  25.682  1.00  0.00    -0.017 C 
ATOM     22  C   UNL A   1      33.141  26.036  25.767  1.00  0.00     0.012 C 
ATOM     23  C   UNL A   1      31.971  27.818  24.370  1.00  0.00    -0.017 C 
ATOM     24  C   UNL A   1      32.175  29.302  24.570  1.00  0.00     0.012 C 
ATOM     25  C   UNL A   1      32.579  27.365  23.056  1.00  0.00     0.012 C 
ENDBRANCH  16  19
ENDBRANCH  10  15
ENDBRANCH   8   9
ENDBRANCH   5   8
ENDBRANCH   3   4
ENDBRANCH   2   3
ENDBRANCH   1   2
BRANCH   1  26
ATOM     26  C   UNL A   1      37.121  20.648  24.957  1.00  0.00     0.002 C 
BRANCH  26  27
ATOM     27  C   UNL A   1      38.350  19.737  24.998  1.00  0.00     0.021 C 
BRANCH  27  28
ATOM     28  C   UNL A   1      39.383  20.141  26.045  1.00  0.00     0.116 C 
BRANCH  28  29
ATOM     29  N   UNL A   1      40.541  19.260  26.013  1.00  0.00    -0.352 N 
ATOM     30  C   UNL A   1      41.873  19.589  26.037  1.00  0.00     0.251 C 
ATOM     31  H   UNL A   1      40.341  18.296  25.969  1.00  0.00     0.163 HD
ATOM     32  O   UNL A   1      42.721  18.751  25.743  1.00  0.00    -0.269 OA
BRANCH  30  33
ATOM     33  C   UNL A   1      42.267  20.963  26.405  1.00  0.00     0.039 A 
ATOM     34  C   UNL A   1      42.530  21.267  27.742  1.00  0.00     0.014 A 
ATOM     35  C   UNL A   1      42.393  21.943  25.417  1.00  0.00     0.014 A 
ATOM     36  C   UNL A   1      42.977  22.546  28.081  1.00  0.00     0.010 A 
ATOM     37  C   UNL A   1      42.909  23.191  25.746  1.00  0.00     0.010 A 
ATOM     38  C   UNL A   1      43.202  23.508  27.082  1.00  0.00    -0.014 A 
BRANCH  38  39
ATOM     39  C   UNL A   1      43.718  24.863  27.402  1.00  0.00     0.031 A 
ATOM     40  C   UNL A   1      42.771  25.914  27.914  1.00  0.00     0.074 A 
ATOM     41  C   UNL A   1      45.006  25.171  27.153  1.00  0.00     0.049 A 
ATOM     42  N   UNL A   1      42.975  27.191  28.111  1.00  0.00    -0.248 NA
ATOM     43  C   UNL A   1      41.398  25.472  28.208  1.00  0.00     0.031 C 
ATOM     44  C   UNL A   1      46.012  24.243  26.635  1.00  0.00     0.029 A 
ATOM     45  N   UNL A   1      45.686  26.357  27.282  1.00  0.00    -0.354 N 
ATOM     46  C   UNL A   1      41.755  27.707  28.533  1.00  0.00     0.074 A 
ATOM     47  C   UNL A   1      40.803  26.616  28.502  1.00  0.00     0.031 C 
ATOM     48  C   UNL A   1      47.182  24.889  26.506  1.00  0.00     0.029 A 
ATOM     49  C   UNL A   1      46.998  26.289  26.876  1.00  0.00     0.049 A 
ATOM     50  H   UNL A   1      45.272  27.179  27.632  1.00  0.00     0.167 HD
ATOM     51  C   UNL A   1      41.461  28.971  28.928  1.00  0.00     0.034 A 
ATOM     52  C   UNL A   1      47.939  27.252  26.789  1.00  0.00     0.034 A 
ATOM     53  C   UNL A   1      42.428  30.041  28.964  1.00  0.00     0.049 A 
ATOM     54  C   UNL A   1      47.581  28.659  27.196  1.00  0.00     0.074 A 
ATOM     55  C   UNL A   1      42.253  31.346  29.391  1.00  0.00     0.029 A 
ATOM     56  N   UNL A   1      43.750  29.932  28.551  1.00  0.00    -0.354 N 
ATOM     57  N   UNL A   1      46.430  29.127  27.624  1.00  0.00    -0.248 NA
ATOM     58  C   UNL A   1      48.646  29.668  27.115  1.00  0.00     0.031 C 
ATOM     59  C   UNL A   1      43.445  32.042  29.170  1.00  0.00     0.029 A 
ATOM     60  C   UNL A   1      44.392  31.153  28.685  1.00  0.00     0.049 A 
ATOM     61  H   UNL A   1      44.169  29.109  28.212  1.00  0.00     0.167 HD
ATOM     62  C   UNL A   1      46.648  30.474  27.903  1.00  0.00     0.074 A 
ATOM     63  C   UNL A   1      48.039  30.742  27.597  1.00  0.00     0.031 C 
ATOM     64  C   UNL A   1      45.781  31.404  28.380  1.00  0.00     0.034 A 
BRANCH  51  65
ATOM     65  C   UNL A   1      40.032  29.263  29.321  1.00  0.00     0.023 A 
ATOM     66  C   UNL A   1      39.643  29.365  30.668  1.00  0.00     0.031 A 
ATOM     67  C   UNL A   1      39.039  29.418  28.338  1.00  0.00     0.131 A 
ATOM     68  C   UNL A   1      38.288  29.531  30.996  1.00  0.00     0.055 A 
ATOM     69  C   UNL A   1      37.707  29.670  28.669  1.00  0.00     0.041 A 
ATOM     70  F   UNL A   1      39.345  29.309  27.035  1.00  0.00    -0.206 F 
ATOM     71  C   UNL A   1      37.322  29.712  30.005  1.00  0.00     0.022 A 
BRANCH  68  72
ATOM     72  S   UNL A   1      37.792  29.354  32.731  1.00  0.00     0.124 S 
ATOM     73  O   UNL A   1      37.565  27.914  32.828  1.00  0.00    -0.237 OA
ATOM     74  O   UNL A   1      38.953  29.867  33.446  1.00  0.00    -0.237 OA
ATOM     75  O   UNL A   1      36.586  30.175  32.828  1.00  0.00    -0.744 OA
ENDBRANCH  68  72
ENDBRANCH  51  65
BRANCH  52  76
ATOM     76  C   UNL A   1      49.305  26.931  26.280  1.00  0.00     0.023 A 
ATOM     77  C   UNL A   1      50.384  26.764  27.164  1.00  0.00     0.031 A 
ATOM     78  C   UNL A   1      49.564  26.834  24.901  1.00  0.00     0.131 A 
ATOM     79  C   UNL A   1      51.677  26.560  26.659  1.00  0.00     0.055 A 
ATOM     80  C   UNL A   1      50.842  26.574  24.406  1.00  0.00     0.041 A 
ATOM     81  F   UNL A   1      48.569  26.983  24.011  1.00  0.00    -0.206 F 
ATOM     82  C   UNL A   1      51.912  26.450  25.287  1.00  0.00     0.022 A 
BRANCH  79  83
ATOM     83  S   UNL A   1      53.069  26.541  27.822  1.00  0.00     0.124 S 
ATOM     84  O   UNL A   1      53.924  25.511  27.244  1.00  0.00    -0.237 OA
ATOM     85  O   UNL A   1      53.561  27.913  27.727  1.00  0.00    -0.237 OA
ATOM     86  O   UNL A   1      52.442  26.193  29.096  1.00  0.00    -0.744 OA
ENDBRANCH  79  83
ENDBRANCH  52  76
BRANCH  64  87
ATOM     87  C   UNL A   1      46.326  32.781  28.665  1.00  0.00     0.023 A 
ATOM     88  C   UNL A   1      46.360  33.789  27.687  1.00  0.00     0.031 A 
ATOM     89  C   UNL A   1      46.805  33.090  29.952  1.00  0.00     0.131 A 
ATOM     90  C   UNL A   1      46.899  35.047  28.000  1.00  0.00     0.055 A 
ATOM     91  C   UNL A   1      47.284  34.360  30.273  1.00  0.00     0.041 A 
ATOM     92  F   UNL A   1      46.799  32.163  30.923  1.00  0.00    -0.206 F 
ATOM     93  C   UNL A   1      47.342  35.345  29.292  1.00  0.00     0.022 A 
BRANCH  90  94
ATOM     94  S   UNL A   1      47.079  36.274  26.677  1.00  0.00     0.124 S 
ATOM     95  O   UNL A   1      47.426  35.437  25.533  1.00  0.00    -0.237 OA
ATOM     96  O   UNL A   1      45.759  36.891  26.639  1.00  0.00    -0.237 OA
ATOM     97  O   UNL A   1      48.154  37.141  27.157  1.00  0.00    -0.744 OA
ENDBRANCH  90  94
ENDBRANCH  64  87
ENDBRANCH  38  39
ENDBRANCH  30  33
ENDBRANCH  28  29
ENDBRANCH  27  28
ENDBRANCH  26  27
ENDBRANCH   1  26
TORSDOF 19
ENDMDL
MODEL 3
REMARK VINA RESULT:     -10.8      6.131     10.458
REMARK SMILES CC1(C)C(C(=O)Nc2ccc(CC(=O)NCCCCCCNC(=O)c3ccc(-c4c5nc(c(-c6cc(S(=O)(=O)[O-])ccc6F)c6ccc([nH]6)c(-c6cc(S(=O)(=O)[O-])ccc6F)c6nc(c(-c7cc(S(=O)(=O)[O-])ccc7F)c7ccc4[nH]7)C=C6)C=C5)cc3)cc2)C1(C)C
REMARK SMILES IDX 18 1 17 2 16 3 15 4 13 5 14 6 12 8 11 9 8 10 9 11 89 12
REMARK SMILES IDX 10 13 88 14 7 15 5 16 6 17 4 19 1 20 2 21 3 22 90 23 91 24
REMARK SMILES IDX 92 25 19 26 20 27 21 28 22 29 23 30 24 32 25 33 26 34 87 35
REMARK SMILES IDX 27 36 86 37 28 38 29 39 30 40 80 41 31 42 85 43 79 44 81 45
REMARK SMILES IDX 32 46 84 47 78 48 77 49 33 51 65 52 45 53 64 54 46 55 49 56
REMARK SMILES IDX 63 57 82 58 47 59 48 60 62 62 83 63 50 64 34 65 35 66 43 67
REMARK SMILES IDX 36 68 42 69 44 70 41 71 37 72 38 73 39 74 40 75 66 76 67 77
REMARK SMILES IDX 75 78 68 79 74 80 76 81 73 82 69 83 70 84 71 85 72 86 51 87
REMARK SMILES IDX 52 88 60 89 53 90 59 91 61 92 58 93 54 94 55 95 56 96 57 97
REMARK H PARENT 15 7 7 18 22 31 81 50 49 61
REMARK Flexibility Score: inf
ROOT
ATOM      1  C   UNL A   1      34.155  29.557  27.831  1.00  0.00     0.002 C 
ENDROOT
BRANCH   1   2
ATOM      2  C   UNL A   1      34.586  28.823  26.559  1.00  0.00     0.021 C 
BRANCH   2   3
ATOM      3  C   UNL A   1      33.455  28.014  25.917  1.00  0.00     0.116 C 
BRANCH   3   4
ATOM      4  N   UNL A   1      33.321  28.333  24.510  1.00  0.00    -0.356 N 
ATOM      5  C   UNL A   1      32.239  28.160  23.696  1.00  0.00     0.224 C 
ATOM      6  O   UNL A   1      32.361  28.390  22.491  1.00  0.00    -0.275 OA
ATOM      7  H   UNL A   1      34.116  28.727  24.084  1.00  0.00     0.163 HD
BRANCH   5   8
ATOM      8  C   UNL A   1      30.903  27.760  24.287  1.00  0.00     0.135 C 
BRANCH   8   9
ATOM      9  C   UNL A   1      30.754  26.292  24.589  1.00  0.00    -0.039 A 
ATOM     10  C   UNL A   1      30.822  23.558  25.116  1.00  0.00     0.041 A 
ATOM     11  C   UNL A   1      30.595  24.454  26.159  1.00  0.00     0.026 A 
ATOM     12  C   UNL A   1      30.788  23.997  23.810  1.00  0.00     0.026 A 
ATOM     13  C   UNL A   1      30.567  25.827  25.896  1.00  0.00     0.006 A 
ATOM     14  C   UNL A   1      30.825  25.359  23.550  1.00  0.00     0.006 A 
BRANCH  10  15
ATOM     15  N   UNL A   1      31.097  22.232  25.401  1.00  0.00    -0.326 N 
ATOM     16  C   UNL A   1      32.139  21.424  25.024  1.00  0.00     0.228 C 
ATOM     17  O   UNL A   1      31.895  20.212  25.064  1.00  0.00    -0.274 OA
ATOM     18  H   UNL A   1      30.429  21.792  25.974  1.00  0.00     0.169 HD
BRANCH  16  19
ATOM     19  C   UNL A   1      33.575  21.795  24.793  1.00  0.00     0.091 C 
ATOM     20  C   UNL A   1      34.949  23.307  23.340  1.00  0.00     0.012 C 
ATOM     21  C   UNL A   1      34.394  23.094  24.752  1.00  0.00    -0.017 C 
ATOM     22  C   UNL A   1      34.469  24.416  25.478  1.00  0.00     0.012 C 
ATOM     23  C   UNL A   1      34.763  21.894  25.699  1.00  0.00    -0.017 C 
ATOM     24  C   UNL A   1      36.049  21.173  25.369  1.00  0.00     0.012 C 
ATOM     25  C   UNL A   1      34.501  21.869  27.192  1.00  0.00     0.012 C 
ENDBRANCH  16  19
ENDBRANCH  10  15
ENDBRANCH   8   9
ENDBRANCH   5   8
ENDBRANCH   3   4
ENDBRANCH   2   3
ENDBRANCH   1   2
BRANCH   1  26
ATOM     26  C   UNL A   1      34.808  30.930  28.018  1.00  0.00     0.002 C 
BRANCH  26  27
ATOM     27  C   UNL A   1      34.152  32.059  27.220  1.00  0.00     0.021 C 
BRANCH  27  28
ATOM     28  C   UNL A   1      32.756  32.430  27.709  1.00  0.00     0.116 C 
BRANCH  28  29
ATOM     29  N   UNL A   1      32.607  33.872  27.842  1.00  0.00    -0.352 N 
ATOM     30  C   UNL A   1      33.220  34.721  28.728  1.00  0.00     0.251 C 
ATOM     31  H   UNL A   1      31.983  34.295  27.208  1.00  0.00     0.163 HD
ATOM     32  O   UNL A   1      32.795  35.863  28.882  1.00  0.00    -0.269 OA
BRANCH  30  33
ATOM     33  C   UNL A   1      34.381  34.239  29.501  1.00  0.00     0.039 A 
ATOM     34  C   UNL A   1      34.171  33.494  30.663  1.00  0.00     0.014 A 
ATOM     35  C   UNL A   1      35.678  34.514  29.059  1.00  0.00     0.014 A 
ATOM     36  C   UNL A   1      35.268  32.972  31.353  1.00  0.00     0.010 A 
ATOM     37  C   UNL A   1      36.763  33.932  29.704  1.00  0.00     0.010 A 
ATOM     38  C   UNL A   1      36.570  33.159  30.861  1.00  0.00    -0.014 A 
BRANCH  38  39
ATOM     39  C   UNL A   1      37.756  32.583  31.545  1.00  0.00     0.031 A 
ATOM     40  C   UNL A   1      38.491  31.434  30.911  1.00  0.00     0.074 A 
ATOM     41  C   UNL A   1      38.115  33.031  32.763  1.00  0.00     0.049 A 
ATOM     42  N   UNL A   1      39.449  30.690  31.400  1.00  0.00    -0.248 NA
ATOM     43  C   UNL A   1      38.062  31.049  29.556  1.00  0.00     0.031 C 
ATOM     44  C   UNL A   1      37.465  34.124  33.488  1.00  0.00     0.029 A 
ATOM     45  N   UNL A   1      39.104  32.611  33.618  1.00  0.00    -0.354 N 
ATOM     46  C   UNL A   1      39.724  29.739  30.423  1.00  0.00     0.074 A 
ATOM     47  C   UNL A   1      38.788  29.964  29.342  1.00  0.00     0.031 C 
ATOM     48  C   UNL A   1      38.081  34.298  34.669  1.00  0.00     0.029 A 
ATOM     49  C   UNL A   1      39.132  33.294  34.812  1.00  0.00     0.049 A 
ATOM     50  H   UNL A   1      39.735  31.888  33.397  1.00  0.00     0.167 HD
ATOM     51  C   UNL A   1      40.682  28.779  30.422  1.00  0.00     0.034 A 
ATOM     52  C   UNL A   1      39.900  33.116  35.906  1.00  0.00     0.034 A 
ATOM     53  C   UNL A   1      41.614  28.579  31.505  1.00  0.00     0.049 A 
ATOM     54  C   UNL A   1      40.933  32.017  35.899  1.00  0.00     0.074 A 
ATOM     55  C   UNL A   1      42.655  27.671  31.590  1.00  0.00     0.029 A 
ATOM     56  N   UNL A   1      41.615  29.296  32.695  1.00  0.00    -0.354 N 
ATOM     57  N   UNL A   1      41.204  31.144  34.955  1.00  0.00    -0.248 NA
ATOM     58  C   UNL A   1      41.768  31.880  37.100  1.00  0.00     0.031 C 
ATOM     59  C   UNL A   1      43.236  27.789  32.855  1.00  0.00     0.029 A 
ATOM     60  C   UNL A   1      42.617  28.829  33.530  1.00  0.00     0.049 A 
ATOM     61  H   UNL A   1      40.994  30.028  32.914  1.00  0.00     0.167 HD
ATOM     62  C   UNL A   1      42.269  30.386  35.434  1.00  0.00     0.074 A 
ATOM     63  C   UNL A   1      42.592  30.904  36.747  1.00  0.00     0.031 C 
ATOM     64  C   UNL A   1      42.929  29.360  34.837  1.00  0.00     0.034 A 
BRANCH  51  65
ATOM     65  C   UNL A   1      40.744  27.859  29.226  1.00  0.00     0.023 A 
ATOM     66  C   UNL A   1      41.668  28.061  28.185  1.00  0.00     0.031 A 
ATOM     67  C   UNL A   1      39.851  26.779  29.110  1.00  0.00     0.131 A 
ATOM     68  C   UNL A   1      41.624  27.249  27.041  1.00  0.00     0.055 A 
ATOM     69  C   UNL A   1      39.871  25.921  28.009  1.00  0.00     0.041 A 
ATOM     70  F   UNL A   1      38.932  26.547  30.060  1.00  0.00    -0.206 F 
ATOM     71  C   UNL A   1      40.749  26.164  26.958  1.00  0.00     0.022 A 
BRANCH  68  72
ATOM     72  S   UNL A   1      42.620  27.729  25.604  1.00  0.00     0.124 S 
ATOM     73  O   UNL A   1      42.526  26.534  24.768  1.00  0.00    -0.237 OA
ATOM     74  O   UNL A   1      41.919  28.909  25.112  1.00  0.00    -0.237 OA
ATOM     75  O   UNL A   1      43.943  27.980  26.172  1.00  0.00    -0.744 OA
ENDBRANCH  68  72
ENDBRANCH  51  65
BRANCH  52  76
ATOM     76  C   UNL A   1      39.716  33.980  37.109  1.00  0.00     0.023 A 
ATOM     77  C   UNL A   1      39.083  33.488  38.262  1.00  0.00     0.031 A 
ATOM     78  C   UNL A   1      40.126  35.325  37.108  1.00  0.00     0.131 A 
ATOM     79  C   UNL A   1      38.833  34.346  39.344  1.00  0.00     0.055 A 
ATOM     80  C   UNL A   1      39.927  36.160  38.208  1.00  0.00     0.041 A 
ATOM     81  F   UNL A   1      40.738  35.848  36.033  1.00  0.00    -0.206 F 
ATOM     82  C   UNL A   1      39.263  35.675  39.331  1.00  0.00     0.022 A 
BRANCH  79  83
ATOM     83  S   UNL A   1      37.846  33.725  40.733  1.00  0.00     0.124 S 
ATOM     84  O   UNL A   1      37.328  34.963  41.305  1.00  0.00    -0.237 OA
ATOM     85  O   UNL A   1      36.873  32.873  40.055  1.00  0.00    -0.237 OA
ATOM     86  O   UNL A   1      38.825  33.017  41.556  1.00  0.00    -0.744 OA
ENDBRANCH  79  83
ENDBRANCH  52  76
BRANCH  64  87
ATOM     87  C   UNL A   1      44.110  28.773  35.570  1.00  0.00     0.023 A 
ATOM     88  C   UNL A   1      43.972  27.720  36.489  1.00  0.00     0.031 A 
ATOM     89  C   UNL A   1      45.403  29.274  35.325  1.00  0.00     0.131 A 
ATOM     90  C   UNL A   1      45.102  27.227  37.160  1.00  0.00     0.055 A 
ATOM     91  C   UNL A   1      46.529  28.740  35.950  1.00  0.00     0.041 A 
ATOM     92  F   UNL A   1      45.591  30.282  34.459  1.00  0.00    -0.206 F 
ATOM     93  C   UNL A   1      46.382  27.716  36.882  1.00  0.00     0.022 A 
BRANCH  90  94
ATOM     94  S   UNL A   1      44.873  25.981  38.458  1.00  0.00     0.124 S 
ATOM     95  O   UNL A   1      44.001  26.678  39.397  1.00  0.00    -0.237 OA
ATOM     96  O   UNL A   1      44.267  24.874  37.727  1.00  0.00    -0.237 OA
ATOM     97  O   UNL A   1      46.230  25.733  38.940  1.00  0.00    -0.744 OA
ENDBRANCH  90  94
ENDBRANCH  64  87
ENDBRANCH  38  39
ENDBRANCH  30  33
ENDBRANCH  28  29
ENDBRANCH  27  28
ENDBRANCH  26  27
ENDBRANCH   1  26
TORSDOF 19
ENDMDL
