MODEL 1
REMARK VINA RESULT:     -11.7      0.000      0.000
REMARK SMILES O=C(NCCCCCCNC(=O)c1cccc(-c2c(F)cc(F)cc2F)c1)c1ccc(-c2c3nc(c(-c4cc(S(=O)(=O)[O-])ccc4F)c4ccc([nH]4)c(-c4cc(S(=O)(=O)[O-])ccc4F)c4nc(c(-c5cc(S(=O)(=O)[O-])ccc5F)c5ccc2[nH]5)C=C4)C=C3)cc1
REMARK SMILES IDX 5 1 4 2 3 3 1 4 2 5 28 7 29 8 90 9 30 10 89 11 31 12 32 13
REMARK SMILES IDX 33 14 83 15 34 16 88 17 82 18 84 19 35 20 87 21 81 22 80 23
REMARK SMILES IDX 36 25 68 26 48 27 67 28 49 29 52 30 66 31 85 32 50 33 51 34
REMARK SMILES IDX 65 36 86 37 53 38 37 39 38 40 46 41 39 42 45 43 47 44 44 45
REMARK SMILES IDX 40 46 41 47 42 48 43 49 69 50 70 51 78 52 71 53 77 54 79 55
REMARK SMILES IDX 76 56 72 57 73 58 74 59 75 60 54 61 55 62 63 63 56 64 62 65
REMARK SMILES IDX 64 66 61 67 57 68 58 69 59 70 60 71 6 72 7 73 8 74 9 75
REMARK SMILES IDX 10 76 11 77 12 79 13 80 14 81 27 82 15 83 17 84 16 85 18 86
REMARK SMILES IDX 19 87 25 88 20 89 21 90 24 91 26 92 22 93 23 94
REMARK H PARENT 3 6 84 24 52 35 10 78
REMARK Flexibility Score: inf
ROOT
ATOM      1  C   UNL A   1      33.028  28.145  24.007  1.00  0.00     0.021 C 
ENDROOT
BRANCH   1   2
ATOM      2  C   UNL A   1      33.816  29.216  24.750  1.00  0.00     0.116 C 
BRANCH   2   3
ATOM      3  N   UNL A   1      32.968  30.215  25.379  1.00  0.00    -0.352 N 
ATOM      4  O   UNL A   1      32.235  31.553  27.043  1.00  0.00    -0.269 OA
ATOM      5  C   UNL A   1      33.119  30.820  26.604  1.00  0.00     0.251 C 
ATOM      6  H   UNL A   1      32.181  30.495  24.859  1.00  0.00     0.163 HD
BRANCH   5   7
ATOM      7  C   UNL A   1      34.340  30.565  27.403  1.00  0.00     0.039 A 
ATOM      8  C   UNL A   1      35.265  31.587  27.630  1.00  0.00     0.014 A 
ATOM      9  C   UNL A   1      34.564  29.290  27.928  1.00  0.00     0.014 A 
ATOM     10  C   UNL A   1      36.470  31.301  28.260  1.00  0.00     0.010 A 
ATOM     11  C   UNL A   1      35.740  29.025  28.640  1.00  0.00     0.010 A 
ATOM     12  C   UNL A   1      36.714  30.023  28.792  1.00  0.00    -0.014 A 
BRANCH  12  13
ATOM     13  C   UNL A   1      37.963  29.796  29.567  1.00  0.00     0.031 A 
ATOM     14  C   UNL A   1      38.130  30.334  30.961  1.00  0.00     0.074 A 
ATOM     15  C   UNL A   1      38.931  29.045  29.006  1.00  0.00     0.049 A 
ATOM     16  N   UNL A   1      39.137  30.183  31.785  1.00  0.00    -0.248 NA
ATOM     17  C   UNL A   1      37.033  31.152  31.499  1.00  0.00     0.031 C 
ATOM     18  C   UNL A   1      38.878  28.484  27.651  1.00  0.00     0.029 A 
ATOM     19  N   UNL A   1      40.129  28.600  29.499  1.00  0.00    -0.354 N 
ATOM     20  C   UNL A   1      38.802  30.888  32.936  1.00  0.00     0.074 A 
ATOM     21  C   UNL A   1      37.509  31.496  32.689  1.00  0.00     0.031 C 
ATOM     22  C   UNL A   1      39.963  27.726  27.446  1.00  0.00     0.029 A 
ATOM     23  C   UNL A   1      40.824  27.801  28.620  1.00  0.00     0.049 A 
ATOM     24  H   UNL A   1      40.462  28.828  30.397  1.00  0.00     0.167 HD
ATOM     25  C   UNL A   1      39.505  31.008  34.090  1.00  0.00     0.034 A 
ATOM     26  C   UNL A   1      42.028  27.209  28.735  1.00  0.00     0.034 A 
ATOM     27  C   UNL A   1      40.794  30.398  34.317  1.00  0.00     0.049 A 
ATOM     28  C   UNL A   1      42.793  27.381  30.018  1.00  0.00     0.074 A 
ATOM     29  C   UNL A   1      41.587  30.448  35.452  1.00  0.00     0.029 A 
ATOM     30  N   UNL A   1      41.487  29.629  33.389  1.00  0.00    -0.354 N 
ATOM     31  N   UNL A   1      42.452  28.044  31.099  1.00  0.00    -0.248 NA
ATOM     32  C   UNL A   1      44.101  26.723  30.098  1.00  0.00     0.031 C 
ATOM     33  C   UNL A   1      42.777  29.761  35.191  1.00  0.00     0.029 A 
ATOM     34  C   UNL A   1      42.704  29.221  33.917  1.00  0.00     0.049 A 
ATOM     35  H   UNL A   1      41.161  29.406  32.487  1.00  0.00     0.167 HD
ATOM     36  C   UNL A   1      43.504  27.873  31.992  1.00  0.00     0.074 A 
ATOM     37  C   UNL A   1      44.469  27.013  31.336  1.00  0.00     0.031 C 
ATOM     38  C   UNL A   1      43.666  28.386  33.238  1.00  0.00     0.034 A 
BRANCH  25  39
ATOM     39  C   UNL A   1      38.910  31.861  35.185  1.00  0.00     0.023 A 
ATOM     40  C   UNL A   1      38.415  31.299  36.375  1.00  0.00     0.031 A 
ATOM     41  C   UNL A   1      38.847  33.259  35.042  1.00  0.00     0.131 A 
ATOM     42  C   UNL A   1      37.835  32.124  37.352  1.00  0.00     0.055 A 
ATOM     43  C   UNL A   1      38.329  34.080  36.046  1.00  0.00     0.041 A 
ATOM     44  F   UNL A   1      39.287  33.851  33.921  1.00  0.00    -0.206 F 
ATOM     45  C   UNL A   1      37.809  33.513  37.206  1.00  0.00     0.022 A 
BRANCH  42  46
ATOM     46  S   UNL A   1      37.021  31.347  38.775  1.00  0.00     0.124 S 
ATOM     47  O   UNL A   1      37.996  31.582  39.838  1.00  0.00    -0.237 OA
ATOM     48  O   UNL A   1      35.776  32.098  38.876  1.00  0.00    -0.237 OA
ATOM     49  O   UNL A   1      36.876  29.951  38.369  1.00  0.00    -0.744 OA
ENDBRANCH  42  46
ENDBRANCH  25  39
BRANCH  26  50
ATOM     50  C   UNL A   1      42.600  26.435  27.596  1.00  0.00     0.023 A 
ATOM     51  C   UNL A   1      42.462  25.041  27.522  1.00  0.00     0.031 A 
ATOM     52  C   UNL A   1      43.332  27.081  26.582  1.00  0.00     0.131 A 
ATOM     53  C   UNL A   1      43.089  24.332  26.485  1.00  0.00     0.055 A 
ATOM     54  C   UNL A   1      43.902  26.378  25.521  1.00  0.00     0.041 A 
ATOM     55  F   UNL A   1      43.491  28.415  26.604  1.00  0.00    -0.206 F 
ATOM     56  C   UNL A   1      43.796  24.993  25.477  1.00  0.00     0.022 A 
BRANCH  53  57
ATOM     57  S   UNL A   1      43.054  22.519  26.530  1.00  0.00     0.124 S 
ATOM     58  O   UNL A   1      44.470  22.190  26.416  1.00  0.00    -0.237 OA
ATOM     59  O   UNL A   1      42.439  22.263  27.827  1.00  0.00    -0.237 OA
ATOM     60  O   UNL A   1      42.235  22.167  25.372  1.00  0.00    -0.744 OA
ENDBRANCH  53  57
ENDBRANCH  26  50
BRANCH  38  61
ATOM     61  C   UNL A   1      44.933  28.002  33.961  1.00  0.00     0.023 A 
ATOM     62  C   UNL A   1      44.997  26.847  34.760  1.00  0.00     0.031 A 
ATOM     63  C   UNL A   1      46.069  28.827  33.894  1.00  0.00     0.131 A 
ATOM     64  C   UNL A   1      46.146  26.587  35.520  1.00  0.00     0.055 A 
ATOM     65  C   UNL A   1      47.232  28.529  34.604  1.00  0.00     0.041 A 
ATOM     66  F   UNL A   1      46.060  29.943  33.148  1.00  0.00    -0.206 F 
ATOM     67  C   UNL A   1      47.270  27.414  35.436  1.00  0.00     0.022 A 
BRANCH  64  68
ATOM     68  S   UNL A   1      46.111  25.217  36.709  1.00  0.00     0.124 S 
ATOM     69  O   UNL A   1      46.546  25.871  37.939  1.00  0.00    -0.237 OA
ATOM     70  O   UNL A   1      44.711  24.805  36.666  1.00  0.00    -0.237 OA
ATOM     71  O   UNL A   1      47.058  24.254  36.151  1.00  0.00    -0.744 OA
ENDBRANCH  64  68
ENDBRANCH  38  61
ENDBRANCH  12  13
ENDBRANCH   5   7
ENDBRANCH   2   3
ENDBRANCH   1   2
BRANCH   1  72
ATOM     72  C   UNL A   1      33.235  26.715  24.508  1.00  0.00     0.002 C 
BRANCH  72  73
ATOM     73  C   UNL A   1      32.984  26.488  26.001  1.00  0.00     0.002 C 
BRANCH  73  74
ATOM     74  C   UNL A   1      31.573  26.814  26.501  1.00  0.00     0.021 C 
BRANCH  74  75
ATOM     75  C   UNL A   1      30.438  26.062  25.809  1.00  0.00     0.116 C 
BRANCH  75  76
ATOM     76  N   UNL A   1      30.095  24.828  26.496  1.00  0.00    -0.352 N 
ATOM     77  C   UNL A   1      30.459  23.539  26.198  1.00  0.00     0.251 C 
ATOM     78  H   UNL A   1      29.519  24.931  27.288  1.00  0.00     0.163 HD
ATOM     79  O   UNL A   1      29.945  22.595  26.791  1.00  0.00    -0.269 OA
BRANCH  77  80
ATOM     80  C   UNL A   1      31.460  23.284  25.141  1.00  0.00     0.040 A 
ATOM     81  C   UNL A   1      31.069  23.397  23.806  1.00  0.00     0.014 A 
ATOM     82  C   UNL A   1      32.772  22.918  25.468  1.00  0.00     0.022 A 
ATOM     83  C   UNL A   1      32.008  23.196  22.798  1.00  0.00     0.001 A 
ATOM     84  C   UNL A   1      33.738  22.737  24.466  1.00  0.00    -0.012 A 
ATOM     85  C   UNL A   1      33.331  22.880  23.128  1.00  0.00     0.009 A 
BRANCH  84  86
ATOM     86  C   UNL A   1      35.137  22.440  24.817  1.00  0.00     0.053 A 
ATOM     87  C   UNL A   1      36.052  23.465  25.115  1.00  0.00     0.136 A 
ATOM     88  C   UNL A   1      35.617  21.122  24.899  1.00  0.00     0.136 A 
ATOM     89  F   UNL A   1      35.660  24.748  25.071  1.00  0.00    -0.206 F 
ATOM     90  C   UNL A   1      37.371  23.198  25.472  1.00  0.00     0.079 A 
ATOM     91  C   UNL A   1      36.933  20.836  25.252  1.00  0.00     0.079 A 
ATOM     92  F   UNL A   1      34.801  20.092  24.624  1.00  0.00    -0.206 F 
ATOM     93  C   UNL A   1      37.798  21.882  25.534  1.00  0.00     0.129 A 
ATOM     94  F   UNL A   1      39.069  21.615  25.859  1.00  0.00    -0.207 F 
ENDBRANCH  84  86
ENDBRANCH  77  80
ENDBRANCH  75  76
ENDBRANCH  74  75
ENDBRANCH  73  74
ENDBRANCH  72  73
ENDBRANCH   1  72
TORSDOF 17
ENDMDL
MODEL 2
REMARK VINA RESULT:     -11.5      2.968      4.662
REMARK SMILES O=C(NCCCCCCNC(=O)c1cccc(-c2c(F)cc(F)cc2F)c1)c1ccc(-c2c3nc(c(-c4cc(S(=O)(=O)[O-])ccc4F)c4ccc([nH]4)c(-c4cc(S(=O)(=O)[O-])ccc4F)c4nc(c(-c5cc(S(=O)(=O)[O-])ccc5F)c5ccc2[nH]5)C=C4)C=C3)cc1
REMARK SMILES IDX 5 1 4 2 3 3 1 4 2 5 28 7 29 8 90 9 30 10 89 11 31 12 32 13
REMARK SMILES IDX 33 14 83 15 34 16 88 17 82 18 84 19 35 20 87 21 81 22 80 23
REMARK SMILES IDX 36 25 68 26 48 27 67 28 49 29 52 30 66 31 85 32 50 33 51 34
REMARK SMILES IDX 65 36 86 37 53 38 37 39 38 40 46 41 39 42 45 43 47 44 44 45
REMARK SMILES IDX 40 46 41 47 42 48 43 49 69 50 70 51 78 52 71 53 77 54 79 55
REMARK SMILES IDX 76 56 72 57 73 58 74 59 75 60 54 61 55 62 63 63 56 64 62 65
REMARK SMILES IDX 64 66 61 67 57 68 58 69 59 70 60 71 6 72 7 73 8 74 9 75
REMARK SMILES IDX 10 76 11 77 12 79 13 80 14 81 27 82 15 83 17 84 16 85 18 86
REMARK SMILES IDX 19 87 25 88 20 89 21 90 24 91 26 92 22 93 23 94
REMARK H PARENT 3 6 84 24 52 35 10 78
REMARK Flexibility Score: inf
ROOT
ATOM      1  C   UNL A   1      32.895  27.727  25.711  1.00  0.00     0.021 C 
ENDROOT
BRANCH   1   2
ATOM      2  C   UNL A   1      33.710  28.255  26.884  1.00  0.00     0.116 C 
BRANCH   2   3
ATOM      3  N   UNL A   1      33.564  29.688  27.080  1.00  0.00    -0.352 N 
ATOM      4  O   UNL A   1      34.095  31.730  27.884  1.00  0.00    -0.269 OA
ATOM      5  C   UNL A   1      34.432  30.565  27.686  1.00  0.00     0.251 C 
ATOM      6  H   UNL A   1      32.732  30.084  26.733  1.00  0.00     0.163 HD
BRANCH   5   7
ATOM      7  C   UNL A   1      35.767  30.092  28.121  1.00  0.00     0.039 A 
ATOM      8  C   UNL A   1      35.956  29.589  29.411  1.00  0.00     0.014 A 
ATOM      9  C   UNL A   1      36.843  30.157  27.231  1.00  0.00     0.014 A 
ATOM     10  C   UNL A   1      37.238  29.280  29.851  1.00  0.00     0.010 A 
ATOM     11  C   UNL A   1      38.119  29.761  27.649  1.00  0.00     0.010 A 
ATOM     12  C   UNL A   1      38.331  29.341  28.971  1.00  0.00    -0.014 A 
BRANCH  12  13
ATOM     13  C   UNL A   1      39.662  28.882  29.449  1.00  0.00     0.031 A 
ATOM     14  C   UNL A   1      40.369  29.571  30.584  1.00  0.00     0.074 A 
ATOM     15  C   UNL A   1      40.204  27.792  28.871  1.00  0.00     0.049 A 
ATOM     16  N   UNL A   1      41.511  29.264  31.148  1.00  0.00    -0.248 NA
ATOM     17  C   UNL A   1      39.718  30.759  31.155  1.00  0.00     0.031 C 
ATOM     18  C   UNL A   1      39.608  27.053  27.752  1.00  0.00     0.029 A 
ATOM     19  N   UNL A   1      41.350  27.095  29.151  1.00  0.00    -0.354 N 
ATOM     20  C   UNL A   1      41.721  30.220  32.136  1.00  0.00     0.074 A 
ATOM     21  C   UNL A   1      40.601  31.138  32.070  1.00  0.00     0.031 C 
ATOM     22  C   UNL A   1      40.363  25.981  27.480  1.00  0.00     0.029 A 
ATOM     23  C   UNL A   1      41.531  25.989  28.353  1.00  0.00     0.049 A 
ATOM     24  H   UNL A   1      41.984  27.360  29.857  1.00  0.00     0.167 HD
ATOM     25  C   UNL A   1      42.748  30.315  33.018  1.00  0.00     0.034 A 
ATOM     26  C   UNL A   1      42.533  25.089  28.313  1.00  0.00     0.034 A 
ATOM     27  C   UNL A   1      43.858  29.392  33.065  1.00  0.00     0.049 A 
ATOM     28  C   UNL A   1      43.668  25.236  29.288  1.00  0.00     0.074 A 
ATOM     29  C   UNL A   1      44.945  29.390  33.925  1.00  0.00     0.029 A 
ATOM     30  N   UNL A   1      44.030  28.305  32.215  1.00  0.00    -0.354 N 
ATOM     31  N   UNL A   1      43.842  26.143  30.222  1.00  0.00    -0.248 NA
ATOM     32  C   UNL A   1      44.740  24.238  29.205  1.00  0.00     0.031 C 
ATOM     33  C   UNL A   1      45.797  28.343  33.559  1.00  0.00     0.029 A 
ATOM     34  C   UNL A   1      45.213  27.645  32.514  1.00  0.00     0.049 A 
ATOM     35  H   UNL A   1      43.402  28.043  31.504  1.00  0.00     0.167 HD
ATOM     36  C   UNL A   1      45.041  25.815  30.845  1.00  0.00     0.074 A 
ATOM     37  C   UNL A   1      45.524  24.608  30.206  1.00  0.00     0.031 C 
ATOM     38  C   UNL A   1      45.692  26.458  31.848  1.00  0.00     0.034 A 
BRANCH  25  39
ATOM     39  C   UNL A   1      42.738  31.478  33.980  1.00  0.00     0.023 A 
ATOM     40  C   UNL A   1      42.116  31.392  35.239  1.00  0.00     0.031 A 
ATOM     41  C   UNL A   1      43.368  32.689  33.639  1.00  0.00     0.131 A 
ATOM     42  C   UNL A   1      42.096  32.510  36.088  1.00  0.00     0.055 A 
ATOM     43  C   UNL A   1      43.402  33.775  34.516  1.00  0.00     0.041 A 
ATOM     44  F   UNL A   1      43.961  32.836  32.445  1.00  0.00    -0.206 F 
ATOM     45  C   UNL A   1      42.754  33.693  35.745  1.00  0.00     0.022 A 
BRANCH  42  46
ATOM     46  S   UNL A   1      41.109  32.430  37.608  1.00  0.00     0.124 S 
ATOM     47  O   UNL A   1      41.050  33.838  37.997  1.00  0.00    -0.237 OA
ATOM     48  O   UNL A   1      39.858  31.845  37.143  1.00  0.00    -0.237 OA
ATOM     49  O   UNL A   1      41.905  31.580  38.491  1.00  0.00    -0.744 OA
ENDBRANCH  42  46
ENDBRANCH  25  39
BRANCH  26  50
ATOM     50  C   UNL A   1      42.528  24.000  27.296  1.00  0.00     0.023 A 
ATOM     51  C   UNL A   1      41.889  22.776  27.544  1.00  0.00     0.031 A 
ATOM     52  C   UNL A   1      43.202  24.156  26.070  1.00  0.00     0.131 A 
ATOM     53  C   UNL A   1      41.979  21.738  26.603  1.00  0.00     0.055 A 
ATOM     54  C   UNL A   1      43.238  23.143  25.113  1.00  0.00     0.041 A 
ATOM     55  F   UNL A   1      43.827  25.309  25.781  1.00  0.00    -0.206 F 
ATOM     56  C   UNL A   1      42.637  21.918  25.383  1.00  0.00     0.022 A 
BRANCH  53  57
ATOM     57  S   UNL A   1      41.310  20.111  27.040  1.00  0.00     0.124 S 
ATOM     58  O   UNL A   1      40.777  20.355  28.376  1.00  0.00    -0.237 OA
ATOM     59  O   UNL A   1      40.323  19.898  25.987  1.00  0.00    -0.237 OA
ATOM     60  O   UNL A   1      42.479  19.237  26.984  1.00  0.00    -0.744 OA
ENDBRANCH  53  57
ENDBRANCH  26  50
BRANCH  38  61
ATOM     61  C   UNL A   1      46.986  25.837  32.311  1.00  0.00     0.023 A 
ATOM     62  C   UNL A   1      47.026  24.970  33.418  1.00  0.00     0.031 A 
ATOM     63  C   UNL A   1      48.198  26.157  31.674  1.00  0.00     0.131 A 
ATOM     64  C   UNL A   1      48.261  24.513  33.902  1.00  0.00     0.055 A 
ATOM     65  C   UNL A   1      49.417  25.648  32.123  1.00  0.00     0.041 A 
ATOM     66  F   UNL A   1      48.216  26.981  30.615  1.00  0.00    -0.206 F 
ATOM     67  C   UNL A   1      49.455  24.835  33.252  1.00  0.00     0.022 A 
BRANCH  64  68
ATOM     68  S   UNL A   1      48.293  23.585  35.460  1.00  0.00     0.124 S 
ATOM     69  O   UNL A   1      49.517  22.802  35.322  1.00  0.00    -0.237 OA
ATOM     70  O   UNL A   1      48.327  24.651  36.456  1.00  0.00    -0.237 OA
ATOM     71  O   UNL A   1      47.055  22.809  35.423  1.00  0.00    -0.744 OA
ENDBRANCH  64  68
ENDBRANCH  38  61
ENDBRANCH  12  13
ENDBRANCH   5   7
ENDBRANCH   2   3
ENDBRANCH   1   2
BRANCH   1  72
ATOM     72  C   UNL A   1      33.651  26.808  24.750  1.00  0.00     0.002 C 
BRANCH  72  73
ATOM     73  C   UNL A   1      34.300  25.573  25.380  1.00  0.00     0.002 C 
BRANCH  73  74
ATOM     74  C   UNL A   1      34.635  24.427  24.420  1.00  0.00     0.021 C 
BRANCH  74  75
ATOM     75  C   UNL A   1      34.044  24.549  23.017  1.00  0.00     0.116 C 
BRANCH  75  76
ATOM     76  N   UNL A   1      33.210  23.410  22.670  1.00  0.00    -0.352 N 
ATOM     77  C   UNL A   1      31.953  23.090  23.115  1.00  0.00     0.251 C 
ATOM     78  H   UNL A   1      33.603  22.780  22.024  1.00  0.00     0.163 HD
ATOM     79  O   UNL A   1      31.457  22.000  22.842  1.00  0.00    -0.269 OA
BRANCH  77  80
ATOM     80  C   UNL A   1      31.199  24.051  23.947  1.00  0.00     0.040 A 
ATOM     81  C   UNL A   1      31.117  23.827  25.322  1.00  0.00     0.014 A 
ATOM     82  C   UNL A   1      30.564  25.157  23.367  1.00  0.00     0.022 A 
ATOM     83  C   UNL A   1      30.443  24.743  26.125  1.00  0.00     0.001 A 
ATOM     84  C   UNL A   1      29.902  26.103  24.165  1.00  0.00    -0.012 A 
ATOM     85  C   UNL A   1      29.852  25.874  25.551  1.00  0.00     0.009 A 
BRANCH  84  86
ATOM     86  C   UNL A   1      29.311  27.311  23.563  1.00  0.00     0.053 A 
ATOM     87  C   UNL A   1      30.102  28.254  22.883  1.00  0.00     0.136 A 
ATOM     88  C   UNL A   1      27.930  27.564  23.613  1.00  0.00     0.136 A 
ATOM     89  F   UNL A   1      31.428  28.069  22.783  1.00  0.00    -0.206 F 
ATOM     90  C   UNL A   1      29.555  29.387  22.288  1.00  0.00     0.079 A 
ATOM     91  C   UNL A   1      27.365  28.693  23.026  1.00  0.00     0.079 A 
ATOM     92  F   UNL A   1      27.113  26.710  24.249  1.00  0.00    -0.206 F 
ATOM     93  C   UNL A   1      28.187  29.596  22.369  1.00  0.00     0.129 A 
ATOM     94  F   UNL A   1      27.653  30.690  21.816  1.00  0.00    -0.207 F 
ENDBRANCH  84  86
ENDBRANCH  77  80
ENDBRANCH  75  76
ENDBRANCH  74  75
ENDBRANCH  73  74
ENDBRANCH  72  73
ENDBRANCH   1  72
TORSDOF 17
ENDMDL
MODEL 3
REMARK VINA RESULT:     -11.4      3.537      5.086
REMARK SMILES O=C(NCCCCCCNC(=O)c1cccc(-c2c(F)cc(F)cc2F)c1)c1ccc(-c2c3nc(c(-c4cc(S(=O)(=O)[O-])ccc4F)c4ccc([nH]4)c(-c4cc(S(=O)(=O)[O-])ccc4F)c4nc(c(-c5cc(S(=O)(=O)[O-])ccc5F)c5ccc2[nH]5)C=C4)C=C3)cc1
REMARK SMILES IDX 5 1 4 2 3 3 1 4 2 5 28 7 29 8 90 9 30 10 89 11 31 12 32 13
REMARK SMILES IDX 33 14 83 15 34 16 88 17 82 18 84 19 35 20 87 21 81 22 80 23
REMARK SMILES IDX 36 25 68 26 48 27 67 28 49 29 52 30 66 31 85 32 50 33 51 34
REMARK SMILES IDX 65 36 86 37 53 38 37 39 38 40 46 41 39 42 45 43 47 44 44 45
REMARK SMILES IDX 40 46 41 47 42 48 43 49 69 50 70 51 78 52 71 53 77 54 79 55
REMARK SMILES IDX 76 56 72 57 73 58 74 59 75 60 54 61 55 62 63 63 56 64 62 65
REMARK SMILES IDX 64 66 61 67 57 68 58 69 59 70 60 71 6 72 7 73 8 74 9 75
REMARK SMILES IDX 10 76 11 77 12 79 13 80 14 81 27 82 15 83 17 84 16 85 18 86
REMARK SMILES IDX 19 87 25 88 20 89 21 90 24 91 26 92 22 93 23 94
REMARK H PARENT 3 6 84 24 52 35 10 78
REMARK Flexibility Score: inf
ROOT
ATOM      1  C   UNL A   1      32.854  27.735  25.790  1.00  0.00     0.021 C 
ENDROOT
BRANCH   1   2
ATOM      2  C   UNL A   1      33.640  28.285  26.972  1.00  0.00     0.116 C 
BRANCH   2   3
ATOM      3  N   UNL A   1      33.530  29.728  27.108  1.00  0.00    -0.352 N 
ATOM      4  O   UNL A   1      34.103  31.785  27.841  1.00  0.00    -0.269 OA
ATOM      5  C   UNL A   1      34.411  30.604  27.696  1.00  0.00     0.251 C 
ATOM      6  H   UNL A   1      32.716  30.132  26.729  1.00  0.00     0.163 HD
BRANCH   5   7
ATOM      7  C   UNL A   1      35.724  30.113  28.176  1.00  0.00     0.039 A 
ATOM      8  C   UNL A   1      35.860  29.599  29.468  1.00  0.00     0.014 A 
ATOM      9  C   UNL A   1      36.832  30.171  27.325  1.00  0.00     0.014 A 
ATOM     10  C   UNL A   1      37.122  29.272  29.952  1.00  0.00     0.010 A 
ATOM     11  C   UNL A   1      38.087  29.758  27.787  1.00  0.00     0.010 A 
ATOM     12  C   UNL A   1      38.247  29.327  29.112  1.00  0.00    -0.014 A 
BRANCH  12  13
ATOM     13  C   UNL A   1      39.555  28.849  29.635  1.00  0.00     0.031 A 
ATOM     14  C   UNL A   1      40.164  29.434  30.879  1.00  0.00     0.074 A 
ATOM     15  C   UNL A   1      40.164  27.834  28.991  1.00  0.00     0.049 A 
ATOM     16  N   UNL A   1      41.272  29.095  31.489  1.00  0.00    -0.248 NA
ATOM     17  C   UNL A   1      39.443  30.545  31.519  1.00  0.00     0.031 C 
ATOM     18  C   UNL A   1      39.666  27.200  27.765  1.00  0.00     0.029 A 
ATOM     19  N   UNL A   1      41.307  27.136  29.281  1.00  0.00    -0.354 N 
ATOM     20  C   UNL A   1      41.389  29.951  32.579  1.00  0.00     0.074 A 
ATOM     21  C   UNL A   1      40.252  30.848  32.526  1.00  0.00     0.031 C 
ATOM     22  C   UNL A   1      40.467  26.176  27.443  1.00  0.00     0.029 A 
ATOM     23  C   UNL A   1      41.572  26.120  28.392  1.00  0.00     0.049 A 
ATOM     24  H   UNL A   1      41.884  27.341  30.052  1.00  0.00     0.167 HD
ATOM     25  C   UNL A   1      42.351  29.977  33.536  1.00  0.00     0.034 A 
ATOM     26  C   UNL A   1      42.598  25.249  28.333  1.00  0.00     0.034 A 
ATOM     27  C   UNL A   1      43.480  29.077  33.570  1.00  0.00     0.049 A 
ATOM     28  C   UNL A   1      43.661  25.321  29.395  1.00  0.00     0.074 A 
ATOM     29  C   UNL A   1      44.505  29.011  34.499  1.00  0.00     0.029 A 
ATOM     30  N   UNL A   1      43.738  28.085  32.630  1.00  0.00    -0.354 N 
ATOM     31  N   UNL A   1      43.745  26.131  30.424  1.00  0.00    -0.248 NA
ATOM     32  C   UNL A   1      44.762  24.358  29.289  1.00  0.00     0.031 C 
ATOM     33  C   UNL A   1      45.409  28.024  34.092  1.00  0.00     0.029 A 
ATOM     34  C   UNL A   1      44.916  27.423  32.945  1.00  0.00     0.049 A 
ATOM     35  H   UNL A   1      43.167  27.884  31.854  1.00  0.00     0.167 HD
ATOM     36  C   UNL A   1      44.909  25.767  31.094  1.00  0.00     0.074 A 
ATOM     37  C   UNL A   1      45.467  24.641  30.374  1.00  0.00     0.031 C 
ATOM     38  C   UNL A   1      45.472  26.319  32.199  1.00  0.00     0.034 A 
BRANCH  25  39
ATOM     39  C   UNL A   1      42.243  31.037  34.606  1.00  0.00     0.023 A 
ATOM     40  C   UNL A   1      42.837  32.303  34.457  1.00  0.00     0.031 A 
ATOM     41  C   UNL A   1      41.526  30.782  35.790  1.00  0.00     0.131 A 
ATOM     42  C   UNL A   1      42.746  33.247  35.492  1.00  0.00     0.055 A 
ATOM     43  C   UNL A   1      41.383  31.748  36.788  1.00  0.00     0.041 A 
ATOM     44  F   UNL A   1      40.954  29.587  35.996  1.00  0.00    -0.206 F 
ATOM     45  C   UNL A   1      42.003  32.987  36.647  1.00  0.00     0.022 A 
BRANCH  42  46
ATOM     46  S   UNL A   1      43.697  34.785  35.354  1.00  0.00     0.124 S 
ATOM     47  O   UNL A   1      42.711  35.781  35.771  1.00  0.00    -0.237 OA
ATOM     48  O   UNL A   1      44.803  34.558  36.276  1.00  0.00    -0.237 OA
ATOM     49  O   UNL A   1      44.063  34.837  33.940  1.00  0.00    -0.744 OA
ENDBRANCH  42  46
ENDBRANCH  25  39
BRANCH  26  50
ATOM     50  C   UNL A   1      42.692  24.268  27.215  1.00  0.00     0.023 A 
ATOM     51  C   UNL A   1      42.043  23.026  27.281  1.00  0.00     0.031 A 
ATOM     52  C   UNL A   1      43.472  24.547  26.076  1.00  0.00     0.131 A 
ATOM     53  C   UNL A   1      42.225  22.089  26.252  1.00  0.00     0.055 A 
ATOM     54  C   UNL A   1      43.600  23.635  25.029  1.00  0.00     0.041 A 
ATOM     55  F   UNL A   1      44.111  25.722  25.961  1.00  0.00    -0.206 F 
ATOM     56  C   UNL A   1      42.987  22.390  25.120  1.00  0.00     0.022 A 
BRANCH  53  57
ATOM     57  S   UNL A   1      41.532  20.426  26.462  1.00  0.00     0.124 S 
ATOM     58  O   UNL A   1      42.208  19.684  25.404  1.00  0.00    -0.237 OA
ATOM     59  O   UNL A   1      41.933  20.104  27.827  1.00  0.00    -0.237 OA
ATOM     60  O   UNL A   1      40.098  20.629  26.265  1.00  0.00    -0.744 OA
ENDBRANCH  53  57
ENDBRANCH  26  50
BRANCH  38  61
ATOM     61  C   UNL A   1      46.748  25.681  32.689  1.00  0.00     0.023 A 
ATOM     62  C   UNL A   1      47.979  25.931  32.057  1.00  0.00     0.031 A 
ATOM     63  C   UNL A   1      46.725  24.774  33.762  1.00  0.00     0.131 A 
ATOM     64  C   UNL A   1      49.124  25.225  32.454  1.00  0.00     0.055 A 
ATOM     65  C   UNL A   1      47.880  24.121  34.194  1.00  0.00     0.041 A 
ATOM     66  F   UNL A   1      45.576  24.498  34.399  1.00  0.00    -0.206 F 
ATOM     67  C   UNL A   1      49.085  24.332  33.528  1.00  0.00     0.022 A 
BRANCH  64  68
ATOM     68  S   UNL A   1      50.639  25.403  31.473  1.00  0.00     0.124 S 
ATOM     69  O   UNL A   1      51.099  26.732  31.863  1.00  0.00    -0.237 OA
ATOM     70  O   UNL A   1      51.448  24.284  31.945  1.00  0.00    -0.237 OA
ATOM     71  O   UNL A   1      50.170  25.291  30.093  1.00  0.00    -0.744 OA
ENDBRANCH  64  68
ENDBRANCH  38  61
ENDBRANCH  12  13
ENDBRANCH   5   7
ENDBRANCH   2   3
ENDBRANCH   1   2
BRANCH   1  72
ATOM     72  C   UNL A   1      33.643  26.831  24.842  1.00  0.00     0.002 C 
BRANCH  72  73
ATOM     73  C   UNL A   1      34.299  25.604  25.483  1.00  0.00     0.002 C 
BRANCH  73  74
ATOM     74  C   UNL A   1      34.674  24.467  24.528  1.00  0.00     0.021 C 
BRANCH  74  75
ATOM     75  C   UNL A   1      34.128  24.593  23.107  1.00  0.00     0.116 C 
BRANCH  75  76
ATOM     76  N   UNL A   1      33.327  23.443  22.720  1.00  0.00    -0.352 N 
ATOM     77  C   UNL A   1      32.063  23.094  23.120  1.00  0.00     0.251 C 
ATOM     78  H   UNL A   1      33.753  22.828  22.080  1.00  0.00     0.163 HD
ATOM     79  O   UNL A   1      31.597  21.998  22.819  1.00  0.00    -0.269 OA
BRANCH  77  80
ATOM     80  C   UNL A   1      31.265  24.030  23.938  1.00  0.00     0.040 A 
ATOM     81  C   UNL A   1      31.157  23.798  25.310  1.00  0.00     0.014 A 
ATOM     82  C   UNL A   1      30.612  25.121  23.349  1.00  0.00     0.022 A 
ATOM     83  C   UNL A   1      30.440  24.692  26.101  1.00  0.00     0.001 A 
ATOM     84  C   UNL A   1      29.907  26.045  24.134  1.00  0.00    -0.012 A 
ATOM     85  C   UNL A   1      29.831  25.809  25.518  1.00  0.00     0.009 A 
BRANCH  84  86
ATOM     86  C   UNL A   1      29.297  27.239  23.524  1.00  0.00     0.053 A 
ATOM     87  C   UNL A   1      27.917  27.491  23.625  1.00  0.00     0.136 A 
ATOM     88  C   UNL A   1      30.065  28.195  22.839  1.00  0.00     0.136 A 
ATOM     89  F   UNL A   1      27.123  26.627  24.278  1.00  0.00    -0.206 F 
ATOM     90  C   UNL A   1      27.331  28.627  23.075  1.00  0.00     0.079 A 
ATOM     91  C   UNL A   1      29.496  29.336  22.280  1.00  0.00     0.079 A 
ATOM     92  F   UNL A   1      31.388  28.020  22.699  1.00  0.00    -0.206 F 
ATOM     93  C   UNL A   1      28.130  29.539  22.403  1.00  0.00     0.129 A 
ATOM     94  F   UNL A   1      27.574  30.626  21.856  1.00  0.00    -0.207 F 
ENDBRANCH  84  86
ENDBRANCH  77  80
ENDBRANCH  75  76
ENDBRANCH  74  75
ENDBRANCH  73  74
ENDBRANCH  72  73
ENDBRANCH   1  72
TORSDOF 17
ENDMDL
