MODEL 1
REMARK VINA RESULT:     -10.6      0.000      0.000
REMARK SMILES CC(C)C[C@@H](C(=O)NCCCCCCNC(=O)c1ccc(-c2c3nc(c(-c4cc(S(=O)(=O)[O-])ccc4F)c4ccc([nH]4)c(-c4cc(S(=O)(=O)[O-])ccc4F)c4nc(c(-c5cc(S(=O)(=O)[O-])ccc5F)c5ccc2[nH]5)C=C4)C=C3)cc1)[C@@H]1CCC[C@@H](C)C1
REMARK SMILES IDX 12 1 11 2 10 3 9 4 8 5 6 6 7 7 5 9 4 10 2 11 1 12 3 13 81 14
REMARK SMILES IDX 82 15 87 16 83 17 85 18 84 19 86 20 13 21 14 22 15 23 16 24
REMARK SMILES IDX 17 26 18 27 19 28 80 29 20 30 79 31 21 32 22 33 23 34 73 35
REMARK SMILES IDX 24 36 78 37 72 38 74 39 25 40 77 41 71 42 70 43 26 45 58 46
REMARK SMILES IDX 38 47 57 48 39 49 42 50 56 51 75 52 40 53 41 54 55 56 76 57
REMARK SMILES IDX 43 58 27 59 28 60 36 61 29 62 35 63 37 64 34 65 30 66 31 67
REMARK SMILES IDX 32 68 33 69 59 70 60 71 68 72 61 73 67 74 69 75 66 76 62 77
REMARK SMILES IDX 63 78 64 79 65 80 44 81 45 82 53 83 46 84 52 85 54 86 51 87
REMARK SMILES IDX 47 88 48 89 49 90 50 91
REMARK H PARENT 8 8 15 25 74 44 42 55
REMARK Flexibility Score: inf
ROOT
ATOM      1  C   UNL A   1      31.878  27.739  26.635  1.00  0.00     0.002 C 
ENDROOT
BRANCH   1   2
ATOM      2  C   UNL A   1      30.746  26.833  26.131  1.00  0.00     0.002 C 
BRANCH   2   3
ATOM      3  C   UNL A   1      30.796  26.475  24.645  1.00  0.00     0.021 C 
BRANCH   3   4
ATOM      4  C   UNL A   1      30.569  24.992  24.356  1.00  0.00     0.116 C 
BRANCH   4   5
ATOM      5  N   UNL A   1      30.198  24.251  25.539  1.00  0.00    -0.356 N 
ATOM      6  C   UNL A   1      30.847  23.309  26.261  1.00  0.00     0.223 C 
ATOM      7  O   UNL A   1      30.318  22.998  27.337  1.00  0.00    -0.275 OA
ATOM      8  H   UNL A   1      29.303  24.473  25.884  1.00  0.00     0.163 HD
BRANCH   6   9
ATOM      9  C   UNL A   1      32.155  22.619  25.834  1.00  0.00     0.082 C 
BRANCH   9  10
ATOM     10  C   UNL A   1      32.013  21.176  25.279  1.00  0.00     0.016 C 
BRANCH  10  11
ATOM     11  C   UNL A   1      32.699  20.753  23.969  1.00  0.00    -0.017 C 
ATOM     12  C   UNL A   1      32.495  19.266  23.666  1.00  0.00     0.007 C 
ATOM     13  C   UNL A   1      32.174  21.572  22.783  1.00  0.00     0.007 C 
ENDBRANCH  10  11
ENDBRANCH   9  10
BRANCH   9  14
ATOM     14  C   UNL A   1      33.462  23.144  26.532  1.00  0.00     0.002 C 
ATOM     15  C   UNL A   1      33.820  24.607  26.177  1.00  0.00     0.004 C 
ATOM     16  C   UNL A   1      34.747  22.307  26.531  1.00  0.00     0.007 C 
ATOM     17  C   UNL A   1      34.735  24.779  24.963  1.00  0.00     0.001 C 
ATOM     18  C   UNL A   1      35.552  22.409  25.235  1.00  0.00    -0.014 C 
ATOM     19  C   UNL A   1      35.957  23.864  24.994  1.00  0.00     0.003 C 
ATOM     20  C   UNL A   1      36.765  21.482  25.262  1.00  0.00     0.007 C 
ENDBRANCH   9  14
ENDBRANCH   6   9
ENDBRANCH   4   5
ENDBRANCH   3   4
ENDBRANCH   2   3
ENDBRANCH   1   2
BRANCH   1  21
ATOM     21  C   UNL A   1      32.866  28.235  25.576  1.00  0.00     0.021 C 
BRANCH  21  22
ATOM     22  C   UNL A   1      34.133  28.893  26.119  1.00  0.00     0.116 C 
BRANCH  22  23
ATOM     23  N   UNL A   1      33.864  30.193  26.708  1.00  0.00    -0.352 N 
ATOM     24  C   UNL A   1      34.510  30.860  27.717  1.00  0.00     0.251 C 
ATOM     25  H   UNL A   1      33.096  30.672  26.321  1.00  0.00     0.163 HD
ATOM     26  O   UNL A   1      33.989  31.855  28.210  1.00  0.00    -0.269 OA
BRANCH  24  27
ATOM     27  C   UNL A   1      35.814  30.377  28.219  1.00  0.00     0.039 A 
ATOM     28  C   UNL A   1      35.845  29.631  29.402  1.00  0.00     0.014 A 
ATOM     29  C   UNL A   1      37.006  30.690  27.560  1.00  0.00     0.014 A 
ATOM     30  C   UNL A   1      37.064  29.157  29.893  1.00  0.00     0.010 A 
ATOM     31  C   UNL A   1      38.213  30.162  28.015  1.00  0.00     0.010 A 
ATOM     32  C   UNL A   1      38.254  29.394  29.189  1.00  0.00    -0.014 A 
BRANCH  32  33
ATOM     33  C   UNL A   1      39.553  28.857  29.671  1.00  0.00     0.031 A 
ATOM     34  C   UNL A   1      40.300  29.561  30.771  1.00  0.00     0.074 A 
ATOM     35  C   UNL A   1      40.083  27.768  29.080  1.00  0.00     0.049 A 
ATOM     36  N   UNL A   1      41.480  29.299  31.271  1.00  0.00    -0.248 NA
ATOM     37  C   UNL A   1      39.641  30.733  31.366  1.00  0.00     0.031 C 
ATOM     38  C   UNL A   1      39.466  27.016  27.986  1.00  0.00     0.029 A 
ATOM     39  N   UNL A   1      41.266  27.109  29.308  1.00  0.00    -0.354 N 
ATOM     40  C   UNL A   1      41.711  30.279  32.232  1.00  0.00     0.074 A 
ATOM     41  C   UNL A   1      40.573  31.172  32.198  1.00  0.00     0.031 C 
ATOM     42  C   UNL A   1      40.264  25.991  27.651  1.00  0.00     0.029 A 
ATOM     43  C   UNL A   1      41.471  26.036  28.472  1.00  0.00     0.049 A 
ATOM     44  H   UNL A   1      41.907  27.378  30.005  1.00  0.00     0.167 HD
ATOM     45  C   UNL A   1      42.765  30.406  33.077  1.00  0.00     0.034 A 
ATOM     46  C   UNL A   1      42.519  25.194  28.366  1.00  0.00     0.034 A 
ATOM     47  C   UNL A   1      43.888  29.500  33.101  1.00  0.00     0.049 A 
ATOM     48  C   UNL A   1      43.694  25.377  29.292  1.00  0.00     0.074 A 
ATOM     49  C   UNL A   1      44.984  29.506  33.946  1.00  0.00     0.029 A 
ATOM     50  N   UNL A   1      44.064  28.428  32.235  1.00  0.00    -0.354 N 
ATOM     51  N   UNL A   1      43.879  26.284  30.223  1.00  0.00    -0.248 NA
ATOM     52  C   UNL A   1      44.798  24.417  29.157  1.00  0.00     0.031 C 
ATOM     53  C   UNL A   1      45.853  28.484  33.548  1.00  0.00     0.029 A 
ATOM     54  C   UNL A   1      45.265  27.788  32.505  1.00  0.00     0.049 A 
ATOM     55  H   UNL A   1      43.428  28.160  31.531  1.00  0.00     0.167 HD
ATOM     56  C   UNL A   1      45.108  25.983  30.806  1.00  0.00     0.074 A 
ATOM     57  C   UNL A   1      45.610  24.805  30.130  1.00  0.00     0.031 C 
ATOM     58  C   UNL A   1      45.759  26.620  31.813  1.00  0.00     0.034 A 
BRANCH  45  59
ATOM     59  C   UNL A   1      42.759  31.586  34.021  1.00  0.00     0.023 A 
ATOM     60  C   UNL A   1      42.230  31.490  35.320  1.00  0.00     0.031 A 
ATOM     61  C   UNL A   1      43.265  32.832  33.610  1.00  0.00     0.131 A 
ATOM     62  C   UNL A   1      42.145  32.633  36.130  1.00  0.00     0.055 A 
ATOM     63  C   UNL A   1      43.254  33.947  34.452  1.00  0.00     0.041 A 
ATOM     64  F   UNL A   1      43.765  32.993  32.374  1.00  0.00    -0.206 F 
ATOM     65  C   UNL A   1      42.678  33.855  35.714  1.00  0.00     0.022 A 
BRANCH  62  66
ATOM     66  S   UNL A   1      41.195  32.532  37.672  1.00  0.00     0.124 S 
ATOM     67  O   UNL A   1      42.030  31.639  38.474  1.00  0.00    -0.237 OA
ATOM     68  O   UNL A   1      41.147  33.924  38.105  1.00  0.00    -0.237 OA
ATOM     69  O   UNL A   1      39.916  31.965  37.251  1.00  0.00    -0.744 OA
ENDBRANCH  62  66
ENDBRANCH  45  59
BRANCH  46  70
ATOM     70  C   UNL A   1      42.516  24.113  27.340  1.00  0.00     0.023 A 
ATOM     71  C   UNL A   1      41.908  22.874  27.597  1.00  0.00     0.031 A 
ATOM     72  C   UNL A   1      43.157  24.288  26.100  1.00  0.00     0.131 A 
ATOM     73  C   UNL A   1      41.991  21.844  26.648  1.00  0.00     0.055 A 
ATOM     74  C   UNL A   1      43.192  23.277  25.139  1.00  0.00     0.041 A 
ATOM     75  F   UNL A   1      43.751  25.454  25.802  1.00  0.00    -0.206 F 
ATOM     76  C   UNL A   1      42.617  22.041  25.416  1.00  0.00     0.022 A 
BRANCH  73  77
ATOM     77  S   UNL A   1      41.339  20.208  27.084  1.00  0.00     0.124 S 
ATOM     78  O   UNL A   1      40.384  19.972  26.007  1.00  0.00    -0.237 OA
ATOM     79  O   UNL A   1      42.546  19.387  27.063  1.00  0.00    -0.237 OA
ATOM     80  O   UNL A   1      40.752  20.417  28.406  1.00  0.00    -0.744 OA
ENDBRANCH  73  77
ENDBRANCH  46  70
BRANCH  58  81
ATOM     81  C   UNL A   1      47.067  26.021  32.270  1.00  0.00     0.023 A 
ATOM     82  C   UNL A   1      47.132  25.108  33.336  1.00  0.00     0.031 A 
ATOM     83  C   UNL A   1      48.268  26.380  31.630  1.00  0.00     0.131 A 
ATOM     84  C   UNL A   1      48.377  24.624  33.766  1.00  0.00     0.055 A 
ATOM     85  C   UNL A   1      49.497  25.848  32.024  1.00  0.00     0.041 A 
ATOM     86  F   UNL A   1      48.265  27.250  30.608  1.00  0.00    -0.206 F 
ATOM     87  C   UNL A   1      49.557  24.974  33.105  1.00  0.00     0.022 A 
BRANCH  84  88
ATOM     88  S   UNL A   1      48.443  23.593  35.257  1.00  0.00     0.124 S 
ATOM     89  O   UNL A   1      49.095  22.385  34.762  1.00  0.00    -0.237 OA
ATOM     90  O   UNL A   1      49.229  24.414  36.171  1.00  0.00    -0.237 OA
ATOM     91  O   UNL A   1      47.037  23.432  35.624  1.00  0.00    -0.744 OA
ENDBRANCH  84  88
ENDBRANCH  58  81
ENDBRANCH  32  33
ENDBRANCH  24  27
ENDBRANCH  22  23
ENDBRANCH  21  22
ENDBRANCH   1  21
TORSDOF 19
ENDMDL
MODEL 2
REMARK VINA RESULT:     -10.5      2.298      3.267
REMARK SMILES CC(C)C[C@@H](C(=O)NCCCCCCNC(=O)c1ccc(-c2c3nc(c(-c4cc(S(=O)(=O)[O-])ccc4F)c4ccc([nH]4)c(-c4cc(S(=O)(=O)[O-])ccc4F)c4nc(c(-c5cc(S(=O)(=O)[O-])ccc5F)c5ccc2[nH]5)C=C4)C=C3)cc1)[C@@H]1CCC[C@@H](C)C1
REMARK SMILES IDX 12 1 11 2 10 3 9 4 8 5 6 6 7 7 5 9 4 10 2 11 1 12 3 13 81 14
REMARK SMILES IDX 82 15 87 16 83 17 85 18 84 19 86 20 13 21 14 22 15 23 16 24
REMARK SMILES IDX 17 26 18 27 19 28 80 29 20 30 79 31 21 32 22 33 23 34 73 35
REMARK SMILES IDX 24 36 78 37 72 38 74 39 25 40 77 41 71 42 70 43 26 45 58 46
REMARK SMILES IDX 38 47 57 48 39 49 42 50 56 51 75 52 40 53 41 54 55 56 76 57
REMARK SMILES IDX 43 58 27 59 28 60 36 61 29 62 35 63 37 64 34 65 30 66 31 67
REMARK SMILES IDX 32 68 33 69 59 70 60 71 68 72 61 73 67 74 69 75 66 76 62 77
REMARK SMILES IDX 63 78 64 79 65 80 44 81 45 82 53 83 46 84 52 85 54 86 51 87
REMARK SMILES IDX 47 88 48 89 49 90 50 91
REMARK H PARENT 8 8 15 25 74 44 42 55
REMARK Flexibility Score: inf
ROOT
ATOM      1  C   UNL A   1      31.445  27.277  25.239  1.00  0.00     0.002 C 
ENDROOT
BRANCH   1   2
ATOM      2  C   UNL A   1      30.332  27.542  24.216  1.00  0.00     0.002 C 
BRANCH   2   3
ATOM      3  C   UNL A   1      30.800  27.829  22.788  1.00  0.00     0.021 C 
BRANCH   3   4
ATOM      4  C   UNL A   1      32.315  27.759  22.607  1.00  0.00     0.116 C 
BRANCH   4   5
ATOM      5  N   UNL A   1      32.701  26.887  21.522  1.00  0.00    -0.356 N 
ATOM      6  C   UNL A   1      32.936  25.555  21.468  1.00  0.00     0.223 C 
ATOM      7  O   UNL A   1      33.077  25.081  20.334  1.00  0.00    -0.275 OA
ATOM      8  H   UNL A   1      32.815  27.348  20.660  1.00  0.00     0.163 HD
BRANCH   6   9
ATOM      9  C   UNL A   1      33.044  24.630  22.694  1.00  0.00     0.082 C 
BRANCH   9  10
ATOM     10  C   UNL A   1      34.459  24.491  23.319  1.00  0.00     0.016 C 
BRANCH  10  11
ATOM     11  C   UNL A   1      34.648  24.303  24.834  1.00  0.00    -0.017 C 
ATOM     12  C   UNL A   1      36.080  23.893  25.188  1.00  0.00     0.007 C 
ATOM     13  C   UNL A   1      34.302  25.588  25.595  1.00  0.00     0.007 C 
ENDBRANCH  10  11
ENDBRANCH   9  10
BRANCH   9  14
ATOM     14  C   UNL A   1      31.945  23.511  22.802  1.00  0.00     0.002 C 
ATOM     15  C   UNL A   1      30.828  23.825  23.826  1.00  0.00     0.004 C 
ATOM     16  C   UNL A   1      32.335  22.034  22.934  1.00  0.00     0.007 C 
ATOM     17  C   UNL A   1      31.084  23.319  25.246  1.00  0.00     0.001 C 
ATOM     18  C   UNL A   1      32.717  21.617  24.354  1.00  0.00    -0.014 C 
ATOM     19  C   UNL A   1      31.537  21.862  25.296  1.00  0.00     0.003 C 
ATOM     20  C   UNL A   1      33.184  20.165  24.400  1.00  0.00     0.007 C 
ENDBRANCH   9  14
ENDBRANCH   6   9
ENDBRANCH   4   5
ENDBRANCH   3   4
ENDBRANCH   2   3
ENDBRANCH   1   2
BRANCH   1  21
ATOM     21  C   UNL A   1      31.738  28.413  26.223  1.00  0.00     0.021 C 
BRANCH  21  22
ATOM     22  C   UNL A   1      32.898  29.329  25.839  1.00  0.00     0.116 C 
BRANCH  22  23
ATOM     23  N   UNL A   1      32.648  30.712  26.205  1.00  0.00    -0.352 N 
ATOM     24  C   UNL A   1      33.268  31.510  27.131  1.00  0.00     0.251 C 
ATOM     25  H   UNL A   1      31.916  31.146  25.708  1.00  0.00     0.163 HD
ATOM     26  O   UNL A   1      32.760  32.585  27.436  1.00  0.00    -0.269 OA
BRANCH  24  27
ATOM     27  C   UNL A   1      34.529  31.076  27.770  1.00  0.00     0.039 A 
ATOM     28  C   UNL A   1      35.580  31.993  27.875  1.00  0.00     0.014 A 
ATOM     29  C   UNL A   1      34.697  29.765  28.225  1.00  0.00     0.014 A 
ATOM     30  C   UNL A   1      36.778  31.609  28.482  1.00  0.00     0.010 A 
ATOM     31  C   UNL A   1      35.868  29.403  28.888  1.00  0.00     0.010 A 
ATOM     32  C   UNL A   1      36.923  30.321  29.018  1.00  0.00    -0.014 A 
BRANCH  32  33
ATOM     33  C   UNL A   1      38.172  29.911  29.710  1.00  0.00     0.031 A 
ATOM     34  C   UNL A   1      38.494  30.458  31.074  1.00  0.00     0.074 A 
ATOM     35  C   UNL A   1      39.041  29.092  29.086  1.00  0.00     0.049 A 
ATOM     36  N   UNL A   1      39.567  30.288  31.803  1.00  0.00    -0.248 NA
ATOM     37  C   UNL A   1      37.484  31.334  31.685  1.00  0.00     0.031 C 
ATOM     38  C   UNL A   1      38.852  28.520  27.751  1.00  0.00     0.029 A 
ATOM     39  N   UNL A   1      40.261  28.604  29.484  1.00  0.00    -0.354 N 
ATOM     40  C   UNL A   1      39.368  31.045  32.954  1.00  0.00     0.074 A 
ATOM     41  C   UNL A   1      38.097  31.719  32.794  1.00  0.00     0.031 C 
ATOM     42  C   UNL A   1      39.907  27.747  27.450  1.00  0.00     0.029 A 
ATOM     43  C   UNL A   1      40.869  27.803  28.546  1.00  0.00     0.049 A 
ATOM     44  H   UNL A   1      40.663  28.809  30.359  1.00  0.00     0.167 HD
ATOM     45  C   UNL A   1      40.162  31.149  34.049  1.00  0.00     0.034 A 
ATOM     46  C   UNL A   1      42.073  27.195  28.560  1.00  0.00     0.034 A 
ATOM     47  C   UNL A   1      41.423  30.462  34.193  1.00  0.00     0.049 A 
ATOM     48  C   UNL A   1      42.953  27.354  29.773  1.00  0.00     0.074 A 
ATOM     49  C   UNL A   1      42.283  30.456  35.277  1.00  0.00     0.029 A 
ATOM     50  N   UNL A   1      42.009  29.662  33.220  1.00  0.00    -0.354 N 
ATOM     51  N   UNL A   1      42.732  28.040  30.871  1.00  0.00    -0.248 NA
ATOM     52  C   UNL A   1      44.242  26.648  29.752  1.00  0.00     0.031 C 
ATOM     53  C   UNL A   1      43.418  29.712  34.935  1.00  0.00     0.029 A 
ATOM     54  C   UNL A   1      43.234  29.188  33.666  1.00  0.00     0.049 A 
ATOM     55  H   UNL A   1      41.614  29.462  32.341  1.00  0.00     0.167 HD
ATOM     56  C   UNL A   1      43.842  27.822  31.683  1.00  0.00     0.074 A 
ATOM     57  C   UNL A   1      44.721  26.931  30.955  1.00  0.00     0.031 C 
ATOM     58  C   UNL A   1      44.107  28.309  32.922  1.00  0.00     0.034 A 
BRANCH  45  59
ATOM     59  C   UNL A   1      39.697  32.062  35.160  1.00  0.00     0.023 A 
ATOM     60  C   UNL A   1      39.008  31.568  36.282  1.00  0.00     0.031 A 
ATOM     61  C   UNL A   1      39.921  33.448  35.086  1.00  0.00     0.131 A 
ATOM     62  C   UNL A   1      38.499  32.458  37.240  1.00  0.00     0.055 A 
ATOM     63  C   UNL A   1      39.485  34.320  36.086  1.00  0.00     0.041 A 
ATOM     64  F   UNL A   1      40.555  33.983  34.030  1.00  0.00    -0.206 F 
ATOM     65  C   UNL A   1      38.756  33.829  37.163  1.00  0.00     0.022 A 
BRANCH  62  66
ATOM     66  S   UNL A   1      37.371  31.814  38.507  1.00  0.00     0.124 S 
ATOM     67  O   UNL A   1      36.252  32.748  38.407  1.00  0.00    -0.237 OA
ATOM     68  O   UNL A   1      37.116  30.456  38.041  1.00  0.00    -0.237 OA
ATOM     69  O   UNL A   1      38.148  31.914  39.741  1.00  0.00    -0.744 OA
ENDBRANCH  62  66
ENDBRANCH  45  59
BRANCH  46  70
ATOM     70  C   UNL A   1      42.526  26.394  27.387  1.00  0.00     0.023 A 
ATOM     71  C   UNL A   1      42.190  25.036  27.266  1.00  0.00     0.031 A 
ATOM     72  C   UNL A   1      43.336  26.964  26.389  1.00  0.00     0.131 A 
ATOM     73  C   UNL A   1      42.698  24.283  26.197  1.00  0.00     0.055 A 
ATOM     74  C   UNL A   1      43.795  26.223  25.299  1.00  0.00     0.041 A 
ATOM     75  F   UNL A   1      43.682  28.259  26.454  1.00  0.00    -0.206 F 
ATOM     76  C   UNL A   1      43.487  24.870  25.206  1.00  0.00     0.022 A 
BRANCH  73  77
ATOM     77  S   UNL A   1      42.380  22.497  26.166  1.00  0.00     0.124 S 
ATOM     78  O   UNL A   1      43.066  22.095  24.942  1.00  0.00    -0.237 OA
ATOM     79  O   UNL A   1      42.991  22.060  27.417  1.00  0.00    -0.237 OA
ATOM     80  O   UNL A   1      40.923  22.411  26.122  1.00  0.00    -0.744 OA
ENDBRANCH  73  77
ENDBRANCH  46  70
BRANCH  58  81
ATOM     81  C   UNL A   1      45.385  27.848  33.581  1.00  0.00     0.023 A 
ATOM     82  C   UNL A   1      45.435  26.685  34.368  1.00  0.00     0.031 A 
ATOM     83  C   UNL A   1      46.568  28.593  33.423  1.00  0.00     0.131 A 
ATOM     84  C   UNL A   1      46.630  26.328  35.011  1.00  0.00     0.055 A 
ATOM     85  C   UNL A   1      47.768  28.200  34.017  1.00  0.00     0.041 A 
ATOM     86  F   UNL A   1      46.576  29.714  32.685  1.00  0.00    -0.206 F 
ATOM     87  C   UNL A   1      47.800  27.068  34.826  1.00  0.00     0.022 A 
BRANCH  84  88
ATOM     88  S   UNL A   1      46.614  24.927  36.163  1.00  0.00     0.124 S 
ATOM     89  O   UNL A   1      47.910  24.308  35.906  1.00  0.00    -0.237 OA
ATOM     90  O   UNL A   1      46.468  25.587  37.456  1.00  0.00    -0.237 OA
ATOM     91  O   UNL A   1      45.456  24.144  35.735  1.00  0.00    -0.744 OA
ENDBRANCH  84  88
ENDBRANCH  58  81
ENDBRANCH  32  33
ENDBRANCH  24  27
ENDBRANCH  22  23
ENDBRANCH  21  22
ENDBRANCH   1  21
TORSDOF 19
ENDMDL
MODEL 3
REMARK VINA RESULT:     -10.3      2.115      2.821
REMARK SMILES CC(C)C[C@@H](C(=O)NCCCCCCNC(=O)c1ccc(-c2c3nc(c(-c4cc(S(=O)(=O)[O-])ccc4F)c4ccc([nH]4)c(-c4cc(S(=O)(=O)[O-])ccc4F)c4nc(c(-c5cc(S(=O)(=O)[O-])ccc5F)c5ccc2[nH]5)C=C4)C=C3)cc1)[C@@H]1CCC[C@@H](C)C1
REMARK SMILES IDX 12 1 11 2 10 3 9 4 8 5 6 6 7 7 5 9 4 10 2 11 1 12 3 13 81 14
REMARK SMILES IDX 82 15 87 16 83 17 85 18 84 19 86 20 13 21 14 22 15 23 16 24
REMARK SMILES IDX 17 26 18 27 19 28 80 29 20 30 79 31 21 32 22 33 23 34 73 35
REMARK SMILES IDX 24 36 78 37 72 38 74 39 25 40 77 41 71 42 70 43 26 45 58 46
REMARK SMILES IDX 38 47 57 48 39 49 42 50 56 51 75 52 40 53 41 54 55 56 76 57
REMARK SMILES IDX 43 58 27 59 28 60 36 61 29 62 35 63 37 64 34 65 30 66 31 67
REMARK SMILES IDX 32 68 33 69 59 70 60 71 68 72 61 73 67 74 69 75 66 76 62 77
REMARK SMILES IDX 63 78 64 79 65 80 44 81 45 82 53 83 46 84 52 85 54 86 51 87
REMARK SMILES IDX 47 88 48 89 49 90 50 91
REMARK H PARENT 8 8 15 25 74 44 42 55
REMARK Flexibility Score: inf
ROOT
ATOM      1  C   UNL A   1      31.850  29.333  24.739  1.00  0.00     0.002 C 
ENDROOT
BRANCH   1   2
ATOM      2  C   UNL A   1      31.170  29.181  23.371  1.00  0.00     0.002 C 
BRANCH   2   3
ATOM      3  C   UNL A   1      30.039  28.152  23.305  1.00  0.00     0.021 C 
BRANCH   3   4
ATOM      4  C   UNL A   1      30.514  26.727  23.028  1.00  0.00     0.116 C 
BRANCH   4   5
ATOM      5  N   UNL A   1      31.740  26.692  22.266  1.00  0.00    -0.356 N 
ATOM      6  C   UNL A   1      32.787  25.834  22.267  1.00  0.00     0.223 C 
ATOM      7  O   UNL A   1      33.609  25.989  21.355  1.00  0.00    -0.275 OA
ATOM      8  H   UNL A   1      31.833  27.434  21.624  1.00  0.00     0.163 HD
BRANCH   6   9
ATOM      9  C   UNL A   1      33.009  24.721  23.306  1.00  0.00     0.082 C 
BRANCH   9  10
ATOM     10  C   UNL A   1      33.138  25.184  24.783  1.00  0.00     0.016 C 
BRANCH  10  11
ATOM     11  C   UNL A   1      32.031  24.895  25.811  1.00  0.00    -0.017 C 
ATOM     12  C   UNL A   1      32.442  23.809  26.809  1.00  0.00     0.007 C 
ATOM     13  C   UNL A   1      31.659  26.163  26.589  1.00  0.00     0.007 C 
ENDBRANCH  10  11
ENDBRANCH   9  10
BRANCH   9  14
ATOM     14  C   UNL A   1      33.669  23.402  22.762  1.00  0.00     0.002 C 
ATOM     15  C   UNL A   1      32.662  22.256  22.505  1.00  0.00     0.004 C 
ATOM     16  C   UNL A   1      34.924  22.818  23.421  1.00  0.00     0.007 C 
ATOM     17  C   UNL A   1      32.426  21.317  23.689  1.00  0.00     0.001 C 
ATOM     18  C   UNL A   1      34.640  22.002  24.682  1.00  0.00    -0.014 C 
ATOM     19  C   UNL A   1      33.718  20.830  24.340  1.00  0.00     0.003 C 
ATOM     20  C   UNL A   1      35.933  21.530  25.341  1.00  0.00     0.007 C 
ENDBRANCH   9  14
ENDBRANCH   6   9
ENDBRANCH   4   5
ENDBRANCH   3   4
ENDBRANCH   2   3
ENDBRANCH   1   2
BRANCH   1  21
ATOM     21  C   UNL A   1      33.322  28.917  24.809  1.00  0.00     0.021 C 
BRANCH  21  22
ATOM     22  C   UNL A   1      33.992  29.107  26.167  1.00  0.00     0.116 C 
BRANCH  22  23
ATOM     23  N   UNL A   1      33.795  30.446  26.692  1.00  0.00    -0.352 N 
ATOM     24  C   UNL A   1      34.459  31.115  27.688  1.00  0.00     0.251 C 
ATOM     25  H   UNL A   1      33.069  30.955  26.264  1.00  0.00     0.163 HD
ATOM     26  O   UNL A   1      33.992  32.163  28.123  1.00  0.00    -0.269 OA
BRANCH  24  27
ATOM     27  C   UNL A   1      35.717  30.573  28.246  1.00  0.00     0.039 A 
ATOM     28  C   UNL A   1      35.652  29.755  29.378  1.00  0.00     0.014 A 
ATOM     29  C   UNL A   1      36.956  30.899  27.688  1.00  0.00     0.014 A 
ATOM     30  C   UNL A   1      36.825  29.224  29.919  1.00  0.00     0.010 A 
ATOM     31  C   UNL A   1      38.119  30.316  28.190  1.00  0.00     0.010 A 
ATOM     32  C   UNL A   1      38.066  29.477  29.314  1.00  0.00    -0.014 A 
BRANCH  32  33
ATOM     33  C   UNL A   1      39.318  28.882  29.847  1.00  0.00     0.031 A 
ATOM     34  C   UNL A   1      39.986  29.484  31.053  1.00  0.00     0.074 A 
ATOM     35  C   UNL A   1      39.881  27.835  29.212  1.00  0.00     0.049 A 
ATOM     36  N   UNL A   1      41.122  29.163  31.618  1.00  0.00    -0.248 NA
ATOM     37  C   UNL A   1      39.296  30.615  31.690  1.00  0.00     0.031 C 
ATOM     38  C   UNL A   1      39.341  27.182  28.017  1.00  0.00     0.029 A 
ATOM     39  N   UNL A   1      41.035  27.140  29.475  1.00  0.00    -0.354 N 
ATOM     40  C   UNL A   1      41.289  30.060  32.669  1.00  0.00     0.074 A 
ATOM     41  C   UNL A   1      40.166  30.972  32.622  1.00  0.00     0.031 C 
ATOM     42  C   UNL A   1      40.151  26.174  27.662  1.00  0.00     0.029 A 
ATOM     43  C   UNL A   1      41.292  26.134  28.573  1.00  0.00     0.049 A 
ATOM     44  H   UNL A   1      41.624  27.342  30.237  1.00  0.00     0.167 HD
ATOM     45  C   UNL A   1      42.277  30.102  33.598  1.00  0.00     0.034 A 
ATOM     46  C   UNL A   1      42.336  25.286  28.479  1.00  0.00     0.034 A 
ATOM     47  C   UNL A   1      43.385  29.178  33.634  1.00  0.00     0.049 A 
ATOM     48  C   UNL A   1      43.440  25.375  29.502  1.00  0.00     0.074 A 
ATOM     49  C   UNL A   1      44.413  29.099  34.557  1.00  0.00     0.029 A 
ATOM     50  N   UNL A   1      43.615  28.176  32.700  1.00  0.00    -0.354 N 
ATOM     51  N   UNL A   1      43.562  26.202  30.515  1.00  0.00    -0.248 NA
ATOM     52  C   UNL A   1      44.540  24.411  29.374  1.00  0.00     0.031 C 
ATOM     53  C   UNL A   1      45.299  28.097  34.145  1.00  0.00     0.029 A 
ATOM     54  C   UNL A   1      44.785  27.497  33.007  1.00  0.00     0.049 A 
ATOM     55  H   UNL A   1      43.033  27.976  31.932  1.00  0.00     0.167 HD
ATOM     56  C   UNL A   1      44.740  25.835  31.162  1.00  0.00     0.074 A 
ATOM     57  C   UNL A   1      45.279  24.706  30.433  1.00  0.00     0.031 C 
ATOM     58  C   UNL A   1      45.318  26.379  32.263  1.00  0.00     0.034 A 
BRANCH  45  59
ATOM     59  C   UNL A   1      42.211  31.203  34.631  1.00  0.00     0.023 A 
ATOM     60  C   UNL A   1      42.841  32.444  34.429  1.00  0.00     0.031 A 
ATOM     61  C   UNL A   1      41.533  31.003  35.847  1.00  0.00     0.131 A 
ATOM     62  C   UNL A   1      42.848  33.403  35.454  1.00  0.00     0.055 A 
ATOM     63  C   UNL A   1      41.472  31.993  36.830  1.00  0.00     0.041 A 
ATOM     64  F   UNL A   1      40.929  29.832  36.108  1.00  0.00    -0.206 F 
ATOM     65  C   UNL A   1      42.145  33.196  36.643  1.00  0.00     0.022 A 
BRANCH  62  66
ATOM     66  S   UNL A   1      43.912  34.860  35.268  1.00  0.00     0.124 S 
ATOM     67  O   UNL A   1      45.139  34.415  35.924  1.00  0.00    -0.237 OA
ATOM     68  O   UNL A   1      43.981  35.018  33.820  1.00  0.00    -0.237 OA
ATOM     69  O   UNL A   1      43.182  35.910  35.976  1.00  0.00    -0.744 OA
ENDBRANCH  62  66
ENDBRANCH  45  59
BRANCH  46  70
ATOM     70  C   UNL A   1      42.401  24.290  27.372  1.00  0.00     0.023 A 
ATOM     71  C   UNL A   1      41.650  23.105  27.421  1.00  0.00     0.031 A 
ATOM     72  C   UNL A   1      43.245  24.489  26.264  1.00  0.00     0.131 A 
ATOM     73  C   UNL A   1      41.791  22.144  26.408  1.00  0.00     0.055 A 
ATOM     74  C   UNL A   1      43.342  23.554  25.233  1.00  0.00     0.041 A 
ATOM     75  F   UNL A   1      43.982  25.607  26.166  1.00  0.00    -0.206 F 
ATOM     76  C   UNL A   1      42.622  22.367  25.308  1.00  0.00     0.022 A 
BRANCH  73  77
ATOM     77  S   UNL A   1      40.933  20.556  26.591  1.00  0.00     0.124 S 
ATOM     78  O   UNL A   1      40.928  20.388  28.040  1.00  0.00    -0.237 OA
ATOM     79  O   UNL A   1      39.641  20.838  25.973  1.00  0.00    -0.237 OA
ATOM     80  O   UNL A   1      41.784  19.624  25.856  1.00  0.00    -0.744 OA
ENDBRANCH  73  77
ENDBRANCH  46  70
BRANCH  58  81
ATOM     81  C   UNL A   1      46.582  25.724  32.767  1.00  0.00     0.023 A 
ATOM     82  C   UNL A   1      47.845  26.052  32.245  1.00  0.00     0.031 A 
ATOM     83  C   UNL A   1      46.516  24.752  33.781  1.00  0.00     0.131 A 
ATOM     84  C   UNL A   1      48.986  25.374  32.701  1.00  0.00     0.055 A 
ATOM     85  C   UNL A   1      47.662  24.125  34.273  1.00  0.00     0.041 A 
ATOM     86  F   UNL A   1      45.335  24.398  34.314  1.00  0.00    -0.206 F 
ATOM     87  C   UNL A   1      48.904  24.426  33.724  1.00  0.00     0.022 A 
BRANCH  84  88
ATOM     88  S   UNL A   1      50.572  25.689  31.879  1.00  0.00     0.124 S 
ATOM     89  O   UNL A   1      51.530  25.313  32.914  1.00  0.00    -0.237 OA
ATOM     90  O   UNL A   1      50.505  24.806  30.720  1.00  0.00    -0.237 OA
ATOM     91  O   UNL A   1      50.521  27.118  31.571  1.00  0.00    -0.744 OA
ENDBRANCH  84  88
ENDBRANCH  58  81
ENDBRANCH  32  33
ENDBRANCH  24  27
ENDBRANCH  22  23
ENDBRANCH  21  22
ENDBRANCH   1  21
TORSDOF 19
ENDMDL
