MODEL 1
REMARK VINA RESULT:     -11.0      0.000      0.000
REMARK SMILES C[C@H]1OCC[C@@H]1C(=O)Nc1ccc(Cl)c(C(=O)NCCCCCCNC(=O)c2ccc(-c3c4nc(c(-c5cc(S(=O)(=O)[O-])ccc5F)c5ccc([nH]5)c(-c5cc(S(=O)(=O)[O-])ccc5F)c5nc(c(-c6cc(S(=O)(=O)[O-])ccc6F)c6ccc3[nH]6)C=C5)C=C4)cc2)c1
REMARK SMILES IDX 22 1 21 2 20 3 19 4 18 5 16 6 17 7 15 9 10 10 11 11 91 12
REMARK SMILES IDX 12 13 13 14 14 15 9 16 7 17 8 18 6 20 1 21 2 22 3 23 4 24
REMARK SMILES IDX 5 25 23 26 24 27 25 28 26 29 27 31 28 32 29 33 90 34 30 35
REMARK SMILES IDX 89 36 31 37 32 38 33 39 83 40 34 41 88 42 82 43 84 44 35 45
REMARK SMILES IDX 87 46 81 47 80 48 36 50 68 51 48 52 67 53 49 54 52 55 66 56
REMARK SMILES IDX 85 57 50 58 51 59 65 61 86 62 53 63 37 64 38 65 46 66 39 67
REMARK SMILES IDX 45 68 47 69 44 70 40 71 41 72 42 73 43 74 69 75 70 76 78 77
REMARK SMILES IDX 71 78 77 79 79 80 76 81 72 82 73 83 74 84 75 85 54 86 55 87
REMARK SMILES IDX 63 88 56 89 62 90 64 91 61 92 57 93 58 94 59 95 60 96
REMARK H PARENT 18 8 9 19 25 30 84 49 52 60
REMARK Flexibility Score: inf
ROOT
ATOM      1  C   UNL A   1      35.242  22.201  24.042  1.00  0.00     0.002 C 
ENDROOT
BRANCH   1   2
ATOM      2  C   UNL A   1      34.647  21.424  25.221  1.00  0.00     0.002 C 
BRANCH   2   3
ATOM      3  C   UNL A   1      33.499  20.461  24.919  1.00  0.00     0.021 C 
BRANCH   3   4
ATOM      4  C   UNL A   1      32.126  21.084  24.724  1.00  0.00     0.116 C 
BRANCH   4   5
ATOM      5  N   UNL A   1      31.536  21.713  25.891  1.00  0.00    -0.352 N 
ATOM      6  C   UNL A   1      31.415  23.054  26.193  1.00  0.00     0.252 C 
ATOM      7  O   UNL A   1      30.801  23.380  27.210  1.00  0.00    -0.269 OA
ATOM      8  H   UNL A   1      31.171  21.093  26.563  1.00  0.00     0.163 HD
BRANCH   6   9
ATOM      9  C   UNL A   1      32.118  24.107  25.411  1.00  0.00     0.060 A 
ATOM     10  C   UNL A   1      33.795  25.850  25.414  1.00  0.00     0.042 A 
ATOM     11  C   UNL A   1      33.806  25.836  24.028  1.00  0.00     0.028 A 
ATOM     12  C   UNL A   1      33.074  24.877  26.102  1.00  0.00     0.041 A 
ATOM     13  C   UNL A   1      32.816  25.142  23.348  1.00  0.00     0.023 A 
ATOM     14  C   UNL A   1      31.877  24.408  24.067  1.00  0.00     0.053 A 
ATOM     15  Cl  UNL A   1      30.369  24.126  23.271  1.00  0.00    -0.083 Cl
BRANCH  10  16
ATOM     16  N   UNL A   1      34.457  26.859  26.117  1.00  0.00    -0.326 N 
ATOM     17  C   UNL A   1      33.993  28.108  26.451  1.00  0.00     0.230 C 
ATOM     18  O   UNL A   1      34.810  28.891  26.955  1.00  0.00    -0.274 OA
ATOM     19  H   UNL A   1      35.372  26.648  26.411  1.00  0.00     0.169 HD
BRANCH  17  20
ATOM     20  C   UNL A   1      32.517  28.548  26.353  1.00  0.00     0.110 C 
ATOM     21  C   UNL A   1      30.782  28.003  24.575  1.00  0.00     0.039 C 
ATOM     22  C   UNL A   1      32.029  28.811  24.930  1.00  0.00     0.127 C 
ATOM     23  O   UNL A   1      31.685  30.201  24.861  1.00  0.00    -0.378 OA
ATOM     24  C   UNL A   1      31.350  30.649  26.175  1.00  0.00     0.161 C 
ATOM     25  C   UNL A   1      32.082  29.756  27.159  1.00  0.00     0.044 C 
ENDBRANCH  17  20
ENDBRANCH  10  16
ENDBRANCH   6   9
ENDBRANCH   4   5
ENDBRANCH   3   4
ENDBRANCH   2   3
ENDBRANCH   1   2
BRANCH   1  26
ATOM     26  C   UNL A   1      36.267  23.293  24.361  1.00  0.00     0.021 C 
BRANCH  26  27
ATOM     27  C   UNL A   1      36.790  23.338  25.791  1.00  0.00     0.116 C 
BRANCH  27  28
ATOM     28  N   UNL A   1      37.885  22.415  26.020  1.00  0.00    -0.352 N 
ATOM     29  C   UNL A   1      39.168  22.659  26.433  1.00  0.00     0.251 C 
ATOM     30  H   UNL A   1      37.674  21.468  25.853  1.00  0.00     0.163 HD
ATOM     31  O   UNL A   1      39.987  21.733  26.416  1.00  0.00    -0.269 OA
BRANCH  29  32
ATOM     32  C   UNL A   1      39.592  24.009  26.873  1.00  0.00     0.039 A 
ATOM     33  C   UNL A   1      39.501  24.327  28.232  1.00  0.00     0.014 A 
ATOM     34  C   UNL A   1      40.033  24.976  25.966  1.00  0.00     0.014 A 
ATOM     35  C   UNL A   1      39.887  25.594  28.682  1.00  0.00     0.010 A 
ATOM     36  C   UNL A   1      40.486  26.214  26.425  1.00  0.00     0.010 A 
ATOM     37  C   UNL A   1      40.404  26.543  27.787  1.00  0.00    -0.014 A 
BRANCH  37  38
ATOM     38  C   UNL A   1      40.824  27.890  28.261  1.00  0.00     0.031 A 
ATOM     39  C   UNL A   1      42.281  28.274  28.254  1.00  0.00     0.074 A 
ATOM     40  C   UNL A   1      39.900  28.755  28.726  1.00  0.00     0.049 A 
ATOM     41  N   UNL A   1      42.850  29.382  28.658  1.00  0.00    -0.248 NA
ATOM     42  C   UNL A   1      43.227  27.267  27.752  1.00  0.00     0.031 C 
ATOM     43  C   UNL A   1      38.464  28.486  28.822  1.00  0.00     0.029 A 
ATOM     44  N   UNL A   1      40.028  30.034  29.209  1.00  0.00    -0.354 N 
ATOM     45  C   UNL A   1      44.217  29.200  28.473  1.00  0.00     0.074 A 
ATOM     46  C   UNL A   1      44.394  27.852  27.978  1.00  0.00     0.031 C 
ATOM     47  C   UNL A   1      37.842  29.573  29.304  1.00  0.00     0.029 A 
ATOM     48  C   UNL A   1      38.835  30.603  29.593  1.00  0.00     0.049 A 
ATOM     49  H   UNL A   1      40.892  30.501  29.274  1.00  0.00     0.167 HD
ATOM     50  C   UNL A   1      45.229  30.082  28.675  1.00  0.00     0.034 A 
ATOM     51  C   UNL A   1      38.571  31.815  30.123  1.00  0.00     0.034 A 
ATOM     52  C   UNL A   1      45.032  31.430  29.153  1.00  0.00     0.049 A 
ATOM     53  C   UNL A   1      39.713  32.781  30.333  1.00  0.00     0.074 A 
ATOM     54  C   UNL A   1      45.979  32.421  29.349  1.00  0.00     0.029 A 
ATOM     55  N   UNL A   1      43.807  31.978  29.511  1.00  0.00    -0.354 N 
ATOM     56  N   UNL A   1      40.995  32.608  30.106  1.00  0.00    -0.248 NA
ATOM     57  C   UNL A   1      39.367  34.110  30.851  1.00  0.00     0.031 C 
ATOM     58  C   UNL A   1      45.337  33.542  29.888  1.00  0.00     0.029 A 
ATOM     59  C   UNL A   1      43.978  33.284  29.948  1.00  0.00     0.049 A 
ATOM     60  H   UNL A   1      42.944  31.508  29.463  1.00  0.00     0.167 HD
ATOM     61  C   UNL A   1      41.601  33.824  30.413  1.00  0.00     0.074 A 
ATOM     62  C   UNL A   1      40.541  34.721  30.825  1.00  0.00     0.031 C 
ATOM     63  C   UNL A   1      42.913  34.170  30.358  1.00  0.00     0.034 A 
BRANCH  50  64
ATOM     64  C   UNL A   1      46.636  29.605  28.404  1.00  0.00     0.023 A 
ATOM     65  C   UNL A   1      47.411  28.976  29.395  1.00  0.00     0.031 A 
ATOM     66  C   UNL A   1      47.221  29.795  27.138  1.00  0.00     0.131 A 
ATOM     67  C   UNL A   1      48.744  28.628  29.128  1.00  0.00     0.055 A 
ATOM     68  C   UNL A   1      48.521  29.369  26.854  1.00  0.00     0.041 A 
ATOM     69  F   UNL A   1      46.540  30.407  26.156  1.00  0.00    -0.206 F 
ATOM     70  C   UNL A   1      49.296  28.795  27.856  1.00  0.00     0.022 A 
BRANCH  67  71
ATOM     71  S   UNL A   1      49.790  28.081  30.507  1.00  0.00     0.124 S 
ATOM     72  O   UNL A   1      49.130  28.714  31.645  1.00  0.00    -0.237 OA
ATOM     73  O   UNL A   1      49.681  26.629  30.430  1.00  0.00    -0.237 OA
ATOM     74  O   UNL A   1      51.105  28.628  30.176  1.00  0.00    -0.744 OA
ENDBRANCH  67  71
ENDBRANCH  50  64
BRANCH  51  75
ATOM     75  C   UNL A   1      37.176  32.196  30.495  1.00  0.00     0.023 A 
ATOM     76  C   UNL A   1      36.296  32.744  29.549  1.00  0.00     0.031 A 
ATOM     77  C   UNL A   1      36.723  32.070  31.821  1.00  0.00     0.131 A 
ATOM     78  C   UNL A   1      35.032  33.202  29.951  1.00  0.00     0.055 A 
ATOM     79  C   UNL A   1      35.441  32.472  32.204  1.00  0.00     0.041 A 
ATOM     80  F   UNL A   1      37.521  31.549  32.766  1.00  0.00    -0.206 F 
ATOM     81  C   UNL A   1      34.593  33.057  31.269  1.00  0.00     0.022 A 
BRANCH  78  82
ATOM     82  S   UNL A   1      34.005  34.089  28.745  1.00  0.00     0.124 S 
ATOM     83  O   UNL A   1      34.912  35.141  28.300  1.00  0.00    -0.237 OA
ATOM     84  O   UNL A   1      33.710  33.042  27.773  1.00  0.00    -0.237 OA
ATOM     85  O   UNL A   1      32.863  34.540  29.538  1.00  0.00    -0.744 OA
ENDBRANCH  78  82
ENDBRANCH  51  75
BRANCH  63  86
ATOM     86  C   UNL A   1      43.259  35.601  30.692  1.00  0.00     0.023 A 
ATOM     87  C   UNL A   1      43.326  36.602  29.705  1.00  0.00     0.031 A 
ATOM     88  C   UNL A   1      43.559  35.963  32.018  1.00  0.00     0.131 A 
ATOM     89  C   UNL A   1      43.757  37.893  30.047  1.00  0.00     0.055 A 
ATOM     90  C   UNL A   1      43.919  37.267  32.363  1.00  0.00     0.041 A 
ATOM     91  F   UNL A   1      43.513  35.050  33.002  1.00  0.00    -0.206 F 
ATOM     92  C   UNL A   1      44.037  38.236  31.372  1.00  0.00     0.022 A 
BRANCH  89  93
ATOM     93  S   UNL A   1      44.068  39.086  28.716  1.00  0.00     0.124 S 
ATOM     94  O   UNL A   1      45.039  38.375  27.891  1.00  0.00    -0.237 OA
ATOM     95  O   UNL A   1      42.739  39.254  28.133  1.00  0.00    -0.237 OA
ATOM     96  O   UNL A   1      44.589  40.256  29.419  1.00  0.00    -0.744 OA
ENDBRANCH  89  93
ENDBRANCH  63  86
ENDBRANCH  37  38
ENDBRANCH  29  32
ENDBRANCH  27  28
ENDBRANCH  26  27
ENDBRANCH   1  26
TORSDOF 18
ENDMDL
MODEL 2
REMARK VINA RESULT:     -10.8      5.211      8.799
REMARK SMILES C[C@H]1OCC[C@@H]1C(=O)Nc1ccc(Cl)c(C(=O)NCCCCCCNC(=O)c2ccc(-c3c4nc(c(-c5cc(S(=O)(=O)[O-])ccc5F)c5ccc([nH]5)c(-c5cc(S(=O)(=O)[O-])ccc5F)c5nc(c(-c6cc(S(=O)(=O)[O-])ccc6F)c6ccc3[nH]6)C=C5)C=C4)cc2)c1
REMARK SMILES IDX 22 1 21 2 20 3 19 4 18 5 16 6 17 7 15 9 10 10 11 11 91 12
REMARK SMILES IDX 12 13 13 14 14 15 9 16 7 17 8 18 6 20 1 21 2 22 3 23 4 24
REMARK SMILES IDX 5 25 23 26 24 27 25 28 26 29 27 31 28 32 29 33 90 34 30 35
REMARK SMILES IDX 89 36 31 37 32 38 33 39 83 40 34 41 88 42 82 43 84 44 35 45
REMARK SMILES IDX 87 46 81 47 80 48 36 50 68 51 48 52 67 53 49 54 52 55 66 56
REMARK SMILES IDX 85 57 50 58 51 59 65 61 86 62 53 63 37 64 38 65 46 66 39 67
REMARK SMILES IDX 45 68 47 69 44 70 40 71 41 72 42 73 43 74 69 75 70 76 78 77
REMARK SMILES IDX 71 78 77 79 79 80 76 81 72 82 73 83 74 84 75 85 54 86 55 87
REMARK SMILES IDX 63 88 56 89 62 90 64 91 61 92 57 93 58 94 59 95 60 96
REMARK H PARENT 18 8 9 19 25 30 84 49 52 60
REMARK Flexibility Score: inf
ROOT
ATOM      1  C   UNL A   1      31.419  30.671  26.266  1.00  0.00     0.002 C 
ENDROOT
BRANCH   1   2
ATOM      2  C   UNL A   1      32.105  29.715  27.246  1.00  0.00     0.002 C 
BRANCH   2   3
ATOM      3  C   UNL A   1      33.614  29.524  27.101  1.00  0.00     0.021 C 
BRANCH   3   4
ATOM      4  C   UNL A   1      34.071  28.465  26.111  1.00  0.00     0.116 C 
BRANCH   4   5
ATOM      5  N   UNL A   1      34.086  28.857  24.715  1.00  0.00    -0.352 N 
ATOM      6  C   UNL A   1      33.218  28.507  23.701  1.00  0.00     0.252 C 
ATOM      7  O   UNL A   1      33.364  29.021  22.591  1.00  0.00    -0.269 OA
ATOM      8  H   UNL A   1      34.820  29.458  24.454  1.00  0.00     0.163 HD
BRANCH   6   9
ATOM      9  C   UNL A   1      32.204  27.431  23.864  1.00  0.00     0.060 A 
ATOM     10  C   UNL A   1      31.782  25.054  24.015  1.00  0.00     0.042 A 
ATOM     11  C   UNL A   1      30.530  25.314  24.549  1.00  0.00     0.028 A 
ATOM     12  C   UNL A   1      32.677  26.105  23.825  1.00  0.00     0.041 A 
ATOM     13  C   UNL A   1      30.032  26.608  24.514  1.00  0.00     0.023 A 
ATOM     14  C   UNL A   1      30.829  27.635  24.016  1.00  0.00     0.053 A 
ATOM     15  Cl  UNL A   1      29.987  29.018  23.411  1.00  0.00    -0.083 Cl
BRANCH  10  16
ATOM     16  N   UNL A   1      32.128  23.760  23.620  1.00  0.00    -0.326 N 
ATOM     17  C   UNL A   1      33.090  22.936  24.150  1.00  0.00     0.230 C 
ATOM     18  O   UNL A   1      33.320  21.881  23.544  1.00  0.00    -0.274 OA
ATOM     19  H   UNL A   1      31.617  23.391  22.863  1.00  0.00     0.169 HD
BRANCH  17  20
ATOM     20  C   UNL A   1      33.804  23.180  25.498  1.00  0.00     0.110 C 
ATOM     21  C   UNL A   1      36.287  23.433  25.989  1.00  0.00     0.039 C 
ATOM     22  C   UNL A   1      35.151  22.475  25.636  1.00  0.00     0.127 C 
ATOM     23  O   UNL A   1      35.018  21.536  26.712  1.00  0.00    -0.378 OA
ATOM     24  C   UNL A   1      33.992  21.999  27.589  1.00  0.00     0.161 C 
ATOM     25  C   UNL A   1      33.047  22.856  26.770  1.00  0.00     0.044 C 
ENDBRANCH  17  20
ENDBRANCH  10  16
ENDBRANCH   6   9
ENDBRANCH   4   5
ENDBRANCH   3   4
ENDBRANCH   2   3
ENDBRANCH   1   2
BRANCH   1  26
ATOM     26  C   UNL A   1      31.400  32.159  26.627  1.00  0.00     0.021 C 
BRANCH  26  27
ATOM     27  C   UNL A   1      32.697  32.743  27.173  1.00  0.00     0.116 C 
BRANCH  27  28
ATOM     28  N   UNL A   1      32.541  34.097  27.669  1.00  0.00    -0.352 N 
ATOM     29  C   UNL A   1      33.191  34.740  28.689  1.00  0.00     0.251 C 
ATOM     30  H   UNL A   1      31.863  34.638  27.201  1.00  0.00     0.163 HD
ATOM     31  O   UNL A   1      32.791  35.854  29.044  1.00  0.00    -0.269 OA
BRANCH  29  32
ATOM     32  C   UNL A   1      34.342  34.115  29.384  1.00  0.00     0.039 A 
ATOM     33  C   UNL A   1      34.087  33.129  30.342  1.00  0.00     0.014 A 
ATOM     34  C   UNL A   1      35.658  34.516  29.138  1.00  0.00     0.014 A 
ATOM     35  C   UNL A   1      35.148  32.523  31.022  1.00  0.00     0.010 A 
ATOM     36  C   UNL A   1      36.719  33.859  29.763  1.00  0.00     0.010 A 
ATOM     37  C   UNL A   1      36.476  32.866  30.724  1.00  0.00    -0.014 A 
BRANCH  37  38
ATOM     38  C   UNL A   1      37.610  32.218  31.438  1.00  0.00     0.031 A 
ATOM     39  C   UNL A   1      38.374  31.095  30.783  1.00  0.00     0.074 A 
ATOM     40  C   UNL A   1      37.933  32.617  32.685  1.00  0.00     0.049 A 
ATOM     41  N   UNL A   1      39.366  30.382  31.253  1.00  0.00    -0.248 NA
ATOM     42  C   UNL A   1      37.946  30.706  29.432  1.00  0.00     0.031 C 
ATOM     43  C   UNL A   1      37.243  33.664  33.441  1.00  0.00     0.029 A 
ATOM     44  N   UNL A   1      38.919  32.189  33.540  1.00  0.00    -0.354 N 
ATOM     45  C   UNL A   1      39.671  29.453  30.263  1.00  0.00     0.074 A 
ATOM     46  C   UNL A   1      38.717  29.655  29.194  1.00  0.00     0.031 C 
ATOM     47  C   UNL A   1      37.843  33.815  34.632  1.00  0.00     0.029 A 
ATOM     48  C   UNL A   1      38.933  32.850  34.746  1.00  0.00     0.049 A 
ATOM     49  H   UNL A   1      39.557  31.475  33.310  1.00  0.00     0.167 HD
ATOM     50  C   UNL A   1      40.667  28.531  30.237  1.00  0.00     0.034 A 
ATOM     51  C   UNL A   1      39.728  32.695  35.823  1.00  0.00     0.034 A 
ATOM     52  C   UNL A   1      41.622  28.354  31.306  1.00  0.00     0.049 A 
ATOM     53  C   UNL A   1      40.833  31.667  35.769  1.00  0.00     0.074 A 
ATOM     54  C   UNL A   1      42.698  27.485  31.365  1.00  0.00     0.029 A 
ATOM     55  N   UNL A   1      41.617  29.059  32.504  1.00  0.00    -0.354 N 
ATOM     56  N   UNL A   1      41.137  30.830  34.803  1.00  0.00    -0.248 NA
ATOM     57  C   UNL A   1      41.713  31.581  36.940  1.00  0.00     0.031 C 
ATOM     58  C   UNL A   1      43.301  27.615  32.621  1.00  0.00     0.029 A 
ATOM     59  C   UNL A   1      42.657  28.626  33.315  1.00  0.00     0.049 A 
ATOM     60  H   UNL A   1      40.970  29.761  32.742  1.00  0.00     0.167 HD
ATOM     61  C   UNL A   1      42.271  30.148  35.238  1.00  0.00     0.074 A 
ATOM     62  C   UNL A   1      42.603  30.684  36.541  1.00  0.00     0.031 C 
ATOM     63  C   UNL A   1      42.977  29.168  34.615  1.00  0.00     0.034 A 
BRANCH  50  64
ATOM     64  C   UNL A   1      40.755  27.630  29.028  1.00  0.00     0.023 A 
ATOM     65  C   UNL A   1      41.691  27.854  28.003  1.00  0.00     0.031 A 
ATOM     66  C   UNL A   1      39.878  26.539  28.887  1.00  0.00     0.131 A 
ATOM     67  C   UNL A   1      41.681  27.046  26.854  1.00  0.00     0.055 A 
ATOM     68  C   UNL A   1      39.930  25.688  27.781  1.00  0.00     0.041 A 
ATOM     69  F   UNL A   1      38.948  26.286  29.822  1.00  0.00    -0.206 F 
ATOM     70  C   UNL A   1      40.826  25.947  26.749  1.00  0.00     0.022 A 
BRANCH  67  71
ATOM     71  S   UNL A   1      42.709  27.535  25.441  1.00  0.00     0.124 S 
ATOM     72  O   UNL A   1      42.559  26.382  24.557  1.00  0.00    -0.237 OA
ATOM     73  O   UNL A   1      42.070  28.769  24.997  1.00  0.00    -0.237 OA
ATOM     74  O   UNL A   1      44.039  27.694  26.024  1.00  0.00    -0.744 OA
ENDBRANCH  67  71
ENDBRANCH  50  64
BRANCH  51  75
ATOM     75  C   UNL A   1      39.522  33.523  37.048  1.00  0.00     0.023 A 
ATOM     76  C   UNL A   1      38.981  32.968  38.219  1.00  0.00     0.031 A 
ATOM     77  C   UNL A   1      39.810  34.900  37.045  1.00  0.00     0.131 A 
ATOM     78  C   UNL A   1      38.688  33.793  39.315  1.00  0.00     0.055 A 
ATOM     79  C   UNL A   1      39.573  35.706  38.161  1.00  0.00     0.041 A 
ATOM     80  F   UNL A   1      40.332  35.483  35.955  1.00  0.00    -0.206 F 
ATOM     81  C   UNL A   1      38.993  35.156  39.299  1.00  0.00     0.022 A 
BRANCH  78  82
ATOM     82  S   UNL A   1      37.803  33.078  40.729  1.00  0.00     0.124 S 
ATOM     83  O   UNL A   1      38.429  31.766  40.838  1.00  0.00    -0.237 OA
ATOM     84  O   UNL A   1      38.114  34.028  41.791  1.00  0.00    -0.237 OA
ATOM     85  O   UNL A   1      36.409  33.072  40.289  1.00  0.00    -0.744 OA
ENDBRANCH  78  82
ENDBRANCH  51  75
BRANCH  63  86
ATOM     86  C   UNL A   1      44.217  28.666  35.317  1.00  0.00     0.023 A 
ATOM     87  C   UNL A   1      44.175  27.598  36.231  1.00  0.00     0.031 A 
ATOM     88  C   UNL A   1      45.456  29.291  35.090  1.00  0.00     0.131 A 
ATOM     89  C   UNL A   1      45.332  27.238  36.938  1.00  0.00     0.055 A 
ATOM     90  C   UNL A   1      46.619  28.882  35.745  1.00  0.00     0.041 A 
ATOM     91  F   UNL A   1      45.557  30.317  34.229  1.00  0.00    -0.206 F 
ATOM     92  C   UNL A   1      46.557  27.862  36.689  1.00  0.00     0.022 A 
BRANCH  89  93
ATOM     93  S   UNL A   1      45.188  26.027  38.281  1.00  0.00     0.124 S 
ATOM     94  O   UNL A   1      46.574  25.886  38.715  1.00  0.00    -0.237 OA
ATOM     95  O   UNL A   1      44.294  26.705  39.216  1.00  0.00    -0.237 OA
ATOM     96  O   UNL A   1      44.621  24.851  37.623  1.00  0.00    -0.744 OA
ENDBRANCH  89  93
ENDBRANCH  63  86
ENDBRANCH  37  38
ENDBRANCH  29  32
ENDBRANCH  27  28
ENDBRANCH  26  27
ENDBRANCH   1  26
TORSDOF 18
ENDMDL
MODEL 3
REMARK VINA RESULT:     -10.8      4.852      9.869
REMARK SMILES C[C@H]1OCC[C@@H]1C(=O)Nc1ccc(Cl)c(C(=O)NCCCCCCNC(=O)c2ccc(-c3c4nc(c(-c5cc(S(=O)(=O)[O-])ccc5F)c5ccc([nH]5)c(-c5cc(S(=O)(=O)[O-])ccc5F)c5nc(c(-c6cc(S(=O)(=O)[O-])ccc6F)c6ccc3[nH]6)C=C5)C=C4)cc2)c1
REMARK SMILES IDX 22 1 21 2 20 3 19 4 18 5 16 6 17 7 15 9 10 10 11 11 91 12
REMARK SMILES IDX 12 13 13 14 14 15 9 16 7 17 8 18 6 20 1 21 2 22 3 23 4 24
REMARK SMILES IDX 5 25 23 26 24 27 25 28 26 29 27 31 28 32 29 33 90 34 30 35
REMARK SMILES IDX 89 36 31 37 32 38 33 39 83 40 34 41 88 42 82 43 84 44 35 45
REMARK SMILES IDX 87 46 81 47 80 48 36 50 68 51 48 52 67 53 49 54 52 55 66 56
REMARK SMILES IDX 85 57 50 58 51 59 65 61 86 62 53 63 37 64 38 65 46 66 39 67
REMARK SMILES IDX 45 68 47 69 44 70 40 71 41 72 42 73 43 74 69 75 70 76 78 77
REMARK SMILES IDX 71 78 77 79 79 80 76 81 72 82 73 83 74 84 75 85 54 86 55 87
REMARK SMILES IDX 63 88 56 89 62 90 64 91 61 92 57 93 58 94 59 95 60 96
REMARK H PARENT 18 8 9 19 25 30 84 49 52 60
REMARK Flexibility Score: inf
ROOT
ATOM      1  C   UNL A   1      31.444  30.563  26.147  1.00  0.00     0.002 C 
ENDROOT
BRANCH   1   2
ATOM      2  C   UNL A   1      32.071  29.547  27.107  1.00  0.00     0.002 C 
BRANCH   2   3
ATOM      3  C   UNL A   1      33.550  29.215  26.910  1.00  0.00     0.021 C 
BRANCH   3   4
ATOM      4  C   UNL A   1      33.870  28.133  25.891  1.00  0.00     0.116 C 
BRANCH   4   5
ATOM      5  N   UNL A   1      34.022  28.573  24.517  1.00  0.00    -0.352 N 
ATOM      6  C   UNL A   1      33.203  28.342  23.431  1.00  0.00     0.252 C 
ATOM      7  O   UNL A   1      33.476  28.880  22.357  1.00  0.00    -0.269 OA
ATOM      8  H   UNL A   1      34.825  29.111  24.334  1.00  0.00     0.163 HD
BRANCH   6   9
ATOM      9  C   UNL A   1      32.087  27.360  23.477  1.00  0.00     0.060 A 
ATOM     10  C   UNL A   1      31.411  25.050  23.228  1.00  0.00     0.042 A 
ATOM     11  C   UNL A   1      30.230  25.328  23.899  1.00  0.00     0.028 A 
ATOM     12  C   UNL A   1      32.405  26.025  23.161  1.00  0.00     0.041 A 
ATOM     13  C   UNL A   1      29.879  26.648  24.140  1.00  0.00     0.023 A 
ATOM     14  C   UNL A   1      30.755  27.666  23.774  1.00  0.00     0.053 A 
ATOM     15  Cl  UNL A   1      30.038  29.215  23.499  1.00  0.00    -0.083 Cl
BRANCH  10  16
ATOM     16  N   UNL A   1      31.585  23.827  22.578  1.00  0.00    -0.326 N 
ATOM     17  C   UNL A   1      32.442  22.804  22.904  1.00  0.00     0.230 C 
ATOM     18  O   UNL A   1      32.528  21.868  22.098  1.00  0.00    -0.274 OA
ATOM     19  H   UNL A   1      31.023  23.679  21.784  1.00  0.00     0.169 HD
BRANCH  17  20
ATOM     20  C   UNL A   1      33.197  22.690  24.246  1.00  0.00     0.110 C 
ATOM     21  C   UNL A   1      34.907  24.266  25.277  1.00  0.00     0.039 C 
ATOM     22  C   UNL A   1      34.633  23.209  24.209  1.00  0.00     0.127 C 
ATOM     23  O   UNL A   1      35.484  22.086  24.474  1.00  0.00    -0.378 OA
ATOM     24  C   UNL A   1      34.744  21.127  25.228  1.00  0.00     0.161 C 
ATOM     25  C   UNL A   1      33.277  21.326  24.901  1.00  0.00     0.044 C 
ENDBRANCH  17  20
ENDBRANCH  10  16
ENDBRANCH   6   9
ENDBRANCH   4   5
ENDBRANCH   3   4
ENDBRANCH   2   3
ENDBRANCH   1   2
BRANCH   1  26
ATOM     26  C   UNL A   1      31.403  32.027  26.596  1.00  0.00     0.021 C 
BRANCH  26  27
ATOM     27  C   UNL A   1      32.739  32.669  26.947  1.00  0.00     0.116 C 
BRANCH  27  28
ATOM     28  N   UNL A   1      32.593  33.942  27.626  1.00  0.00    -0.352 N 
ATOM     29  C   UNL A   1      33.293  34.459  28.684  1.00  0.00     0.251 C 
ATOM     30  H   UNL A   1      31.880  34.523  27.274  1.00  0.00     0.163 HD
ATOM     31  O   UNL A   1      32.897  35.507  29.206  1.00  0.00    -0.269 OA
BRANCH  29  32
ATOM     32  C   UNL A   1      34.491  33.774  29.224  1.00  0.00     0.039 A 
ATOM     33  C   UNL A   1      34.309  32.689  30.087  1.00  0.00     0.014 A 
ATOM     34  C   UNL A   1      35.786  34.212  28.929  1.00  0.00     0.014 A 
ATOM     35  C   UNL A   1      35.417  32.024  30.619  1.00  0.00     0.010 A 
ATOM     36  C   UNL A   1      36.891  33.502  29.402  1.00  0.00     0.010 A 
ATOM     37  C   UNL A   1      36.720  32.409  30.265  1.00  0.00    -0.014 A 
BRANCH  37  38
ATOM     38  C   UNL A   1      37.904  31.700  30.822  1.00  0.00     0.031 A 
ATOM     39  C   UNL A   1      38.419  32.051  32.195  1.00  0.00     0.074 A 
ATOM     40  C   UNL A   1      38.534  30.764  30.084  1.00  0.00     0.049 A 
ATOM     41  N   UNL A   1      39.454  31.574  32.840  1.00  0.00    -0.248 NA
ATOM     42  C   UNL A   1      37.690  33.097  32.927  1.00  0.00     0.031 C 
ATOM     43  C   UNL A   1      38.156  30.365  28.726  1.00  0.00     0.029 A 
ATOM     44  N   UNL A   1      39.625  29.980  30.365  1.00  0.00    -0.354 N 
ATOM     45  C   UNL A   1      39.507  32.270  34.044  1.00  0.00     0.074 A 
ATOM     46  C   UNL A   1      38.437  33.244  34.010  1.00  0.00     0.031 C 
ATOM     47  C   UNL A   1      38.982  29.395  28.306  1.00  0.00     0.029 A 
ATOM     48  C   UNL A   1      39.975  29.129  29.343  1.00  0.00     0.049 A 
ATOM     49  H   UNL A   1      40.112  30.023  31.220  1.00  0.00     0.167 HD
ATOM     50  C   UNL A   1      40.355  32.099  35.089  1.00  0.00     0.034 A 
ATOM     51  C   UNL A   1      40.984  28.239  29.247  1.00  0.00     0.034 A 
ATOM     52  C   UNL A   1      41.408  31.109  35.113  1.00  0.00     0.049 A 
ATOM     53  C   UNL A   1      41.911  28.062  30.426  1.00  0.00     0.074 A 
ATOM     54  C   UNL A   1      42.293  30.819  36.137  1.00  0.00     0.029 A 
ATOM     55  N   UNL A   1      41.718  30.250  34.066  1.00  0.00    -0.354 N 
ATOM     56  N   UNL A   1      41.916  28.696  31.577  1.00  0.00    -0.248 NA
ATOM     57  C   UNL A   1      42.952  27.036  30.299  1.00  0.00     0.031 C 
ATOM     58  C   UNL A   1      43.179  29.834  35.686  1.00  0.00     0.029 A 
ATOM     59  C   UNL A   1      42.795  29.447  34.413  1.00  0.00     0.049 A 
ATOM     60  H   UNL A   1      41.244  30.218  33.205  1.00  0.00     0.167 HD
ATOM     61  C   UNL A   1      42.935  28.112  32.325  1.00  0.00     0.074 A 
ATOM     62  C   UNL A   1      43.508  27.068  31.501  1.00  0.00     0.031 C 
ATOM     63  C   UNL A   1      43.359  28.409  33.581  1.00  0.00     0.034 A 
BRANCH  50  64
ATOM     64  C   UNL A   1      40.194  33.017  36.278  1.00  0.00     0.023 A 
ATOM     65  C   UNL A   1      39.472  32.631  37.421  1.00  0.00     0.031 A 
ATOM     66  C   UNL A   1      40.757  34.306  36.264  1.00  0.00     0.131 A 
ATOM     67  C   UNL A   1      39.271  33.546  38.467  1.00  0.00     0.055 A 
ATOM     68  C   UNL A   1      40.625  35.182  37.343  1.00  0.00     0.041 A 
ATOM     69  F   UNL A   1      41.439  34.741  35.192  1.00  0.00    -0.206 F 
ATOM     70  C   UNL A   1      39.866  34.809  38.448  1.00  0.00     0.022 A 
BRANCH  67  71
ATOM     71  S   UNL A   1      38.107  33.110  39.789  1.00  0.00     0.124 S 
ATOM     72  O   UNL A   1      38.770  31.959  40.396  1.00  0.00    -0.237 OA
ATOM     73  O   UNL A   1      38.072  34.326  40.593  1.00  0.00    -0.237 OA
ATOM     74  O   UNL A   1      36.873  32.801  39.070  1.00  0.00    -0.744 OA
ENDBRANCH  67  71
ENDBRANCH  50  64
BRANCH  51  75
ATOM     75  C   UNL A   1      41.181  27.442  28.000  1.00  0.00     0.023 A 
ATOM     76  C   UNL A   1      40.873  26.074  27.956  1.00  0.00     0.031 A 
ATOM     77  C   UNL A   1      41.737  28.030  26.849  1.00  0.00     0.131 A 
ATOM     78  C   UNL A   1      41.179  25.323  26.810  1.00  0.00     0.055 A 
ATOM     79  C   UNL A   1      41.983  27.292  25.689  1.00  0.00     0.041 A 
ATOM     80  F   UNL A   1      42.047  29.335  26.834  1.00  0.00    -0.206 F 
ATOM     81  C   UNL A   1      41.718  25.926  25.671  1.00  0.00     0.022 A 
BRANCH  78  82
ATOM     82  S   UNL A   1      40.956  23.523  26.865  1.00  0.00     0.124 S 
ATOM     83  O   UNL A   1      39.537  23.390  26.558  1.00  0.00    -0.237 OA
ATOM     84  O   UNL A   1      41.882  23.073  25.831  1.00  0.00    -0.237 OA
ATOM     85  O   UNL A   1      41.337  23.176  28.232  1.00  0.00    -0.744 OA
ENDBRANCH  78  82
ENDBRANCH  51  75
BRANCH  63  86
ATOM     86  C   UNL A   1      44.454  27.544  34.157  1.00  0.00     0.023 A 
ATOM     87  C   UNL A   1      44.176  26.357  34.858  1.00  0.00     0.031 A 
ATOM     88  C   UNL A   1      45.800  27.934  34.030  1.00  0.00     0.131 A 
ATOM     89  C   UNL A   1      45.220  25.644  35.468  1.00  0.00     0.055 A 
ATOM     90  C   UNL A   1      46.840  27.182  34.579  1.00  0.00     0.041 A 
ATOM     91  F   UNL A   1      46.127  29.058  33.372  1.00  0.00    -0.206 F 
ATOM     92  C   UNL A   1      46.551  26.040  35.318  1.00  0.00     0.022 A 
BRANCH  89  93
ATOM     93  S   UNL A   1      44.802  24.262  36.566  1.00  0.00     0.124 S 
ATOM     94  O   UNL A   1      44.180  23.318  35.644  1.00  0.00    -0.237 OA
ATOM     95  O   UNL A   1      46.110  23.874  37.089  1.00  0.00    -0.237 OA
ATOM     96  O   UNL A   1      43.897  24.863  37.545  1.00  0.00    -0.744 OA
ENDBRANCH  89  93
ENDBRANCH  63  86
ENDBRANCH  37  38
ENDBRANCH  29  32
ENDBRANCH  27  28
ENDBRANCH  26  27
ENDBRANCH   1  26
TORSDOF 18
ENDMDL
