MODEL 1
REMARK VINA RESULT:     -11.2      0.000      0.000
REMARK SMILES COc1ncccc1C[C@H](C(=O)NCCCCCCNC(=O)c1ccc(-c2c3nc(c(-c4cc(S(=O)(=O)[O-])ccc4F)c4ccc([nH]4)c(-c4cc(S(=O)(=O)[O-])ccc4F)c4nc(c(-c5cc(S(=O)(=O)[O-])ccc5F)c5ccc2[nH]5)C=C4)C=C3)cc1)c1ccc(F)cc1
REMARK SMILES IDX 16 1 15 2 14 3 13 4 11 5 12 6 10 8 9 9 8 10 3 11 4 12 5 13
REMARK SMILES IDX 7 14 6 15 2 16 1 17 86 18 87 19 92 20 88 21 91 22 89 23
REMARK SMILES IDX 90 24 17 25 18 26 19 27 20 28 21 29 22 31 23 32 24 33 85 34
REMARK SMILES IDX 25 35 84 36 26 37 27 38 28 39 78 40 29 41 83 42 77 43 79 44
REMARK SMILES IDX 30 45 82 46 76 47 75 48 31 50 63 51 43 52 62 53 44 54 47 55
REMARK SMILES IDX 61 56 80 57 45 58 46 59 60 61 81 62 48 63 32 64 33 65 41 66
REMARK SMILES IDX 34 67 40 68 42 69 39 70 35 71 36 72 37 73 38 74 64 75 65 76
REMARK SMILES IDX 73 77 66 78 72 79 74 80 71 81 67 82 68 83 69 84 70 85 49 86
REMARK SMILES IDX 50 87 58 88 51 89 57 90 59 91 56 92 52 93 53 94 54 95 55 96
REMARK H PARENT 13 7 20 30 79 49 47 60
REMARK Flexibility Score: inf
ROOT
ATOM      1  C   UNL A   1      31.947  29.472  26.609  1.00  0.00     0.002 C 
ENDROOT
BRANCH   1   2
ATOM      2  C   UNL A   1      33.185  28.892  25.912  1.00  0.00     0.021 C 
BRANCH   2   3
ATOM      3  C   UNL A   1      33.244  27.365  25.900  1.00  0.00     0.116 C 
BRANCH   3   4
ATOM      4  N   UNL A   1      32.034  26.786  26.458  1.00  0.00    -0.356 N 
ATOM      5  C   UNL A   1      30.920  26.331  25.819  1.00  0.00     0.227 C 
ATOM      6  O   UNL A   1      29.962  25.987  26.514  1.00  0.00    -0.274 OA
ATOM      7  H   UNL A   1      32.017  26.711  27.440  1.00  0.00     0.163 HD
BRANCH   5   8
ATOM      8  C   UNL A   1      30.898  26.249  24.285  1.00  0.00     0.113 C 
BRANCH   8   9
ATOM      9  C   UNL A   1      30.433  24.819  23.880  1.00  0.00     0.059 C 
BRANCH   9  10
ATOM     10  C   UNL A   1      31.547  23.802  23.862  1.00  0.00     0.015 A 
ATOM     11  C   UNL A   1      31.562  22.676  24.686  1.00  0.00     0.216 A 
ATOM     12  N   UNL A   1      32.463  21.677  24.574  1.00  0.00    -0.222 NA
ATOM     13  C   UNL A   1      33.423  21.821  23.633  1.00  0.00     0.115 A 
ATOM     14  C   UNL A   1      32.599  23.943  22.947  1.00  0.00     0.011 A 
ATOM     15  C   UNL A   1      33.558  22.943  22.836  1.00  0.00     0.021 A 
BRANCH  11  16
ATOM     16  O   UNL A   1      30.832  22.663  25.850  1.00  0.00    -0.481 OA
ATOM     17  C   UNL A   1      31.619  22.966  26.991  1.00  0.00     0.280 C 
ENDBRANCH  11  16
ENDBRANCH   9  10
ENDBRANCH   8   9
BRANCH   8  18
ATOM     18  C   UNL A   1      30.084  27.371  23.633  1.00  0.00    -0.035 A 
ATOM     19  C   UNL A   1      28.678  27.345  23.576  1.00  0.00     0.007 A 
ATOM     20  C   UNL A   1      30.753  28.470  23.058  1.00  0.00     0.007 A 
ATOM     21  C   UNL A   1      27.969  28.384  22.965  1.00  0.00     0.039 A 
ATOM     22  C   UNL A   1      30.043  29.495  22.428  1.00  0.00     0.039 A 
ATOM     23  C   UNL A   1      28.657  29.443  22.387  1.00  0.00     0.123 A 
ATOM     24  F   UNL A   1      27.974  30.417  21.772  1.00  0.00    -0.207 F 
ENDBRANCH   8  18
ENDBRANCH   5   8
ENDBRANCH   3   4
ENDBRANCH   2   3
ENDBRANCH   1   2
BRANCH   1  25
ATOM     25  C   UNL A   1      31.352  30.710  25.934  1.00  0.00     0.002 C 
BRANCH  25  26
ATOM     26  C   UNL A   1      31.345  31.970  26.802  1.00  0.00     0.021 C 
BRANCH  26  27
ATOM     27  C   UNL A   1      32.692  32.679  26.894  1.00  0.00     0.116 C 
BRANCH  27  28
ATOM     28  N   UNL A   1      32.596  33.925  27.639  1.00  0.00    -0.352 N 
ATOM     29  C   UNL A   1      33.325  34.337  28.731  1.00  0.00     0.251 C 
ATOM     30  H   UNL A   1      31.916  34.560  27.319  1.00  0.00     0.163 HD
ATOM     31  O   UNL A   1      32.962  35.305  29.384  1.00  0.00    -0.269 OA
BRANCH  29  32
ATOM     32  C   UNL A   1      34.533  33.575  29.115  1.00  0.00     0.039 A 
ATOM     33  C   UNL A   1      35.783  34.022  28.684  1.00  0.00     0.014 A 
ATOM     34  C   UNL A   1      34.426  32.448  29.936  1.00  0.00     0.014 A 
ATOM     35  C   UNL A   1      36.936  33.387  29.149  1.00  0.00     0.010 A 
ATOM     36  C   UNL A   1      35.577  31.861  30.452  1.00  0.00     0.010 A 
ATOM     37  C   UNL A   1      36.844  32.337  30.077  1.00  0.00    -0.014 A 
BRANCH  37  38
ATOM     38  C   UNL A   1      38.056  31.753  30.709  1.00  0.00     0.031 A 
ATOM     39  C   UNL A   1      38.825  30.668  30.011  1.00  0.00     0.074 A 
ATOM     40  C   UNL A   1      38.409  32.145  31.949  1.00  0.00     0.049 A 
ATOM     41  N   UNL A   1      39.830  29.956  30.448  1.00  0.00    -0.248 NA
ATOM     42  C   UNL A   1      38.387  30.324  28.650  1.00  0.00     0.031 C 
ATOM     43  C   UNL A   1      37.720  33.171  32.737  1.00  0.00     0.029 A 
ATOM     44  N   UNL A   1      39.420  31.719  32.775  1.00  0.00    -0.354 N 
ATOM     45  C   UNL A   1      40.149  29.077  29.418  1.00  0.00     0.074 A 
ATOM     46  C   UNL A   1      39.185  29.307  28.361  1.00  0.00     0.031 C 
ATOM     47  C   UNL A   1      38.335  33.302  33.923  1.00  0.00     0.029 A 
ATOM     48  C   UNL A   1      39.421  32.331  34.008  1.00  0.00     0.049 A 
ATOM     49  H   UNL A   1      40.082  31.041  32.510  1.00  0.00     0.167 HD
ATOM     50  C   UNL A   1      41.163  28.180  29.354  1.00  0.00     0.034 A 
ATOM     51  C   UNL A   1      40.187  32.114  35.096  1.00  0.00     0.034 A 
ATOM     52  C   UNL A   1      42.106  27.959  30.424  1.00  0.00     0.049 A 
ATOM     53  C   UNL A   1      41.257  31.055  35.031  1.00  0.00     0.074 A 
ATOM     54  C   UNL A   1      43.198  27.108  30.449  1.00  0.00     0.029 A 
ATOM     55  N   UNL A   1      42.061  28.578  31.667  1.00  0.00    -0.354 N 
ATOM     56  N   UNL A   1      41.579  30.267  34.031  1.00  0.00    -0.248 NA
ATOM     57  C   UNL A   1      42.067  30.853  36.240  1.00  0.00     0.031 C 
ATOM     58  C   UNL A   1      43.759  27.150  31.729  1.00  0.00     0.029 A 
ATOM     59  C   UNL A   1      43.074  28.092  32.480  1.00  0.00     0.049 A 
ATOM     60  H   UNL A   1      41.405  29.263  31.933  1.00  0.00     0.167 HD
ATOM     61  C   UNL A   1      42.642  29.491  34.484  1.00  0.00     0.074 A 
ATOM     62  C   UNL A   1      42.920  29.921  35.840  1.00  0.00     0.031 C 
ATOM     63  C   UNL A   1      43.326  28.514  33.839  1.00  0.00     0.034 A 
BRANCH  50  64
ATOM     64  C   UNL A   1      41.282  27.352  28.096  1.00  0.00     0.023 A 
ATOM     65  C   UNL A   1      40.896  26.000  28.066  1.00  0.00     0.031 A 
ATOM     66  C   UNL A   1      41.810  27.911  26.919  1.00  0.00     0.131 A 
ATOM     67  C   UNL A   1      41.115  25.234  26.912  1.00  0.00     0.055 A 
ATOM     68  C   UNL A   1      41.944  27.165  25.745  1.00  0.00     0.041 A 
ATOM     69  F   UNL A   1      42.217  29.189  26.891  1.00  0.00    -0.206 F 
ATOM     70  C   UNL A   1      41.611  25.813  25.742  1.00  0.00     0.022 A 
BRANCH  67  71
ATOM     71  S   UNL A   1      40.889  23.438  27.012  1.00  0.00     0.124 S 
ATOM     72  O   UNL A   1      41.636  22.982  25.842  1.00  0.00    -0.237 OA
ATOM     73  O   UNL A   1      41.474  23.118  28.308  1.00  0.00    -0.237 OA
ATOM     74  O   UNL A   1      39.440  23.269  26.920  1.00  0.00    -0.744 OA
ENDBRANCH  67  71
ENDBRANCH  50  64
BRANCH  51  75
ATOM     75  C   UNL A   1      39.942  32.878  36.353  1.00  0.00     0.023 A 
ATOM     76  C   UNL A   1      39.012  32.431  37.305  1.00  0.00     0.031 A 
ATOM     77  C   UNL A   1      40.610  34.092  36.605  1.00  0.00     0.131 A 
ATOM     78  C   UNL A   1      38.745  33.213  38.441  1.00  0.00     0.055 A 
ATOM     79  C   UNL A   1      40.384  34.833  37.764  1.00  0.00     0.041 A 
ATOM     80  F   UNL A   1      41.509  34.567  35.728  1.00  0.00    -0.206 F 
ATOM     81  C   UNL A   1      39.436  34.401  38.685  1.00  0.00     0.022 A 
BRANCH  78  82
ATOM     82  S   UNL A   1      37.409  32.697  39.554  1.00  0.00     0.124 S 
ATOM     83  O   UNL A   1      36.263  32.674  38.651  1.00  0.00    -0.237 OA
ATOM     84  O   UNL A   1      37.887  31.399  40.019  1.00  0.00    -0.237 OA
ATOM     85  O   UNL A   1      37.385  33.749  40.567  1.00  0.00    -0.744 OA
ENDBRANCH  78  82
ENDBRANCH  51  75
BRANCH  63  86
ATOM     86  C   UNL A   1      44.461  27.857  34.588  1.00  0.00     0.023 A 
ATOM     87  C   UNL A   1      44.249  26.739  35.414  1.00  0.00     0.031 A 
ATOM     88  C   UNL A   1      45.772  28.347  34.463  1.00  0.00     0.131 A 
ATOM     89  C   UNL A   1      45.324  26.175  36.117  1.00  0.00     0.055 A 
ATOM     90  C   UNL A   1      46.849  27.744  35.116  1.00  0.00     0.041 A 
ATOM     91  F   UNL A   1      46.033  29.415  33.692  1.00  0.00    -0.206 F 
ATOM     92  C   UNL A   1      46.625  26.657  35.956  1.00  0.00     0.022 A 
BRANCH  89  93
ATOM     93  S   UNL A   1      44.989  24.846  37.304  1.00  0.00     0.124 S 
ATOM     94  O   UNL A   1      43.738  25.291  37.910  1.00  0.00    -0.237 OA
ATOM     95  O   UNL A   1      44.897  23.672  36.443  1.00  0.00    -0.237 OA
ATOM     96  O   UNL A   1      46.151  24.875  38.189  1.00  0.00    -0.744 OA
ENDBRANCH  89  93
ENDBRANCH  63  86
ENDBRANCH  37  38
ENDBRANCH  29  32
ENDBRANCH  27  28
ENDBRANCH  26  27
ENDBRANCH  25  26
ENDBRANCH   1  25
TORSDOF 20
ENDMDL
MODEL 2
REMARK VINA RESULT:     -11.1      5.036      9.890
REMARK SMILES COc1ncccc1C[C@H](C(=O)NCCCCCCNC(=O)c1ccc(-c2c3nc(c(-c4cc(S(=O)(=O)[O-])ccc4F)c4ccc([nH]4)c(-c4cc(S(=O)(=O)[O-])ccc4F)c4nc(c(-c5cc(S(=O)(=O)[O-])ccc5F)c5ccc2[nH]5)C=C4)C=C3)cc1)c1ccc(F)cc1
REMARK SMILES IDX 16 1 15 2 14 3 13 4 11 5 12 6 10 8 9 9 8 10 3 11 4 12 5 13
REMARK SMILES IDX 7 14 6 15 2 16 1 17 86 18 87 19 92 20 88 21 91 22 89 23
REMARK SMILES IDX 90 24 17 25 18 26 19 27 20 28 21 29 22 31 23 32 24 33 85 34
REMARK SMILES IDX 25 35 84 36 26 37 27 38 28 39 78 40 29 41 83 42 77 43 79 44
REMARK SMILES IDX 30 45 82 46 76 47 75 48 31 50 63 51 43 52 62 53 44 54 47 55
REMARK SMILES IDX 61 56 80 57 45 58 46 59 60 61 81 62 48 63 32 64 33 65 41 66
REMARK SMILES IDX 34 67 40 68 42 69 39 70 35 71 36 72 37 73 38 74 64 75 65 76
REMARK SMILES IDX 73 77 66 78 72 79 74 80 71 81 67 82 68 83 69 84 70 85 49 86
REMARK SMILES IDX 50 87 58 88 51 89 57 90 59 91 56 92 52 93 53 94 54 95 55 96
REMARK H PARENT 13 7 20 30 79 49 47 60
REMARK Flexibility Score: inf
ROOT
ATOM      1  C   UNL A   1      33.764  21.082  25.452  1.00  0.00     0.002 C 
ENDROOT
BRANCH   1   2
ATOM      2  C   UNL A   1      33.903  21.061  26.979  1.00  0.00     0.021 C 
BRANCH   2   3
ATOM      3  C   UNL A   1      33.541  22.379  27.663  1.00  0.00     0.116 C 
BRANCH   3   4
ATOM      4  N   UNL A   1      32.102  22.570  27.713  1.00  0.00    -0.356 N 
ATOM      5  C   UNL A   1      31.313  23.387  26.960  1.00  0.00     0.227 C 
ATOM      6  O   UNL A   1      30.121  23.469  27.263  1.00  0.00    -0.274 OA
ATOM      7  H   UNL A   1      31.629  22.030  28.387  1.00  0.00     0.163 HD
BRANCH   5   8
ATOM      8  C   UNL A   1      31.917  24.153  25.774  1.00  0.00     0.113 C 
BRANCH   8   9
ATOM      9  C   UNL A   1      30.945  24.025  24.564  1.00  0.00     0.059 C 
BRANCH   9  10
ATOM     10  C   UNL A   1      31.492  24.605  23.284  1.00  0.00     0.015 A 
ATOM     11  C   UNL A   1      31.117  25.858  22.794  1.00  0.00     0.216 A 
ATOM     12  N   UNL A   1      31.710  26.459  21.742  1.00  0.00    -0.222 NA
ATOM     13  C   UNL A   1      32.690  25.770  21.115  1.00  0.00     0.115 A 
ATOM     14  C   UNL A   1      32.464  23.899  22.562  1.00  0.00     0.011 A 
ATOM     15  C   UNL A   1      33.067  24.484  21.455  1.00  0.00     0.021 A 
BRANCH  11  16
ATOM     16  O   UNL A   1      29.925  26.420  23.180  1.00  0.00    -0.481 OA
ATOM     17  C   UNL A   1      29.936  27.836  23.094  1.00  0.00     0.280 C 
ENDBRANCH  11  16
ENDBRANCH   9  10
ENDBRANCH   8   9
BRANCH   8  18
ATOM     18  C   UNL A   1      32.288  25.600  26.116  1.00  0.00    -0.035 A 
ATOM     19  C   UNL A   1      33.595  26.098  25.962  1.00  0.00     0.007 A 
ATOM     20  C   UNL A   1      31.297  26.473  26.610  1.00  0.00     0.007 A 
ATOM     21  C   UNL A   1      33.899  27.423  26.292  1.00  0.00     0.039 A 
ATOM     22  C   UNL A   1      31.609  27.789  26.960  1.00  0.00     0.039 A 
ATOM     23  C   UNL A   1      32.906  28.253  26.798  1.00  0.00     0.123 A 
ATOM     24  F   UNL A   1      33.210  29.509  27.145  1.00  0.00    -0.207 F 
ENDBRANCH   8  18
ENDBRANCH   5   8
ENDBRANCH   3   4
ENDBRANCH   2   3
ENDBRANCH   1   2
BRANCH   1  25
ATOM     25  C   UNL A   1      35.076  21.289  24.692  1.00  0.00     0.002 C 
BRANCH  25  26
ATOM     26  C   UNL A   1      35.688  22.684  24.842  1.00  0.00     0.021 C 
BRANCH  26  27
ATOM     27  C   UNL A   1      37.191  22.743  24.586  1.00  0.00     0.116 C 
BRANCH  27  28
ATOM     28  N   UNL A   1      37.873  21.569  25.107  1.00  0.00    -0.352 N 
ATOM     29  C   UNL A   1      38.979  21.502  25.923  1.00  0.00     0.251 C 
ATOM     30  H   UNL A   1      37.492  20.702  24.838  1.00  0.00     0.163 HD
ATOM     31  O   UNL A   1      39.569  20.442  26.076  1.00  0.00    -0.269 OA
BRANCH  29  32
ATOM     32  C   UNL A   1      39.455  22.736  26.586  1.00  0.00     0.039 A 
ATOM     33  C   UNL A   1      40.442  22.640  27.568  1.00  0.00     0.014 A 
ATOM     34  C   UNL A   1      38.953  23.983  26.202  1.00  0.00     0.014 A 
ATOM     35  C   UNL A   1      40.990  23.808  28.105  1.00  0.00     0.010 A 
ATOM     36  C   UNL A   1      39.549  25.144  26.687  1.00  0.00     0.010 A 
ATOM     37  C   UNL A   1      40.586  25.066  27.631  1.00  0.00    -0.014 A 
BRANCH  37  38
ATOM     38  C   UNL A   1      41.265  26.313  28.068  1.00  0.00     0.031 A 
ATOM     39  C   UNL A   1      40.488  27.397  28.759  1.00  0.00     0.074 A 
ATOM     40  C   UNL A   1      42.566  26.498  27.764  1.00  0.00     0.049 A 
ATOM     41  N   UNL A   1      40.874  28.596  29.107  1.00  0.00    -0.248 NA
ATOM     42  C   UNL A   1      39.084  27.097  29.077  1.00  0.00     0.031 C 
ATOM     43  C   UNL A   1      43.416  25.527  27.071  1.00  0.00     0.029 A 
ATOM     44  N   UNL A   1      43.397  27.569  27.980  1.00  0.00    -0.354 N 
ATOM     45  C   UNL A   1      39.762  29.199  29.686  1.00  0.00     0.074 A 
ATOM     46  C   UNL A   1      38.672  28.250  29.581  1.00  0.00     0.031 C 
ATOM     47  C   UNL A   1      44.647  26.042  26.930  1.00  0.00     0.029 A 
ATOM     48  C   UNL A   1      44.662  27.400  27.465  1.00  0.00     0.049 A 
ATOM     49  H   UNL A   1      43.115  28.382  28.458  1.00  0.00     0.167 HD
ATOM     50  C   UNL A   1      39.667  30.420  30.268  1.00  0.00     0.034 A 
ATOM     51  C   UNL A   1      45.706  28.250  27.401  1.00  0.00     0.034 A 
ATOM     52  C   UNL A   1      40.764  31.354  30.352  1.00  0.00     0.049 A 
ATOM     53  C   UNL A   1      45.554  29.632  27.983  1.00  0.00     0.074 A 
ATOM     54  C   UNL A   1      40.791  32.599  30.958  1.00  0.00     0.029 A 
ATOM     55  N   UNL A   1      42.023  31.159  29.797  1.00  0.00    -0.354 N 
ATOM     56  N   UNL A   1      44.511  30.168  28.572  1.00  0.00    -0.248 NA
ATOM     57  C   UNL A   1      46.718  30.524  27.890  1.00  0.00     0.031 C 
ATOM     58  C   UNL A   1      42.033  33.186  30.699  1.00  0.00     0.029 A 
ATOM     59  C   UNL A   1      42.815  32.277  30.005  1.00  0.00     0.049 A 
ATOM     60  H   UNL A   1      42.310  30.343  29.324  1.00  0.00     0.167 HD
ATOM     61  C   UNL A   1      44.901  31.454  28.939  1.00  0.00     0.074 A 
ATOM     62  C   UNL A   1      46.280  31.603  28.522  1.00  0.00     0.031 C 
ATOM     63  C   UNL A   1      44.184  32.422  29.564  1.00  0.00     0.034 A 
BRANCH  50  64
ATOM     64  C   UNL A   1      38.324  30.820  30.831  1.00  0.00     0.023 A 
ATOM     65  C   UNL A   1      37.366  31.485  30.046  1.00  0.00     0.031 A 
ATOM     66  C   UNL A   1      38.004  30.558  32.175  1.00  0.00     0.131 A 
ATOM     67  C   UNL A   1      36.171  31.933  30.628  1.00  0.00     0.055 A 
ATOM     68  C   UNL A   1      36.776  30.929  32.726  1.00  0.00     0.041 A 
ATOM     69  F   UNL A   1      38.886  29.946  32.982  1.00  0.00    -0.206 F 
ATOM     70  C   UNL A   1      35.857  31.637  31.956  1.00  0.00     0.022 A 
BRANCH  67  71
ATOM     71  S   UNL A   1      35.106  33.044  29.668  1.00  0.00     0.124 S 
ATOM     72  O   UNL A   1      36.069  34.033  29.189  1.00  0.00    -0.237 OA
ATOM     73  O   UNL A   1      34.551  32.152  28.657  1.00  0.00    -0.237 OA
ATOM     74  O   UNL A   1      34.152  33.542  30.655  1.00  0.00    -0.744 OA
ENDBRANCH  67  71
ENDBRANCH  50  64
BRANCH  51  75
ATOM     75  C   UNL A   1      46.969  27.840  26.722  1.00  0.00     0.023 A 
ATOM     76  C   UNL A   1      47.124  27.976  25.333  1.00  0.00     0.031 A 
ATOM     77  C   UNL A   1      48.032  27.270  27.449  1.00  0.00     0.131 A 
ATOM     78  C   UNL A   1      48.293  27.508  24.711  1.00  0.00     0.055 A 
ATOM     79  C   UNL A   1      49.214  26.862  26.834  1.00  0.00     0.041 A 
ATOM     80  F   UNL A   1      47.937  27.115  28.780  1.00  0.00    -0.206 F 
ATOM     81  C   UNL A   1      49.346  26.969  25.453  1.00  0.00     0.022 A 
BRANCH  78  82
ATOM     82  S   UNL A   1      48.382  27.532  22.899  1.00  0.00     0.124 S 
ATOM     83  O   UNL A   1      49.656  28.205  22.674  1.00  0.00    -0.237 OA
ATOM     84  O   UNL A   1      48.340  26.110  22.576  1.00  0.00    -0.237 OA
ATOM     85  O   UNL A   1      47.197  28.293  22.511  1.00  0.00    -0.744 OA
ENDBRANCH  78  82
ENDBRANCH  51  75
BRANCH  63  86
ATOM     86  C   UNL A   1      44.891  33.723  29.855  1.00  0.00     0.023 A 
ATOM     87  C   UNL A   1      45.603  33.924  31.050  1.00  0.00     0.031 A 
ATOM     88  C   UNL A   1      44.862  34.771  28.918  1.00  0.00     0.131 A 
ATOM     89  C   UNL A   1      46.222  35.159  31.295  1.00  0.00     0.055 A 
ATOM     90  C   UNL A   1      45.532  35.976  29.141  1.00  0.00     0.041 A 
ATOM     91  F   UNL A   1      44.193  34.638  27.762  1.00  0.00    -0.206 F 
ATOM     92  C   UNL A   1      46.209  36.178  30.340  1.00  0.00     0.022 A 
BRANCH  89  93
ATOM     93  S   UNL A   1      46.986  35.444  32.915  1.00  0.00     0.124 S 
ATOM     94  O   UNL A   1      48.160  34.579  32.852  1.00  0.00    -0.237 OA
ATOM     95  O   UNL A   1      47.249  36.879  32.891  1.00  0.00    -0.237 OA
ATOM     96  O   UNL A   1      45.955  35.021  33.860  1.00  0.00    -0.744 OA
ENDBRANCH  89  93
ENDBRANCH  63  86
ENDBRANCH  37  38
ENDBRANCH  29  32
ENDBRANCH  27  28
ENDBRANCH  26  27
ENDBRANCH  25  26
ENDBRANCH   1  25
TORSDOF 20
ENDMDL
MODEL 3
REMARK VINA RESULT:     -10.8      1.936      2.476
REMARK SMILES COc1ncccc1C[C@H](C(=O)NCCCCCCNC(=O)c1ccc(-c2c3nc(c(-c4cc(S(=O)(=O)[O-])ccc4F)c4ccc([nH]4)c(-c4cc(S(=O)(=O)[O-])ccc4F)c4nc(c(-c5cc(S(=O)(=O)[O-])ccc5F)c5ccc2[nH]5)C=C4)C=C3)cc1)c1ccc(F)cc1
REMARK SMILES IDX 16 1 15 2 14 3 13 4 11 5 12 6 10 8 9 9 8 10 3 11 4 12 5 13
REMARK SMILES IDX 7 14 6 15 2 16 1 17 86 18 87 19 92 20 88 21 91 22 89 23
REMARK SMILES IDX 90 24 17 25 18 26 19 27 20 28 21 29 22 31 23 32 24 33 85 34
REMARK SMILES IDX 25 35 84 36 26 37 27 38 28 39 78 40 29 41 83 42 77 43 79 44
REMARK SMILES IDX 30 45 82 46 76 47 75 48 31 50 63 51 43 52 62 53 44 54 47 55
REMARK SMILES IDX 61 56 80 57 45 58 46 59 60 61 81 62 48 63 32 64 33 65 41 66
REMARK SMILES IDX 34 67 40 68 42 69 39 70 35 71 36 72 37 73 38 74 64 75 65 76
REMARK SMILES IDX 73 77 66 78 72 79 74 80 71 81 67 82 68 83 69 84 70 85 49 86
REMARK SMILES IDX 50 87 58 88 51 89 57 90 59 91 56 92 52 93 53 94 54 95 55 96
REMARK H PARENT 13 7 20 30 79 49 47 60
REMARK Flexibility Score: inf
ROOT
ATOM      1  C   UNL A   1      35.475  30.418  28.655  1.00  0.00     0.002 C 
ENDROOT
BRANCH   1   2
ATOM      2  C   UNL A   1      35.615  29.285  27.630  1.00  0.00     0.021 C 
BRANCH   2   3
ATOM      3  C   UNL A   1      34.379  29.070  26.757  1.00  0.00     0.116 C 
BRANCH   3   4
ATOM      4  N   UNL A   1      33.212  28.758  27.562  1.00  0.00    -0.356 N 
ATOM      5  C   UNL A   1      32.138  27.974  27.259  1.00  0.00     0.227 C 
ATOM      6  O   UNL A   1      31.203  27.950  28.063  1.00  0.00    -0.274 OA
ATOM      7  H   UNL A   1      33.194  29.171  28.455  1.00  0.00     0.163 HD
BRANCH   5   8
ATOM      8  C   UNL A   1      32.133  27.151  25.963  1.00  0.00     0.113 C 
BRANCH   8   9
ATOM      9  C   UNL A   1      31.922  25.654  26.335  1.00  0.00     0.059 C 
BRANCH   9  10
ATOM     10  C   UNL A   1      32.972  24.734  25.763  1.00  0.00     0.015 A 
ATOM     11  C   UNL A   1      32.950  23.350  25.943  1.00  0.00     0.216 A 
ATOM     12  N   UNL A   1      33.785  22.499  25.310  1.00  0.00    -0.222 NA
ATOM     13  C   UNL A   1      34.716  23.046  24.497  1.00  0.00     0.115 A 
ATOM     14  C   UNL A   1      33.996  25.262  24.965  1.00  0.00     0.011 A 
ATOM     15  C   UNL A   1      34.889  24.408  24.329  1.00  0.00     0.021 A 
BRANCH  11  16
ATOM     16  O   UNL A   1      32.265  22.802  26.999  1.00  0.00    -0.481 OA
ATOM     17  C   UNL A   1      33.127  22.269  27.992  1.00  0.00     0.280 C 
ENDBRANCH  11  16
ENDBRANCH   9  10
ENDBRANCH   8   9
BRANCH   8  18
ATOM     18  C   UNL A   1      31.139  27.673  24.921  1.00  0.00    -0.035 A 
ATOM     19  C   UNL A   1      31.206  28.980  24.404  1.00  0.00     0.007 A 
ATOM     20  C   UNL A   1      30.109  26.828  24.459  1.00  0.00     0.007 A 
ATOM     21  C   UNL A   1      30.276  29.425  23.459  1.00  0.00     0.039 A 
ATOM     22  C   UNL A   1      29.167  27.282  23.532  1.00  0.00     0.039 A 
ATOM     23  C   UNL A   1      29.259  28.576  23.040  1.00  0.00     0.123 A 
ATOM     24  F   UNL A   1      28.350  29.018  22.162  1.00  0.00    -0.207 F 
ENDBRANCH   8  18
ENDBRANCH   5   8
ENDBRANCH   3   4
ENDBRANCH   2   3
ENDBRANCH   1   2
BRANCH   1  25
ATOM     25  C   UNL A   1      35.656  31.826  28.084  1.00  0.00     0.002 C 
BRANCH  25  26
ATOM     26  C   UNL A   1      34.361  32.628  27.939  1.00  0.00     0.021 C 
BRANCH  26  27
ATOM     27  C   UNL A   1      34.543  34.140  28.031  1.00  0.00     0.116 C 
BRANCH  27  28
ATOM     28  N   UNL A   1      33.629  34.735  28.993  1.00  0.00    -0.352 N 
ATOM     29  C   UNL A   1      33.661  34.675  30.366  1.00  0.00     0.251 C 
ATOM     30  H   UNL A   1      32.885  35.252  28.608  1.00  0.00     0.163 HD
ATOM     31  O   UNL A   1      32.690  35.028  31.022  1.00  0.00    -0.269 OA
BRANCH  29  32
ATOM     32  C   UNL A   1      34.873  34.152  31.033  1.00  0.00     0.039 A 
ATOM     33  C   UNL A   1      34.765  33.029  31.855  1.00  0.00     0.014 A 
ATOM     34  C   UNL A   1      36.116  34.751  30.808  1.00  0.00     0.014 A 
ATOM     35  C   UNL A   1      35.922  32.452  32.382  1.00  0.00     0.010 A 
ATOM     36  C   UNL A   1      37.272  34.134  31.278  1.00  0.00     0.010 A 
ATOM     37  C   UNL A   1      37.187  32.967  32.055  1.00  0.00    -0.014 A 
BRANCH  37  38
ATOM     38  C   UNL A   1      38.435  32.278  32.470  1.00  0.00     0.031 A 
ATOM     39  C   UNL A   1      39.002  31.167  31.633  1.00  0.00     0.074 A 
ATOM     40  C   UNL A   1      39.007  32.600  33.648  1.00  0.00     0.049 A 
ATOM     41  N   UNL A   1      40.008  30.371  31.887  1.00  0.00    -0.248 NA
ATOM     42  C   UNL A   1      38.332  30.904  30.352  1.00  0.00     0.031 C 
ATOM     43  C   UNL A   1      38.530  33.643  34.559  1.00  0.00     0.029 A 
ATOM     44  N   UNL A   1      40.101  32.075  34.291  1.00  0.00    -0.354 N 
ATOM     45  C   UNL A   1      40.094  29.509  30.799  1.00  0.00     0.074 A 
ATOM     46  C   UNL A   1      38.996  29.844  29.915  1.00  0.00     0.031 C 
ATOM     47  C   UNL A   1      39.332  33.688  35.635  1.00  0.00     0.029 A 
ATOM     48  C   UNL A   1      40.342  32.640  35.523  1.00  0.00     0.049 A 
ATOM     49  H   UNL A   1      40.660  31.361  33.908  1.00  0.00     0.167 HD
ATOM     50  C   UNL A   1      41.015  28.546  30.553  1.00  0.00     0.034 A 
ATOM     51  C   UNL A   1      41.250  32.332  36.470  1.00  0.00     0.034 A 
ATOM     52  C   UNL A   1      42.095  28.222  31.453  1.00  0.00     0.049 A 
ATOM     53  C   UNL A   1      42.215  31.203  36.210  1.00  0.00     0.074 A 
ATOM     54  C   UNL A   1      43.110  27.295  31.283  1.00  0.00     0.029 A 
ATOM     55  N   UNL A   1      42.293  28.797  32.702  1.00  0.00    -0.354 N 
ATOM     56  N   UNL A   1      42.315  30.431  35.153  1.00  0.00    -0.248 NA
ATOM     57  C   UNL A   1      43.187  30.902  37.269  1.00  0.00     0.031 C 
ATOM     58  C   UNL A   1      43.867  27.253  32.458  1.00  0.00     0.029 A 
ATOM     59  C   UNL A   1      43.382  28.213  33.331  1.00  0.00     0.049 A 
ATOM     60  H   UNL A   1      41.739  29.517  33.085  1.00  0.00     0.167 HD
ATOM     61  C   UNL A   1      43.375  29.567  35.412  1.00  0.00     0.074 A 
ATOM     62  C   UNL A   1      43.894  29.927  36.716  1.00  0.00     0.031 C 
ATOM     63  C   UNL A   1      43.875  28.567  34.643  1.00  0.00     0.034 A 
BRANCH  50  64
ATOM     64  C   UNL A   1      40.873  27.757  29.272  1.00  0.00     0.023 A 
ATOM     65  C   UNL A   1      41.769  27.925  28.202  1.00  0.00     0.031 A 
ATOM     66  C   UNL A   1      39.815  26.845  29.107  1.00  0.00     0.131 A 
ATOM     67  C   UNL A   1      41.548  27.254  26.990  1.00  0.00     0.055 A 
ATOM     68  C   UNL A   1      39.651  26.113  27.928  1.00  0.00     0.041 A 
ATOM     69  F   UNL A   1      38.915  26.658  30.084  1.00  0.00    -0.206 F 
ATOM     70  C   UNL A   1      40.511  26.328  26.855  1.00  0.00     0.022 A 
BRANCH  67  71
ATOM     71  S   UNL A   1      42.540  27.726  25.548  1.00  0.00     0.124 S 
ATOM     72  O   UNL A   1      41.874  28.954  25.121  1.00  0.00    -0.237 OA
ATOM     73  O   UNL A   1      43.871  27.887  26.120  1.00  0.00    -0.237 OA
ATOM     74  O   UNL A   1      42.383  26.593  24.638  1.00  0.00    -0.744 OA
ENDBRANCH  67  71
ENDBRANCH  50  64
BRANCH  51  75
ATOM     75  C   UNL A   1      41.264  33.066  37.768  1.00  0.00     0.023 A 
ATOM     76  C   UNL A   1      40.429  32.681  38.829  1.00  0.00     0.031 A 
ATOM     77  C   UNL A   1      42.089  34.192  37.955  1.00  0.00     0.131 A 
ATOM     78  C   UNL A   1      40.405  33.439  40.011  1.00  0.00     0.055 A 
ATOM     79  C   UNL A   1      42.105  34.906  39.153  1.00  0.00     0.041 A 
ATOM     80  F   UNL A   1      42.907  34.605  36.974  1.00  0.00    -0.206 F 
ATOM     81  C   UNL A   1      41.250  34.538  40.186  1.00  0.00     0.022 A 
BRANCH  78  82
ATOM     82  S   UNL A   1      39.185  33.022  41.286  1.00  0.00     0.124 S 
ATOM     83  O   UNL A   1      40.043  32.646  42.404  1.00  0.00    -0.237 OA
ATOM     84  O   UNL A   1      38.455  34.277  41.428  1.00  0.00    -0.237 OA
ATOM     85  O   UNL A   1      38.427  31.927  40.685  1.00  0.00    -0.744 OA
ENDBRANCH  78  82
ENDBRANCH  51  75
BRANCH  63  86
ATOM     86  C   UNL A   1      45.060  27.806  35.186  1.00  0.00     0.023 A 
ATOM     87  C   UNL A   1      44.898  26.653  35.972  1.00  0.00     0.031 A 
ATOM     88  C   UNL A   1      46.369  28.233  34.901  1.00  0.00     0.131 A 
ATOM     89  C   UNL A   1      46.024  25.990  36.483  1.00  0.00     0.055 A 
ATOM     90  C   UNL A   1      47.487  27.534  35.360  1.00  0.00     0.041 A 
ATOM     91  F   UNL A   1      46.584  29.331  34.159  1.00  0.00    -0.206 F 
ATOM     92  C   UNL A   1      47.317  26.412  36.164  1.00  0.00     0.022 A 
BRANCH  89  93
ATOM     93  S   UNL A   1      45.777  24.610  37.632  1.00  0.00     0.124 S 
ATOM     94  O   UNL A   1      44.378  24.779  38.010  1.00  0.00    -0.237 OA
ATOM     95  O   UNL A   1      46.076  23.450  36.800  1.00  0.00    -0.237 OA
ATOM     96  O   UNL A   1      46.743  24.872  38.697  1.00  0.00    -0.744 OA
ENDBRANCH  89  93
ENDBRANCH  63  86
ENDBRANCH  37  38
ENDBRANCH  29  32
ENDBRANCH  27  28
ENDBRANCH  26  27
ENDBRANCH  25  26
ENDBRANCH   1  25
TORSDOF 20
ENDMDL
