MODEL 1
REMARK VINA RESULT:      -9.6      0.000      0.000
REMARK SMILES CC(C)[C@H](NC(=O)[C@H](C)NC(=O)CNC(=O)OCc1ccccc1)C(=O)NCCCCCCNC(=O)c1ccc(-c2c3nc(c(-c4cc(S(=O)(=O)[O-])ccc4F)c4ccc([nH]4)c(-c4cc(S(=O)(=O)[O-])ccc4F)c4nc(c(-c5cc(S(=O)(=O)[O-])ccc5F)c5ccc2[nH]5)C=C4)C=C3)cc1
REMARK SMILES IDX 28 1 27 2 25 3 26 4 4 6 2 7 1 8 3 9 5 10 6 11 7 13 8 14 9 15
REMARK SMILES IDX 10 16 11 17 12 19 13 20 14 21 15 22 16 24 17 25 18 26 19 27
REMARK SMILES IDX 20 28 24 29 21 30 23 31 22 32 29 33 30 34 31 35 32 36 33 37
REMARK SMILES IDX 34 38 35 39 36 41 37 42 38 43 99 44 39 45 98 46 40 47 41 48
REMARK SMILES IDX 42 49 92 50 43 51 97 52 91 53 93 54 44 55 96 56 90 57 89 58
REMARK SMILES IDX 45 60 77 61 57 62 76 63 58 64 61 65 75 66 94 67 59 68 60 69
REMARK SMILES IDX 74 71 95 72 62 73 46 74 47 75 55 76 48 77 54 78 56 79 53 80
REMARK SMILES IDX 49 81 50 82 51 83 52 84 78 85 79 86 87 87 80 88 86 89 88 90
REMARK SMILES IDX 85 91 81 92 82 93 83 94 84 95 63 96 64 97 72 98 65 99 71 100
REMARK SMILES IDX 73 101 70 102 66 103 67 104 68 105 69 106
REMARK H PARENT 27 5 5 12 10 18 14 23 34 40 93 59 61 70
REMARK Flexibility Score: inf
ROOT
ATOM      1  C   UNL A   1      37.628  23.647  26.084  1.00  0.00     0.116 C 
ENDROOT
BRANCH   1   2
ATOM      2  N   UNL A   1      37.464  23.356  24.669  1.00  0.00    -0.354 N 
ATOM      3  C   UNL A   1      36.357  22.980  23.966  1.00  0.00     0.242 C 
ATOM      4  O   UNL A   1      36.431  22.987  22.734  1.00  0.00    -0.273 OA
ATOM      5  H   UNL A   1      38.284  23.447  24.132  1.00  0.00     0.163 HD
BRANCH   3   6
ATOM      6  C   UNL A   1      35.011  22.710  24.675  1.00  0.00     0.173 C 
BRANCH   6   7
ATOM      7  C   UNL A   1      35.094  21.506  25.636  1.00  0.00     0.015 C 
ATOM      8  C   UNL A   1      34.527  21.666  27.051  1.00  0.00     0.010 C 
ATOM      9  C   UNL A   1      34.407  20.292  24.992  1.00  0.00     0.010 C 
ENDBRANCH   6   7
BRANCH   6  10
ATOM     10  N   UNL A   1      33.911  22.789  23.687  1.00  0.00    -0.342 N 
ATOM     11  C   UNL A   1      32.662  23.307  23.570  1.00  0.00     0.242 C 
ATOM     12  H   UNL A   1      34.163  22.320  22.859  1.00  0.00     0.164 HD
ATOM     13  O   UNL A   1      32.201  23.292  22.423  1.00  0.00    -0.273 OA
BRANCH  11  14
ATOM     14  C   UNL A   1      31.796  23.754  24.769  1.00  0.00     0.168 C 
ATOM     15  C   UNL A   1      31.315  22.534  25.559  1.00  0.00     0.041 C 
BRANCH  14  16
ATOM     16  N   UNL A   1      30.644  24.558  24.377  1.00  0.00    -0.343 N 
ATOM     17  C   UNL A   1      30.124  25.689  24.939  1.00  0.00     0.240 C 
ATOM     18  H   UNL A   1      30.165  24.235  23.581  1.00  0.00     0.164 HD
ATOM     19  O   UNL A   1      29.123  26.171  24.396  1.00  0.00    -0.273 OA
BRANCH  17  20
ATOM     20  C   UNL A   1      30.837  26.467  26.066  1.00  0.00     0.219 C 
BRANCH  20  21
ATOM     21  N   UNL A   1      32.178  26.912  25.765  1.00  0.00    -0.312 N 
ATOM     22  C   UNL A   1      32.580  27.806  24.818  1.00  0.00     0.407 C 
ATOM     23  H   UNL A   1      32.894  26.518  26.314  1.00  0.00     0.167 HD
ATOM     24  O   UNL A   1      33.762  28.026  24.638  1.00  0.00    -0.225 OA
BRANCH  22  25
ATOM     25  O   UNL A   1      31.555  28.330  24.096  1.00  0.00    -0.445 OA
BRANCH  25  26
ATOM     26  C   UNL A   1      31.193  29.673  24.454  1.00  0.00     0.270 C 
BRANCH  26  27
ATOM     27  C   UNL A   1      29.922  30.069  23.760  1.00  0.00    -0.011 A 
ATOM     28  C   UNL A   1      29.428  29.283  22.710  1.00  0.00     0.007 A 
ATOM     29  C   UNL A   1      29.255  31.254  24.099  1.00  0.00     0.007 A 
ATOM     30  C   UNL A   1      28.301  29.682  21.997  1.00  0.00     0.000 A 
ATOM     31  C   UNL A   1      28.120  31.648  23.387  1.00  0.00     0.000 A 
ATOM     32  C   UNL A   1      27.650  30.867  22.332  1.00  0.00     0.000 A 
ENDBRANCH  26  27
ENDBRANCH  25  26
ENDBRANCH  22  25
ENDBRANCH  20  21
ENDBRANCH  17  20
ENDBRANCH  14  16
ENDBRANCH  11  14
ENDBRANCH   6  10
ENDBRANCH   3   6
ENDBRANCH   1   2
BRANCH   1  33
ATOM     33  C   UNL A   1      38.944  24.360  26.362  1.00  0.00     0.021 C 
BRANCH  33  34
ATOM     34  C   UNL A   1      39.896  23.555  27.254  1.00  0.00     0.002 C 
BRANCH  34  35
ATOM     35  C   UNL A   1      40.042  22.075  26.875  1.00  0.00     0.002 C 
BRANCH  35  36
ATOM     36  C   UNL A   1      41.436  21.483  27.101  1.00  0.00     0.021 C 
BRANCH  36  37
ATOM     37  C   UNL A   1      42.524  22.516  27.362  1.00  0.00     0.116 C 
BRANCH  37  38
ATOM     38  N   UNL A   1      43.837  22.049  26.943  1.00  0.00    -0.352 N 
ATOM     39  C   UNL A   1      44.951  22.792  26.640  1.00  0.00     0.251 C 
ATOM     40  H   UNL A   1      43.939  21.072  26.867  1.00  0.00     0.163 HD
ATOM     41  O   UNL A   1      45.930  22.259  26.126  1.00  0.00    -0.269 OA
BRANCH  39  42
ATOM     42  C   UNL A   1      44.936  24.242  26.916  1.00  0.00     0.039 A 
ATOM     43  C   UNL A   1      44.525  25.126  25.916  1.00  0.00     0.014 A 
ATOM     44  C   UNL A   1      45.287  24.717  28.183  1.00  0.00     0.014 A 
ATOM     45  C   UNL A   1      44.408  26.486  26.207  1.00  0.00     0.010 A 
ATOM     46  C   UNL A   1      45.096  26.058  28.491  1.00  0.00     0.010 A 
ATOM     47  C   UNL A   1      44.659  26.958  27.505  1.00  0.00    -0.014 A 
BRANCH  47  48
ATOM     48  C   UNL A   1      44.512  28.392  27.863  1.00  0.00     0.031 A 
ATOM     49  C   UNL A   1      45.709  29.299  27.771  1.00  0.00     0.074 A 
ATOM     50  C   UNL A   1      43.343  28.855  28.347  1.00  0.00     0.049 A 
ATOM     51  N   UNL A   1      45.851  30.532  28.182  1.00  0.00    -0.248 NA
ATOM     52  C   UNL A   1      46.919  28.723  27.164  1.00  0.00     0.031 C 
ATOM     53  C   UNL A   1      42.118  28.067  28.499  1.00  0.00     0.029 A 
ATOM     54  N   UNL A   1      42.998  30.096  28.818  1.00  0.00    -0.354 N 
ATOM     55  C   UNL A   1      47.170  30.872  27.906  1.00  0.00     0.074 A 
ATOM     56  C   UNL A   1      47.801  29.693  27.352  1.00  0.00     0.031 C 
ATOM     57  C   UNL A   1      41.154  28.848  29.011  1.00  0.00     0.029 A 
ATOM     58  C   UNL A   1      41.703  30.174  29.278  1.00  0.00     0.049 A 
ATOM     59  H   UNL A   1      43.619  30.861  28.828  1.00  0.00     0.167 HD
ATOM     60  C   UNL A   1      47.793  32.064  28.079  1.00  0.00     0.034 A 
ATOM     61  C   UNL A   1      41.044  31.191  29.870  1.00  0.00     0.034 A 
ATOM     62  C   UNL A   1      47.143  33.231  28.622  1.00  0.00     0.049 A 
ATOM     63  C   UNL A   1      41.768  32.496  30.096  1.00  0.00     0.074 A 
ATOM     64  C   UNL A   1      47.663  34.500  28.806  1.00  0.00     0.029 A 
ATOM     65  N   UNL A   1      45.828  33.272  29.072  1.00  0.00    -0.354 N 
ATOM     66  N   UNL A   1      43.011  32.811  29.809  1.00  0.00    -0.248 NA
ATOM     67  C   UNL A   1      41.001  33.583  30.718  1.00  0.00     0.031 C 
ATOM     68  C   UNL A   1      46.690  35.285  29.433  1.00  0.00     0.029 A 
ATOM     69  C   UNL A   1      45.531  34.535  29.558  1.00  0.00     0.049 A 
ATOM     70  H   UNL A   1      45.201  32.513  29.049  1.00  0.00     0.167 HD
ATOM     71  C   UNL A   1      43.157  34.147  30.176  1.00  0.00     0.074 A 
ATOM     72  C   UNL A   1      41.879  34.577  30.702  1.00  0.00     0.031 C 
ATOM     73  C   UNL A   1      44.247  34.950  30.074  1.00  0.00     0.034 A 
BRANCH  60  74
ATOM     74  C   UNL A   1      49.254  32.146  27.704  1.00  0.00     0.023 A 
ATOM     75  C   UNL A   1      50.256  31.579  28.511  1.00  0.00     0.031 A 
ATOM     76  C   UNL A   1      49.656  32.833  26.546  1.00  0.00     0.131 A 
ATOM     77  C   UNL A   1      51.608  31.784  28.199  1.00  0.00     0.055 A 
ATOM     78  C   UNL A   1      51.001  32.954  26.190  1.00  0.00     0.041 A 
ATOM     79  F   UNL A   1      48.749  33.416  25.747  1.00  0.00    -0.206 F 
ATOM     80  C   UNL A   1      51.988  32.443  27.028  1.00  0.00     0.022 A 
BRANCH  77  81
ATOM     81  S   UNL A   1      52.859  31.319  29.428  1.00  0.00     0.124 S 
ATOM     82  O   UNL A   1      54.096  31.509  28.673  1.00  0.00    -0.237 OA
ATOM     83  O   UNL A   1      52.614  32.272  30.504  1.00  0.00    -0.237 OA
ATOM     84  O   UNL A   1      52.535  29.928  29.738  1.00  0.00    -0.744 OA
ENDBRANCH  77  81
ENDBRANCH  60  74
BRANCH  61  85
ATOM     85  C   UNL A   1      39.626  31.024  30.306  1.00  0.00     0.023 A 
ATOM     86  C   UNL A   1      38.566  31.435  29.484  1.00  0.00     0.031 A 
ATOM     87  C   UNL A   1      39.311  30.491  31.569  1.00  0.00     0.131 A 
ATOM     88  C   UNL A   1      37.245  31.359  29.953  1.00  0.00     0.055 A 
ATOM     89  C   UNL A   1      37.992  30.364  32.008  1.00  0.00     0.041 A 
ATOM     90  F   UNL A   1      40.285  30.078  32.396  1.00  0.00    -0.206 F 
ATOM     91  C   UNL A   1      36.950  30.813  31.203  1.00  0.00     0.022 A 
BRANCH  88  92
ATOM     92  S   UNL A   1      35.922  32.075  28.938  1.00  0.00     0.124 S 
ATOM     93  O   UNL A   1      36.492  33.369  28.580  1.00  0.00    -0.237 OA
ATOM     94  O   UNL A   1      35.809  31.100  27.858  1.00  0.00    -0.237 OA
ATOM     95  O   UNL A   1      34.783  32.124  29.852  1.00  0.00    -0.744 OA
ENDBRANCH  88  92
ENDBRANCH  61  85
BRANCH  73  96
ATOM     96  C   UNL A   1      44.083  36.398  30.468  1.00  0.00     0.023 A 
ATOM     97  C   UNL A   1      43.696  37.386  29.548  1.00  0.00     0.031 A 
ATOM     98  C   UNL A   1      44.299  36.785  31.804  1.00  0.00     0.131 A 
ATOM     99  C   UNL A   1      43.576  38.721  29.967  1.00  0.00     0.055 A 
ATOM    100  C   UNL A   1      44.120  38.101  32.227  1.00  0.00     0.041 A 
ATOM    101  F   UNL A   1      44.673  35.881  32.724  1.00  0.00    -0.206 F 
ATOM    102  C   UNL A   1      43.767  39.080  31.304  1.00  0.00     0.022 A 
BRANCH  99 103
ATOM    103  S   UNL A   1      43.238  40.000  28.726  1.00  0.00     0.124 S 
ATOM    104  O   UNL A   1      42.413  40.942  29.477  1.00  0.00    -0.237 OA
ATOM    105  O   UNL A   1      44.578  40.463  28.380  1.00  0.00    -0.237 OA
ATOM    106  O   UNL A   1      42.542  39.274  27.666  1.00  0.00    -0.744 OA
ENDBRANCH  99 103
ENDBRANCH  73  96
ENDBRANCH  47  48
ENDBRANCH  39  42
ENDBRANCH  37  38
ENDBRANCH  36  37
ENDBRANCH  35  36
ENDBRANCH  34  35
ENDBRANCH  33  34
ENDBRANCH   1  33
TORSDOF 25
ENDMDL
MODEL 2
REMARK VINA RESULT:      -9.4      4.041      5.601
REMARK SMILES CC(C)[C@H](NC(=O)[C@H](C)NC(=O)CNC(=O)OCc1ccccc1)C(=O)NCCCCCCNC(=O)c1ccc(-c2c3nc(c(-c4cc(S(=O)(=O)[O-])ccc4F)c4ccc([nH]4)c(-c4cc(S(=O)(=O)[O-])ccc4F)c4nc(c(-c5cc(S(=O)(=O)[O-])ccc5F)c5ccc2[nH]5)C=C4)C=C3)cc1
REMARK SMILES IDX 28 1 27 2 25 3 26 4 4 6 2 7 1 8 3 9 5 10 6 11 7 13 8 14 9 15
REMARK SMILES IDX 10 16 11 17 12 19 13 20 14 21 15 22 16 24 17 25 18 26 19 27
REMARK SMILES IDX 20 28 24 29 21 30 23 31 22 32 29 33 30 34 31 35 32 36 33 37
REMARK SMILES IDX 34 38 35 39 36 41 37 42 38 43 99 44 39 45 98 46 40 47 41 48
REMARK SMILES IDX 42 49 92 50 43 51 97 52 91 53 93 54 44 55 96 56 90 57 89 58
REMARK SMILES IDX 45 60 77 61 57 62 76 63 58 64 61 65 75 66 94 67 59 68 60 69
REMARK SMILES IDX 74 71 95 72 62 73 46 74 47 75 55 76 48 77 54 78 56 79 53 80
REMARK SMILES IDX 49 81 50 82 51 83 52 84 78 85 79 86 87 87 80 88 86 89 88 90
REMARK SMILES IDX 85 91 81 92 82 93 83 94 84 95 63 96 64 97 72 98 65 99 71 100
REMARK SMILES IDX 73 101 70 102 66 103 67 104 68 105 69 106
REMARK H PARENT 27 5 5 12 10 18 14 23 34 40 93 59 61 70
REMARK Flexibility Score: inf
ROOT
ATOM      1  C   UNL A   1      36.260  20.416  24.737  1.00  0.00     0.116 C 
ENDROOT
BRANCH   1   2
ATOM      2  N   UNL A   1      35.610  20.875  25.953  1.00  0.00    -0.354 N 
ATOM      3  C   UNL A   1      34.772  21.931  26.163  1.00  0.00     0.242 C 
ATOM      4  O   UNL A   1      34.191  21.993  27.251  1.00  0.00    -0.273 OA
ATOM      5  H   UNL A   1      35.805  20.336  26.753  1.00  0.00     0.163 HD
BRANCH   3   6
ATOM      6  C   UNL A   1      34.435  22.925  25.029  1.00  0.00     0.173 C 
BRANCH   6   7
ATOM      7  C   UNL A   1      35.592  23.908  24.760  1.00  0.00     0.015 C 
ATOM      8  C   UNL A   1      36.655  24.094  25.848  1.00  0.00     0.010 C 
ATOM      9  C   UNL A   1      36.315  23.500  23.466  1.00  0.00     0.010 C 
ENDBRANCH   6   7
BRANCH   6  10
ATOM     10  N   UNL A   1      33.060  23.439  25.220  1.00  0.00    -0.342 N 
ATOM     11  C   UNL A   1      31.871  23.477  24.567  1.00  0.00     0.242 C 
ATOM     12  H   UNL A   1      32.984  23.895  26.090  1.00  0.00     0.164 HD
ATOM     13  O   UNL A   1      30.914  23.852  25.255  1.00  0.00    -0.273 OA
BRANCH  11  14
ATOM     14  C   UNL A   1      31.709  23.224  23.051  1.00  0.00     0.168 C 
ATOM     15  C   UNL A   1      32.003  21.758  22.724  1.00  0.00     0.041 C 
BRANCH  14  16
ATOM     16  N   UNL A   1      32.561  24.080  22.232  1.00  0.00    -0.343 N 
ATOM     17  C   UNL A   1      32.443  25.404  21.920  1.00  0.00     0.240 C 
ATOM     18  H   UNL A   1      33.346  23.632  21.843  1.00  0.00     0.164 HD
ATOM     19  O   UNL A   1      33.319  25.884  21.192  1.00  0.00    -0.273 OA
BRANCH  17  20
ATOM     20  C   UNL A   1      31.402  26.331  22.585  1.00  0.00     0.219 C 
BRANCH  20  21
ATOM     21  N   UNL A   1      31.034  27.502  21.823  1.00  0.00    -0.312 N 
ATOM     22  C   UNL A   1      30.323  28.590  22.234  1.00  0.00     0.407 C 
ATOM     23  H   UNL A   1      31.334  27.515  20.885  1.00  0.00     0.167 HD
ATOM     24  O   UNL A   1      30.032  29.471  21.449  1.00  0.00    -0.225 OA
BRANCH  22  25
ATOM     25  O   UNL A   1      29.943  28.529  23.537  1.00  0.00    -0.445 OA
BRANCH  25  26
ATOM     26  C   UNL A   1      30.597  29.475  24.399  1.00  0.00     0.270 C 
BRANCH  26  27
ATOM     27  C   UNL A   1      31.706  28.804  25.156  1.00  0.00    -0.011 A 
ATOM     28  C   UNL A   1      33.013  29.303  25.063  1.00  0.00     0.007 A 
ATOM     29  C   UNL A   1      31.470  27.643  25.903  1.00  0.00     0.007 A 
ATOM     30  C   UNL A   1      34.068  28.642  25.687  1.00  0.00     0.000 A 
ATOM     31  C   UNL A   1      32.528  26.986  26.534  1.00  0.00     0.000 A 
ATOM     32  C   UNL A   1      33.827  27.481  26.417  1.00  0.00     0.000 A 
ENDBRANCH  26  27
ENDBRANCH  25  26
ENDBRANCH  22  25
ENDBRANCH  20  21
ENDBRANCH  17  20
ENDBRANCH  14  16
ENDBRANCH  11  14
ENDBRANCH   6  10
ENDBRANCH   3   6
ENDBRANCH   1   2
BRANCH   1  33
ATOM     33  C   UNL A   1      37.683  19.945  25.004  1.00  0.00     0.021 C 
BRANCH  33  34
ATOM     34  C   UNL A   1      38.630  21.076  25.421  1.00  0.00     0.002 C 
BRANCH  34  35
ATOM     35  C   UNL A   1      39.838  20.634  26.259  1.00  0.00     0.002 C 
BRANCH  35  36
ATOM     36  C   UNL A   1      40.414  21.710  27.183  1.00  0.00     0.021 C 
BRANCH  36  37
ATOM     37  C   UNL A   1      41.904  21.568  27.464  1.00  0.00     0.116 C 
BRANCH  37  38
ATOM     38  N   UNL A   1      42.616  20.947  26.357  1.00  0.00    -0.352 N 
ATOM     39  C   UNL A   1      43.587  21.491  25.553  1.00  0.00     0.251 C 
ATOM     40  H   UNL A   1      42.369  20.015  26.159  1.00  0.00     0.163 HD
ATOM     41  O   UNL A   1      43.961  20.899  24.546  1.00  0.00    -0.269 OA
BRANCH  39  42
ATOM     42  C   UNL A   1      44.148  22.810  25.909  1.00  0.00     0.039 A 
ATOM     43  C   UNL A   1      45.030  22.911  26.987  1.00  0.00     0.014 A 
ATOM     44  C   UNL A   1      43.830  23.935  25.143  1.00  0.00     0.014 A 
ATOM     45  C   UNL A   1      45.645  24.134  27.260  1.00  0.00     0.010 A 
ATOM     46  C   UNL A   1      44.501  25.131  25.369  1.00  0.00     0.010 A 
ATOM     47  C   UNL A   1      45.411  25.245  26.433  1.00  0.00    -0.014 A 
BRANCH  47  48
ATOM     48  C   UNL A   1      46.072  26.554  26.670  1.00  0.00     0.031 A 
ATOM     49  C   UNL A   1      47.442  26.800  26.100  1.00  0.00     0.074 A 
ATOM     50  C   UNL A   1      45.488  27.476  27.460  1.00  0.00     0.049 A 
ATOM     51  N   UNL A   1      48.265  27.793  26.314  1.00  0.00    -0.248 NA
ATOM     52  C   UNL A   1      47.967  25.767  25.193  1.00  0.00     0.031 C 
ATOM     53  C   UNL A   1      44.169  27.344  28.083  1.00  0.00     0.029 A 
ATOM     54  N   UNL A   1      45.934  28.701  27.888  1.00  0.00    -0.354 N 
ATOM     55  C   UNL A   1      49.413  27.494  25.589  1.00  0.00     0.074 A 
ATOM     56  C   UNL A   1      49.201  26.197  24.982  1.00  0.00     0.031 C 
ATOM     57  C   UNL A   1      43.909  28.450  28.799  1.00  0.00     0.029 A 
ATOM     58  C   UNL A   1      45.062  29.344  28.736  1.00  0.00     0.049 A 
ATOM     59  H   UNL A   1      46.800  29.083  27.616  1.00  0.00     0.167 HD
ATOM     60  C   UNL A   1      50.532  28.242  25.426  1.00  0.00     0.034 A 
ATOM     61  C   UNL A   1      45.187  30.509  29.404  1.00  0.00     0.034 A 
ATOM     62  C   UNL A   1      50.719  29.539  26.028  1.00  0.00     0.049 A 
ATOM     63  C   UNL A   1      46.460  31.305  29.245  1.00  0.00     0.074 A 
ATOM     64  C   UNL A   1      51.792  30.402  25.902  1.00  0.00     0.029 A 
ATOM     65  N   UNL A   1      49.809  30.159  26.877  1.00  0.00    -0.354 N 
ATOM     66  N   UNL A   1      47.530  31.022  28.537  1.00  0.00    -0.248 NA
ATOM     67  C   UNL A   1      46.540  32.581  29.969  1.00  0.00     0.031 C 
ATOM     68  C   UNL A   1      51.565  31.507  26.728  1.00  0.00     0.029 A 
ATOM     69  C   UNL A   1      50.310  31.380  27.301  1.00  0.00     0.049 A 
ATOM     70  H   UNL A   1      48.936  29.786  27.138  1.00  0.00     0.167 HD
ATOM     71  C   UNL A   1      48.389  32.106  28.697  1.00  0.00     0.074 A 
ATOM     72  C   UNL A   1      47.714  33.047  29.566  1.00  0.00     0.031 C 
ATOM     73  C   UNL A   1      49.620  32.311  28.163  1.00  0.00     0.034 A 
BRANCH  60  74
ATOM     74  C   UNL A   1      51.644  27.656  24.587  1.00  0.00     0.023 A 
ATOM     75  C   UNL A   1      51.707  27.863  23.197  1.00  0.00     0.031 A 
ATOM     76  C   UNL A   1      52.632  26.849  25.175  1.00  0.00     0.131 A 
ATOM     77  C   UNL A   1      52.679  27.201  22.434  1.00  0.00     0.055 A 
ATOM     78  C   UNL A   1      53.654  26.268  24.422  1.00  0.00     0.041 A 
ATOM     79  F   UNL A   1      52.613  26.596  26.493  1.00  0.00    -0.206 F 
ATOM     80  C   UNL A   1      53.671  26.427  23.039  1.00  0.00     0.022 A 
BRANCH  77  81
ATOM     81  S   UNL A   1      52.528  27.234  20.626  1.00  0.00     0.124 S 
ATOM     82  O   UNL A   1      51.202  26.652  20.431  1.00  0.00    -0.237 OA
ATOM     83  O   UNL A   1      52.652  28.656  20.325  1.00  0.00    -0.237 OA
ATOM     84  O   UNL A   1      53.639  26.400  20.174  1.00  0.00    -0.744 OA
ENDBRANCH  77  81
ENDBRANCH  60  74
BRANCH  61  85
ATOM     85  C   UNL A   1      44.093  30.995  30.293  1.00  0.00     0.023 A 
ATOM     86  C   UNL A   1      43.944  30.491  31.594  1.00  0.00     0.031 A 
ATOM     87  C   UNL A   1      43.151  31.937  29.841  1.00  0.00     0.131 A 
ATOM     88  C   UNL A   1      42.850  30.889  32.380  1.00  0.00     0.055 A 
ATOM     89  C   UNL A   1      42.098  32.374  30.647  1.00  0.00     0.041 A 
ATOM     90  F   UNL A   1      43.247  32.455  28.607  1.00  0.00    -0.206 F 
ATOM     91  C   UNL A   1      41.935  31.837  31.920  1.00  0.00     0.022 A 
BRANCH  88  92
ATOM     92  S   UNL A   1      42.589  30.074  33.980  1.00  0.00     0.124 S 
ATOM     93  O   UNL A   1      41.877  31.108  34.723  1.00  0.00    -0.237 OA
ATOM     94  O   UNL A   1      41.808  28.902  33.599  1.00  0.00    -0.237 OA
ATOM     95  O   UNL A   1      43.946  29.793  34.443  1.00  0.00    -0.744 OA
ENDBRANCH  88  92
ENDBRANCH  61  85
BRANCH  73  96
ATOM     96  C   UNL A   1      50.285  33.637  28.439  1.00  0.00     0.023 A 
ATOM     97  C   UNL A   1      50.008  34.788  27.682  1.00  0.00     0.031 A 
ATOM     98  C   UNL A   1      51.200  33.750  29.502  1.00  0.00     0.131 A 
ATOM     99  C   UNL A   1      50.670  35.991  27.972  1.00  0.00     0.055 A 
ATOM    100  C   UNL A   1      51.810  34.962  29.824  1.00  0.00     0.041 A 
ATOM    101  F   UNL A   1      51.504  32.682  30.257  1.00  0.00    -0.206 F 
ATOM    102  C   UNL A   1      51.554  36.089  29.050  1.00  0.00     0.022 A 
BRANCH  99 103
ATOM    103  S   UNL A   1      50.418  37.414  26.876  1.00  0.00     0.124 S 
ATOM    104  O   UNL A   1      51.559  38.261  27.210  1.00  0.00    -0.237 OA
ATOM    105  O   UNL A   1      50.447  36.800  25.553  1.00  0.00    -0.237 OA
ATOM    106  O   UNL A   1      49.116  37.937  27.286  1.00  0.00    -0.744 OA
ENDBRANCH  99 103
ENDBRANCH  73  96
ENDBRANCH  47  48
ENDBRANCH  39  42
ENDBRANCH  37  38
ENDBRANCH  36  37
ENDBRANCH  35  36
ENDBRANCH  34  35
ENDBRANCH  33  34
ENDBRANCH   1  33
TORSDOF 25
ENDMDL
MODEL 3
REMARK VINA RESULT:      -9.4      3.497      8.413
REMARK SMILES CC(C)[C@H](NC(=O)[C@H](C)NC(=O)CNC(=O)OCc1ccccc1)C(=O)NCCCCCCNC(=O)c1ccc(-c2c3nc(c(-c4cc(S(=O)(=O)[O-])ccc4F)c4ccc([nH]4)c(-c4cc(S(=O)(=O)[O-])ccc4F)c4nc(c(-c5cc(S(=O)(=O)[O-])ccc5F)c5ccc2[nH]5)C=C4)C=C3)cc1
REMARK SMILES IDX 28 1 27 2 25 3 26 4 4 6 2 7 1 8 3 9 5 10 6 11 7 13 8 14 9 15
REMARK SMILES IDX 10 16 11 17 12 19 13 20 14 21 15 22 16 24 17 25 18 26 19 27
REMARK SMILES IDX 20 28 24 29 21 30 23 31 22 32 29 33 30 34 31 35 32 36 33 37
REMARK SMILES IDX 34 38 35 39 36 41 37 42 38 43 99 44 39 45 98 46 40 47 41 48
REMARK SMILES IDX 42 49 92 50 43 51 97 52 91 53 93 54 44 55 96 56 90 57 89 58
REMARK SMILES IDX 45 60 77 61 57 62 76 63 58 64 61 65 75 66 94 67 59 68 60 69
REMARK SMILES IDX 74 71 95 72 62 73 46 74 47 75 55 76 48 77 54 78 56 79 53 80
REMARK SMILES IDX 49 81 50 82 51 83 52 84 78 85 79 86 87 87 80 88 86 89 88 90
REMARK SMILES IDX 85 91 81 92 82 93 83 94 84 95 63 96 64 97 72 98 65 99 71 100
REMARK SMILES IDX 73 101 70 102 66 103 67 104 68 105 69 106
REMARK H PARENT 27 5 5 12 10 18 14 23 34 40 93 59 61 70
REMARK Flexibility Score: inf
ROOT
ATOM      1  C   UNL A   1      36.427  20.664  24.757  1.00  0.00     0.116 C 
ENDROOT
BRANCH   1   2
ATOM      2  N   UNL A   1      35.688  21.092  25.933  1.00  0.00    -0.354 N 
ATOM      3  C   UNL A   1      34.344  21.184  26.149  1.00  0.00     0.242 C 
ATOM      4  O   UNL A   1      33.961  21.385  27.305  1.00  0.00    -0.273 OA
ATOM      5  H   UNL A   1      36.248  21.356  26.699  1.00  0.00     0.163 HD
BRANCH   3   6
ATOM      6  C   UNL A   1      33.330  20.889  25.021  1.00  0.00     0.173 C 
BRANCH   6   7
ATOM      7  C   UNL A   1      33.338  19.403  24.609  1.00  0.00     0.015 C 
ATOM      8  C   UNL A   1      32.858  18.365  25.628  1.00  0.00     0.010 C 
ATOM      9  C   UNL A   1      32.502  19.225  23.331  1.00  0.00     0.010 C 
ENDBRANCH   6   7
BRANCH   6  10
ATOM     10  N   UNL A   1      33.429  21.942  23.984  1.00  0.00    -0.342 N 
ATOM     11  C   UNL A   1      32.697  22.968  23.480  1.00  0.00     0.242 C 
ATOM     12  H   UNL A   1      34.293  21.879  23.516  1.00  0.00     0.164 HD
ATOM     13  O   UNL A   1      33.320  23.729  22.730  1.00  0.00    -0.273 OA
BRANCH  11  14
ATOM     14  C   UNL A   1      31.173  23.123  23.682  1.00  0.00     0.168 C 
ATOM     15  C   UNL A   1      30.701  24.475  23.139  1.00  0.00     0.041 C 
BRANCH  14  16
ATOM     16  N   UNL A   1      30.763  22.996  25.076  1.00  0.00    -0.343 N 
ATOM     17  C   UNL A   1      30.973  23.829  26.137  1.00  0.00     0.240 C 
ATOM     18  H   UNL A   1      30.255  22.180  25.286  1.00  0.00     0.164 HD
ATOM     19  O   UNL A   1      30.511  23.469  27.226  1.00  0.00    -0.273 OA
BRANCH  17  20
ATOM     20  C   UNL A   1      31.570  25.244  25.985  1.00  0.00     0.219 C 
BRANCH  20  21
ATOM     21  N   UNL A   1      31.132  26.214  26.963  1.00  0.00    -0.312 N 
ATOM     22  C   UNL A   1      31.498  27.522  27.079  1.00  0.00     0.407 C 
ATOM     23  H   UNL A   1      30.488  25.887  27.632  1.00  0.00     0.167 HD
ATOM     24  O   UNL A   1      31.092  28.197  28.006  1.00  0.00    -0.225 OA
BRANCH  22  25
ATOM     25  O   UNL A   1      32.378  27.926  26.127  1.00  0.00    -0.445 OA
BRANCH  25  26
ATOM     26  C   UNL A   1      33.760  27.821  26.503  1.00  0.00     0.270 C 
BRANCH  26  27
ATOM     27  C   UNL A   1      34.266  29.149  26.990  1.00  0.00    -0.011 A 
ATOM     28  C   UNL A   1      33.394  30.243  27.059  1.00  0.00     0.007 A 
ATOM     29  C   UNL A   1      35.618  29.330  27.313  1.00  0.00     0.007 A 
ATOM     30  C   UNL A   1      33.866  31.502  27.423  1.00  0.00     0.000 A 
ATOM     31  C   UNL A   1      36.087  30.591  27.685  1.00  0.00     0.000 A 
ATOM     32  C   UNL A   1      35.213  31.677  27.731  1.00  0.00     0.000 A 
ENDBRANCH  26  27
ENDBRANCH  25  26
ENDBRANCH  22  25
ENDBRANCH  20  21
ENDBRANCH  17  20
ENDBRANCH  14  16
ENDBRANCH  11  14
ENDBRANCH   6  10
ENDBRANCH   3   6
ENDBRANCH   1   2
BRANCH   1  33
ATOM     33  C   UNL A   1      37.755  20.020  25.131  1.00  0.00     0.021 C 
BRANCH  33  34
ATOM     34  C   UNL A   1      38.860  21.037  25.436  1.00  0.00     0.002 C 
BRANCH  34  35
ATOM     35  C   UNL A   1      40.093  20.461  26.147  1.00  0.00     0.002 C 
BRANCH  35  36
ATOM     36  C   UNL A   1      40.726  21.382  27.193  1.00  0.00     0.021 C 
BRANCH  36  37
ATOM     37  C   UNL A   1      40.681  22.863  26.840  1.00  0.00     0.116 C 
BRANCH  37  38
ATOM     38  N   UNL A   1      39.394  23.258  26.288  1.00  0.00    -0.352 N 
ATOM     39  C   UNL A   1      38.640  24.364  26.588  1.00  0.00     0.251 C 
ATOM     40  H   UNL A   1      39.014  22.650  25.612  1.00  0.00     0.163 HD
ATOM     41  O   UNL A   1      37.490  24.463  26.170  1.00  0.00    -0.269 OA
BRANCH  39  42
ATOM     42  C   UNL A   1      39.227  25.416  27.442  1.00  0.00     0.039 A 
ATOM     43  C   UNL A   1      39.966  26.444  26.852  1.00  0.00     0.014 A 
ATOM     44  C   UNL A   1      39.006  25.401  28.822  1.00  0.00     0.014 A 
ATOM     45  C   UNL A   1      40.432  27.496  27.644  1.00  0.00     0.010 A 
ATOM     46  C   UNL A   1      39.404  26.486  29.593  1.00  0.00     0.010 A 
ATOM     47  C   UNL A   1      40.126  27.542  29.013  1.00  0.00    -0.014 A 
BRANCH  47  48
ATOM     48  C   UNL A   1      40.575  28.661  29.881  1.00  0.00     0.031 A 
ATOM     49  C   UNL A   1      39.559  29.642  30.400  1.00  0.00     0.074 A 
ATOM     50  C   UNL A   1      41.886  28.846  30.128  1.00  0.00     0.049 A 
ATOM     51  N   UNL A   1      39.742  30.773  31.031  1.00  0.00    -0.248 NA
ATOM     52  C   UNL A   1      38.148  29.320  30.140  1.00  0.00     0.031 C 
ATOM     53  C   UNL A   1      42.966  27.971  29.664  1.00  0.00     0.029 A 
ATOM     54  N   UNL A   1      42.538  29.839  30.815  1.00  0.00    -0.354 N 
ATOM     55  C   UNL A   1      38.474  31.308  31.222  1.00  0.00     0.074 A 
ATOM     56  C   UNL A   1      37.537  30.407  30.583  1.00  0.00     0.031 C 
ATOM     57  C   UNL A   1      44.141  28.458  30.094  1.00  0.00     0.029 A 
ATOM     58  C   UNL A   1      43.908  29.708  30.812  1.00  0.00     0.049 A 
ATOM     59  H   UNL A   1      42.069  30.578  31.266  1.00  0.00     0.167 HD
ATOM     60  C   UNL A   1      38.119  32.434  31.888  1.00  0.00     0.034 A 
ATOM     61  C   UNL A   1      44.866  30.516  31.311  1.00  0.00     0.034 A 
ATOM     62  C   UNL A   1      39.067  33.312  32.529  1.00  0.00     0.049 A 
ATOM     63  C   UNL A   1      44.453  31.789  32.009  1.00  0.00     0.074 A 
ATOM     64  C   UNL A   1      38.821  34.458  33.263  1.00  0.00     0.029 A 
ATOM     65  N   UNL A   1      40.447  33.143  32.509  1.00  0.00    -0.354 N 
ATOM     66  N   UNL A   1      43.247  32.272  32.203  1.00  0.00    -0.248 NA
ATOM     67  C   UNL A   1      45.530  32.623  32.560  1.00  0.00     0.031 C 
ATOM     68  C   UNL A   1      40.050  35.020  33.624  1.00  0.00     0.029 A 
ATOM     69  C   UNL A   1      41.063  34.178  33.194  1.00  0.00     0.049 A 
ATOM     70  H   UNL A   1      40.917  32.397  32.071  1.00  0.00     0.167 HD
ATOM     71  C   UNL A   1      43.421  33.442  32.939  1.00  0.00     0.074 A 
ATOM     72  C   UNL A   1      44.845  33.591  33.153  1.00  0.00     0.031 C 
ATOM     73  C   UNL A   1      42.486  34.309  33.406  1.00  0.00     0.034 A 
BRANCH  60  74
ATOM     74  C   UNL A   1      36.651  32.788  31.925  1.00  0.00     0.023 A 
ATOM     75  C   UNL A   1      36.015  33.412  30.837  1.00  0.00     0.031 A 
ATOM     76  C   UNL A   1      35.885  32.535  33.076  1.00  0.00     0.131 A 
ATOM     77  C   UNL A   1      34.684  33.840  30.954  1.00  0.00     0.055 A 
ATOM     78  C   UNL A   1      34.534  32.879  33.152  1.00  0.00     0.041 A 
ATOM     79  F   UNL A   1      36.440  31.963  34.155  1.00  0.00    -0.206 F 
ATOM     80  C   UNL A   1      33.930  33.553  32.094  1.00  0.00     0.022 A 
BRANCH  77  81
ATOM     81  S   UNL A   1      34.007  34.919  29.663  1.00  0.00     0.124 S 
ATOM     82  O   UNL A   1      35.115  34.969  28.712  1.00  0.00    -0.237 OA
ATOM     83  O   UNL A   1      32.824  34.186  29.227  1.00  0.00    -0.237 OA
ATOM     84  O   UNL A   1      33.742  36.172  30.367  1.00  0.00    -0.744 OA
ENDBRANCH  77  81
ENDBRANCH  60  74
BRANCH  61  85
ATOM     85  C   UNL A   1      46.308  30.163  31.164  1.00  0.00     0.023 A 
ATOM     86  C   UNL A   1      46.982  29.450  32.167  1.00  0.00     0.031 A 
ATOM     87  C   UNL A   1      47.046  30.570  30.038  1.00  0.00     0.131 A 
ATOM     88  C   UNL A   1      48.361  29.214  32.054  1.00  0.00     0.055 A 
ATOM     89  C   UNL A   1      48.405  30.282  29.902  1.00  0.00     0.041 A 
ATOM     90  F   UNL A   1      46.452  31.251  29.045  1.00  0.00    -0.206 F 
ATOM     91  C   UNL A   1      49.074  29.612  30.922  1.00  0.00     0.022 A 
BRANCH  88  92
ATOM     92  S   UNL A   1      49.230  28.458  33.456  1.00  0.00     0.124 S 
ATOM     93  O   UNL A   1      48.639  27.125  33.485  1.00  0.00    -0.237 OA
ATOM     94  O   UNL A   1      50.622  28.535  33.026  1.00  0.00    -0.237 OA
ATOM     95  O   UNL A   1      48.878  29.323  34.580  1.00  0.00    -0.744 OA
ENDBRANCH  88  92
ENDBRANCH  61  85
BRANCH  73  96
ATOM     96  C   UNL A   1      42.967  35.454  34.263  1.00  0.00     0.023 A 
ATOM     97  C   UNL A   1      43.211  36.734  33.736  1.00  0.00     0.031 A 
ATOM     98  C   UNL A   1      43.161  35.259  35.643  1.00  0.00     0.131 A 
ATOM     99  C   UNL A   1      43.675  37.758  34.577  1.00  0.00     0.055 A 
ATOM    100  C   UNL A   1      43.564  36.295  36.484  1.00  0.00     0.041 A 
ATOM    101  F   UNL A   1      42.944  34.055  36.198  1.00  0.00    -0.206 F 
ATOM    102  C   UNL A   1      43.835  37.551  35.949  1.00  0.00     0.022 A 
BRANCH  99 103
ATOM    103  S   UNL A   1      44.140  39.349  33.842  1.00  0.00     0.124 S 
ATOM    104  O   UNL A   1      44.842  38.932  32.632  1.00  0.00    -0.237 OA
ATOM    105  O   UNL A   1      42.845  39.990  33.637  1.00  0.00    -0.237 OA
ATOM    106  O   UNL A   1      44.980  39.968  34.865  1.00  0.00    -0.744 OA
ENDBRANCH  99 103
ENDBRANCH  73  96
ENDBRANCH  47  48
ENDBRANCH  39  42
ENDBRANCH  37  38
ENDBRANCH  36  37
ENDBRANCH  35  36
ENDBRANCH  34  35
ENDBRANCH  33  34
ENDBRANCH   1  33
TORSDOF 25
ENDMDL
