MODEL 1
REMARK VINA RESULT:     -10.6      0.000      0.000
REMARK SMILES COc1ccc(C(=O)C2=C(NCCCCCCNC(=O)c3ccc(-c4c5nc(c(-c6cc(S(=O)(=O)[O-])ccc6F)c6ccc([nH]6)c(-c6cc(S(=O)(=O)[O-])ccc6F)c6nc(c(-c7cc(S(=O)(=O)[O-])ccc7F)c7ccc4[nH]7)C=C6)C=C5)cc3)C(=O)N(CCC(=O)[O-])[C@H]2c2ccccc2F)cc1
REMARK SMILES IDX 14 1 13 2 12 3 11 4 10 6 9 7 92 8 84 9 86 10 85 11 7 12 8 13
REMARK SMILES IDX 6 14 3 15 4 16 101 17 5 18 100 19 2 20 1 21 93 22 94 23
REMARK SMILES IDX 98 24 95 25 97 26 99 27 96 28 87 29 88 30 89 31 90 32 91 33
REMARK SMILES IDX 15 34 16 35 17 36 18 37 19 38 20 40 21 41 22 42 83 43 23 44
REMARK SMILES IDX 82 45 24 46 25 47 26 48 76 49 27 50 81 51 75 52 77 53 28 54
REMARK SMILES IDX 80 55 74 56 73 57 29 59 61 60 41 61 60 62 42 63 45 64 59 65
REMARK SMILES IDX 78 66 43 67 44 68 58 70 79 71 46 72 30 73 31 74 39 75 32 76
REMARK SMILES IDX 38 77 40 78 37 79 33 80 34 81 35 82 36 83 62 84 63 85 71 86
REMARK SMILES IDX 64 87 70 88 72 89 69 90 65 91 66 92 67 93 68 94 47 95 48 96
REMARK SMILES IDX 56 97 49 98 55 99 57 100 54 101 50 102 51 103 52 104 53 105
REMARK H PARENT 11 5 18 39 77 58 45 69
REMARK Flexibility Score: inf
ROOT
ATOM      1  C   UNL A   1      40.513  22.484  26.635  1.00  0.00     0.002 C 
ENDROOT
BRANCH   1   2
ATOM      2  C   UNL A   1      38.992  22.291  26.566  1.00  0.00     0.021 C 
BRANCH   2   3
ATOM      3  C   UNL A   1      38.297  23.125  25.491  1.00  0.00     0.113 C 
BRANCH   3   4
ATOM      4  N   UNL A   1      37.599  22.245  24.585  1.00  0.00    -0.380 N 
ATOM      5  H   UNL A   1      38.165  21.822  23.900  1.00  0.00     0.160 HD
BRANCH   4   6
ATOM      6  C   UNL A   1      36.277  21.907  24.528  1.00  0.00     0.110 C 
ATOM      7  C   UNL A   1      35.131  22.506  24.190  1.00  0.00     0.056 C 
ATOM      8  C   UNL A   1      33.923  21.618  24.242  1.00  0.00     0.155 C 
ATOM      9  C   UNL A   1      35.880  20.503  24.876  1.00  0.00     0.271 C 
ATOM     10  N   UNL A   1      34.540  20.353  24.588  1.00  0.00    -0.326 N 
ATOM     11  O   UNL A   1      36.650  19.669  25.320  1.00  0.00    -0.267 OA
BRANCH   7  12
ATOM     12  C   UNL A   1      35.056  23.867  23.637  1.00  0.00     0.193 C 
ATOM     13  O   UNL A   1      35.791  24.181  22.706  1.00  0.00    -0.289 OA
BRANCH  12  14
ATOM     14  C   UNL A   1      34.065  24.836  24.195  1.00  0.00     0.023 A 
ATOM     15  C   UNL A   1      32.387  26.861  25.213  1.00  0.00     0.118 A 
ATOM     16  C   UNL A   1      33.429  26.346  25.987  1.00  0.00     0.047 A 
ATOM     17  C   UNL A   1      32.150  26.317  23.954  1.00  0.00     0.047 A 
ATOM     18  C   UNL A   1      34.270  25.347  25.481  1.00  0.00     0.016 A 
ATOM     19  C   UNL A   1      32.959  25.285  23.469  1.00  0.00     0.016 A 
BRANCH  15  20
ATOM     20  O   UNL A   1      31.684  27.884  25.784  1.00  0.00    -0.497 OA
ATOM     21  C   UNL A   1      31.572  29.084  25.027  1.00  0.00     0.278 C 
ENDBRANCH  15  20
ENDBRANCH  12  14
ENDBRANCH   7  12
BRANCH   8  22
ATOM     22  C   UNL A   1      32.905  22.039  25.288  1.00  0.00     0.015 A 
ATOM     23  C   UNL A   1      33.228  22.128  26.657  1.00  0.00     0.009 A 
ATOM     24  C   UNL A   1      31.619  22.412  24.893  1.00  0.00     0.128 A 
ATOM     25  C   UNL A   1      32.302  22.617  27.582  1.00  0.00     0.001 A 
ATOM     26  C   UNL A   1      30.686  22.885  25.813  1.00  0.00     0.039 A 
ATOM     27  F   UNL A   1      31.266  22.322  23.604  1.00  0.00    -0.207 F 
ATOM     28  C   UNL A   1      31.032  22.999  27.158  1.00  0.00     0.003 A 
ENDBRANCH   8  22
BRANCH  10  29
ATOM     29  C   UNL A   1      33.802  19.101  24.700  1.00  0.00     0.127 C 
BRANCH  29  30
ATOM     30  C   UNL A   1      32.594  19.024  23.776  1.00  0.00     0.074 C 
BRANCH  30  31
ATOM     31  C   UNL A   1      32.792  17.952  22.747  1.00  0.00     0.043 C 
ATOM     32  O   UNL A   1      32.165  17.842  21.705  1.00  0.00    -0.550 OA
ATOM     33  O   UNL A   1      33.708  17.041  23.120  1.00  0.00    -0.550 OA
ENDBRANCH  30  31
ENDBRANCH  29  30
ENDBRANCH  10  29
ENDBRANCH   4   6
ENDBRANCH   3   4
ENDBRANCH   2   3
ENDBRANCH   1   2
BRANCH   1  34
ATOM     34  C   UNL A   1      41.213  21.726  27.767  1.00  0.00     0.002 C 
BRANCH  34  35
ATOM     35  C   UNL A   1      41.921  20.437  27.342  1.00  0.00     0.021 C 
BRANCH  35  36
ATOM     36  C   UNL A   1      41.756  20.073  25.870  1.00  0.00     0.116 C 
BRANCH  36  37
ATOM     37  N   UNL A   1      42.952  19.462  25.318  1.00  0.00    -0.352 N 
ATOM     38  C   UNL A   1      44.144  20.050  24.974  1.00  0.00     0.251 C 
ATOM     39  H   UNL A   1      42.902  18.490  25.168  1.00  0.00     0.163 HD
ATOM     40  O   UNL A   1      44.980  19.414  24.340  1.00  0.00    -0.269 OA
BRANCH  38  41
ATOM     41  C   UNL A   1      44.401  21.459  25.350  1.00  0.00     0.039 A 
ATOM     42  C   UNL A   1      43.950  22.477  24.507  1.00  0.00     0.014 A 
ATOM     43  C   UNL A   1      45.079  21.774  26.531  1.00  0.00     0.014 A 
ATOM     44  C   UNL A   1      44.126  23.812  24.878  1.00  0.00     0.010 A 
ATOM     45  C   UNL A   1      45.185  23.102  26.936  1.00  0.00     0.010 A 
ATOM     46  C   UNL A   1      44.713  24.136  26.113  1.00  0.00    -0.014 A 
BRANCH  46  47
ATOM     47  C   UNL A   1      44.845  25.550  26.555  1.00  0.00     0.031 A 
ATOM     48  C   UNL A   1      46.178  26.244  26.477  1.00  0.00     0.074 A 
ATOM     49  C   UNL A   1      43.778  26.189  27.076  1.00  0.00     0.049 A 
ATOM     50  N   UNL A   1      46.509  27.448  26.870  1.00  0.00    -0.248 NA
ATOM     51  C   UNL A   1      47.293  25.470  25.910  1.00  0.00     0.031 C 
ATOM     52  C   UNL A   1      42.442  25.609  27.234  1.00  0.00     0.029 A 
ATOM     53  N   UNL A   1      43.647  27.461  27.573  1.00  0.00    -0.354 N 
ATOM     54  C   UNL A   1      47.871  27.571  26.612  1.00  0.00     0.074 A 
ATOM     55  C   UNL A   1      48.312  26.295  26.086  1.00  0.00     0.031 C 
ATOM     56  C   UNL A   1      41.621  26.533  27.759  1.00  0.00     0.029 A 
ATOM     57  C   UNL A   1      42.380  27.752  28.025  1.00  0.00     0.049 A 
ATOM     58  H   UNL A   1      44.390  28.106  27.605  1.00  0.00     0.167 HD
ATOM     59  C   UNL A   1      48.672  28.653  26.777  1.00  0.00     0.034 A 
ATOM     60  C   UNL A   1      41.887  28.868  28.599  1.00  0.00     0.034 A 
ATOM     61  C   UNL A   1      48.210  29.920  27.291  1.00  0.00     0.049 A 
ATOM     62  C   UNL A   1      42.807  30.045  28.807  1.00  0.00     0.074 A 
ATOM     63  C   UNL A   1      48.919  31.098  27.441  1.00  0.00     0.029 A 
ATOM     64  N   UNL A   1      46.924  30.172  27.754  1.00  0.00    -0.354 N 
ATOM     65  N   UNL A   1      44.080  30.164  28.506  1.00  0.00    -0.248 NA
ATOM     66  C   UNL A   1      42.220  31.241  29.426  1.00  0.00     0.031 C 
ATOM     67  C   UNL A   1      48.090  32.034  28.068  1.00  0.00     0.029 A 
ATOM     68  C   UNL A   1      46.833  31.473  28.227  1.00  0.00     0.049 A 
ATOM     69  H   UNL A   1      46.185  29.521  27.747  1.00  0.00     0.167 HD
ATOM     70  C   UNL A   1      44.435  31.462  28.866  1.00  0.00     0.074 A 
ATOM     71  C   UNL A   1      43.238  32.087  29.393  1.00  0.00     0.031 C 
ATOM     72  C   UNL A   1      45.638  32.083  28.763  1.00  0.00     0.034 A 
BRANCH  59  73
ATOM     73  C   UNL A   1      50.135  28.497  26.429  1.00  0.00     0.023 A 
ATOM     74  C   UNL A   1      50.604  28.633  25.109  1.00  0.00     0.031 A 
ATOM     75  C   UNL A   1      51.073  28.185  27.428  1.00  0.00     0.131 A 
ATOM     76  C   UNL A   1      51.951  28.377  24.814  1.00  0.00     0.055 A 
ATOM     77  C   UNL A   1      52.430  28.019  27.140  1.00  0.00     0.041 A 
ATOM     78  F   UNL A   1      50.686  28.020  28.703  1.00  0.00    -0.206 F 
ATOM     79  C   UNL A   1      52.873  28.098  25.824  1.00  0.00     0.022 A 
BRANCH  76  80
ATOM     80  S   UNL A   1      52.448  28.259  23.073  1.00  0.00     0.124 S 
ATOM     81  O   UNL A   1      52.894  26.870  22.987  1.00  0.00    -0.237 OA
ATOM     82  O   UNL A   1      51.211  28.576  22.368  1.00  0.00    -0.237 OA
ATOM     83  O   UNL A   1      53.511  29.254  22.951  1.00  0.00    -0.744 OA
ENDBRANCH  76  80
ENDBRANCH  59  73
BRANCH  60  84
ATOM     84  C   UNL A   1      40.459  28.934  29.026  1.00  0.00     0.023 A 
ATOM     85  C   UNL A   1      40.104  28.803  30.378  1.00  0.00     0.031 A 
ATOM     86  C   UNL A   1      39.425  29.083  28.084  1.00  0.00     0.131 A 
ATOM     87  C   UNL A   1      38.750  28.774  30.746  1.00  0.00     0.055 A 
ATOM     88  C   UNL A   1      38.081  29.113  28.463  1.00  0.00     0.041 A 
ATOM     89  F   UNL A   1      39.708  29.214  26.779  1.00  0.00    -0.206 F 
ATOM     90  C   UNL A   1      37.736  28.943  29.800  1.00  0.00     0.022 A 
BRANCH  87  91
ATOM     91  S   UNL A   1      38.328  28.416  32.474  1.00  0.00     0.124 S 
ATOM     92  O   UNL A   1      39.461  29.000  33.183  1.00  0.00    -0.237 OA
ATOM     93  O   UNL A   1      37.051  29.106  32.624  1.00  0.00    -0.237 OA
ATOM     94  O   UNL A   1      38.253  26.957  32.510  1.00  0.00    -0.744 OA
ENDBRANCH  87  91
ENDBRANCH  60  84
BRANCH  72  95
ATOM     95  C   UNL A   1      45.704  33.532  29.186  1.00  0.00     0.023 A 
ATOM     96  C   UNL A   1      45.409  34.580  28.298  1.00  0.00     0.031 A 
ATOM     97  C   UNL A   1      46.079  33.865  30.500  1.00  0.00     0.131 A 
ATOM     98  C   UNL A   1      45.551  35.913  28.717  1.00  0.00     0.055 A 
ATOM     99  C   UNL A   1      46.153  35.190  30.931  1.00  0.00     0.041 A 
ATOM    100  F   UNL A   1      46.377  32.905  31.391  1.00  0.00    -0.206 F 
ATOM    101  C   UNL A   1      45.902  36.223  30.033  1.00  0.00     0.022 A 
BRANCH  98 102
ATOM    102  S   UNL A   1      45.368  37.236  27.491  1.00  0.00     0.124 S 
ATOM    103  O   UNL A   1      45.568  38.432  28.304  1.00  0.00    -0.237 OA
ATOM    104  O   UNL A   1      46.429  36.929  26.537  1.00  0.00    -0.237 OA
ATOM    105  O   UNL A   1      44.008  37.051  26.986  1.00  0.00    -0.744 OA
ENDBRANCH  98 102
ENDBRANCH  72  95
ENDBRANCH  46  47
ENDBRANCH  38  41
ENDBRANCH  36  37
ENDBRANCH  35  36
ENDBRANCH  34  35
ENDBRANCH   1  34
TORSDOF 23
ENDMDL
MODEL 2
REMARK VINA RESULT:     -10.5      2.299      8.446
REMARK SMILES COc1ccc(C(=O)C2=C(NCCCCCCNC(=O)c3ccc(-c4c5nc(c(-c6cc(S(=O)(=O)[O-])ccc6F)c6ccc([nH]6)c(-c6cc(S(=O)(=O)[O-])ccc6F)c6nc(c(-c7cc(S(=O)(=O)[O-])ccc7F)c7ccc4[nH]7)C=C6)C=C5)cc3)C(=O)N(CCC(=O)[O-])[C@H]2c2ccccc2F)cc1
REMARK SMILES IDX 14 1 13 2 12 3 11 4 10 6 9 7 92 8 84 9 86 10 85 11 7 12 8 13
REMARK SMILES IDX 6 14 3 15 4 16 101 17 5 18 100 19 2 20 1 21 93 22 94 23
REMARK SMILES IDX 98 24 95 25 97 26 99 27 96 28 87 29 88 30 89 31 90 32 91 33
REMARK SMILES IDX 15 34 16 35 17 36 18 37 19 38 20 40 21 41 22 42 83 43 23 44
REMARK SMILES IDX 82 45 24 46 25 47 26 48 76 49 27 50 81 51 75 52 77 53 28 54
REMARK SMILES IDX 80 55 74 56 73 57 29 59 61 60 41 61 60 62 42 63 45 64 59 65
REMARK SMILES IDX 78 66 43 67 44 68 58 70 79 71 46 72 30 73 31 74 39 75 32 76
REMARK SMILES IDX 38 77 40 78 37 79 33 80 34 81 35 82 36 83 62 84 63 85 71 86
REMARK SMILES IDX 64 87 70 88 72 89 69 90 65 91 66 92 67 93 68 94 47 95 48 96
REMARK SMILES IDX 56 97 49 98 55 99 57 100 54 101 50 102 51 103 52 104 53 105
REMARK H PARENT 11 5 18 39 77 58 45 69
REMARK Flexibility Score: inf
ROOT
ATOM      1  C   UNL A   1      35.566  21.874  24.352  1.00  0.00     0.002 C 
ENDROOT
BRANCH   1   2
ATOM      2  C   UNL A   1      36.264  23.225  24.560  1.00  0.00     0.021 C 
BRANCH   2   3
ATOM      3  C   UNL A   1      35.494  24.206  25.442  1.00  0.00     0.113 C 
BRANCH   3   4
ATOM      4  N   UNL A   1      34.712  25.084  24.607  1.00  0.00    -0.380 N 
ATOM      5  H   UNL A   1      35.135  25.330  23.753  1.00  0.00     0.160 HD
BRANCH   4   6
ATOM      6  C   UNL A   1      33.475  25.627  24.814  1.00  0.00     0.110 C 
ATOM      7  C   UNL A   1      32.245  25.470  24.314  1.00  0.00     0.056 C 
ATOM      8  C   UNL A   1      31.190  26.305  24.978  1.00  0.00     0.155 C 
ATOM      9  C   UNL A   1      33.316  26.660  25.889  1.00  0.00     0.271 C 
ATOM     10  N   UNL A   1      31.972  26.936  26.024  1.00  0.00    -0.326 N 
ATOM     11  O   UNL A   1      34.246  27.134  26.519  1.00  0.00    -0.267 OA
BRANCH   7  12
ATOM     12  C   UNL A   1      31.894  24.442  23.322  1.00  0.00     0.193 C 
ATOM     13  O   UNL A   1      31.594  24.782  22.182  1.00  0.00    -0.289 OA
BRANCH  12  14
ATOM     14  C   UNL A   1      31.940  22.999  23.708  1.00  0.00     0.023 A 
ATOM     15  C   UNL A   1      32.298  20.287  24.392  1.00  0.00     0.118 A 
ATOM     16  C   UNL A   1      32.341  20.694  23.057  1.00  0.00     0.047 A 
ATOM     17  C   UNL A   1      32.015  21.230  25.376  1.00  0.00     0.047 A 
ATOM     18  C   UNL A   1      32.172  22.042  22.714  1.00  0.00     0.016 A 
ATOM     19  C   UNL A   1      31.798  22.567  25.028  1.00  0.00     0.016 A 
BRANCH  15  20
ATOM     20  O   UNL A   1      32.552  18.962  24.608  1.00  0.00    -0.497 OA
ATOM     21  C   UNL A   1      32.577  18.121  23.461  1.00  0.00     0.278 C 
ENDBRANCH  15  20
ENDBRANCH  12  14
ENDBRANCH   7  12
BRANCH   8  22
ATOM     22  C   UNL A   1      30.566  27.338  24.057  1.00  0.00     0.015 A 
ATOM     23  C   UNL A   1      31.342  28.277  23.346  1.00  0.00     0.009 A 
ATOM     24  C   UNL A   1      29.186  27.337  23.847  1.00  0.00     0.128 A 
ATOM     25  C   UNL A   1      30.750  29.147  22.428  1.00  0.00     0.001 A 
ATOM     26  C   UNL A   1      28.588  28.213  22.945  1.00  0.00     0.039 A 
ATOM     27  F   UNL A   1      28.411  26.474  24.519  1.00  0.00    -0.207 F 
ATOM     28  C   UNL A   1      29.373  29.112  22.225  1.00  0.00     0.003 A 
ENDBRANCH   8  22
BRANCH  10  29
ATOM     29  C   UNL A   1      31.402  27.820  27.032  1.00  0.00     0.127 C 
BRANCH  29  30
ATOM     30  C   UNL A   1      32.251  29.054  27.308  1.00  0.00     0.074 C 
BRANCH  30  31
ATOM     31  C   UNL A   1      32.152  30.021  26.166  1.00  0.00     0.043 C 
ATOM     32  O   UNL A   1      31.136  30.598  25.810  1.00  0.00    -0.550 OA
ATOM     33  O   UNL A   1      33.310  30.149  25.496  1.00  0.00    -0.550 OA
ENDBRANCH  30  31
ENDBRANCH  29  30
ENDBRANCH  10  29
ENDBRANCH   4   6
ENDBRANCH   3   4
ENDBRANCH   2   3
ENDBRANCH   1   2
BRANCH   1  34
ATOM     34  C   UNL A   1      36.059  20.742  25.259  1.00  0.00     0.002 C 
BRANCH  34  35
ATOM     35  C   UNL A   1      37.415  20.147  24.873  1.00  0.00     0.021 C 
BRANCH  35  36
ATOM     36  C   UNL A   1      38.621  20.871  25.463  1.00  0.00     0.116 C 
BRANCH  36  37
ATOM     37  N   UNL A   1      39.612  19.949  25.988  1.00  0.00    -0.352 N 
ATOM     38  C   UNL A   1      40.842  20.221  26.536  1.00  0.00     0.251 C 
ATOM     39  H   UNL A   1      39.369  18.995  25.946  1.00  0.00     0.163 HD
ATOM     40  O   UNL A   1      41.631  19.306  26.751  1.00  0.00    -0.269 OA
BRANCH  38  41
ATOM     41  C   UNL A   1      41.217  21.620  26.838  1.00  0.00     0.039 A 
ATOM     42  C   UNL A   1      41.632  21.945  28.131  1.00  0.00     0.014 A 
ATOM     43  C   UNL A   1      41.165  22.606  25.848  1.00  0.00     0.014 A 
ATOM     44  C   UNL A   1      42.052  23.246  28.416  1.00  0.00     0.010 A 
ATOM     45  C   UNL A   1      41.657  23.882  26.114  1.00  0.00     0.010 A 
ATOM     46  C   UNL A   1      42.102  24.217  27.402  1.00  0.00    -0.014 A 
BRANCH  46  47
ATOM     47  C   UNL A   1      42.612  25.588  27.672  1.00  0.00     0.031 A 
ATOM     48  C   UNL A   1      41.718  26.613  28.315  1.00  0.00     0.074 A 
ATOM     49  C   UNL A   1      43.861  25.923  27.289  1.00  0.00     0.049 A 
ATOM     50  N   UNL A   1      41.957  27.874  28.576  1.00  0.00    -0.248 NA
ATOM     51  C   UNL A   1      40.367  26.169  28.688  1.00  0.00     0.031 C 
ATOM     52  C   UNL A   1      44.810  25.025  26.626  1.00  0.00     0.029 A 
ATOM     53  N   UNL A   1      44.547  27.107  27.396  1.00  0.00    -0.354 N 
ATOM     54  C   UNL A   1      40.783  28.377  29.128  1.00  0.00     0.074 A 
ATOM     55  C   UNL A   1      39.816  27.298  29.106  1.00  0.00     0.031 C 
ATOM     56  C   UNL A   1      45.962  25.680  26.416  1.00  0.00     0.029 A 
ATOM     57  C   UNL A   1      45.821  27.058  26.878  1.00  0.00     0.049 A 
ATOM     58  H   UNL A   1      44.162  27.917  27.803  1.00  0.00     0.167 HD
ATOM     59  C   UNL A   1      40.541  29.615  29.625  1.00  0.00     0.034 A 
ATOM     60  C   UNL A   1      46.764  28.015  26.776  1.00  0.00     0.034 A 
ATOM     61  C   UNL A   1      41.522  30.674  29.648  1.00  0.00     0.049 A 
ATOM     62  C   UNL A   1      46.459  29.396  27.302  1.00  0.00     0.074 A 
ATOM     63  C   UNL A   1      41.405  31.944  30.184  1.00  0.00     0.029 A 
ATOM     64  N   UNL A   1      42.796  30.593  29.100  1.00  0.00    -0.354 N 
ATOM     65  N   UNL A   1      45.361  29.840  27.872  1.00  0.00    -0.248 NA
ATOM     66  C   UNL A   1      47.522  30.401  27.178  1.00  0.00     0.031 C 
ATOM     67  C   UNL A   1      42.572  32.655  29.889  1.00  0.00     0.029 A 
ATOM     68  C   UNL A   1      43.458  31.803  29.249  1.00  0.00     0.049 A 
ATOM     69  H   UNL A   1      43.174  29.792  28.669  1.00  0.00     0.167 HD
ATOM     70  C   UNL A   1      45.619  31.168  28.207  1.00  0.00     0.074 A 
ATOM     71  C   UNL A   1      46.978  31.444  27.787  1.00  0.00     0.031 C 
ATOM     72  C   UNL A   1      44.809  32.073  28.814  1.00  0.00     0.034 A 
BRANCH  59  73
ATOM     73  C   UNL A   1      39.152  29.897  30.152  1.00  0.00     0.023 A 
ATOM     74  C   UNL A   1      38.206  30.621  29.403  1.00  0.00     0.031 A 
ATOM     75  C   UNL A   1      38.775  29.457  31.432  1.00  0.00     0.131 A 
ATOM     76  C   UNL A   1      36.967  30.951  29.971  1.00  0.00     0.055 A 
ATOM     77  C   UNL A   1      37.506  29.713  31.957  1.00  0.00     0.041 A 
ATOM     78  F   UNL A   1      39.640  28.780  32.206  1.00  0.00    -0.206 F 
ATOM     79  C   UNL A   1      36.600  30.479  31.232  1.00  0.00     0.022 A 
BRANCH  76  80
ATOM     80  S   UNL A   1      35.905  32.138  29.102  1.00  0.00     0.124 S 
ATOM     81  O   UNL A   1      34.640  31.978  29.813  1.00  0.00    -0.237 OA
ATOM     82  O   UNL A   1      36.602  33.401  29.315  1.00  0.00    -0.237 OA
ATOM     83  O   UNL A   1      35.902  31.651  27.724  1.00  0.00    -0.744 OA
ENDBRANCH  76  80
ENDBRANCH  59  73
BRANCH  60  84
ATOM     84  C   UNL A   1      48.084  27.717  26.147  1.00  0.00     0.023 A 
ATOM     85  C   UNL A   1      48.243  27.751  24.753  1.00  0.00     0.031 A 
ATOM     86  C   UNL A   1      49.194  27.348  26.929  1.00  0.00     0.131 A 
ATOM     87  C   UNL A   1      49.467  27.375  24.179  1.00  0.00     0.055 A 
ATOM     88  C   UNL A   1      50.427  27.032  26.354  1.00  0.00     0.041 A 
ATOM     89  F   UNL A   1      49.098  27.301  28.267  1.00  0.00    -0.206 F 
ATOM     90  C   UNL A   1      50.565  27.030  24.970  1.00  0.00     0.022 A 
BRANCH  87  91
ATOM     91  S   UNL A   1      49.576  27.252  22.372  1.00  0.00     0.124 S 
ATOM     92  O   UNL A   1      50.989  26.945  22.180  1.00  0.00    -0.237 OA
ATOM     93  O   UNL A   1      48.639  26.171  22.084  1.00  0.00    -0.237 OA
ATOM     94  O   UNL A   1      49.156  28.575  21.915  1.00  0.00    -0.744 OA
ENDBRANCH  87  91
ENDBRANCH  60  84
BRANCH  72  95
ATOM     95  C   UNL A   1      45.394  33.436  29.103  1.00  0.00     0.023 A 
ATOM     96  C   UNL A   1      45.281  34.501  28.193  1.00  0.00     0.031 A 
ATOM     97  C   UNL A   1      46.085  33.665  30.306  1.00  0.00     0.131 A 
ATOM     98  C   UNL A   1      45.900  35.729  28.475  1.00  0.00     0.055 A 
ATOM     99  C   UNL A   1      46.641  34.908  30.611  1.00  0.00     0.041 A 
ATOM    100  F   UNL A   1      46.229  32.682  31.211  1.00  0.00    -0.206 F 
ATOM    101  C   UNL A   1      46.562  35.944  29.686  1.00  0.00     0.022 A 
BRANCH  98 102
ATOM    102  S   UNL A   1      45.916  37.012  27.193  1.00  0.00     0.124 S 
ATOM    103  O   UNL A   1      46.712  38.061  27.823  1.00  0.00    -0.237 OA
ATOM    104  O   UNL A   1      46.543  36.324  26.069  1.00  0.00    -0.237 OA
ATOM    105  O   UNL A   1      44.501  37.333  27.012  1.00  0.00    -0.744 OA
ENDBRANCH  98 102
ENDBRANCH  72  95
ENDBRANCH  46  47
ENDBRANCH  38  41
ENDBRANCH  36  37
ENDBRANCH  35  36
ENDBRANCH  34  35
ENDBRANCH   1  34
TORSDOF 23
ENDMDL
MODEL 3
REMARK VINA RESULT:     -10.1      2.264      8.561
REMARK SMILES COc1ccc(C(=O)C2=C(NCCCCCCNC(=O)c3ccc(-c4c5nc(c(-c6cc(S(=O)(=O)[O-])ccc6F)c6ccc([nH]6)c(-c6cc(S(=O)(=O)[O-])ccc6F)c6nc(c(-c7cc(S(=O)(=O)[O-])ccc7F)c7ccc4[nH]7)C=C6)C=C5)cc3)C(=O)N(CCC(=O)[O-])[C@H]2c2ccccc2F)cc1
REMARK SMILES IDX 14 1 13 2 12 3 11 4 10 6 9 7 92 8 84 9 86 10 85 11 7 12 8 13
REMARK SMILES IDX 6 14 3 15 4 16 101 17 5 18 100 19 2 20 1 21 93 22 94 23
REMARK SMILES IDX 98 24 95 25 97 26 99 27 96 28 87 29 88 30 89 31 90 32 91 33
REMARK SMILES IDX 15 34 16 35 17 36 18 37 19 38 20 40 21 41 22 42 83 43 23 44
REMARK SMILES IDX 82 45 24 46 25 47 26 48 76 49 27 50 81 51 75 52 77 53 28 54
REMARK SMILES IDX 80 55 74 56 73 57 29 59 61 60 41 61 60 62 42 63 45 64 59 65
REMARK SMILES IDX 78 66 43 67 44 68 58 70 79 71 46 72 30 73 31 74 39 75 32 76
REMARK SMILES IDX 38 77 40 78 37 79 33 80 34 81 35 82 36 83 62 84 63 85 71 86
REMARK SMILES IDX 64 87 70 88 72 89 69 90 65 91 66 92 67 93 68 94 47 95 48 96
REMARK SMILES IDX 56 97 49 98 55 99 57 100 54 101 50 102 51 103 52 104 53 105
REMARK H PARENT 11 5 18 39 77 58 45 69
REMARK Flexibility Score: inf
ROOT
ATOM      1  C   UNL A   1      35.904  21.421  24.155  1.00  0.00     0.002 C 
ENDROOT
BRANCH   1   2
ATOM      2  C   UNL A   1      36.279  22.792  23.578  1.00  0.00     0.021 C 
BRANCH   2   3
ATOM      3  C   UNL A   1      35.095  23.728  23.346  1.00  0.00     0.113 C 
BRANCH   3   4
ATOM      4  N   UNL A   1      34.461  24.015  24.609  1.00  0.00    -0.380 N 
ATOM      5  H   UNL A   1      34.887  23.596  25.392  1.00  0.00     0.160 HD
BRANCH   4   6
ATOM      6  C   UNL A   1      33.363  24.777  24.892  1.00  0.00     0.110 C 
ATOM      7  C   UNL A   1      32.062  24.764  24.585  1.00  0.00     0.056 C 
ATOM      8  C   UNL A   1      31.253  25.838  25.251  1.00  0.00     0.155 C 
ATOM      9  C   UNL A   1      33.521  25.948  25.815  1.00  0.00     0.271 C 
ATOM     10  N   UNL A   1      32.268  26.457  26.081  1.00  0.00    -0.326 N 
ATOM     11  O   UNL A   1      34.595  26.337  26.242  1.00  0.00    -0.267 OA
BRANCH   7  12
ATOM     12  C   UNL A   1      31.419  23.693  23.810  1.00  0.00     0.193 C 
ATOM     13  O   UNL A   1      30.606  23.984  22.937  1.00  0.00    -0.289 OA
BRANCH  12  14
ATOM     14  C   UNL A   1      31.786  22.269  24.074  1.00  0.00     0.023 A 
ATOM     15  C   UNL A   1      32.739  19.650  24.503  1.00  0.00     0.118 A 
ATOM     16  C   UNL A   1      32.551  20.134  23.206  1.00  0.00     0.047 A 
ATOM     17  C   UNL A   1      32.391  20.458  25.580  1.00  0.00     0.047 A 
ATOM     18  C   UNL A   1      32.086  21.437  22.989  1.00  0.00     0.016 A 
ATOM     19  C   UNL A   1      31.881  21.742  25.363  1.00  0.00     0.016 A 
BRANCH  15  20
ATOM     20  O   UNL A   1      33.267  18.393  24.587  1.00  0.00    -0.497 OA
ATOM     21  C   UNL A   1      32.711  17.530  25.572  1.00  0.00     0.278 C 
ENDBRANCH  15  20
ENDBRANCH  12  14
ENDBRANCH   7  12
BRANCH   8  22
ATOM     22  C   UNL A   1      30.654  26.838  24.276  1.00  0.00     0.015 A 
ATOM     23  C   UNL A   1      31.453  27.630  23.427  1.00  0.00     0.009 A 
ATOM     24  C   UNL A   1      29.268  26.947  24.160  1.00  0.00     0.128 A 
ATOM     25  C   UNL A   1      30.872  28.465  22.470  1.00  0.00     0.001 A 
ATOM     26  C   UNL A   1      28.682  27.790  23.218  1.00  0.00     0.039 A 
ATOM     27  F   UNL A   1      28.473  26.227  24.963  1.00  0.00    -0.207 F 
ATOM     28  C   UNL A   1      29.487  28.541  22.363  1.00  0.00     0.003 A 
ENDBRANCH   8  22
BRANCH  10  29
ATOM     29  C   UNL A   1      31.992  27.543  27.014  1.00  0.00     0.127 C 
BRANCH  29  30
ATOM     30  C   UNL A   1      32.232  28.926  26.423  1.00  0.00     0.074 C 
BRANCH  30  31
ATOM     31  C   UNL A   1      33.305  29.641  27.190  1.00  0.00     0.043 C 
ATOM     32  O   UNL A   1      34.369  29.158  27.541  1.00  0.00    -0.550 OA
ATOM     33  O   UNL A   1      32.947  30.891  27.533  1.00  0.00    -0.550 OA
ENDBRANCH  30  31
ENDBRANCH  29  30
ENDBRANCH  10  29
ENDBRANCH   4   6
ENDBRANCH   3   4
ENDBRANCH   2   3
ENDBRANCH   1   2
BRANCH   1  34
ATOM     34  C   UNL A   1      36.705  20.992  25.387  1.00  0.00     0.002 C 
BRANCH  34  35
ATOM     35  C   UNL A   1      37.963  20.172  25.090  1.00  0.00     0.021 C 
BRANCH  35  36
ATOM     36  C   UNL A   1      39.203  20.601  25.868  1.00  0.00     0.116 C 
BRANCH  36  37
ATOM     37  N   UNL A   1      40.188  19.538  25.960  1.00  0.00    -0.352 N 
ATOM     38  C   UNL A   1      41.551  19.631  26.098  1.00  0.00     0.251 C 
ATOM     39  H   UNL A   1      39.829  18.622  25.918  1.00  0.00     0.163 HD
ATOM     40  O   UNL A   1      42.249  18.631  25.964  1.00  0.00    -0.269 OA
BRANCH  38  41
ATOM     41  C   UNL A   1      42.171  20.946  26.380  1.00  0.00     0.039 A 
ATOM     42  C   UNL A   1      42.479  21.792  25.313  1.00  0.00     0.014 A 
ATOM     43  C   UNL A   1      42.441  21.344  27.693  1.00  0.00     0.014 A 
ATOM     44  C   UNL A   1      43.003  23.061  25.565  1.00  0.00     0.010 A 
ATOM     45  C   UNL A   1      42.891  22.638  27.946  1.00  0.00     0.010 A 
ATOM     46  C   UNL A   1      43.180  23.509  26.885  1.00  0.00    -0.014 A 
BRANCH  46  47
ATOM     47  C   UNL A   1      43.672  24.884  27.173  1.00  0.00     0.031 A 
ATOM     48  C   UNL A   1      42.733  25.921  27.725  1.00  0.00     0.074 A 
ATOM     49  C   UNL A   1      44.948  25.209  26.885  1.00  0.00     0.049 A 
ATOM     50  N   UNL A   1      42.954  27.186  27.982  1.00  0.00    -0.248 NA
ATOM     51  C   UNL A   1      41.354  25.486  27.995  1.00  0.00     0.031 C 
ATOM     52  C   UNL A   1      45.944  24.298  26.316  1.00  0.00     0.029 A 
ATOM     53  N   UNL A   1      45.627  26.393  27.026  1.00  0.00    -0.354 N 
ATOM     54  C   UNL A   1      41.741  27.700  28.429  1.00  0.00     0.074 A 
ATOM     55  C   UNL A   1      40.776  26.624  28.348  1.00  0.00     0.031 C 
ATOM     56  C   UNL A   1      47.112  24.947  26.187  1.00  0.00     0.029 A 
ATOM     57  C   UNL A   1      46.939  26.333  26.614  1.00  0.00     0.049 A 
ATOM     58  H   UNL A   1      45.214  27.211  27.389  1.00  0.00     0.167 HD
ATOM     59  C   UNL A   1      41.464  28.947  28.885  1.00  0.00     0.034 A 
ATOM     60  C   UNL A   1      47.890  27.287  26.572  1.00  0.00     0.034 A 
ATOM     61  C   UNL A   1      42.444  30.004  28.969  1.00  0.00     0.049 A 
ATOM     62  C   UNL A   1      47.548  28.677  27.048  1.00  0.00     0.074 A 
ATOM     63  C   UNL A   1      42.289  31.284  29.472  1.00  0.00     0.029 A 
ATOM     64  N   UNL A   1      43.758  29.912  28.526  1.00  0.00    -0.354 N 
ATOM     65  N   UNL A   1      46.411  29.133  27.521  1.00  0.00    -0.248 NA
ATOM     66  C   UNL A   1      48.622  29.677  26.993  1.00  0.00     0.031 C 
ATOM     67  C   UNL A   1      43.478  31.987  29.260  1.00  0.00     0.029 A 
ATOM     68  C   UNL A   1      44.409  31.123  28.707  1.00  0.00     0.049 A 
ATOM     69  H   UNL A   1      44.166  29.103  28.140  1.00  0.00     0.167 HD
ATOM     70  C   UNL A   1      46.645  30.465  27.853  1.00  0.00     0.074 A 
ATOM     71  C   UNL A   1      48.034  30.731  27.539  1.00  0.00     0.031 C 
ATOM     72  C   UNL A   1      45.792  31.382  28.378  1.00  0.00     0.034 A 
BRANCH  59  73
ATOM     73  C   UNL A   1      40.039  29.241  29.294  1.00  0.00     0.023 A 
ATOM     74  C   UNL A   1      39.653  29.311  30.645  1.00  0.00     0.031 A 
ATOM     75  C   UNL A   1      39.045  29.429  28.318  1.00  0.00     0.131 A 
ATOM     76  C   UNL A   1      38.301  29.481  30.980  1.00  0.00     0.055 A 
ATOM     77  C   UNL A   1      37.715  29.687  28.660  1.00  0.00     0.041 A 
ATOM     78  F   UNL A   1      39.344  29.352  27.012  1.00  0.00    -0.206 F 
ATOM     79  C   UNL A   1      37.334  29.697  29.997  1.00  0.00     0.022 A 
BRANCH  76  80
ATOM     80  S   UNL A   1      37.804  29.258  32.710  1.00  0.00     0.124 S 
ATOM     81  O   UNL A   1      36.528  29.970  32.744  1.00  0.00    -0.237 OA
ATOM     82  O   UNL A   1      37.728  27.807  32.833  1.00  0.00    -0.237 OA
ATOM     83  O   UNL A   1      38.883  29.894  33.463  1.00  0.00    -0.744 OA
ENDBRANCH  76  80
ENDBRANCH  59  73
BRANCH  60  84
ATOM     84  C   UNL A   1      49.255  26.974  26.056  1.00  0.00     0.023 A 
ATOM     85  C   UNL A   1      49.659  27.400  24.780  1.00  0.00     0.031 A 
ATOM     86  C   UNL A   1      50.160  26.208  26.812  1.00  0.00     0.131 A 
ATOM     87  C   UNL A   1      50.912  27.014  24.278  1.00  0.00     0.055 A 
ATOM     88  C   UNL A   1      51.429  25.878  26.331  1.00  0.00     0.041 A 
ATOM     89  F   UNL A   1      49.827  25.777  28.039  1.00  0.00    -0.206 F 
ATOM     90  C   UNL A   1      51.806  26.269  25.051  1.00  0.00     0.022 A 
BRANCH  87  91
ATOM     91  S   UNL A   1      51.320  27.423  22.558  1.00  0.00     0.124 S 
ATOM     92  O   UNL A   1      51.185  28.875  22.559  1.00  0.00    -0.237 OA
ATOM     93  O   UNL A   1      52.679  26.904  22.438  1.00  0.00    -0.237 OA
ATOM     94  O   UNL A   1      50.310  26.702  21.788  1.00  0.00    -0.744 OA
ENDBRANCH  87  91
ENDBRANCH  60  84
BRANCH  72  95
ATOM     95  C   UNL A   1      46.357  32.748  28.690  1.00  0.00     0.023 A 
ATOM     96  C   UNL A   1      46.995  33.028  29.910  1.00  0.00     0.031 A 
ATOM     97  C   UNL A   1      46.243  33.789  27.751  1.00  0.00     0.131 A 
ATOM     98  C   UNL A   1      47.442  34.331  30.184  1.00  0.00     0.055 A 
ATOM     99  C   UNL A   1      46.750  35.065  27.999  1.00  0.00     0.041 A 
ATOM    100  F   UNL A   1      45.639  33.581  26.569  1.00  0.00    -0.206 F 
ATOM    101  C   UNL A   1      47.340  35.345  29.228  1.00  0.00     0.022 A 
BRANCH  98 102
ATOM    102  S   UNL A   1      48.067  34.708  31.843  1.00  0.00     0.124 S 
ATOM    103  O   UNL A   1      49.405  34.124  31.803  1.00  0.00    -0.237 OA
ATOM    104  O   UNL A   1      48.009  36.166  31.876  1.00  0.00    -0.237 OA
ATOM    105  O   UNL A   1      47.122  34.030  32.729  1.00  0.00    -0.744 OA
ENDBRANCH  98 102
ENDBRANCH  72  95
ENDBRANCH  46  47
ENDBRANCH  38  41
ENDBRANCH  36  37
ENDBRANCH  35  36
ENDBRANCH  34  35
ENDBRANCH   1  34
TORSDOF 23
ENDMDL
