MODEL 1
REMARK VINA RESULT:     -11.8      0.000      0.000
REMARK SMILES COc1ccc(N[C@]2(Br)C(=O)NC(=O)N[C@@H]2C(=O)NCCCCCCNC(=O)c2ccc(-c3c4nc(c(-c5cc(S(=O)(=O)[O-])ccc5F)c5ccc([nH]5)c(-c5cc(S(=O)(=O)[O-])ccc5F)c5nc(c(-c6cc(S(=O)(=O)[O-])ccc6F)c6ccc3[nH]6)C=C5)C=C4)cc2)cc1
REMARK SMILES IDX 22 1 21 2 20 3 19 4 17 5 18 6 16 8 8 9 10 10 9 11 11 12
REMARK SMILES IDX 12 13 15 14 13 15 14 18 7 19 6 21 3 22 4 23 93 24 5 25 92 26
REMARK SMILES IDX 2 27 1 28 23 29 24 30 25 31 26 32 27 33 28 35 29 36 30 37
REMARK SMILES IDX 91 38 31 39 90 40 32 41 33 42 34 43 84 44 35 45 89 46 83 47
REMARK SMILES IDX 85 48 36 49 88 50 82 51 81 52 37 54 69 55 49 56 68 57 50 58
REMARK SMILES IDX 53 59 67 60 86 61 51 62 52 63 66 65 87 66 54 67 38 68 39 69
REMARK SMILES IDX 47 70 40 71 46 72 48 73 45 74 41 75 42 76 43 77 44 78 70 79
REMARK SMILES IDX 71 80 79 81 72 82 78 83 80 84 77 85 73 86 74 87 75 88 76 89
REMARK SMILES IDX 55 90 56 91 64 92 57 93 63 94 65 95 62 96 58 97 59 98 60 99
REMARK SMILES IDX 61 100
REMARK H PARENT 19 7 12 16 15 17 7 20 26 34 85 53 53 64
REMARK Flexibility Score: inf
ROOT
ATOM      1  C   UNL A   1      32.847  29.955  27.071  1.00  0.00     0.002 C 
ENDROOT
BRANCH   1   2
ATOM      2  C   UNL A   1      33.724  29.228  26.043  1.00  0.00     0.021 C 
BRANCH   2   3
ATOM      3  C   UNL A   1      33.858  27.715  26.255  1.00  0.00     0.116 C 
BRANCH   3   4
ATOM      4  N   UNL A   1      32.904  26.977  25.441  1.00  0.00    -0.354 N 
ATOM      5  C   UNL A   1      33.081  25.644  25.171  1.00  0.00     0.246 C 
ATOM      6  O   UNL A   1      33.413  25.334  24.027  1.00  0.00    -0.273 OA
ATOM      7  H   UNL A   1      32.117  27.444  25.076  1.00  0.00     0.163 HD
BRANCH   5   8
ATOM      8  C   UNL A   1      32.832  24.598  26.285  1.00  0.00     0.219 C 
ATOM      9  C   UNL A   1      33.086  23.139  25.825  1.00  0.00     0.202 C 
ATOM     10  C   UNL A   1      31.790  22.390  25.442  1.00  0.00     0.267 C 
ATOM     11  Br  UNL A   1      33.638  22.136  27.499  1.00  0.00    -0.048 Br
ATOM     12  O   UNL A   1      31.763  21.262  24.943  1.00  0.00    -0.271 OA
ATOM     13  N   UNL A   1      30.598  23.007  25.727  1.00  0.00    -0.275 N 
ATOM     14  N   UNL A   1      31.523  24.741  26.929  1.00  0.00    -0.322 N 
ATOM     15  C   UNL A   1      30.414  24.074  26.541  1.00  0.00     0.322 C 
ATOM     16  H   UNL A   1      29.795  22.636  25.295  1.00  0.00     0.174 HD
ATOM     17  H   UNL A   1      31.447  25.361  27.689  1.00  0.00     0.166 HD
ATOM     18  O   UNL A   1      29.305  24.385  26.961  1.00  0.00    -0.248 OA
BRANCH   9  19
ATOM     19  N   UNL A   1      34.194  22.891  24.905  1.00  0.00    -0.360 N 
ATOM     20  H   UNL A   1      33.981  22.966  23.947  1.00  0.00     0.162 HD
BRANCH  19  21
ATOM     21  C   UNL A   1      35.500  22.564  25.209  1.00  0.00     0.036 A 
ATOM     22  C   UNL A   1      38.255  22.089  25.666  1.00  0.00     0.119 A 
ATOM     23  C   UNL A   1      37.420  21.056  25.257  1.00  0.00     0.048 A 
ATOM     24  C   UNL A   1      37.731  23.364  25.838  1.00  0.00     0.048 A 
ATOM     25  C   UNL A   1      36.058  21.292  25.042  1.00  0.00     0.029 A 
ATOM     26  C   UNL A   1      36.366  23.591  25.615  1.00  0.00     0.029 A 
BRANCH  22  27
ATOM     27  O   UNL A   1      39.580  21.780  25.790  1.00  0.00    -0.497 OA
ATOM     28  C   UNL A   1      40.076  21.919  27.117  1.00  0.00     0.278 C 
ENDBRANCH  22  27
ENDBRANCH  19  21
ENDBRANCH   9  19
ENDBRANCH   5   8
ENDBRANCH   3   4
ENDBRANCH   2   3
ENDBRANCH   1   2
BRANCH   1  29
ATOM     29  C   UNL A   1      31.608  30.653  26.505  1.00  0.00     0.002 C 
BRANCH  29  30
ATOM     30  C   UNL A   1      31.483  32.145  26.827  1.00  0.00     0.021 C 
BRANCH  30  31
ATOM     31  C   UNL A   1      32.768  32.828  27.291  1.00  0.00     0.116 C 
BRANCH  31  32
ATOM     32  N   UNL A   1      32.532  34.153  27.833  1.00  0.00    -0.352 N 
ATOM     33  C   UNL A   1      33.200  34.822  28.829  1.00  0.00     0.251 C 
ATOM     34  H   UNL A   1      31.782  34.645  27.427  1.00  0.00     0.163 HD
ATOM     35  O   UNL A   1      32.742  35.885  29.245  1.00  0.00    -0.269 OA
BRANCH  33  36
ATOM     36  C   UNL A   1      34.438  34.263  29.424  1.00  0.00     0.039 A 
ATOM     37  C   UNL A   1      34.326  33.489  30.582  1.00  0.00     0.014 A 
ATOM     38  C   UNL A   1      35.701  34.516  28.877  1.00  0.00     0.014 A 
ATOM     39  C   UNL A   1      35.469  32.931  31.162  1.00  0.00     0.010 A 
ATOM     40  C   UNL A   1      36.833  33.905  29.419  1.00  0.00     0.010 A 
ATOM     41  C   UNL A   1      36.730  33.111  30.571  1.00  0.00    -0.014 A 
BRANCH  41  42
ATOM     42  C   UNL A   1      37.933  32.464  31.159  1.00  0.00     0.031 A 
ATOM     43  C   UNL A   1      38.544  32.989  32.430  1.00  0.00     0.074 A 
ATOM     44  C   UNL A   1      38.488  31.408  30.531  1.00  0.00     0.049 A 
ATOM     45  N   UNL A   1      39.569  32.534  33.106  1.00  0.00    -0.248 NA
ATOM     46  C   UNL A   1      37.940  34.200  33.003  1.00  0.00     0.031 C 
ATOM     47  C   UNL A   1      38.026  30.844  29.261  1.00  0.00     0.029 A 
ATOM     48  N   UNL A   1      39.555  30.616  30.875  1.00  0.00    -0.354 N 
ATOM     49  C   UNL A   1      39.735  33.402  34.181  1.00  0.00     0.074 A 
ATOM     50  C   UNL A   1      38.743  34.447  34.026  1.00  0.00     0.031 C 
ATOM     51  C   UNL A   1      38.780  29.777  28.952  1.00  0.00     0.029 A 
ATOM     52  C   UNL A   1      39.795  29.595  29.984  1.00  0.00     0.049 A 
ATOM     53  H   UNL A   1      40.097  30.764  31.683  1.00  0.00     0.167 HD
ATOM     54  C   UNL A   1      40.614  33.323  35.212  1.00  0.00     0.034 A 
ATOM     55  C   UNL A   1      40.722  28.617  30.002  1.00  0.00     0.034 A 
ATOM     56  C   UNL A   1      41.593  32.271  35.356  1.00  0.00     0.049 A 
ATOM     57  C   UNL A   1      41.671  28.536  31.168  1.00  0.00     0.074 A 
ATOM     58  C   UNL A   1      42.501  32.069  36.382  1.00  0.00     0.029 A 
ATOM     59  N   UNL A   1      41.798  31.245  34.442  1.00  0.00    -0.354 N 
ATOM     60  N   UNL A   1      41.772  29.330  32.210  1.00  0.00    -0.248 NA
ATOM     61  C   UNL A   1      42.615  27.413  31.171  1.00  0.00     0.031 C 
ATOM     62  C   UNL A   1      43.290  30.957  36.061  1.00  0.00     0.029 A 
ATOM     63  C   UNL A   1      42.831  30.421  34.869  1.00  0.00     0.049 A 
ATOM     64  H   UNL A   1      41.285  31.120  33.611  1.00  0.00     0.167 HD
ATOM     65  C   UNL A   1      42.777  28.784  33.004  1.00  0.00     0.074 A 
ATOM     66  C   UNL A   1      43.226  27.581  32.334  1.00  0.00     0.031 C 
ATOM     67  C   UNL A   1      43.285  29.236  34.180  1.00  0.00     0.034 A 
BRANCH  54  68
ATOM     68  C   UNL A   1      40.563  34.420  36.250  1.00  0.00     0.023 A 
ATOM     69  C   UNL A   1      41.620  35.334  36.411  1.00  0.00     0.031 A 
ATOM     70  C   UNL A   1      39.458  34.539  37.111  1.00  0.00     0.131 A 
ATOM     71  C   UNL A   1      41.585  36.274  37.453  1.00  0.00     0.055 A 
ATOM     72  C   UNL A   1      39.393  35.529  38.095  1.00  0.00     0.041 A 
ATOM     73  F   UNL A   1      38.426  33.686  37.021  1.00  0.00    -0.206 F 
ATOM     74  C   UNL A   1      40.468  36.393  38.281  1.00  0.00     0.022 A 
BRANCH  71  75
ATOM     75  S   UNL A   1      43.081  37.240  37.800  1.00  0.00     0.124 S 
ATOM     76  O   UNL A   1      43.999  36.204  38.265  1.00  0.00    -0.237 OA
ATOM     77  O   UNL A   1      43.385  37.828  36.500  1.00  0.00    -0.237 OA
ATOM     78  O   UNL A   1      42.647  38.185  38.826  1.00  0.00    -0.744 OA
ENDBRANCH  71  75
ENDBRANCH  54  68
BRANCH  55  79
ATOM     79  C   UNL A   1      40.792  27.623  28.894  1.00  0.00     0.023 A 
ATOM     80  C   UNL A   1      41.749  27.743  27.874  1.00  0.00     0.031 A 
ATOM     81  C   UNL A   1      39.871  26.563  28.815  1.00  0.00     0.131 A 
ATOM     82  C   UNL A   1      41.734  26.848  26.793  1.00  0.00     0.055 A 
ATOM     83  C   UNL A   1      39.893  25.646  27.763  1.00  0.00     0.041 A 
ATOM     84  F   UNL A   1      38.942  26.398  29.770  1.00  0.00    -0.206 F 
ATOM     85  C   UNL A   1      40.819  25.794  26.736  1.00  0.00     0.022 A 
BRANCH  82  86
ATOM     86  S   UNL A   1      42.881  27.133  25.416  1.00  0.00     0.124 S 
ATOM     87  O   UNL A   1      42.201  28.188  24.674  1.00  0.00    -0.237 OA
ATOM     88  O   UNL A   1      44.100  27.523  26.116  1.00  0.00    -0.237 OA
ATOM     89  O   UNL A   1      42.937  25.834  24.746  1.00  0.00    -0.744 OA
ENDBRANCH  82  86
ENDBRANCH  55  79
BRANCH  67  90
ATOM     90  C   UNL A   1      44.366  28.395  34.816  1.00  0.00     0.023 A 
ATOM     91  C   UNL A   1      44.071  27.448  35.812  1.00  0.00     0.031 A 
ATOM     92  C   UNL A   1      45.713  28.582  34.460  1.00  0.00     0.131 A 
ATOM     93  C   UNL A   1      45.113  26.783  36.476  1.00  0.00     0.055 A 
ATOM     94  C   UNL A   1      46.741  27.869  35.078  1.00  0.00     0.041 A 
ATOM     95  F   UNL A   1      46.054  29.473  33.516  1.00  0.00    -0.206 F 
ATOM     96  C   UNL A   1      46.446  26.977  36.105  1.00  0.00     0.022 A 
BRANCH  93  97
ATOM     97  S   UNL A   1      44.710  25.759  37.919  1.00  0.00     0.124 S 
ATOM     98  O   UNL A   1      43.540  26.442  38.460  1.00  0.00    -0.237 OA
ATOM     99  O   UNL A   1      44.463  24.454  37.315  1.00  0.00    -0.237 OA
ATOM    100  O   UNL A   1      45.914  25.842  38.745  1.00  0.00    -0.744 OA
ENDBRANCH  93  97
ENDBRANCH  67  90
ENDBRANCH  41  42
ENDBRANCH  33  36
ENDBRANCH  31  32
ENDBRANCH  30  31
ENDBRANCH  29  30
ENDBRANCH   1  29
TORSDOF 19
ENDMDL
MODEL 2
REMARK VINA RESULT:     -11.6      2.326      8.067
REMARK SMILES COc1ccc(N[C@]2(Br)C(=O)NC(=O)N[C@@H]2C(=O)NCCCCCCNC(=O)c2ccc(-c3c4nc(c(-c5cc(S(=O)(=O)[O-])ccc5F)c5ccc([nH]5)c(-c5cc(S(=O)(=O)[O-])ccc5F)c5nc(c(-c6cc(S(=O)(=O)[O-])ccc6F)c6ccc3[nH]6)C=C5)C=C4)cc2)cc1
REMARK SMILES IDX 22 1 21 2 20 3 19 4 17 5 18 6 16 8 8 9 10 10 9 11 11 12
REMARK SMILES IDX 12 13 15 14 13 15 14 18 7 19 6 21 3 22 4 23 93 24 5 25 92 26
REMARK SMILES IDX 2 27 1 28 23 29 24 30 25 31 26 32 27 33 28 35 29 36 30 37
REMARK SMILES IDX 91 38 31 39 90 40 32 41 33 42 34 43 84 44 35 45 89 46 83 47
REMARK SMILES IDX 85 48 36 49 88 50 82 51 81 52 37 54 69 55 49 56 68 57 50 58
REMARK SMILES IDX 53 59 67 60 86 61 51 62 52 63 66 65 87 66 54 67 38 68 39 69
REMARK SMILES IDX 47 70 40 71 46 72 48 73 45 74 41 75 42 76 43 77 44 78 70 79
REMARK SMILES IDX 71 80 79 81 72 82 78 83 80 84 77 85 73 86 74 87 75 88 76 89
REMARK SMILES IDX 55 90 56 91 64 92 57 93 63 94 65 95 62 96 58 97 59 98 60 99
REMARK SMILES IDX 61 100
REMARK H PARENT 19 7 12 16 15 17 7 20 26 34 85 53 53 64
REMARK Flexibility Score: inf
ROOT
ATOM      1  C   UNL A   1      32.001  29.775  25.220  1.00  0.00     0.002 C 
ENDROOT
BRANCH   1   2
ATOM      2  C   UNL A   1      33.398  29.144  25.253  1.00  0.00     0.021 C 
BRANCH   2   3
ATOM      3  C   UNL A   1      33.442  27.640  24.955  1.00  0.00     0.116 C 
BRANCH   3   4
ATOM      4  N   UNL A   1      33.319  26.853  26.172  1.00  0.00    -0.354 N 
ATOM      5  C   UNL A   1      32.433  25.808  26.257  1.00  0.00     0.246 C 
ATOM      6  O   UNL A   1      31.430  25.969  26.952  1.00  0.00    -0.273 OA
ATOM      7  H   UNL A   1      33.881  27.074  26.949  1.00  0.00     0.163 HD
BRANCH   5   8
ATOM      8  C   UNL A   1      32.736  24.484  25.515  1.00  0.00     0.219 C 
ATOM      9  C   UNL A   1      31.462  23.697  25.116  1.00  0.00     0.202 C 
ATOM     10  C   UNL A   1      31.121  22.556  26.099  1.00  0.00     0.267 C 
ATOM     11  Br  UNL A   1      31.974  22.648  23.458  1.00  0.00    -0.048 Br
ATOM     12  O   UNL A   1      30.093  21.875  26.043  1.00  0.00    -0.271 OA
ATOM     13  N   UNL A   1      32.052  22.254  27.061  1.00  0.00    -0.275 N 
ATOM     14  N   UNL A   1      33.696  23.633  26.224  1.00  0.00    -0.322 N 
ATOM     15  C   UNL A   1      33.345  22.658  27.090  1.00  0.00     0.322 C 
ATOM     16  H   UNL A   1      31.749  21.687  27.806  1.00  0.00     0.174 HD
ATOM     17  H   UNL A   1      34.655  23.781  26.059  1.00  0.00     0.166 HD
ATOM     18  O   UNL A   1      34.174  22.124  27.818  1.00  0.00    -0.248 OA
BRANCH   9  19
ATOM     19  N   UNL A   1      30.291  24.458  24.682  1.00  0.00    -0.360 N 
ATOM     20  H   UNL A   1      29.419  24.106  24.971  1.00  0.00     0.162 HD
BRANCH  19  21
ATOM     21  C   UNL A   1      30.255  25.607  23.918  1.00  0.00     0.036 A 
ATOM     22  C   UNL A   1      30.444  27.986  22.390  1.00  0.00     0.119 A 
ATOM     23  C   UNL A   1      29.551  27.899  23.452  1.00  0.00     0.048 A 
ATOM     24  C   UNL A   1      31.255  26.899  22.089  1.00  0.00     0.048 A 
ATOM     25  C   UNL A   1      29.453  26.719  24.198  1.00  0.00     0.029 A 
ATOM     26  C   UNL A   1      31.153  25.723  22.846  1.00  0.00     0.029 A 
BRANCH  22  27
ATOM     27  O   UNL A   1      30.515  29.195  21.759  1.00  0.00    -0.497 OA
ATOM     28  C   UNL A   1      29.302  29.938  21.811  1.00  0.00     0.278 C 
ENDBRANCH  22  27
ENDBRANCH  19  21
ENDBRANCH   9  19
ENDBRANCH   5   8
ENDBRANCH   3   4
ENDBRANCH   2   3
ENDBRANCH   1   2
BRANCH   1  29
ATOM     29  C   UNL A   1      31.500  30.339  26.553  1.00  0.00     0.002 C 
BRANCH  29  30
ATOM     30  C   UNL A   1      31.520  31.866  26.675  1.00  0.00     0.021 C 
BRANCH  30  31
ATOM     31  C   UNL A   1      32.809  32.464  27.234  1.00  0.00     0.116 C 
BRANCH  31  32
ATOM     32  N   UNL A   1      32.661  33.858  27.608  1.00  0.00    -0.352 N 
ATOM     33  C   UNL A   1      33.322  34.580  28.572  1.00  0.00     0.251 C 
ATOM     34  H   UNL A   1      31.988  34.361  27.095  1.00  0.00     0.163 HD
ATOM     35  O   UNL A   1      32.938  35.718  28.832  1.00  0.00    -0.269 OA
BRANCH  33  36
ATOM     36  C   UNL A   1      34.462  33.992  29.315  1.00  0.00     0.039 A 
ATOM     37  C   UNL A   1      34.187  33.095  30.351  1.00  0.00     0.014 A 
ATOM     38  C   UNL A   1      35.788  34.333  29.027  1.00  0.00     0.014 A 
ATOM     39  C   UNL A   1      35.235  32.507  31.063  1.00  0.00     0.010 A 
ATOM     40  C   UNL A   1      36.836  33.696  29.694  1.00  0.00     0.010 A 
ATOM     41  C   UNL A   1      36.571  32.781  30.724  1.00  0.00    -0.014 A 
BRANCH  41  42
ATOM     42  C   UNL A   1      37.682  32.105  31.446  1.00  0.00     0.031 A 
ATOM     43  C   UNL A   1      38.473  31.009  30.785  1.00  0.00     0.074 A 
ATOM     44  C   UNL A   1      37.964  32.469  32.712  1.00  0.00     0.049 A 
ATOM     45  N   UNL A   1      39.495  30.332  31.245  1.00  0.00    -0.248 NA
ATOM     46  C   UNL A   1      38.044  30.603  29.439  1.00  0.00     0.031 C 
ATOM     47  C   UNL A   1      37.230  33.475  33.484  1.00  0.00     0.029 A 
ATOM     48  N   UNL A   1      38.945  32.045  33.573  1.00  0.00    -0.354 N 
ATOM     49  C   UNL A   1      39.829  29.419  30.249  1.00  0.00     0.074 A 
ATOM     50  C   UNL A   1      38.858  29.589  29.188  1.00  0.00     0.031 C 
ATOM     51  C   UNL A   1      37.808  33.615  34.687  1.00  0.00     0.029 A 
ATOM     52  C   UNL A   1      38.934  32.693  34.787  1.00  0.00     0.049 A 
ATOM     53  H   UNL A   1      39.595  31.342  33.344  1.00  0.00     0.167 HD
ATOM     54  C   UNL A   1      40.863  28.540  30.212  1.00  0.00     0.034 A 
ATOM     55  C   UNL A   1      39.747  32.568  35.854  1.00  0.00     0.034 A 
ATOM     56  C   UNL A   1      41.828  28.387  31.275  1.00  0.00     0.049 A 
ATOM     57  C   UNL A   1      40.901  31.602  35.780  1.00  0.00     0.074 A 
ATOM     58  C   UNL A   1      42.938  27.561  31.323  1.00  0.00     0.029 A 
ATOM     59  N   UNL A   1      41.796  29.072  32.484  1.00  0.00    -0.354 N 
ATOM     60  N   UNL A   1      41.240  30.791  34.804  1.00  0.00    -0.248 NA
ATOM     61  C   UNL A   1      41.794  31.554  36.943  1.00  0.00     0.031 C 
ATOM     62  C   UNL A   1      43.543  27.704  32.578  1.00  0.00     0.029 A 
ATOM     63  C   UNL A   1      42.851  28.671  33.290  1.00  0.00     0.049 A 
ATOM     64  H   UNL A   1      41.121  29.744  32.732  1.00  0.00     0.167 HD
ATOM     65  C   UNL A   1      42.403  30.155  35.229  1.00  0.00     0.074 A 
ATOM     66  C   UNL A   1      42.718  30.698  36.534  1.00  0.00     0.031 C 
ATOM     67  C   UNL A   1      43.143  29.205  34.600  1.00  0.00     0.034 A 
BRANCH  54  68
ATOM     68  C   UNL A   1      40.982  27.664  28.985  1.00  0.00     0.023 A 
ATOM     69  C   UNL A   1      41.991  27.871  28.027  1.00  0.00     0.031 A 
ATOM     70  C   UNL A   1      40.062  26.627  28.755  1.00  0.00     0.131 A 
ATOM     71  C   UNL A   1      42.009  27.106  26.850  1.00  0.00     0.055 A 
ATOM     72  C   UNL A   1      40.134  25.816  27.619  1.00  0.00     0.041 A 
ATOM     73  F   UNL A   1      39.065  26.392  29.622  1.00  0.00    -0.206 F 
ATOM     74  C   UNL A   1      41.102  26.064  26.651  1.00  0.00     0.022 A 
BRANCH  71  75
ATOM     75  S   UNL A   1      43.145  27.588  25.520  1.00  0.00     0.124 S 
ATOM     76  O   UNL A   1      43.718  26.299  25.142  1.00  0.00    -0.237 OA
ATOM     77  O   UNL A   1      42.249  28.200  24.546  1.00  0.00    -0.237 OA
ATOM     78  O   UNL A   1      44.073  28.506  26.178  1.00  0.00    -0.744 OA
ENDBRANCH  71  75
ENDBRANCH  54  68
BRANCH  55  79
ATOM     79  C   UNL A   1      39.516  33.384  37.079  1.00  0.00     0.023 A 
ATOM     80  C   UNL A   1      38.818  32.858  38.178  1.00  0.00     0.031 A 
ATOM     81  C   UNL A   1      39.951  34.719  37.150  1.00  0.00     0.131 A 
ATOM     82  C   UNL A   1      38.533  33.677  39.282  1.00  0.00     0.055 A 
ATOM     83  C   UNL A   1      39.708  35.514  38.271  1.00  0.00     0.041 A 
ATOM     84  F   UNL A   1      40.632  35.266  36.130  1.00  0.00    -0.206 F 
ATOM     85  C   UNL A   1      38.983  34.998  39.340  1.00  0.00     0.022 A 
BRANCH  82  86
ATOM     86  S   UNL A   1      37.491  33.011  40.609  1.00  0.00     0.124 S 
ATOM     87  O   UNL A   1      38.158  31.749  40.907  1.00  0.00    -0.237 OA
ATOM     88  O   UNL A   1      37.598  34.051  41.627  1.00  0.00    -0.237 OA
ATOM     89  O   UNL A   1      36.177  32.889  39.980  1.00  0.00    -0.744 OA
ENDBRANCH  82  86
ENDBRANCH  55  79
BRANCH  67  90
ATOM     90  C   UNL A   1      44.380  28.726  35.322  1.00  0.00     0.023 A 
ATOM     91  C   UNL A   1      44.309  27.774  36.353  1.00  0.00     0.031 A 
ATOM     92  C   UNL A   1      45.638  29.270  35.011  1.00  0.00     0.131 A 
ATOM     93  C   UNL A   1      45.458  27.454  37.092  1.00  0.00     0.055 A 
ATOM     94  C   UNL A   1      46.791  28.899  35.706  1.00  0.00     0.041 A 
ATOM     95  F   UNL A   1      45.767  30.184  34.036  1.00  0.00    -0.206 F 
ATOM     96  C   UNL A   1      46.701  28.001  36.765  1.00  0.00     0.022 A 
BRANCH  93  97
ATOM     97  S   UNL A   1      45.281  26.416  38.569  1.00  0.00     0.124 S 
ATOM     98  O   UNL A   1      46.043  27.165  39.562  1.00  0.00    -0.237 OA
ATOM     99  O   UNL A   1      43.835  26.392  38.760  1.00  0.00    -0.237 OA
ATOM    100  O   UNL A   1      45.873  25.141  38.166  1.00  0.00    -0.744 OA
ENDBRANCH  93  97
ENDBRANCH  67  90
ENDBRANCH  41  42
ENDBRANCH  33  36
ENDBRANCH  31  32
ENDBRANCH  30  31
ENDBRANCH  29  30
ENDBRANCH   1  29
TORSDOF 19
ENDMDL
MODEL 3
REMARK VINA RESULT:     -11.4      2.171      7.603
REMARK SMILES COc1ccc(N[C@]2(Br)C(=O)NC(=O)N[C@@H]2C(=O)NCCCCCCNC(=O)c2ccc(-c3c4nc(c(-c5cc(S(=O)(=O)[O-])ccc5F)c5ccc([nH]5)c(-c5cc(S(=O)(=O)[O-])ccc5F)c5nc(c(-c6cc(S(=O)(=O)[O-])ccc6F)c6ccc3[nH]6)C=C5)C=C4)cc2)cc1
REMARK SMILES IDX 22 1 21 2 20 3 19 4 17 5 18 6 16 8 8 9 10 10 9 11 11 12
REMARK SMILES IDX 12 13 15 14 13 15 14 18 7 19 6 21 3 22 4 23 93 24 5 25 92 26
REMARK SMILES IDX 2 27 1 28 23 29 24 30 25 31 26 32 27 33 28 35 29 36 30 37
REMARK SMILES IDX 91 38 31 39 90 40 32 41 33 42 34 43 84 44 35 45 89 46 83 47
REMARK SMILES IDX 85 48 36 49 88 50 82 51 81 52 37 54 69 55 49 56 68 57 50 58
REMARK SMILES IDX 53 59 67 60 86 61 51 62 52 63 66 65 87 66 54 67 38 68 39 69
REMARK SMILES IDX 47 70 40 71 46 72 48 73 45 74 41 75 42 76 43 77 44 78 70 79
REMARK SMILES IDX 71 80 79 81 72 82 78 83 80 84 77 85 73 86 74 87 75 88 76 89
REMARK SMILES IDX 55 90 56 91 64 92 57 93 63 94 65 95 62 96 58 97 59 98 60 99
REMARK SMILES IDX 61 100
REMARK H PARENT 19 7 12 16 15 17 7 20 26 34 85 53 53 64
REMARK Flexibility Score: inf
ROOT
ATOM      1  C   UNL A   1      32.673  29.783  27.192  1.00  0.00     0.002 C 
ENDROOT
BRANCH   1   2
ATOM      2  C   UNL A   1      33.791  29.245  26.292  1.00  0.00     0.021 C 
BRANCH   2   3
ATOM      3  C   UNL A   1      33.889  27.716  26.217  1.00  0.00     0.116 C 
BRANCH   3   4
ATOM      4  N   UNL A   1      32.676  27.132  25.663  1.00  0.00    -0.354 N 
ATOM      5  C   UNL A   1      32.636  25.819  25.267  1.00  0.00     0.246 C 
ATOM      6  O   UNL A   1      32.603  25.591  24.058  1.00  0.00    -0.273 OA
ATOM      7  H   UNL A   1      31.870  27.690  25.570  1.00  0.00     0.163 HD
BRANCH   5   8
ATOM      8  C   UNL A   1      32.604  24.698  26.333  1.00  0.00     0.219 C 
ATOM      9  C   UNL A   1      33.051  23.317  25.787  1.00  0.00     0.202 C 
ATOM     10  C   UNL A   1      31.866  22.398  25.420  1.00  0.00     0.267 C 
ATOM     11  Br  UNL A   1      33.833  22.336  27.380  1.00  0.00    -0.048 Br
ATOM     12  O   UNL A   1      31.984  21.302  24.864  1.00  0.00    -0.271 OA
ATOM     13  N   UNL A   1      30.611  22.811  25.788  1.00  0.00    -0.275 N 
ATOM     14  N   UNL A   1      31.323  24.610  27.039  1.00  0.00    -0.322 N 
ATOM     15  C   UNL A   1      30.309  23.799  26.665  1.00  0.00     0.322 C 
ATOM     16  H   UNL A   1      29.852  22.342  25.372  1.00  0.00     0.174 HD
ATOM     17  H   UNL A   1      31.192  25.175  27.834  1.00  0.00     0.166 HD
ATOM     18  O   UNL A   1      29.188  23.917  27.148  1.00  0.00    -0.248 OA
BRANCH   9  19
ATOM     19  N   UNL A   1      34.136  23.284  24.808  1.00  0.00    -0.360 N 
ATOM     20  H   UNL A   1      33.908  23.597  23.903  1.00  0.00     0.162 HD
BRANCH  19  21
ATOM     21  C   UNL A   1      35.440  22.869  24.992  1.00  0.00     0.036 A 
ATOM     22  C   UNL A   1      38.018  21.820  25.521  1.00  0.00     0.119 A 
ATOM     23  C   UNL A   1      37.732  23.154  25.784  1.00  0.00     0.048 A 
ATOM     24  C   UNL A   1      37.024  20.997  25.006  1.00  0.00     0.048 A 
ATOM     25  C   UNL A   1      36.461  23.671  25.512  1.00  0.00     0.029 A 
ATOM     26  C   UNL A   1      35.752  21.524  24.741  1.00  0.00     0.029 A 
BRANCH  22  27
ATOM     27  O   UNL A   1      39.264  21.388  25.876  1.00  0.00    -0.497 OA
ATOM     28  C   UNL A   1      39.916  22.237  26.815  1.00  0.00     0.278 C 
ENDBRANCH  22  27
ENDBRANCH  19  21
ENDBRANCH   9  19
ENDBRANCH   5   8
ENDBRANCH   3   4
ENDBRANCH   2   3
ENDBRANCH   1   2
BRANCH   1  29
ATOM     29  C   UNL A   1      31.559  30.549  26.473  1.00  0.00     0.002 C 
BRANCH  29  30
ATOM     30  C   UNL A   1      31.559  32.067  26.680  1.00  0.00     0.021 C 
BRANCH  30  31
ATOM     31  C   UNL A   1      32.798  32.638  27.365  1.00  0.00     0.116 C 
BRANCH  31  32
ATOM     32  N   UNL A   1      32.608  34.005  27.813  1.00  0.00    -0.352 N 
ATOM     33  C   UNL A   1      33.251  34.696  28.811  1.00  0.00     0.251 C 
ATOM     34  H   UNL A   1      31.917  34.513  27.330  1.00  0.00     0.163 HD
ATOM     35  O   UNL A   1      32.833  35.806  29.133  1.00  0.00    -0.269 OA
BRANCH  33  36
ATOM     36  C   UNL A   1      34.412  34.105  29.519  1.00  0.00     0.039 A 
ATOM     37  C   UNL A   1      34.173  33.347  30.669  1.00  0.00     0.014 A 
ATOM     38  C   UNL A   1      35.727  34.312  29.085  1.00  0.00     0.014 A 
ATOM     39  C   UNL A   1      35.241  32.761  31.353  1.00  0.00     0.010 A 
ATOM     40  C   UNL A   1      36.786  33.672  29.731  1.00  0.00     0.010 A 
ATOM     41  C   UNL A   1      36.556  32.894  30.876  1.00  0.00    -0.014 A 
BRANCH  41  42
ATOM     42  C   UNL A   1      37.680  32.216  31.575  1.00  0.00     0.031 A 
ATOM     43  C   UNL A   1      38.451  31.114  30.900  1.00  0.00     0.074 A 
ATOM     44  C   UNL A   1      37.994  32.585  32.832  1.00  0.00     0.049 A 
ATOM     45  N   UNL A   1      39.481  30.434  31.339  1.00  0.00    -0.248 NA
ATOM     46  C   UNL A   1      37.989  30.705  29.566  1.00  0.00     0.031 C 
ATOM     47  C   UNL A   1      37.282  33.597  33.616  1.00  0.00     0.029 A 
ATOM     48  N   UNL A   1      38.992  32.160  33.672  1.00  0.00    -0.354 N 
ATOM     49  C   UNL A   1      39.788  29.516  30.340  1.00  0.00     0.074 A 
ATOM     50  C   UNL A   1      38.792  29.685  29.301  1.00  0.00     0.031 C 
ATOM     51  C   UNL A   1      37.888  33.740  34.805  1.00  0.00     0.029 A 
ATOM     52  C   UNL A   1      39.013  32.814  34.883  1.00  0.00     0.049 A 
ATOM     53  H   UNL A   1      39.634  31.453  33.431  1.00  0.00     0.167 HD
ATOM     54  C   UNL A   1      40.816  28.632  30.282  1.00  0.00     0.034 A 
ATOM     55  C   UNL A   1      39.850  32.690  35.931  1.00  0.00     0.034 A 
ATOM     56  C   UNL A   1      41.805  28.480  31.323  1.00  0.00     0.049 A 
ATOM     57  C   UNL A   1      40.997  31.719  35.834  1.00  0.00     0.074 A 
ATOM     58  C   UNL A   1      42.913  27.649  31.349  1.00  0.00     0.029 A 
ATOM     59  N   UNL A   1      41.804  29.170  32.529  1.00  0.00    -0.354 N 
ATOM     60  N   UNL A   1      41.310  30.902  34.854  1.00  0.00    -0.248 NA
ATOM     61  C   UNL A   1      41.917  31.671  36.976  1.00  0.00     0.031 C 
ATOM     62  C   UNL A   1      43.547  27.795  32.590  1.00  0.00     0.029 A 
ATOM     63  C   UNL A   1      42.877  28.768  33.313  1.00  0.00     0.049 A 
ATOM     64  H   UNL A   1      41.138  29.846  32.790  1.00  0.00     0.167 HD
ATOM     65  C   UNL A   1      42.480  30.262  35.255  1.00  0.00     0.074 A 
ATOM     66  C   UNL A   1      42.828  30.810  36.550  1.00  0.00     0.031 C 
ATOM     67  C   UNL A   1      43.201  29.306  34.613  1.00  0.00     0.034 A 
BRANCH  54  68
ATOM     68  C   UNL A   1      40.903  27.751  29.057  1.00  0.00     0.023 A 
ATOM     69  C   UNL A   1      41.882  27.956  28.068  1.00  0.00     0.031 A 
ATOM     70  C   UNL A   1      39.981  26.709  28.859  1.00  0.00     0.131 A 
ATOM     71  C   UNL A   1      41.869  27.186  26.896  1.00  0.00     0.055 A 
ATOM     72  C   UNL A   1      40.023  25.892  27.727  1.00  0.00     0.041 A 
ATOM     73  F   UNL A   1      39.010  26.474  29.757  1.00  0.00    -0.206 F 
ATOM     74  C   UNL A   1      40.961  26.138  26.729  1.00  0.00     0.022 A 
BRANCH  71  75
ATOM     75  S   UNL A   1      42.964  27.665  25.531  1.00  0.00     0.124 S 
ATOM     76  O   UNL A   1      43.974  28.455  26.228  1.00  0.00    -0.237 OA
ATOM     77  O   UNL A   1      43.405  26.375  25.013  1.00  0.00    -0.237 OA
ATOM     78  O   UNL A   1      42.089  28.427  24.642  1.00  0.00    -0.744 OA
ENDBRANCH  71  75
ENDBRANCH  54  68
BRANCH  55  79
ATOM     79  C   UNL A   1      39.651  33.512  37.157  1.00  0.00     0.023 A 
ATOM     80  C   UNL A   1      39.118  32.949  38.328  1.00  0.00     0.031 A 
ATOM     81  C   UNL A   1      39.951  34.886  37.162  1.00  0.00     0.131 A 
ATOM     82  C   UNL A   1      38.854  33.766  39.439  1.00  0.00     0.055 A 
ATOM     83  C   UNL A   1      39.733  35.684  38.286  1.00  0.00     0.041 A 
ATOM     84  F   UNL A   1      40.473  35.471  36.072  1.00  0.00    -0.206 F 
ATOM     85  C   UNL A   1      39.167  35.127  39.429  1.00  0.00     0.022 A 
BRANCH  82  86
ATOM     86  S   UNL A   1      38.015  33.035  40.871  1.00  0.00     0.124 S 
ATOM     87  O   UNL A   1      36.679  33.608  40.760  1.00  0.00    -0.237 OA
ATOM     88  O   UNL A   1      38.128  31.608  40.590  1.00  0.00    -0.237 OA
ATOM     89  O   UNL A   1      38.806  33.509  42.006  1.00  0.00    -0.744 OA
ENDBRANCH  82  86
ENDBRANCH  55  79
BRANCH  67  90
ATOM     90  C   UNL A   1      44.453  28.825  35.308  1.00  0.00     0.023 A 
ATOM     91  C   UNL A   1      45.711  29.388  35.032  1.00  0.00     0.031 A 
ATOM     92  C   UNL A   1      44.394  27.753  36.216  1.00  0.00     0.131 A 
ATOM     93  C   UNL A   1      46.867  28.827  35.593  1.00  0.00     0.055 A 
ATOM     94  C   UNL A   1      45.542  27.241  36.822  1.00  0.00     0.041 A 
ATOM     95  F   UNL A   1      43.220  27.175  36.517  1.00  0.00    -0.206 F 
ATOM     96  C   UNL A   1      46.789  27.765  36.498  1.00  0.00     0.022 A 
BRANCH  93  97
ATOM     97  S   UNL A   1      48.485  29.418  35.022  1.00  0.00     0.124 S 
ATOM     98  O   UNL A   1      48.368  29.276  33.575  1.00  0.00    -0.237 OA
ATOM     99  O   UNL A   1      48.512  30.786  35.528  1.00  0.00    -0.237 OA
ATOM    100  O   UNL A   1      49.430  28.503  35.661  1.00  0.00    -0.744 OA
ENDBRANCH  93  97
ENDBRANCH  67  90
ENDBRANCH  41  42
ENDBRANCH  33  36
ENDBRANCH  31  32
ENDBRANCH  30  31
ENDBRANCH  29  30
ENDBRANCH   1  29
TORSDOF 19
ENDMDL
