MODEL 1
REMARK VINA RESULT:     -12.4      0.000      0.000
REMARK SMILES COc1ccc(-c2ccc(CCC(=O)NCCCCCCNC(=O)c3ccc(-c4c5nc(c(-c6cc(S(=O)(=O)[O-])ccc6F)c6ccc([nH]6)c(-c6cc(S(=O)(=O)[O-])ccc6F)c6nc(c(-c7cc(S(=O)(=O)[O-])ccc7F)c7ccc4[nH]7)C=C6)C=C5)cc3)n2-c2ccc(C(C)=O)cc2)cc1
REMARK SMILES IDX 18 1 17 2 16 3 15 4 13 5 14 6 12 8 11 9 10 10 7 11 8 12
REMARK SMILES IDX 88 13 9 14 6 15 3 16 4 17 99 18 5 19 98 20 2 21 1 22 89 23
REMARK SMILES IDX 90 24 97 25 91 26 96 27 92 28 93 29 94 30 95 31 19 32 20 33
REMARK SMILES IDX 21 34 22 35 23 36 24 38 25 39 26 40 87 41 27 42 86 43 28 44
REMARK SMILES IDX 29 45 30 46 80 47 31 48 85 49 79 50 81 51 32 52 84 53 78 54
REMARK SMILES IDX 77 55 33 57 65 58 45 59 64 60 46 61 49 62 63 63 82 64 47 65
REMARK SMILES IDX 48 66 62 68 83 69 50 70 34 71 35 72 43 73 36 74 42 75 44 76
REMARK SMILES IDX 41 77 37 78 38 79 39 80 40 81 66 82 67 83 75 84 68 85 74 86
REMARK SMILES IDX 76 87 73 88 69 89 70 90 71 91 72 92 51 93 52 94 60 95 53 96
REMARK SMILES IDX 59 97 61 98 58 99 54 100 55 101 56 102 57 103
REMARK H PARENT 15 7 22 37 81 56 49 67
REMARK Flexibility Score: inf
ROOT
ATOM      1  C   UNL A   1      31.389  28.798  25.481  1.00  0.00     0.002 C 
ENDROOT
BRANCH   1   2
ATOM      2  C   UNL A   1      30.905  29.390  24.163  1.00  0.00     0.021 C 
BRANCH   2   3
ATOM      3  C   UNL A   1      30.969  28.453  22.962  1.00  0.00     0.116 C 
BRANCH   3   4
ATOM      4  N   UNL A   1      32.190  28.675  22.212  1.00  0.00    -0.356 N 
ATOM      5  C   UNL A   1      33.354  27.967  22.236  1.00  0.00     0.220 C 
ATOM      6  O   UNL A   1      34.330  28.424  21.640  1.00  0.00    -0.275 OA
ATOM      7  H   UNL A   1      32.175  29.446  21.599  1.00  0.00     0.163 HD
BRANCH   5   8
ATOM      8  C   UNL A   1      33.425  26.626  22.939  1.00  0.00     0.106 C 
BRANCH   8   9
ATOM      9  C   UNL A   1      33.081  25.446  22.030  1.00  0.00     0.064 C 
BRANCH   9  10
ATOM     10  C   UNL A   1      32.392  24.308  22.736  1.00  0.00     0.024 A 
ATOM     11  C   UNL A   1      32.110  22.229  23.580  1.00  0.00     0.053 A 
ATOM     12  C   UNL A   1      30.871  22.856  23.535  1.00  0.00     0.029 A 
ATOM     13  N   UNL A   1      33.050  23.230  23.332  1.00  0.00    -0.314 N 
ATOM     14  C   UNL A   1      31.048  24.152  23.008  1.00  0.00     0.024 A 
BRANCH  11  15
ATOM     15  C   UNL A   1      32.383  20.891  24.108  1.00  0.00    -0.001 A 
ATOM     16  C   UNL A   1      33.084  18.341  25.054  1.00  0.00     0.118 A 
ATOM     17  C   UNL A   1      32.788  18.535  23.705  1.00  0.00     0.047 A 
ATOM     18  C   UNL A   1      33.047  19.424  25.932  1.00  0.00     0.047 A 
ATOM     19  C   UNL A   1      32.432  19.799  23.235  1.00  0.00     0.014 A 
ATOM     20  C   UNL A   1      32.698  20.697  25.460  1.00  0.00     0.014 A 
BRANCH  16  21
ATOM     21  O   UNL A   1      33.479  17.079  25.396  1.00  0.00    -0.497 OA
ATOM     22  C   UNL A   1      32.470  16.084  25.285  1.00  0.00     0.278 C 
ENDBRANCH  16  21
ENDBRANCH  11  15
BRANCH  13  23
ATOM     23  C   UNL A   1      34.325  23.307  23.944  1.00  0.00     0.046 A 
ATOM     24  C   UNL A   1      34.372  23.855  25.233  1.00  0.00     0.027 A 
ATOM     25  C   UNL A   1      35.465  22.750  23.372  1.00  0.00     0.027 A 
ATOM     26  C   UNL A   1      35.560  23.852  25.956  1.00  0.00     0.014 A 
ATOM     27  C   UNL A   1      36.665  22.773  24.095  1.00  0.00     0.014 A 
ATOM     28  C   UNL A   1      36.720  23.313  25.395  1.00  0.00     0.017 A 
BRANCH  28  29
ATOM     29  C   UNL A   1      38.026  23.288  26.122  1.00  0.00     0.159 C 
ATOM     30  C   UNL A   1      38.955  22.102  26.010  1.00  0.00     0.093 C 
ATOM     31  O   UNL A   1      38.342  24.252  26.820  1.00  0.00    -0.295 OA
ENDBRANCH  28  29
ENDBRANCH  13  23
ENDBRANCH   9  10
ENDBRANCH   8   9
ENDBRANCH   5   8
ENDBRANCH   3   4
ENDBRANCH   2   3
ENDBRANCH   1   2
BRANCH   1  32
ATOM     32  C   UNL A   1      32.815  29.198  25.869  1.00  0.00     0.002 C 
BRANCH  32  33
ATOM     33  C   UNL A   1      33.820  28.039  26.003  1.00  0.00     0.021 C 
BRANCH  33  34
ATOM     34  C   UNL A   1      34.922  28.271  27.040  1.00  0.00     0.116 C 
BRANCH  34  35
ATOM     35  N   UNL A   1      35.276  29.676  27.079  1.00  0.00    -0.352 N 
ATOM     36  C   UNL A   1      36.318  30.316  27.694  1.00  0.00     0.251 C 
ATOM     37  H   UNL A   1      34.668  30.268  26.582  1.00  0.00     0.163 HD
ATOM     38  O   UNL A   1      36.191  31.510  27.941  1.00  0.00    -0.269 OA
BRANCH  36  39
ATOM     39  C   UNL A   1      37.582  29.627  28.041  1.00  0.00     0.039 A 
ATOM     40  C   UNL A   1      37.628  28.969  29.279  1.00  0.00     0.014 A 
ATOM     41  C   UNL A   1      38.742  29.731  27.264  1.00  0.00     0.014 A 
ATOM     42  C   UNL A   1      38.818  28.409  29.729  1.00  0.00     0.010 A 
ATOM     43  C   UNL A   1      39.935  29.165  27.708  1.00  0.00     0.010 A 
ATOM     44  C   UNL A   1      39.969  28.500  28.938  1.00  0.00    -0.014 A 
BRANCH  44  45
ATOM     45  C   UNL A   1      41.150  27.698  29.332  1.00  0.00     0.031 A 
ATOM     46  C   UNL A   1      41.369  26.545  28.305  1.00  0.00     0.074 A 
ATOM     47  C   UNL A   1      41.776  28.055  30.503  1.00  0.00     0.049 A 
ATOM     48  N   UNL A   1      41.821  25.340  28.471  1.00  0.00    -0.248 NA
ATOM     49  C   UNL A   1      40.913  26.733  26.894  1.00  0.00     0.031 C 
ATOM     50  C   UNL A   1      41.439  29.241  31.334  1.00  0.00     0.029 A 
ATOM     51  N   UNL A   1      42.814  27.520  31.243  1.00  0.00    -0.354 N 
ATOM     52  C   UNL A   1      41.944  24.739  27.189  1.00  0.00     0.074 A 
ATOM     53  C   UNL A   1      41.228  25.585  26.288  1.00  0.00     0.031 C 
ATOM     54  C   UNL A   1      42.176  29.281  32.471  1.00  0.00     0.029 A 
ATOM     55  C   UNL A   1      43.076  28.145  32.507  1.00  0.00     0.049 A 
ATOM     56  H   UNL A   1      43.343  26.755  30.922  1.00  0.00     0.167 HD
ATOM     57  C   UNL A   1      42.763  23.671  26.936  1.00  0.00     0.034 A 
ATOM     58  C   UNL A   1      43.921  27.736  33.516  1.00  0.00     0.034 A 
ATOM     59  C   UNL A   1      43.390  23.273  28.151  1.00  0.00     0.049 A 
ATOM     60  C   UNL A   1      44.610  26.581  32.923  1.00  0.00     0.074 A 
ATOM     61  C   UNL A   1      42.922  22.669  29.286  1.00  0.00     0.029 A 
ATOM     62  N   UNL A   1      44.627  23.819  28.404  1.00  0.00    -0.354 N 
ATOM     63  N   UNL A   1      45.553  26.650  32.035  1.00  0.00    -0.248 NA
ATOM     64  C   UNL A   1      44.148  25.235  33.290  1.00  0.00     0.031 C 
ATOM     65  C   UNL A   1      43.628  23.344  30.301  1.00  0.00     0.029 A 
ATOM     66  C   UNL A   1      44.653  24.118  29.740  1.00  0.00     0.049 A 
ATOM     67  H   UNL A   1      45.350  23.965  27.753  1.00  0.00     0.167 HD
ATOM     68  C   UNL A   1      45.569  25.378  31.527  1.00  0.00     0.074 A 
ATOM     69  C   UNL A   1      44.976  24.522  32.533  1.00  0.00     0.031 C 
ATOM     70  C   UNL A   1      45.520  25.186  30.185  1.00  0.00     0.034 A 
BRANCH  57  71
ATOM     71  C   UNL A   1      43.323  23.043  25.677  1.00  0.00     0.023 A 
ATOM     72  C   UNL A   1      43.371  21.621  25.660  1.00  0.00     0.031 A 
ATOM     73  C   UNL A   1      44.085  23.692  24.700  1.00  0.00     0.131 A 
ATOM     74  C   UNL A   1      44.268  20.920  24.846  1.00  0.00     0.055 A 
ATOM     75  C   UNL A   1      44.923  22.981  23.823  1.00  0.00     0.041 A 
ATOM     76  F   UNL A   1      44.125  25.027  24.609  1.00  0.00    -0.206 F 
ATOM     77  C   UNL A   1      45.054  21.596  23.923  1.00  0.00     0.022 A 
BRANCH  74  78
ATOM     78  S   UNL A   1      44.525  19.151  25.180  1.00  0.00     0.124 S 
ATOM     79  O   UNL A   1      45.830  19.149  25.830  1.00  0.00    -0.237 OA
ATOM     80  O   UNL A   1      43.386  18.834  26.035  1.00  0.00    -0.237 OA
ATOM     81  O   UNL A   1      44.490  18.547  23.851  1.00  0.00    -0.744 OA
ENDBRANCH  74  78
ENDBRANCH  57  71
BRANCH  58  82
ATOM     82  C   UNL A   1      44.294  28.018  34.981  1.00  0.00     0.023 A 
ATOM     83  C   UNL A   1      44.332  27.112  36.059  1.00  0.00     0.031 A 
ATOM     84  C   UNL A   1      44.696  29.352  35.339  1.00  0.00     0.131 A 
ATOM     85  C   UNL A   1      44.821  27.534  37.342  1.00  0.00     0.055 A 
ATOM     86  C   UNL A   1      45.261  29.730  36.556  1.00  0.00     0.041 A 
ATOM     87  F   UNL A   1      44.552  30.396  34.512  1.00  0.00    -0.206 F 
ATOM     88  C   UNL A   1      45.341  28.811  37.567  1.00  0.00     0.022 A 
BRANCH  85  89
ATOM     89  S   UNL A   1      44.800  26.435  38.796  1.00  0.00     0.124 S 
ATOM     90  O   UNL A   1      46.002  25.634  38.587  1.00  0.00    -0.237 OA
ATOM     91  O   UNL A   1      44.835  27.373  39.913  1.00  0.00    -0.237 OA
ATOM     92  O   UNL A   1      43.539  25.704  38.651  1.00  0.00    -0.744 OA
ENDBRANCH  85  89
ENDBRANCH  58  82
BRANCH  70  93
ATOM     93  C   UNL A   1      46.047  26.345  29.345  1.00  0.00     0.023 A 
ATOM     94  C   UNL A   1      45.151  27.148  28.618  1.00  0.00     0.031 A 
ATOM     95  C   UNL A   1      47.412  26.623  29.156  1.00  0.00     0.131 A 
ATOM     96  C   UNL A   1      45.618  28.153  27.747  1.00  0.00     0.055 A 
ATOM     97  C   UNL A   1      47.883  27.628  28.298  1.00  0.00     0.041 A 
ATOM     98  F   UNL A   1      48.349  25.917  29.785  1.00  0.00    -0.206 F 
ATOM     99  C   UNL A   1      46.982  28.401  27.585  1.00  0.00     0.022 A 
BRANCH  96 100
ATOM    100  S   UNL A   1      44.419  29.169  26.842  1.00  0.00     0.124 S 
ATOM    101  O   UNL A   1      43.523  29.624  27.899  1.00  0.00    -0.237 OA
ATOM    102  O   UNL A   1      45.264  30.190  26.234  1.00  0.00    -0.237 OA
ATOM    103  O   UNL A   1      43.822  28.228  25.893  1.00  0.00    -0.744 OA
ENDBRANCH  96 100
ENDBRANCH  70  93
ENDBRANCH  44  45
ENDBRANCH  36  39
ENDBRANCH  34  35
ENDBRANCH  33  34
ENDBRANCH  32  33
ENDBRANCH   1  32
TORSDOF 22
ENDMDL
MODEL 2
REMARK VINA RESULT:     -11.5      2.750      7.560
REMARK SMILES COc1ccc(-c2ccc(CCC(=O)NCCCCCCNC(=O)c3ccc(-c4c5nc(c(-c6cc(S(=O)(=O)[O-])ccc6F)c6ccc([nH]6)c(-c6cc(S(=O)(=O)[O-])ccc6F)c6nc(c(-c7cc(S(=O)(=O)[O-])ccc7F)c7ccc4[nH]7)C=C6)C=C5)cc3)n2-c2ccc(C(C)=O)cc2)cc1
REMARK SMILES IDX 18 1 17 2 16 3 15 4 13 5 14 6 12 8 11 9 10 10 7 11 8 12
REMARK SMILES IDX 88 13 9 14 6 15 3 16 4 17 99 18 5 19 98 20 2 21 1 22 89 23
REMARK SMILES IDX 90 24 97 25 91 26 96 27 92 28 93 29 94 30 95 31 19 32 20 33
REMARK SMILES IDX 21 34 22 35 23 36 24 38 25 39 26 40 87 41 27 42 86 43 28 44
REMARK SMILES IDX 29 45 30 46 80 47 31 48 85 49 79 50 81 51 32 52 84 53 78 54
REMARK SMILES IDX 77 55 33 57 65 58 45 59 64 60 46 61 49 62 63 63 82 64 47 65
REMARK SMILES IDX 48 66 62 68 83 69 50 70 34 71 35 72 43 73 36 74 42 75 44 76
REMARK SMILES IDX 41 77 37 78 38 79 39 80 40 81 66 82 67 83 75 84 68 85 74 86
REMARK SMILES IDX 76 87 73 88 69 89 70 90 71 91 72 92 51 93 52 94 60 95 53 96
REMARK SMILES IDX 59 97 61 98 58 99 54 100 55 101 56 102 57 103
REMARK H PARENT 15 7 22 37 81 56 49 67
REMARK Flexibility Score: inf
ROOT
ATOM      1  C   UNL A   1      31.174  28.952  25.173  1.00  0.00     0.002 C 
ENDROOT
BRANCH   1   2
ATOM      2  C   UNL A   1      30.643  29.533  23.868  1.00  0.00     0.021 C 
BRANCH   2   3
ATOM      3  C   UNL A   1      30.823  28.650  22.637  1.00  0.00     0.116 C 
BRANCH   3   4
ATOM      4  N   UNL A   1      32.154  28.813  22.088  1.00  0.00    -0.356 N 
ATOM      5  C   UNL A   1      33.277  28.079  22.325  1.00  0.00     0.220 C 
ATOM      6  O   UNL A   1      34.351  28.488  21.880  1.00  0.00    -0.275 OA
ATOM      7  H   UNL A   1      32.262  29.559  21.455  1.00  0.00     0.163 HD
BRANCH   5   8
ATOM      8  C   UNL A   1      33.193  26.765  23.078  1.00  0.00     0.106 C 
BRANCH   8   9
ATOM      9  C   UNL A   1      32.943  25.561  22.169  1.00  0.00     0.064 C 
BRANCH   9  10
ATOM     10  C   UNL A   1      32.289  24.395  22.862  1.00  0.00     0.024 A 
ATOM     11  C   UNL A   1      32.032  22.274  23.604  1.00  0.00     0.053 A 
ATOM     12  C   UNL A   1      30.807  22.923  23.696  1.00  0.00     0.029 A 
ATOM     13  N   UNL A   1      32.970  23.273  23.339  1.00  0.00    -0.314 N 
ATOM     14  C   UNL A   1      30.969  24.245  23.232  1.00  0.00     0.024 A 
BRANCH  11  15
ATOM     15  C   UNL A   1      32.319  20.904  24.030  1.00  0.00    -0.001 A 
ATOM     16  C   UNL A   1      33.048  18.299  24.788  1.00  0.00     0.118 A 
ATOM     17  C   UNL A   1      32.790  18.597  23.450  1.00  0.00     0.047 A 
ATOM     18  C   UNL A   1      32.958  19.305  25.750  1.00  0.00     0.047 A 
ATOM     19  C   UNL A   1      32.420  19.888  23.073  1.00  0.00     0.014 A 
ATOM     20  C   UNL A   1      32.595  20.606  25.371  1.00  0.00     0.014 A 
BRANCH  16  21
ATOM     21  O   UNL A   1      33.459  17.022  25.040  1.00  0.00    -0.497 OA
ATOM     22  C   UNL A   1      32.457  16.159  25.562  1.00  0.00     0.278 C 
ENDBRANCH  16  21
ENDBRANCH  11  15
BRANCH  13  23
ATOM     23  C   UNL A   1      34.291  23.294  23.849  1.00  0.00     0.046 A 
ATOM     24  C   UNL A   1      34.438  23.630  25.201  1.00  0.00     0.027 A 
ATOM     25  C   UNL A   1      35.389  22.872  23.103  1.00  0.00     0.027 A 
ATOM     26  C   UNL A   1      35.684  23.551  25.816  1.00  0.00     0.014 A 
ATOM     27  C   UNL A   1      36.645  22.819  23.720  1.00  0.00     0.014 A 
ATOM     28  C   UNL A   1      36.801  23.147  25.081  1.00  0.00     0.017 A 
BRANCH  28  29
ATOM     29  C   UNL A   1      38.165  23.049  25.686  1.00  0.00     0.159 C 
ATOM     30  C   UNL A   1      38.803  21.705  25.949  1.00  0.00     0.093 C 
ATOM     31  O   UNL A   1      38.771  24.083  25.971  1.00  0.00    -0.295 OA
ENDBRANCH  28  29
ENDBRANCH  13  23
ENDBRANCH   9  10
ENDBRANCH   8   9
ENDBRANCH   5   8
ENDBRANCH   3   4
ENDBRANCH   2   3
ENDBRANCH   1   2
BRANCH   1  32
ATOM     32  C   UNL A   1      32.210  29.828  25.881  1.00  0.00     0.002 C 
BRANCH  32  33
ATOM     33  C   UNL A   1      33.632  29.245  25.965  1.00  0.00     0.021 C 
BRANCH  33  34
ATOM     34  C   UNL A   1      34.205  29.170  27.383  1.00  0.00     0.116 C 
BRANCH  34  35
ATOM     35  N   UNL A   1      34.296  30.501  27.951  1.00  0.00    -0.352 N 
ATOM     36  C   UNL A   1      35.168  31.020  28.869  1.00  0.00     0.251 C 
ATOM     37  H   UNL A   1      33.621  31.136  27.622  1.00  0.00     0.163 HD
ATOM     38  O   UNL A   1      34.812  32.010  29.499  1.00  0.00    -0.269 OA
BRANCH  36  39
ATOM     39  C   UNL A   1      36.514  30.448  29.102  1.00  0.00     0.039 A 
ATOM     40  C   UNL A   1      37.418  30.496  28.031  1.00  0.00     0.014 A 
ATOM     41  C   UNL A   1      36.852  29.752  30.269  1.00  0.00     0.014 A 
ATOM     42  C   UNL A   1      38.654  29.868  28.132  1.00  0.00     0.010 A 
ATOM     43  C   UNL A   1      38.092  29.127  30.376  1.00  0.00     0.010 A 
ATOM     44  C   UNL A   1      38.994  29.191  29.309  1.00  0.00    -0.014 A 
BRANCH  44  45
ATOM     45  C   UNL A   1      40.393  28.737  29.472  1.00  0.00     0.031 A 
ATOM     46  C   UNL A   1      41.271  29.918  29.989  1.00  0.00     0.074 A 
ATOM     47  C   UNL A   1      40.671  27.442  29.103  1.00  0.00     0.049 A 
ATOM     48  N   UNL A   1      42.513  30.214  29.754  1.00  0.00    -0.248 NA
ATOM     49  C   UNL A   1      40.634  30.992  30.811  1.00  0.00     0.031 C 
ATOM     50  C   UNL A   1      39.665  26.436  28.669  1.00  0.00     0.029 A 
ATOM     51  N   UNL A   1      41.828  26.692  29.012  1.00  0.00    -0.354 N 
ATOM     52  C   UNL A   1      42.862  31.319  30.577  1.00  0.00     0.074 A 
ATOM     53  C   UNL A   1      41.630  31.840  31.078  1.00  0.00     0.031 C 
ATOM     54  C   UNL A   1      40.252  25.274  28.289  1.00  0.00     0.029 A 
ATOM     55  C   UNL A   1      41.690  25.383  28.441  1.00  0.00     0.049 A 
ATOM     56  H   UNL A   1      42.697  27.035  29.320  1.00  0.00     0.167 HD
ATOM     57  C   UNL A   1      44.153  31.625  30.913  1.00  0.00     0.034 A 
ATOM     58  C   UNL A   1      42.673  24.490  28.077  1.00  0.00     0.034 A 
ATOM     59  C   UNL A   1      45.029  30.705  30.271  1.00  0.00     0.049 A 
ATOM     60  C   UNL A   1      43.903  25.137  28.557  1.00  0.00     0.074 A 
ATOM     61  C   UNL A   1      45.393  30.522  28.965  1.00  0.00     0.029 A 
ATOM     62  N   UNL A   1      45.385  29.595  31.001  1.00  0.00    -0.354 N 
ATOM     63  N   UNL A   1      44.282  25.192  29.796  1.00  0.00    -0.248 NA
ATOM     64  C   UNL A   1      44.734  25.857  27.581  1.00  0.00     0.031 C 
ATOM     65  C   UNL A   1      45.444  29.118  28.859  1.00  0.00     0.029 A 
ATOM     66  C   UNL A   1      45.371  28.537  30.133  1.00  0.00     0.049 A 
ATOM     67  H   UNL A   1      45.608  29.568  31.960  1.00  0.00     0.167 HD
ATOM     68  C   UNL A   1      45.210  26.200  29.773  1.00  0.00     0.074 A 
ATOM     69  C   UNL A   1      45.677  26.303  28.406  1.00  0.00     0.031 C 
ATOM     70  C   UNL A   1      45.126  27.216  30.667  1.00  0.00     0.034 A 
BRANCH  57  71
ATOM     71  C   UNL A   1      44.791  32.500  31.973  1.00  0.00     0.023 A 
ATOM     72  C   UNL A   1      46.077  33.021  31.658  1.00  0.00     0.031 A 
ATOM     73  C   UNL A   1      44.414  32.574  33.317  1.00  0.00     0.131 A 
ATOM     74  C   UNL A   1      46.983  33.406  32.652  1.00  0.00     0.055 A 
ATOM     75  C   UNL A   1      45.295  33.043  34.308  1.00  0.00     0.041 A 
ATOM     76  F   UNL A   1      43.228  32.120  33.743  1.00  0.00    -0.206 F 
ATOM     77  C   UNL A   1      46.600  33.415  33.986  1.00  0.00     0.022 A 
BRANCH  74  78
ATOM     78  S   UNL A   1      48.716  33.679  32.172  1.00  0.00     0.124 S 
ATOM     79  O   UNL A   1      48.585  34.645  31.088  1.00  0.00    -0.237 OA
ATOM     80  O   UNL A   1      49.299  34.186  33.411  1.00  0.00    -0.237 OA
ATOM     81  O   UNL A   1      49.170  32.350  31.772  1.00  0.00    -0.744 OA
ENDBRANCH  74  78
ENDBRANCH  57  71
BRANCH  58  82
ATOM     82  C   UNL A   1      42.901  23.174  27.316  1.00  0.00     0.023 A 
ATOM     83  C   UNL A   1      43.910  22.873  26.380  1.00  0.00     0.031 A 
ATOM     84  C   UNL A   1      42.021  22.068  27.585  1.00  0.00     0.131 A 
ATOM     85  C   UNL A   1      44.037  21.542  25.855  1.00  0.00     0.055 A 
ATOM     86  C   UNL A   1      42.208  20.757  27.149  1.00  0.00     0.041 A 
ATOM     87  F   UNL A   1      40.894  22.198  28.296  1.00  0.00    -0.206 F 
ATOM     88  C   UNL A   1      43.235  20.482  26.286  1.00  0.00     0.022 A 
BRANCH  85  89
ATOM     89  S   UNL A   1      45.258  21.120  24.569  1.00  0.00     0.124 S 
ATOM     90  O   UNL A   1      46.251  20.369  25.330  1.00  0.00    -0.237 OA
ATOM     91  O   UNL A   1      44.469  20.357  23.609  1.00  0.00    -0.237 OA
ATOM     92  O   UNL A   1      45.710  22.427  24.088  1.00  0.00    -0.744 OA
ENDBRANCH  85  89
ENDBRANCH  58  82
BRANCH  70  93
ATOM     93  C   UNL A   1      44.408  26.877  31.969  1.00  0.00     0.023 A 
ATOM     94  C   UNL A   1      43.268  27.605  32.352  1.00  0.00     0.031 A 
ATOM     95  C   UNL A   1      44.868  25.925  32.896  1.00  0.00     0.131 A 
ATOM     96  C   UNL A   1      42.652  27.388  33.601  1.00  0.00     0.055 A 
ATOM     97  C   UNL A   1      44.254  25.697  34.137  1.00  0.00     0.041 A 
ATOM     98  F   UNL A   1      45.946  25.186  32.642  1.00  0.00    -0.206 F 
ATOM     99  C   UNL A   1      43.137  26.434  34.497  1.00  0.00     0.022 A 
BRANCH  96 100
ATOM    100  S   UNL A   1      41.177  28.347  34.041  1.00  0.00     0.124 S 
ATOM    101  O   UNL A   1      40.934  27.943  35.421  1.00  0.00    -0.237 OA
ATOM    102  O   UNL A   1      41.623  29.722  33.844  1.00  0.00    -0.237 OA
ATOM    103  O   UNL A   1      40.173  27.888  33.080  1.00  0.00    -0.744 OA
ENDBRANCH  96 100
ENDBRANCH  70  93
ENDBRANCH  44  45
ENDBRANCH  36  39
ENDBRANCH  34  35
ENDBRANCH  33  34
ENDBRANCH  32  33
ENDBRANCH   1  32
TORSDOF 22
ENDMDL
MODEL 3
REMARK VINA RESULT:     -11.1      3.871      8.492
REMARK SMILES COc1ccc(-c2ccc(CCC(=O)NCCCCCCNC(=O)c3ccc(-c4c5nc(c(-c6cc(S(=O)(=O)[O-])ccc6F)c6ccc([nH]6)c(-c6cc(S(=O)(=O)[O-])ccc6F)c6nc(c(-c7cc(S(=O)(=O)[O-])ccc7F)c7ccc4[nH]7)C=C6)C=C5)cc3)n2-c2ccc(C(C)=O)cc2)cc1
REMARK SMILES IDX 18 1 17 2 16 3 15 4 13 5 14 6 12 8 11 9 10 10 7 11 8 12
REMARK SMILES IDX 88 13 9 14 6 15 3 16 4 17 99 18 5 19 98 20 2 21 1 22 89 23
REMARK SMILES IDX 90 24 97 25 91 26 96 27 92 28 93 29 94 30 95 31 19 32 20 33
REMARK SMILES IDX 21 34 22 35 23 36 24 38 25 39 26 40 87 41 27 42 86 43 28 44
REMARK SMILES IDX 29 45 30 46 80 47 31 48 85 49 79 50 81 51 32 52 84 53 78 54
REMARK SMILES IDX 77 55 33 57 65 58 45 59 64 60 46 61 49 62 63 63 82 64 47 65
REMARK SMILES IDX 48 66 62 68 83 69 50 70 34 71 35 72 43 73 36 74 42 75 44 76
REMARK SMILES IDX 41 77 37 78 38 79 39 80 40 81 66 82 67 83 75 84 68 85 74 86
REMARK SMILES IDX 76 87 73 88 69 89 70 90 71 91 72 92 51 93 52 94 60 95 53 96
REMARK SMILES IDX 59 97 61 98 58 99 54 100 55 101 56 102 57 103
REMARK H PARENT 15 7 22 37 81 56 49 67
REMARK Flexibility Score: inf
ROOT
ATOM      1  C   UNL A   1      31.038  29.081  25.190  1.00  0.00     0.002 C 
ENDROOT
BRANCH   1   2
ATOM      2  C   UNL A   1      30.574  29.502  23.801  1.00  0.00     0.021 C 
BRANCH   2   3
ATOM      3  C   UNL A   1      30.682  28.430  22.722  1.00  0.00     0.116 C 
BRANCH   3   4
ATOM      4  N   UNL A   1      31.944  28.546  22.019  1.00  0.00    -0.356 N 
ATOM      5  C   UNL A   1      33.181  28.119  22.399  1.00  0.00     0.220 C 
ATOM      6  O   UNL A   1      34.153  28.465  21.725  1.00  0.00    -0.275 OA
ATOM      7  H   UNL A   1      31.902  28.995  21.144  1.00  0.00     0.163 HD
BRANCH   5   8
ATOM      8  C   UNL A   1      33.346  27.201  23.594  1.00  0.00     0.106 C 
BRANCH   8   9
ATOM      9  C   UNL A   1      33.897  25.822  23.227  1.00  0.00     0.064 C 
BRANCH   9  10
ATOM     10  C   UNL A   1      33.065  24.674  23.735  1.00  0.00     0.024 A 
ATOM     11  C   UNL A   1      32.451  22.526  24.089  1.00  0.00     0.053 A 
ATOM     12  C   UNL A   1      31.368  23.346  24.380  1.00  0.00     0.029 A 
ATOM     13  N   UNL A   1      33.546  23.381  23.950  1.00  0.00    -0.314 N 
ATOM     14  C   UNL A   1      31.752  24.685  24.158  1.00  0.00     0.024 A 
BRANCH  11  15
ATOM     15  C   UNL A   1      32.498  21.071  24.234  1.00  0.00    -0.001 A 
ATOM     16  C   UNL A   1      32.761  18.282  24.438  1.00  0.00     0.118 A 
ATOM     17  C   UNL A   1      32.450  18.872  23.213  1.00  0.00     0.047 A 
ATOM     18  C   UNL A   1      32.957  19.084  25.562  1.00  0.00     0.047 A 
ATOM     19  C   UNL A   1      32.311  20.257  23.112  1.00  0.00     0.014 A 
ATOM     20  C   UNL A   1      32.827  20.477  25.460  1.00  0.00     0.014 A 
BRANCH  16  21
ATOM     21  O   UNL A   1      32.933  16.927  24.414  1.00  0.00    -0.497 OA
ATOM     22  C   UNL A   1      34.265  16.495  24.167  1.00  0.00     0.278 C 
ENDBRANCH  16  21
ENDBRANCH  11  15
BRANCH  13  23
ATOM     23  C   UNL A   1      34.865  23.075  24.367  1.00  0.00     0.046 A 
ATOM     24  C   UNL A   1      35.240  23.515  25.642  1.00  0.00     0.027 A 
ATOM     25  C   UNL A   1      35.715  22.262  23.622  1.00  0.00     0.027 A 
ATOM     26  C   UNL A   1      36.470  23.149  26.181  1.00  0.00     0.014 A 
ATOM     27  C   UNL A   1      36.963  21.918  24.158  1.00  0.00     0.014 A 
ATOM     28  C   UNL A   1      37.345  22.349  25.444  1.00  0.00     0.017 A 
BRANCH  28  29
ATOM     29  C   UNL A   1      38.681  21.929  25.968  1.00  0.00     0.159 C 
ATOM     30  C   UNL A   1      39.504  22.857  26.829  1.00  0.00     0.093 C 
ATOM     31  O   UNL A   1      39.108  20.807  25.691  1.00  0.00    -0.295 OA
ENDBRANCH  28  29
ENDBRANCH  13  23
ENDBRANCH   9  10
ENDBRANCH   8   9
ENDBRANCH   5   8
ENDBRANCH   3   4
ENDBRANCH   2   3
ENDBRANCH   1   2
BRANCH   1  32
ATOM     32  C   UNL A   1      31.822  30.155  25.949  1.00  0.00     0.002 C 
BRANCH  32  33
ATOM     33  C   UNL A   1      33.336  29.909  26.079  1.00  0.00     0.021 C 
BRANCH  33  34
ATOM     34  C   UNL A   1      33.882  30.054  27.502  1.00  0.00     0.116 C 
BRANCH  34  35
ATOM     35  N   UNL A   1      33.690  31.412  27.971  1.00  0.00    -0.352 N 
ATOM     36  C   UNL A   1      34.339  32.119  28.947  1.00  0.00     0.251 C 
ATOM     37  H   UNL A   1      32.975  31.908  27.512  1.00  0.00     0.163 HD
ATOM     38  O   UNL A   1      33.753  33.071  29.448  1.00  0.00    -0.269 OA
BRANCH  36  39
ATOM     39  C   UNL A   1      35.713  31.788  29.389  1.00  0.00     0.039 A 
ATOM     40  C   UNL A   1      36.745  31.993  28.461  1.00  0.00     0.014 A 
ATOM     41  C   UNL A   1      35.987  31.160  30.610  1.00  0.00     0.014 A 
ATOM     42  C   UNL A   1      38.041  31.589  28.758  1.00  0.00     0.010 A 
ATOM     43  C   UNL A   1      37.287  30.759  30.914  1.00  0.00     0.010 A 
ATOM     44  C   UNL A   1      38.313  30.979  29.989  1.00  0.00    -0.014 A 
BRANCH  44  45
ATOM     45  C   UNL A   1      39.729  30.775  30.367  1.00  0.00     0.031 A 
ATOM     46  C   UNL A   1      40.330  32.113  30.897  1.00  0.00     0.074 A 
ATOM     47  C   UNL A   1      40.255  29.525  30.142  1.00  0.00     0.049 A 
ATOM     48  N   UNL A   1      41.530  32.597  30.801  1.00  0.00    -0.248 NA
ATOM     49  C   UNL A   1      39.423  33.112  31.541  1.00  0.00     0.031 C 
ATOM     50  C   UNL A   1      39.490  28.342  29.664  1.00  0.00     0.029 A 
ATOM     51  N   UNL A   1      41.517  28.973  30.261  1.00  0.00    -0.354 N 
ATOM     52  C   UNL A   1      41.583  33.791  31.570  1.00  0.00     0.074 A 
ATOM     53  C   UNL A   1      40.227  34.128  31.865  1.00  0.00     0.031 C 
ATOM     54  C   UNL A   1      40.300  27.273  29.458  1.00  0.00     0.029 A 
ATOM     55  C   UNL A   1      41.667  27.629  29.784  1.00  0.00     0.049 A 
ATOM     56  H   UNL A   1      42.269  29.474  30.651  1.00  0.00     0.167 HD
ATOM     57  C   UNL A   1      42.750  34.327  32.045  1.00  0.00     0.034 A 
ATOM     58  C   UNL A   1      42.820  26.892  29.623  1.00  0.00     0.034 A 
ATOM     59  C   UNL A   1      43.840  33.529  31.597  1.00  0.00     0.049 A 
ATOM     60  C   UNL A   1      43.853  27.761  30.205  1.00  0.00     0.074 A 
ATOM     61  C   UNL A   1      44.408  33.333  30.368  1.00  0.00     0.029 A 
ATOM     62  N   UNL A   1      44.260  32.538  32.454  1.00  0.00    -0.354 N 
ATOM     63  N   UNL A   1      44.041  27.950  31.474  1.00  0.00    -0.248 NA
ATOM     64  C   UNL A   1      44.690  28.551  29.289  1.00  0.00     0.031 C 
ATOM     65  C   UNL A   1      44.694  31.953  30.382  1.00  0.00     0.029 A 
ATOM     66  C   UNL A   1      44.534  31.444  31.679  1.00  0.00     0.049 A 
ATOM     67  H   UNL A   1      44.348  32.604  33.432  1.00  0.00     0.167 HD
ATOM     68  C   UNL A   1      44.794  29.095  31.490  1.00  0.00     0.074 A 
ATOM     69  C   UNL A   1      45.425  29.194  30.191  1.00  0.00     0.031 C 
ATOM     70  C   UNL A   1      44.426  30.134  32.281  1.00  0.00     0.034 A 
BRANCH  57  71
ATOM     71  C   UNL A   1      43.088  35.355  33.104  1.00  0.00     0.023 A 
ATOM     72  C   UNL A   1      42.400  35.221  34.343  1.00  0.00     0.031 A 
ATOM     73  C   UNL A   1      43.728  36.580  32.890  1.00  0.00     0.131 A 
ATOM     74  C   UNL A   1      42.214  36.306  35.207  1.00  0.00     0.055 A 
ATOM     75  C   UNL A   1      43.611  37.645  33.802  1.00  0.00     0.041 A 
ATOM     76  F   UNL A   1      44.409  36.832  31.766  1.00  0.00    -0.206 F 
ATOM     77  C   UNL A   1      42.814  37.528  34.940  1.00  0.00     0.022 A 
BRANCH  74  78
ATOM     78  S   UNL A   1      41.002  36.131  36.552  1.00  0.00     0.124 S 
ATOM     79  O   UNL A   1      40.913  34.682  36.698  1.00  0.00    -0.237 OA
ATOM     80  O   UNL A   1      41.656  36.842  37.646  1.00  0.00    -0.237 OA
ATOM     81  O   UNL A   1      39.807  36.778  36.018  1.00  0.00    -0.744 OA
ENDBRANCH  74  78
ENDBRANCH  57  71
BRANCH  58  82
ATOM     82  C   UNL A   1      43.356  25.589  29.006  1.00  0.00     0.023 A 
ATOM     83  C   UNL A   1      43.353  25.203  27.652  1.00  0.00     0.031 A 
ATOM     84  C   UNL A   1      43.979  24.628  29.875  1.00  0.00     0.131 A 
ATOM     85  C   UNL A   1      44.008  23.991  27.243  1.00  0.00     0.055 A 
ATOM     86  C   UNL A   1      44.697  23.506  29.463  1.00  0.00     0.041 A 
ATOM     87  F   UNL A   1      43.920  24.715  31.210  1.00  0.00    -0.206 F 
ATOM     88  C   UNL A   1      44.728  23.188  28.131  1.00  0.00     0.022 A 
BRANCH  85  89
ATOM     89  S   UNL A   1      43.951  23.391  25.523  1.00  0.00     0.124 S 
ATOM     90  O   UNL A   1      43.886  24.639  24.769  1.00  0.00    -0.237 OA
ATOM     91  O   UNL A   1      45.188  22.629  25.403  1.00  0.00    -0.237 OA
ATOM     92  O   UNL A   1      42.729  22.585  25.485  1.00  0.00    -0.744 OA
ENDBRANCH  85  89
ENDBRANCH  58  82
BRANCH  70  93
ATOM     93  C   UNL A   1      43.595  29.756  33.502  1.00  0.00     0.023 A 
ATOM     94  C   UNL A   1      42.234  30.104  33.559  1.00  0.00     0.031 A 
ATOM     95  C   UNL A   1      44.123  29.152  34.658  1.00  0.00     0.131 A 
ATOM     96  C   UNL A   1      41.471  29.867  34.720  1.00  0.00     0.055 A 
ATOM     97  C   UNL A   1      43.367  28.906  35.813  1.00  0.00     0.041 A 
ATOM     98  F   UNL A   1      45.404  28.792  34.719  1.00  0.00    -0.206 F 
ATOM     99  C   UNL A   1      42.029  29.265  35.849  1.00  0.00     0.022 A 
BRANCH  96 100
ATOM    100  S   UNL A   1      39.716  30.324  34.737  1.00  0.00     0.124 S 
ATOM    101  O   UNL A   1      39.760  31.765  34.516  1.00  0.00    -0.237 OA
ATOM    102  O   UNL A   1      39.171  29.524  33.645  1.00  0.00    -0.237 OA
ATOM    103  O   UNL A   1      39.271  29.919  36.070  1.00  0.00    -0.744 OA
ENDBRANCH  96 100
ENDBRANCH  70  93
ENDBRANCH  44  45
ENDBRANCH  36  39
ENDBRANCH  34  35
ENDBRANCH  33  34
ENDBRANCH  32  33
ENDBRANCH   1  32
TORSDOF 22
ENDMDL
