MODEL 1
REMARK VINA RESULT:      -9.6      0.000      0.000
REMARK SMILES N#CCC[NH+]1CCN(c2cc(C(=O)NCCCCCCNC(=O)c3ccc(-c4c5nc(c(-c6cc(S(=O)(=O)[O-])ccc6F)c6ccc([nH]6)c(-c6cc(S(=O)(=O)[O-])ccc6F)c6nc(c(-c7cc(S(=O)(=O)[O-])ccc7F)c7ccc4[nH]7)C=C6)C=C5)cc3)c3cc(NS(=O)(=O)c4ccccc4Cl)ccc3n2)CC1
REMARK SMILES IDX 17 1 16 2 15 3 14 4 12 5 13 6 11 8 9 9 10 10 104 11 103 12
REMARK SMILES IDX 87 13 102 14 88 15 101 16 89 17 8 18 5 19 6 20 106 21 7 23
REMARK SMILES IDX 105 24 4 25 3 26 2 27 1 28 90 29 91 31 92 32 93 33 94 34
REMARK SMILES IDX 95 35 99 36 96 37 98 38 100 39 97 40 18 41 19 42 20 43 21 44
REMARK SMILES IDX 22 45 23 47 24 48 25 49 86 50 26 51 85 52 27 53 28 54 29 55
REMARK SMILES IDX 79 56 30 57 84 58 78 59 80 60 31 61 83 62 77 63 76 64 32 66
REMARK SMILES IDX 64 67 44 68 63 69 45 70 48 71 62 72 81 73 46 74 47 75 61 77
REMARK SMILES IDX 82 78 49 79 33 80 34 81 42 82 35 83 41 84 43 85 40 86 36 87
REMARK SMILES IDX 37 88 38 89 39 90 65 91 66 92 74 93 67 94 73 95 75 96 72 97
REMARK SMILES IDX 68 98 69 99 70 100 71 101 50 102 51 103 59 104 52 105 58 106
REMARK SMILES IDX 60 107 57 108 53 109 54 110 55 111 56 112
REMARK H PARENT 14 7 5 22 90 30 21 46 80 65 48 76
REMARK Flexibility Score: inf
ROOT
ATOM      1  C   UNL A   1      48.918  37.800  27.471  1.00  0.00     0.002 C 
ENDROOT
BRANCH   1   2
ATOM      2  C   UNL A   1      48.752  39.337  27.585  1.00  0.00     0.021 C 
BRANCH   2   3
ATOM      3  C   UNL A   1      47.522  40.126  27.115  1.00  0.00     0.116 C 
BRANCH   3   4
ATOM      4  N   UNL A   1      47.474  41.560  26.994  1.00  0.00    -0.352 N 
ATOM      5  C   UNL A   1      46.466  42.404  26.535  1.00  0.00     0.252 C 
ATOM      6  O   UNL A   1      46.688  43.607  26.738  1.00  0.00    -0.269 OA
ATOM      7  H   UNL A   1      48.294  42.023  27.284  1.00  0.00     0.163 HD
BRANCH   5   8
ATOM      8  C   UNL A   1      45.173  42.059  25.781  1.00  0.00     0.052 A 
ATOM      9  C   UNL A   1      43.892  42.686  23.791  1.00  0.00     0.130 A 
ATOM     10  C   UNL A   1      45.044  42.772  24.565  1.00  0.00     0.061 A 
ATOM     11  N   UNL A   1      42.883  41.889  24.161  1.00  0.00    -0.231 NA
ATOM     12  C   UNL A   1      42.883  41.325  25.350  1.00  0.00     0.074 A 
ATOM     13  C   UNL A   1      43.997  41.359  26.204  1.00  0.00     0.015 A 
ATOM     14  C   UNL A   1      41.666  40.781  25.748  1.00  0.00     0.031 A 
ATOM     15  C   UNL A   1      43.743  40.777  27.439  1.00  0.00     0.038 A 
ATOM     16  C   UNL A   1      41.419  40.505  27.085  1.00  0.00     0.029 A 
ATOM     17  C   UNL A   1      42.466  40.642  27.960  1.00  0.00     0.050 A 
BRANCH   9  18
ATOM     18  N   UNL A   1      43.659  43.484  22.689  1.00  0.00    -0.345 N 
ATOM     19  N   UNL A   1      44.182  43.320  19.786  1.00  0.00    -0.331 N 
ATOM     20  C   UNL A   1      45.244  43.740  20.753  1.00  0.00     0.284 C 
ATOM     21  C   UNL A   1      43.373  42.324  20.549  1.00  0.00     0.284 C 
ATOM     22  H   UNL A   1      44.531  42.901  18.924  1.00  0.00     0.348 HD
ATOM     23  C   UNL A   1      44.734  44.306  22.115  1.00  0.00     0.179 C 
ATOM     24  C   UNL A   1      42.646  42.970  21.744  1.00  0.00     0.179 C 
BRANCH  19  25
ATOM     25  C   UNL A   1      43.418  44.514  19.330  1.00  0.00     0.277 C 
BRANCH  25  26
ATOM     26  C   UNL A   1      42.458  44.423  18.124  1.00  0.00     0.181 C 
BRANCH  26  27
ATOM     27  C   UNL A   1      40.998  44.296  18.527  1.00  0.00     0.068 C 
ATOM     28  N   UNL A   1      39.787  44.191  18.861  1.00  0.00    -0.198 NA
ENDBRANCH  26  27
ENDBRANCH  25  26
ENDBRANCH  19  25
ENDBRANCH   9  18
BRANCH  17  29
ATOM     29  N   UNL A   1      42.200  40.944  29.321  1.00  0.00    -0.280 N 
ATOM     30  H   UNL A   1      41.416  41.503  29.533  1.00  0.00     0.180 HD
BRANCH  29  31
ATOM     31  S   UNL A   1      43.152  40.401  30.582  1.00  0.00     0.263 S 
ATOM     32  O   UNL A   1      42.467  40.733  31.825  1.00  0.00    -0.201 OA
ATOM     33  O   UNL A   1      43.420  39.031  30.253  1.00  0.00    -0.201 OA
BRANCH  31  34
ATOM     34  C   UNL A   1      44.716  41.276  30.623  1.00  0.00     0.106 A 
ATOM     35  C   UNL A   1      44.664  42.679  30.643  1.00  0.00     0.024 A 
ATOM     36  C   UNL A   1      45.966  40.684  30.560  1.00  0.00     0.061 A 
ATOM     37  C   UNL A   1      45.796  43.494  30.597  1.00  0.00     0.002 A 
ATOM     38  C   UNL A   1      47.119  41.500  30.521  1.00  0.00     0.022 A 
ATOM     39  Cl  UNL A   1      46.201  38.983  30.515  1.00  0.00    -0.083 Cl
ATOM     40  C   UNL A   1      47.038  42.897  30.533  1.00  0.00     0.002 A 
ENDBRANCH  31  34
ENDBRANCH  29  31
ENDBRANCH  17  29
ENDBRANCH   5   8
ENDBRANCH   3   4
ENDBRANCH   2   3
ENDBRANCH   1   2
BRANCH   1  41
ATOM     41  C   UNL A   1      47.838  36.698  27.283  1.00  0.00     0.002 C 
BRANCH  41  42
ATOM     42  C   UNL A   1      47.166  36.375  25.952  1.00  0.00     0.021 C 
BRANCH  42  43
ATOM     43  C   UNL A   1      46.936  34.913  25.662  1.00  0.00     0.116 C 
BRANCH  43  44
ATOM     44  N   UNL A   1      45.795  34.754  24.776  1.00  0.00    -0.352 N 
ATOM     45  C   UNL A   1      44.519  34.379  25.122  1.00  0.00     0.251 C 
ATOM     46  H   UNL A   1      45.954  34.935  23.821  1.00  0.00     0.163 HD
ATOM     47  O   UNL A   1      43.747  33.939  24.277  1.00  0.00    -0.269 OA
BRANCH  45  48
ATOM     48  C   UNL A   1      44.109  34.521  26.536  1.00  0.00     0.039 A 
ATOM     49  C   UNL A   1      43.549  35.716  26.989  1.00  0.00     0.014 A 
ATOM     50  C   UNL A   1      44.258  33.432  27.400  1.00  0.00     0.014 A 
ATOM     51  C   UNL A   1      43.111  35.804  28.312  1.00  0.00     0.010 A 
ATOM     52  C   UNL A   1      43.721  33.486  28.675  1.00  0.00     0.010 A 
ATOM     53  C   UNL A   1      43.181  34.686  29.160  1.00  0.00    -0.014 A 
BRANCH  53  54
ATOM     54  C   UNL A   1      42.798  34.764  30.591  1.00  0.00     0.031 A 
ATOM     55  C   UNL A   1      41.385  34.415  30.983  1.00  0.00     0.074 A 
ATOM     56  C   UNL A   1      43.685  35.187  31.510  1.00  0.00     0.049 A 
ATOM     57  N   UNL A   1      40.803  34.495  32.151  1.00  0.00    -0.248 NA
ATOM     58  C   UNL A   1      40.495  33.953  29.904  1.00  0.00     0.031 C 
ATOM     59  C   UNL A   1      45.067  35.589  31.234  1.00  0.00     0.029 A 
ATOM     60  N   UNL A   1      43.559  35.349  32.866  1.00  0.00    -0.354 N 
ATOM     61  C   UNL A   1      39.483  34.108  31.940  1.00  0.00     0.074 A 
ATOM     62  C   UNL A   1      39.326  33.893  30.520  1.00  0.00     0.031 C 
ATOM     63  C   UNL A   1      45.671  35.908  32.390  1.00  0.00     0.029 A 
ATOM     64  C   UNL A   1      44.711  35.783  33.482  1.00  0.00     0.049 A 
ATOM     65  H   UNL A   1      42.723  35.172  33.353  1.00  0.00     0.167 HD
ATOM     66  C   UNL A   1      38.501  33.905  32.852  1.00  0.00     0.034 A 
ATOM     67  C   UNL A   1      44.954  36.050  34.781  1.00  0.00     0.034 A 
ATOM     68  C   UNL A   1      38.687  34.102  34.266  1.00  0.00     0.049 A 
ATOM     69  C   UNL A   1      43.834  35.854  35.775  1.00  0.00     0.074 A 
ATOM     70  C   UNL A   1      37.784  33.901  35.293  1.00  0.00     0.029 A 
ATOM     71  N   UNL A   1      39.868  34.544  34.853  1.00  0.00    -0.354 N 
ATOM     72  N   UNL A   1      42.602  35.448  35.565  1.00  0.00    -0.248 NA
ATOM     73  C   UNL A   1      44.141  36.138  37.183  1.00  0.00     0.031 C 
ATOM     74  C   UNL A   1      38.394  34.283  36.491  1.00  0.00     0.029 A 
ATOM     75  C   UNL A   1      39.707  34.644  36.224  1.00  0.00     0.049 A 
ATOM     76  H   UNL A   1      40.696  34.755  34.365  1.00  0.00     0.167 HD
ATOM     77  C   UNL A   1      42.003  35.390  36.821  1.00  0.00     0.074 A 
ATOM     78  C   UNL A   1      43.013  35.787  37.780  1.00  0.00     0.031 C 
ATOM     79  C   UNL A   1      40.734  35.040  37.157  1.00  0.00     0.034 A 
BRANCH  66  80
ATOM     80  C   UNL A   1      37.154  33.457  32.334  1.00  0.00     0.023 A 
ATOM     81  C   UNL A   1      36.122  34.378  32.076  1.00  0.00     0.031 A 
ATOM     82  C   UNL A   1      36.880  32.093  32.137  1.00  0.00     0.131 A 
ATOM     83  C   UNL A   1      34.845  33.920  31.722  1.00  0.00     0.055 A 
ATOM     84  C   UNL A   1      35.633  31.650  31.693  1.00  0.00     0.041 A 
ATOM     85  F   UNL A   1      37.816  31.164  32.389  1.00  0.00    -0.206 F 
ATOM     86  C   UNL A   1      34.600  32.564  31.499  1.00  0.00     0.022 A 
BRANCH  83  87
ATOM     87  S   UNL A   1      33.473  35.107  31.711  1.00  0.00     0.124 S 
ATOM     88  O   UNL A   1      34.159  36.351  32.052  1.00  0.00    -0.237 OA
ATOM     89  O   UNL A   1      32.977  35.004  30.343  1.00  0.00    -0.237 OA
ATOM     90  O   UNL A   1      32.571  34.597  32.742  1.00  0.00    -0.744 OA
ENDBRANCH  83  87
ENDBRANCH  66  80
BRANCH  67  91
ATOM     91  C   UNL A   1      46.298  36.522  35.228  1.00  0.00     0.023 A 
ATOM     92  C   UNL A   1      47.292  35.606  35.610  1.00  0.00     0.031 A 
ATOM     93  C   UNL A   1      46.590  37.892  35.347  1.00  0.00     0.131 A 
ATOM     94  C   UNL A   1      48.501  36.068  36.154  1.00  0.00     0.055 A 
ATOM     95  C   UNL A   1      47.820  38.347  35.826  1.00  0.00     0.041 A 
ATOM     96  F   UNL A   1      45.679  38.814  34.996  1.00  0.00    -0.206 F 
ATOM     97  C   UNL A   1      48.778  37.431  36.251  1.00  0.00     0.022 A 
BRANCH  94  98
ATOM     98  S   UNL A   1      49.657  34.854  36.849  1.00  0.00     0.124 S 
ATOM     99  O   UNL A   1      50.237  35.601  37.960  1.00  0.00    -0.237 OA
ATOM    100  O   UNL A   1      48.765  33.757  37.208  1.00  0.00    -0.237 OA
ATOM    101  O   UNL A   1      50.568  34.578  35.740  1.00  0.00    -0.744 OA
ENDBRANCH  94  98
ENDBRANCH  67  91
BRANCH  79 102
ATOM    102  C   UNL A   1      40.395  35.016  38.627  1.00  0.00     0.023 A 
ATOM    103  C   UNL A   1      40.745  33.932  39.450  1.00  0.00     0.031 A 
ATOM    104  C   UNL A   1      39.713  36.098  39.210  1.00  0.00     0.131 A 
ATOM    105  C   UNL A   1      40.360  33.927  40.798  1.00  0.00     0.055 A 
ATOM    106  C   UNL A   1      39.393  36.119  40.567  1.00  0.00     0.041 A 
ATOM    107  F   UNL A   1      39.354  37.159  38.469  1.00  0.00    -0.206 F 
ATOM    108  C   UNL A   1      39.704  35.022  41.367  1.00  0.00     0.022 A 
BRANCH 105 109
ATOM    109  S   UNL A   1      40.647  32.430  41.778  1.00  0.00     0.124 S 
ATOM    110  O   UNL A   1      39.301  31.876  41.887  1.00  0.00    -0.237 OA
ATOM    111  O   UNL A   1      41.578  31.681  40.940  1.00  0.00    -0.237 OA
ATOM    112  O   UNL A   1      41.211  32.940  43.026  1.00  0.00    -0.744 OA
ENDBRANCH 105 109
ENDBRANCH  79 102
ENDBRANCH  53  54
ENDBRANCH  45  48
ENDBRANCH  43  44
ENDBRANCH  42  43
ENDBRANCH  41  42
ENDBRANCH   1  41
TORSDOF 23
ENDMDL
MODEL 2
REMARK VINA RESULT:      -9.5      5.560     13.398
REMARK SMILES N#CCC[NH+]1CCN(c2cc(C(=O)NCCCCCCNC(=O)c3ccc(-c4c5nc(c(-c6cc(S(=O)(=O)[O-])ccc6F)c6ccc([nH]6)c(-c6cc(S(=O)(=O)[O-])ccc6F)c6nc(c(-c7cc(S(=O)(=O)[O-])ccc7F)c7ccc4[nH]7)C=C6)C=C5)cc3)c3cc(NS(=O)(=O)c4ccccc4Cl)ccc3n2)CC1
REMARK SMILES IDX 17 1 16 2 15 3 14 4 12 5 13 6 11 8 9 9 10 10 104 11 103 12
REMARK SMILES IDX 87 13 102 14 88 15 101 16 89 17 8 18 5 19 6 20 106 21 7 23
REMARK SMILES IDX 105 24 4 25 3 26 2 27 1 28 90 29 91 31 92 32 93 33 94 34
REMARK SMILES IDX 95 35 99 36 96 37 98 38 100 39 97 40 18 41 19 42 20 43 21 44
REMARK SMILES IDX 22 45 23 47 24 48 25 49 86 50 26 51 85 52 27 53 28 54 29 55
REMARK SMILES IDX 79 56 30 57 84 58 78 59 80 60 31 61 83 62 77 63 76 64 32 66
REMARK SMILES IDX 64 67 44 68 63 69 45 70 48 71 62 72 81 73 46 74 47 75 61 77
REMARK SMILES IDX 82 78 49 79 33 80 34 81 42 82 35 83 41 84 43 85 40 86 36 87
REMARK SMILES IDX 37 88 38 89 39 90 65 91 66 92 74 93 67 94 73 95 75 96 72 97
REMARK SMILES IDX 68 98 69 99 70 100 71 101 50 102 51 103 59 104 52 105 58 106
REMARK SMILES IDX 60 107 57 108 53 109 54 110 55 111 56 112
REMARK H PARENT 14 7 5 22 90 30 21 46 80 65 48 76
REMARK Flexibility Score: inf
ROOT
ATOM      1  C   UNL A   1      38.402  32.393  32.628  1.00  0.00     0.002 C 
ENDROOT
BRANCH   1   2
ATOM      2  C   UNL A   1      39.614  31.500  32.262  1.00  0.00     0.021 C 
BRANCH   2   3
ATOM      3  C   UNL A   1      40.055  30.253  33.041  1.00  0.00     0.116 C 
BRANCH   3   4
ATOM      4  N   UNL A   1      39.231  29.090  33.245  1.00  0.00    -0.352 N 
ATOM      5  C   UNL A   1      38.700  28.176  32.337  1.00  0.00     0.252 C 
ATOM      6  O   UNL A   1      38.184  27.182  32.869  1.00  0.00    -0.269 OA
ATOM      7  H   UNL A   1      39.002  28.910  34.186  1.00  0.00     0.163 HD
BRANCH   5   8
ATOM      8  C   UNL A   1      38.623  28.257  30.805  1.00  0.00     0.052 A 
ATOM      9  C   UNL A   1      39.944  27.798  28.795  1.00  0.00     0.130 A 
ATOM     10  C   UNL A   1      39.769  27.718  30.172  1.00  0.00     0.061 A 
ATOM     11  N   UNL A   1      39.006  28.357  28.022  1.00  0.00    -0.231 NA
ATOM     12  C   UNL A   1      38.000  29.007  28.565  1.00  0.00     0.074 A 
ATOM     13  C   UNL A   1      37.741  28.988  29.946  1.00  0.00     0.015 A 
ATOM     14  C   UNL A   1      37.267  29.802  27.690  1.00  0.00     0.031 A 
ATOM     15  C   UNL A   1      36.683  29.813  30.304  1.00  0.00     0.038 A 
ATOM     16  C   UNL A   1      36.444  30.811  28.171  1.00  0.00     0.029 A 
ATOM     17  C   UNL A   1      36.267  30.883  29.529  1.00  0.00     0.050 A 
BRANCH   9  18
ATOM     18  N   UNL A   1      41.114  27.433  28.159  1.00  0.00    -0.345 N 
ATOM     19  N   UNL A   1      41.988  25.228  26.397  1.00  0.00    -0.331 N 
ATOM     20  C   UNL A   1      41.908  25.063  27.882  1.00  0.00     0.284 C 
ATOM     21  C   UNL A   1      40.867  26.161  26.078  1.00  0.00     0.284 C 
ATOM     22  H   UNL A   1      41.885  24.364  25.865  1.00  0.00     0.348 HD
ATOM     23  C   UNL A   1      41.977  26.381  28.715  1.00  0.00     0.179 C 
ATOM     24  C   UNL A   1      41.093  27.559  26.687  1.00  0.00     0.179 C 
BRANCH  19  25
ATOM     25  C   UNL A   1      43.336  25.734  26.020  1.00  0.00     0.277 C 
BRANCH  25  26
ATOM     26  C   UNL A   1      44.423  24.768  25.501  1.00  0.00     0.181 C 
BRANCH  26  27
ATOM     27  C   UNL A   1      43.855  23.524  24.839  1.00  0.00     0.068 C 
ATOM     28  N   UNL A   1      43.384  22.491  24.290  1.00  0.00    -0.198 NA
ENDBRANCH  26  27
ENDBRANCH  25  26
ENDBRANCH  19  25
ENDBRANCH   9  18
BRANCH  17  29
ATOM     29  N   UNL A   1      35.956  32.135  30.124  1.00  0.00    -0.280 N 
ATOM     30  H   UNL A   1      36.363  32.353  30.995  1.00  0.00     0.180 HD
BRANCH  29  31
ATOM     31  S   UNL A   1      34.934  33.254  29.422  1.00  0.00     0.263 S 
ATOM     32  O   UNL A   1      35.722  34.033  28.474  1.00  0.00    -0.201 OA
ATOM     33  O   UNL A   1      33.824  32.473  28.961  1.00  0.00    -0.201 OA
BRANCH  31  34
ATOM     34  C   UNL A   1      34.326  34.416  30.643  1.00  0.00     0.106 A 
ATOM     35  C   UNL A   1      34.718  34.209  31.975  1.00  0.00     0.024 A 
ATOM     36  C   UNL A   1      33.444  35.453  30.390  1.00  0.00     0.061 A 
ATOM     37  C   UNL A   1      34.262  34.982  33.044  1.00  0.00     0.002 A 
ATOM     38  C   UNL A   1      32.982  36.248  31.464  1.00  0.00     0.022 A 
ATOM     39  Cl  UNL A   1      32.859  35.831  28.820  1.00  0.00    -0.083 Cl
ATOM     40  C   UNL A   1      33.382  36.013  32.784  1.00  0.00     0.002 A 
ENDBRANCH  31  34
ENDBRANCH  29  31
ENDBRANCH  17  29
ENDBRANCH   5   8
ENDBRANCH   3   4
ENDBRANCH   2   3
ENDBRANCH   1   2
BRANCH   1  41
ATOM     41  C   UNL A   1      37.179  32.080  33.535  1.00  0.00     0.002 C 
BRANCH  41  42
ATOM     42  C   UNL A   1      36.970  32.667  34.928  1.00  0.00     0.021 C 
BRANCH  42  43
ATOM     43  C   UNL A   1      37.980  32.268  35.974  1.00  0.00     0.116 C 
BRANCH  43  44
ATOM     44  N   UNL A   1      38.062  33.291  37.003  1.00  0.00    -0.352 N 
ATOM     45  C   UNL A   1      39.096  34.169  37.223  1.00  0.00     0.251 C 
ATOM     46  H   UNL A   1      37.290  33.364  37.610  1.00  0.00     0.163 HD
ATOM     47  O   UNL A   1      39.218  34.730  38.306  1.00  0.00    -0.269 OA
BRANCH  45  48
ATOM     48  C   UNL A   1      40.052  34.411  36.121  1.00  0.00     0.039 A 
ATOM     49  C   UNL A   1      39.638  35.067  34.962  1.00  0.00     0.014 A 
ATOM     50  C   UNL A   1      41.382  34.006  36.273  1.00  0.00     0.014 A 
ATOM     51  C   UNL A   1      40.574  35.341  33.963  1.00  0.00     0.010 A 
ATOM     52  C   UNL A   1      42.327  34.380  35.333  1.00  0.00     0.010 A 
ATOM     53  C   UNL A   1      41.927  35.012  34.147  1.00  0.00    -0.014 A 
BRANCH  53  54
ATOM     54  C   UNL A   1      42.934  35.218  33.078  1.00  0.00     0.031 A 
ATOM     55  C   UNL A   1      43.532  36.590  32.898  1.00  0.00     0.074 A 
ATOM     56  C   UNL A   1      43.267  34.207  32.254  1.00  0.00     0.049 A 
ATOM     57  N   UNL A   1      44.357  37.024  31.982  1.00  0.00    -0.248 NA
ATOM     58  C   UNL A   1      43.110  37.625  33.858  1.00  0.00     0.031 C 
ATOM     59  C   UNL A   1      42.720  32.849  32.313  1.00  0.00     0.029 A 
ATOM     60  N   UNL A   1      44.150  34.162  31.205  1.00  0.00    -0.354 N 
ATOM     61  C   UNL A   1      44.536  38.378  32.249  1.00  0.00     0.074 A 
ATOM     62  C   UNL A   1      43.659  38.713  33.347  1.00  0.00     0.031 C 
ATOM     63  C   UNL A   1      43.312  32.095  31.372  1.00  0.00     0.029 A 
ATOM     64  C   UNL A   1      44.241  32.924  30.610  1.00  0.00     0.049 A 
ATOM     65  H   UNL A   1      44.669  34.942  30.905  1.00  0.00     0.167 HD
ATOM     66  C   UNL A   1      45.389  39.253  31.664  1.00  0.00     0.034 A 
ATOM     67  C   UNL A   1      44.991  32.514  29.568  1.00  0.00     0.034 A 
ATOM     68  C   UNL A   1      46.274  38.890  30.587  1.00  0.00     0.049 A 
ATOM     69  C   UNL A   1      45.907  33.516  28.905  1.00  0.00     0.074 A 
ATOM     70  C   UNL A   1      47.206  39.674  29.932  1.00  0.00     0.029 A 
ATOM     71  N   UNL A   1      46.338  37.627  30.010  1.00  0.00    -0.354 N 
ATOM     72  N   UNL A   1      46.096  34.784  29.195  1.00  0.00    -0.248 NA
ATOM     73  C   UNL A   1      46.720  33.030  27.784  1.00  0.00     0.031 C 
ATOM     74  C   UNL A   1      47.784  38.906  28.917  1.00  0.00     0.029 A 
ATOM     75  C   UNL A   1      47.275  37.618  28.991  1.00  0.00     0.049 A 
ATOM     76  H   UNL A   1      45.796  36.852  30.284  1.00  0.00     0.167 HD
ATOM     77  C   UNL A   1      47.080  35.232  28.318  1.00  0.00     0.074 A 
ATOM     78  C   UNL A   1      47.454  34.095  27.501  1.00  0.00     0.031 C 
ATOM     79  C   UNL A   1      47.630  36.467  28.195  1.00  0.00     0.034 A 
BRANCH  66  80
ATOM     80  C   UNL A   1      45.390  40.673  32.179  1.00  0.00     0.023 A 
ATOM     81  C   UNL A   1      44.495  41.637  31.679  1.00  0.00     0.031 A 
ATOM     82  C   UNL A   1      46.320  41.083  33.149  1.00  0.00     0.131 A 
ATOM     83  C   UNL A   1      44.606  42.975  32.083  1.00  0.00     0.055 A 
ATOM     84  C   UNL A   1      46.364  42.398  33.617  1.00  0.00     0.041 A 
ATOM     85  F   UNL A   1      47.216  40.217  33.648  1.00  0.00    -0.206 F 
ATOM     86  C   UNL A   1      45.515  43.358  33.071  1.00  0.00     0.022 A 
BRANCH  83  87
ATOM     87  S   UNL A   1      43.655  44.232  31.185  1.00  0.00     0.124 S 
ATOM     88  O   UNL A   1      43.746  45.373  32.092  1.00  0.00    -0.237 OA
ATOM     89  O   UNL A   1      44.391  44.350  29.932  1.00  0.00    -0.237 OA
ATOM     90  O   UNL A   1      42.324  43.637  31.074  1.00  0.00    -0.744 OA
ENDBRANCH  83  87
ENDBRANCH  66  80
BRANCH  67  91
ATOM     91  C   UNL A   1      44.924  31.105  29.082  1.00  0.00     0.023 A 
ATOM     92  C   UNL A   1      45.626  30.082  29.740  1.00  0.00     0.031 A 
ATOM     93  C   UNL A   1      44.215  30.765  27.915  1.00  0.00     0.131 A 
ATOM     94  C   UNL A   1      45.660  28.789  29.195  1.00  0.00     0.055 A 
ATOM     95  C   UNL A   1      44.197  29.462  27.414  1.00  0.00     0.041 A 
ATOM     96  F   UNL A   1      43.524  31.700  27.244  1.00  0.00    -0.206 F 
ATOM     97  C   UNL A   1      44.940  28.469  28.045  1.00  0.00     0.022 A 
BRANCH  94  98
ATOM     98  S   UNL A   1      46.766  27.561  29.946  1.00  0.00     0.124 S 
ATOM     99  O   UNL A   1      46.719  27.943  31.354  1.00  0.00    -0.237 OA
ATOM    100  O   UNL A   1      46.106  26.307  29.599  1.00  0.00    -0.237 OA
ATOM    101  O   UNL A   1      48.043  27.799  29.277  1.00  0.00    -0.744 OA
ENDBRANCH  94  98
ENDBRANCH  67  91
BRANCH  79 102
ATOM    102  C   UNL A   1      48.733  36.630  27.179  1.00  0.00     0.023 A 
ATOM    103  C   UNL A   1      50.086  36.472  27.523  1.00  0.00     0.031 A 
ATOM    104  C   UNL A   1      48.421  36.946  25.845  1.00  0.00     0.131 A 
ATOM    105  C   UNL A   1      51.081  36.687  26.559  1.00  0.00     0.055 A 
ATOM    106  C   UNL A   1      49.411  37.092  24.874  1.00  0.00     0.041 A 
ATOM    107  F   UNL A   1      47.144  37.109  25.462  1.00  0.00    -0.206 F 
ATOM    108  C   UNL A   1      50.752  36.976  25.233  1.00  0.00     0.022 A 
BRANCH 105 109
ATOM    109  S   UNL A   1      52.816  36.675  27.084  1.00  0.00     0.124 S 
ATOM    110  O   UNL A   1      53.158  38.093  27.033  1.00  0.00    -0.237 OA
ATOM    111  O   UNL A   1      52.735  36.087  28.417  1.00  0.00    -0.237 OA
ATOM    112  O   UNL A   1      53.472  35.842  26.078  1.00  0.00    -0.744 OA
ENDBRANCH 105 109
ENDBRANCH  79 102
ENDBRANCH  53  54
ENDBRANCH  45  48
ENDBRANCH  43  44
ENDBRANCH  42  43
ENDBRANCH  41  42
ENDBRANCH   1  41
TORSDOF 23
ENDMDL
MODEL 3
REMARK VINA RESULT:      -9.3      6.069     13.530
REMARK SMILES N#CCC[NH+]1CCN(c2cc(C(=O)NCCCCCCNC(=O)c3ccc(-c4c5nc(c(-c6cc(S(=O)(=O)[O-])ccc6F)c6ccc([nH]6)c(-c6cc(S(=O)(=O)[O-])ccc6F)c6nc(c(-c7cc(S(=O)(=O)[O-])ccc7F)c7ccc4[nH]7)C=C6)C=C5)cc3)c3cc(NS(=O)(=O)c4ccccc4Cl)ccc3n2)CC1
REMARK SMILES IDX 17 1 16 2 15 3 14 4 12 5 13 6 11 8 9 9 10 10 104 11 103 12
REMARK SMILES IDX 87 13 102 14 88 15 101 16 89 17 8 18 5 19 6 20 106 21 7 23
REMARK SMILES IDX 105 24 4 25 3 26 2 27 1 28 90 29 91 31 92 32 93 33 94 34
REMARK SMILES IDX 95 35 99 36 96 37 98 38 100 39 97 40 18 41 19 42 20 43 21 44
REMARK SMILES IDX 22 45 23 47 24 48 25 49 86 50 26 51 85 52 27 53 28 54 29 55
REMARK SMILES IDX 79 56 30 57 84 58 78 59 80 60 31 61 83 62 77 63 76 64 32 66
REMARK SMILES IDX 64 67 44 68 63 69 45 70 48 71 62 72 81 73 46 74 47 75 61 77
REMARK SMILES IDX 82 78 49 79 33 80 34 81 42 82 35 83 41 84 43 85 40 86 36 87
REMARK SMILES IDX 37 88 38 89 39 90 65 91 66 92 74 93 67 94 73 95 75 96 72 97
REMARK SMILES IDX 68 98 69 99 70 100 71 101 50 102 51 103 59 104 52 105 58 106
REMARK SMILES IDX 60 107 57 108 53 109 54 110 55 111 56 112
REMARK H PARENT 14 7 5 22 90 30 21 46 80 65 48 76
REMARK Flexibility Score: inf
ROOT
ATOM      1  C   UNL A   1      47.487  31.191  31.709  1.00  0.00     0.002 C 
ENDROOT
BRANCH   1   2
ATOM      2  C   UNL A   1      46.885  29.766  31.814  1.00  0.00     0.021 C 
BRANCH   2   3
ATOM      3  C   UNL A   1      45.469  29.375  31.367  1.00  0.00     0.116 C 
BRANCH   3   4
ATOM      4  N   UNL A   1      44.977  28.023  31.319  1.00  0.00    -0.352 N 
ATOM      5  C   UNL A   1      44.239  27.286  32.244  1.00  0.00     0.252 C 
ATOM      6  O   UNL A   1      43.824  26.203  31.805  1.00  0.00    -0.269 OA
ATOM      7  H   UNL A   1      45.201  27.535  30.493  1.00  0.00     0.163 HD
BRANCH   5   8
ATOM      8  C   UNL A   1      43.924  27.603  33.714  1.00  0.00     0.052 A 
ATOM      9  C   UNL A   1      44.348  26.782  35.981  1.00  0.00     0.130 A 
ATOM     10  C   UNL A   1      44.589  26.734  34.612  1.00  0.00     0.061 A 
ATOM     11  N   UNL A   1      43.504  27.686  36.491  1.00  0.00    -0.231 NA
ATOM     12  C   UNL A   1      42.748  28.411  35.696  1.00  0.00     0.074 A 
ATOM     13  C   UNL A   1      42.913  28.429  34.301  1.00  0.00     0.015 A 
ATOM     14  C   UNL A   1      41.702  29.082  36.322  1.00  0.00     0.031 A 
ATOM     15  C   UNL A   1      41.950  29.195  33.657  1.00  0.00     0.038 A 
ATOM     16  C   UNL A   1      40.627  29.560  35.585  1.00  0.00     0.029 A 
ATOM     17  C   UNL A   1      40.717  29.482  34.219  1.00  0.00     0.050 A 
BRANCH   9  18
ATOM     18  N   UNL A   1      44.848  25.852  36.870  1.00  0.00    -0.345 N 
ATOM     19  N   UNL A   1      47.505  24.743  37.531  1.00  0.00    -0.331 N 
ATOM     20  C   UNL A   1      46.718  24.249  36.358  1.00  0.00     0.284 C 
ATOM     21  C   UNL A   1      47.159  26.192  37.614  1.00  0.00     0.284 C 
ATOM     22  H   UNL A   1      48.515  24.629  37.445  1.00  0.00     0.348 HD
ATOM     23  C   UNL A   1      45.176  24.489  36.428  1.00  0.00     0.179 C 
ATOM     24  C   UNL A   1      45.673  26.408  37.962  1.00  0.00     0.179 C 
BRANCH  19  25
ATOM     25  C   UNL A   1      47.149  23.954  38.742  1.00  0.00     0.277 C 
BRANCH  25  26
ATOM     26  C   UNL A   1      47.163  22.411  38.712  1.00  0.00     0.181 C 
BRANCH  26  27
ATOM     27  C   UNL A   1      46.227  21.781  39.730  1.00  0.00     0.068 C 
ATOM     28  N   UNL A   1      45.450  21.259  40.575  1.00  0.00    -0.198 NA
ENDBRANCH  26  27
ENDBRANCH  25  26
ENDBRANCH  19  25
ENDBRANCH   9  18
BRANCH  17  29
ATOM     29  N   UNL A   1      39.528  29.394  33.448  1.00  0.00    -0.280 N 
ATOM     30  H   UNL A   1      38.836  28.751  33.726  1.00  0.00     0.180 HD
BRANCH  29  31
ATOM     31  S   UNL A   1      39.246  30.327  32.091  1.00  0.00     0.263 S 
ATOM     32  O   UNL A   1      37.871  30.805  32.164  1.00  0.00    -0.201 OA
ATOM     33  O   UNL A   1      40.331  31.263  32.078  1.00  0.00    -0.201 OA
BRANCH  31  34
ATOM     34  C   UNL A   1      39.353  29.335  30.602  1.00  0.00     0.106 A 
ATOM     35  C   UNL A   1      39.883  28.041  30.731  1.00  0.00     0.024 A 
ATOM     36  C   UNL A   1      39.026  29.767  29.328  1.00  0.00     0.061 A 
ATOM     37  C   UNL A   1      40.100  27.184  29.651  1.00  0.00     0.002 A 
ATOM     38  C   UNL A   1      39.235  28.904  28.228  1.00  0.00     0.022 A 
ATOM     39  Cl  UNL A   1      38.380  31.324  28.998  1.00  0.00    -0.083 Cl
ATOM     40  C   UNL A   1      39.774  27.622  28.384  1.00  0.00     0.002 A 
ENDBRANCH  31  34
ENDBRANCH  29  31
ENDBRANCH  17  29
ENDBRANCH   5   8
ENDBRANCH   3   4
ENDBRANCH   2   3
ENDBRANCH   1   2
BRANCH   1  41
ATOM     41  C   UNL A   1      48.714  31.803  32.440  1.00  0.00     0.002 C 
BRANCH  41  42
ATOM     42  C   UNL A   1      49.335  31.225  33.708  1.00  0.00     0.021 C 
BRANCH  42  43
ATOM     43  C   UNL A   1      49.845  32.226  34.714  1.00  0.00     0.116 C 
BRANCH  43  44
ATOM     44  N   UNL A   1      49.815  31.651  36.049  1.00  0.00    -0.352 N 
ATOM     45  C   UNL A   1      48.770  31.675  36.941  1.00  0.00     0.251 C 
ATOM     46  H   UNL A   1      50.634  31.194  36.346  1.00  0.00     0.163 HD
ATOM     47  O   UNL A   1      48.966  31.483  38.135  1.00  0.00    -0.269 OA
BRANCH  45  48
ATOM     48  C   UNL A   1      47.412  31.938  36.418  1.00  0.00     0.039 A 
ATOM     49  C   UNL A   1      46.590  30.879  36.030  1.00  0.00     0.014 A 
ATOM     50  C   UNL A   1      46.952  33.257  36.354  1.00  0.00     0.014 A 
ATOM     51  C   UNL A   1      45.290  31.150  35.600  1.00  0.00     0.010 A 
ATOM     52  C   UNL A   1      45.628  33.510  36.037  1.00  0.00     0.010 A 
ATOM     53  C   UNL A   1      44.795  32.464  35.615  1.00  0.00    -0.014 A 
BRANCH  53  54
ATOM     54  C   UNL A   1      43.447  32.798  35.093  1.00  0.00     0.031 A 
ATOM     55  C   UNL A   1      43.304  33.171  33.639  1.00  0.00     0.074 A 
ATOM     56  C   UNL A   1      42.383  32.813  35.917  1.00  0.00     0.049 A 
ATOM     57  N   UNL A   1      42.248  33.583  32.987  1.00  0.00    -0.248 NA
ATOM     58  C   UNL A   1      44.526  33.113  32.819  1.00  0.00     0.031 C 
ATOM     59  C   UNL A   1      42.416  32.508  37.350  1.00  0.00     0.029 A 
ATOM     60  N   UNL A   1      41.064  33.096  35.670  1.00  0.00    -0.354 N 
ATOM     61  C   UNL A   1      42.686  33.844  31.692  1.00  0.00     0.074 A 
ATOM     62  C   UNL A   1      44.116  33.641  31.679  1.00  0.00     0.031 C 
ATOM     63  C   UNL A   1      41.168  32.577  37.842  1.00  0.00     0.029 A 
ATOM     64  C   UNL A   1      40.255  32.979  36.777  1.00  0.00     0.049 A 
ATOM     65  H   UNL A   1      40.728  33.358  34.783  1.00  0.00     0.167 HD
ATOM     66  C   UNL A   1      41.956  34.176  30.600  1.00  0.00     0.034 A 
ATOM     67  C   UNL A   1      38.928  33.179  36.909  1.00  0.00     0.034 A 
ATOM     68  C   UNL A   1      40.526  34.347  30.631  1.00  0.00     0.049 A 
ATOM     69  C   UNL A   1      38.140  33.587  35.687  1.00  0.00     0.074 A 
ATOM     70  C   UNL A   1      39.670  34.652  29.589  1.00  0.00     0.029 A 
ATOM     71  N   UNL A   1      39.741  34.223  31.771  1.00  0.00    -0.354 N 
ATOM     72  N   UNL A   1      38.562  33.791  34.459  1.00  0.00    -0.248 NA
ATOM     73  C   UNL A   1      36.695  33.780  35.864  1.00  0.00     0.031 C 
ATOM     74  C   UNL A   1      38.379  34.777  30.110  1.00  0.00     0.029 A 
ATOM     75  C   UNL A   1      38.414  34.469  31.462  1.00  0.00     0.049 A 
ATOM     76  H   UNL A   1      40.078  33.994  32.667  1.00  0.00     0.167 HD
ATOM     77  C   UNL A   1      37.425  34.093  33.712  1.00  0.00     0.074 A 
ATOM     78  C   UNL A   1      36.303  34.031  34.625  1.00  0.00     0.031 C 
ATOM     79  C   UNL A   1      37.314  34.395  32.393  1.00  0.00     0.034 A 
BRANCH  66  80
ATOM     80  C   UNL A   1      42.701  34.376  29.301  1.00  0.00     0.023 A 
ATOM     81  C   UNL A   1      43.131  33.285  28.525  1.00  0.00     0.031 A 
ATOM     82  C   UNL A   1      43.023  35.668  28.851  1.00  0.00     0.131 A 
ATOM     83  C   UNL A   1      43.932  33.499  27.393  1.00  0.00     0.055 A 
ATOM     84  C   UNL A   1      43.741  35.879  27.672  1.00  0.00     0.041 A 
ATOM     85  F   UNL A   1      42.662  36.749  29.560  1.00  0.00    -0.206 F 
ATOM     86  C   UNL A   1      44.215  34.790  26.944  1.00  0.00     0.022 A 
BRANCH  83  87
ATOM     87  S   UNL A   1      44.725  32.068  26.611  1.00  0.00     0.124 S 
ATOM     88  O   UNL A   1      43.827  30.984  27.002  1.00  0.00    -0.237 OA
ATOM     89  O   UNL A   1      44.712  32.431  25.199  1.00  0.00    -0.237 OA
ATOM     90  O   UNL A   1      46.047  32.028  27.233  1.00  0.00    -0.744 OA
ENDBRANCH  83  87
ENDBRANCH  66  80
BRANCH  67  91
ATOM     91  C   UNL A   1      38.252  32.997  38.227  1.00  0.00     0.023 A 
ATOM     92  C   UNL A   1      38.333  33.987  39.220  1.00  0.00     0.031 A 
ATOM     93  C   UNL A   1      37.573  31.807  38.543  1.00  0.00     0.131 A 
ATOM     94  C   UNL A   1      37.805  33.745  40.498  1.00  0.00     0.055 A 
ATOM     95  C   UNL A   1      36.991  31.598  39.795  1.00  0.00     0.041 A 
ATOM     96  F   UNL A   1      37.463  30.825  37.633  1.00  0.00    -0.206 F 
ATOM     97  C   UNL A   1      37.123  32.563  40.788  1.00  0.00     0.022 A 
BRANCH  94  98
ATOM     98  S   UNL A   1      38.136  34.950  41.814  1.00  0.00     0.124 S 
ATOM     99  O   UNL A   1      38.478  36.141  41.045  1.00  0.00    -0.237 OA
ATOM    100  O   UNL A   1      36.859  34.986  42.519  1.00  0.00    -0.237 OA
ATOM    101  O   UNL A   1      39.240  34.348  42.557  1.00  0.00    -0.744 OA
ENDBRANCH  94  98
ENDBRANCH  67  91
BRANCH  79 102
ATOM    102  C   UNL A   1      35.922  34.620  31.855  1.00  0.00     0.023 A 
ATOM    103  C   UNL A   1      35.101  35.653  32.336  1.00  0.00     0.031 A 
ATOM    104  C   UNL A   1      35.415  33.784  30.845  1.00  0.00     0.131 A 
ATOM    105  C   UNL A   1      33.794  35.790  31.847  1.00  0.00     0.055 A 
ATOM    106  C   UNL A   1      34.139  33.968  30.313  1.00  0.00     0.041 A 
ATOM    107  F   UNL A   1      36.157  32.780  30.351  1.00  0.00    -0.206 F 
ATOM    108  C   UNL A   1      33.315  34.967  30.824  1.00  0.00     0.022 A 
BRANCH 105 109
ATOM    109  S   UNL A   1      32.696  37.001  32.630  1.00  0.00     0.124 S 
ATOM    110  O   UNL A   1      31.379  36.530  32.214  1.00  0.00    -0.237 OA
ATOM    111  O   UNL A   1      33.012  36.841  34.045  1.00  0.00    -0.237 OA
ATOM    112  O   UNL A   1      33.115  38.273  32.042  1.00  0.00    -0.744 OA
ENDBRANCH 105 109
ENDBRANCH  79 102
ENDBRANCH  53  54
ENDBRANCH  45  48
ENDBRANCH  43  44
ENDBRANCH  42  43
ENDBRANCH  41  42
ENDBRANCH   1  41
TORSDOF 23
ENDMDL
