MODEL 1
REMARK VINA RESULT:     -13.0      0.000      0.000
REMARK SMILES Cc1cc(NC(=O)c2ccc(Br)cc2N)ccc1C(=O)NCCCCCCNC(=O)c1ccc(-c2c3nc(c(-c4cc(S(=O)(=O)[O-])ccc4F)c4ccc([nH]4)c(-c4cc(S(=O)(=O)[O-])ccc4F)c4nc(c(-c5cc(S(=O)(=O)[O-])ccc5F)c5ccc2[nH]5)C=C4)C=C3)cc1
REMARK SMILES IDX 24 1 23 2 22 3 21 4 19 5 20 6 18 8 1 9 2 10 3 11 4 12 17 13
REMARK SMILES IDX 16 14 5 15 6 16 7 18 8 19 9 20 14 21 10 22 13 23 11 24 12 25
REMARK SMILES IDX 15 26 25 29 26 30 27 31 28 32 29 33 30 35 31 36 32 37 93 38
REMARK SMILES IDX 33 39 92 40 34 41 35 42 36 43 86 44 37 45 91 46 85 47 87 48
REMARK SMILES IDX 38 49 90 50 84 51 83 52 39 54 71 55 51 56 70 57 52 58 55 59
REMARK SMILES IDX 69 60 88 61 53 62 54 63 68 65 89 66 56 67 40 68 41 69 49 70
REMARK SMILES IDX 42 71 48 72 50 73 47 74 43 75 44 76 45 77 46 78 72 79 73 80
REMARK SMILES IDX 81 81 74 82 80 83 82 84 79 85 75 86 76 87 77 88 78 89 57 90
REMARK SMILES IDX 58 91 66 92 59 93 65 94 67 95 64 96 60 97 61 98 62 99 63 100
REMARK H PARENT 21 7 5 17 15 27 15 28 28 34 87 53 55 64
REMARK Flexibility Score: inf
ROOT
ATOM      1  C   UNL A   1      33.955  28.674  25.335  1.00  0.00     0.002 C 
ENDROOT
BRANCH   1   2
ATOM      2  C   UNL A   1      33.867  27.966  23.977  1.00  0.00     0.021 C 
BRANCH   2   3
ATOM      3  C   UNL A   1      33.889  28.887  22.751  1.00  0.00     0.116 C 
BRANCH   3   4
ATOM      4  N   UNL A   1      32.536  29.245  22.364  1.00  0.00    -0.352 N 
ATOM      5  C   UNL A   1      31.332  28.597  22.408  1.00  0.00     0.251 C 
ATOM      6  O   UNL A   1      30.341  29.225  22.020  1.00  0.00    -0.269 OA
ATOM      7  H   UNL A   1      32.470  30.155  21.991  1.00  0.00     0.163 HD
BRANCH   5   8
ATOM      8  C   UNL A   1      31.103  27.239  22.993  1.00  0.00     0.042 A 
ATOM      9  C   UNL A   1      31.985  25.779  21.063  1.00  0.00     0.045 C 
ATOM     10  C   UNL A   1      31.429  25.989  22.440  1.00  0.00    -0.036 A 
ATOM     11  C   UNL A   1      31.163  24.817  23.184  1.00  0.00     0.030 A 
ATOM     12  C   UNL A   1      30.474  24.859  24.397  1.00  0.00     0.041 A 
ATOM     13  C   UNL A   1      30.349  27.253  24.188  1.00  0.00     0.016 A 
ATOM     14  C   UNL A   1      30.000  26.079  24.860  1.00  0.00     0.027 A 
BRANCH  12  15
ATOM     15  N   UNL A   1      30.222  23.717  25.174  1.00  0.00    -0.322 N 
ATOM     16  C   UNL A   1      31.068  22.678  25.505  1.00  0.00     0.257 C 
ATOM     17  H   UNL A   1      29.308  23.647  25.534  1.00  0.00     0.170 HD
ATOM     18  O   UNL A   1      30.606  21.626  25.948  1.00  0.00    -0.269 OA
BRANCH  16  19
ATOM     19  C   UNL A   1      32.544  22.841  25.433  1.00  0.00     0.063 A 
ATOM     20  C   UNL A   1      33.082  23.970  26.074  1.00  0.00     0.017 A 
ATOM     21  C   UNL A   1      33.385  21.947  24.732  1.00  0.00     0.045 A 
ATOM     22  C   UNL A   1      34.456  24.206  26.046  1.00  0.00     0.016 A 
ATOM     23  C   UNL A   1      34.761  22.214  24.703  1.00  0.00     0.042 A 
ATOM     24  C   UNL A   1      35.289  23.324  25.365  1.00  0.00     0.020 A 
ATOM     25  Br  UNL A   1      37.151  23.648  25.301  1.00  0.00    -0.051 Br
BRANCH  21  26
ATOM     26  N   UNL A   1      32.906  20.914  23.922  1.00  0.00    -0.398 N 
ATOM     27  H   UNL A   1      32.034  21.003  23.476  1.00  0.00     0.156 HD
ATOM     28  H   UNL A   1      33.441  20.097  23.799  1.00  0.00     0.156 HD
ENDBRANCH  21  26
ENDBRANCH  16  19
ENDBRANCH  12  15
ENDBRANCH   5   8
ENDBRANCH   3   4
ENDBRANCH   2   3
ENDBRANCH   1   2
BRANCH   1  29
ATOM     29  C   UNL A   1      32.842  29.682  25.655  1.00  0.00     0.002 C 
BRANCH  29  30
ATOM     30  C   UNL A   1      33.037  30.511  26.924  1.00  0.00     0.021 C 
BRANCH  30  31
ATOM     31  C   UNL A   1      34.136  29.996  27.851  1.00  0.00     0.116 C 
BRANCH  31  32
ATOM     32  N   UNL A   1      34.762  31.036  28.659  1.00  0.00    -0.352 N 
ATOM     33  C   UNL A   1      35.997  31.029  29.275  1.00  0.00     0.251 C 
ATOM     34  H   UNL A   1      34.230  31.855  28.783  1.00  0.00     0.163 HD
ATOM     35  O   UNL A   1      36.358  31.971  29.981  1.00  0.00    -0.269 OA
BRANCH  33  36
ATOM     36  C   UNL A   1      36.944  29.927  28.988  1.00  0.00     0.039 A 
ATOM     37  C   UNL A   1      37.208  29.015  30.017  1.00  0.00     0.014 A 
ATOM     38  C   UNL A   1      37.696  29.899  27.816  1.00  0.00     0.014 A 
ATOM     39  C   UNL A   1      38.356  28.226  29.960  1.00  0.00     0.010 A 
ATOM     40  C   UNL A   1      38.876  29.176  27.793  1.00  0.00     0.010 A 
ATOM     41  C   UNL A   1      39.237  28.387  28.890  1.00  0.00    -0.014 A 
BRANCH  41  42
ATOM     42  C   UNL A   1      40.607  27.880  28.907  1.00  0.00     0.031 A 
ATOM     43  C   UNL A   1      40.930  26.520  28.432  1.00  0.00     0.074 A 
ATOM     44  C   UNL A   1      41.606  28.672  29.357  1.00  0.00     0.049 A 
ATOM     45  N   UNL A   1      41.966  25.847  28.809  1.00  0.00    -0.248 NA
ATOM     46  C   UNL A   1      40.072  25.787  27.510  1.00  0.00     0.031 C 
ATOM     47  C   UNL A   1      43.043  28.435  29.262  1.00  0.00     0.029 A 
ATOM     48  N   UNL A   1      41.487  29.731  30.253  1.00  0.00    -0.354 N 
ATOM     49  C   UNL A   1      42.052  24.724  28.023  1.00  0.00     0.074 A 
ATOM     50  C   UNL A   1      40.826  24.711  27.256  1.00  0.00     0.031 C 
ATOM     51  C   UNL A   1      43.654  29.107  30.249  1.00  0.00     0.029 A 
ATOM     52  C   UNL A   1      42.622  29.693  31.085  1.00  0.00     0.049 A 
ATOM     53  H   UNL A   1      40.749  30.381  30.297  1.00  0.00     0.167 HD
ATOM     54  C   UNL A   1      43.195  23.980  28.020  1.00  0.00     0.034 A 
ATOM     55  C   UNL A   1      42.489  29.524  32.432  1.00  0.00     0.034 A 
ATOM     56  C   UNL A   1      44.188  24.481  28.967  1.00  0.00     0.049 A 
ATOM     57  C   UNL A   1      43.150  28.270  32.970  1.00  0.00     0.074 A 
ATOM     58  C   UNL A   1      45.318  25.274  28.859  1.00  0.00     0.029 A 
ATOM     59  N   UNL A   1      43.927  24.371  30.320  1.00  0.00    -0.354 N 
ATOM     60  N   UNL A   1      43.747  27.374  32.233  1.00  0.00    -0.248 NA
ATOM     61  C   UNL A   1      43.100  27.885  34.381  1.00  0.00     0.031 C 
ATOM     62  C   UNL A   1      45.708  25.669  30.172  1.00  0.00     0.029 A 
ATOM     63  C   UNL A   1      44.827  25.099  31.073  1.00  0.00     0.049 A 
ATOM     64  H   UNL A   1      43.191  23.838  30.701  1.00  0.00     0.167 HD
ATOM     65  C   UNL A   1      44.088  26.301  33.014  1.00  0.00     0.074 A 
ATOM     66  C   UNL A   1      43.666  26.668  34.354  1.00  0.00     0.031 C 
ATOM     67  C   UNL A   1      44.645  25.161  32.513  1.00  0.00     0.034 A 
BRANCH  54  68
ATOM     68  C   UNL A   1      43.499  22.926  26.988  1.00  0.00     0.023 A 
ATOM     69  C   UNL A   1      42.853  21.676  27.068  1.00  0.00     0.031 A 
ATOM     70  C   UNL A   1      44.414  23.073  25.929  1.00  0.00     0.131 A 
ATOM     71  C   UNL A   1      43.195  20.620  26.206  1.00  0.00     0.055 A 
ATOM     72  C   UNL A   1      44.806  22.004  25.113  1.00  0.00     0.041 A 
ATOM     73  F   UNL A   1      44.934  24.269  25.614  1.00  0.00    -0.206 F 
ATOM     74  C   UNL A   1      44.204  20.762  25.258  1.00  0.00     0.022 A 
BRANCH  71  75
ATOM     75  S   UNL A   1      42.288  19.054  26.330  1.00  0.00     0.124 S 
ATOM     76  O   UNL A   1      40.974  19.412  25.804  1.00  0.00    -0.237 OA
ATOM     77  O   UNL A   1      43.096  18.166  25.501  1.00  0.00    -0.237 OA
ATOM     78  O   UNL A   1      42.318  18.758  27.762  1.00  0.00    -0.744 OA
ENDBRANCH  71  75
ENDBRANCH  54  68
BRANCH  55  79
ATOM     79  C   UNL A   1      41.246  30.155  32.972  1.00  0.00     0.023 A 
ATOM     80  C   UNL A   1      41.212  31.566  33.017  1.00  0.00     0.031 A 
ATOM     81  C   UNL A   1      40.028  29.468  33.058  1.00  0.00     0.131 A 
ATOM     82  C   UNL A   1      39.988  32.245  32.946  1.00  0.00     0.055 A 
ATOM     83  C   UNL A   1      38.808  30.155  33.085  1.00  0.00     0.041 A 
ATOM     84  F   UNL A   1      39.986  28.130  32.986  1.00  0.00    -0.206 F 
ATOM     85  C   UNL A   1      38.782  31.546  32.978  1.00  0.00     0.022 A 
BRANCH  82  86
ATOM     86  S   UNL A   1      40.003  34.007  32.491  1.00  0.00     0.124 S 
ATOM     87  O   UNL A   1      39.065  34.042  31.374  1.00  0.00    -0.237 OA
ATOM     88  O   UNL A   1      39.557  34.662  33.718  1.00  0.00    -0.237 OA
ATOM     89  O   UNL A   1      41.401  34.260  32.150  1.00  0.00    -0.744 OA
ENDBRANCH  82  86
ENDBRANCH  55  79
BRANCH  67  90
ATOM     90  C   UNL A   1      45.031  24.000  33.385  1.00  0.00     0.023 A 
ATOM     91  C   UNL A   1      46.365  23.780  33.763  1.00  0.00     0.031 A 
ATOM     92  C   UNL A   1      44.087  23.042  33.812  1.00  0.00     0.131 A 
ATOM     93  C   UNL A   1      46.705  22.699  34.592  1.00  0.00     0.055 A 
ATOM     94  C   UNL A   1      44.443  21.920  34.562  1.00  0.00     0.041 A 
ATOM     95  F   UNL A   1      42.779  23.184  33.555  1.00  0.00    -0.206 F 
ATOM     96  C   UNL A   1      45.758  21.749  34.971  1.00  0.00     0.022 A 
BRANCH  93  97
ATOM     97  S   UNL A   1      48.392  22.611  35.245  1.00  0.00     0.124 S 
ATOM     98  O   UNL A   1      48.923  21.415  34.602  1.00  0.00    -0.237 OA
ATOM     99  O   UNL A   1      48.952  23.881  34.787  1.00  0.00    -0.237 OA
ATOM    100  O   UNL A   1      48.198  22.509  36.690  1.00  0.00    -0.744 OA
ENDBRANCH  93  97
ENDBRANCH  67  90
ENDBRANCH  41  42
ENDBRANCH  33  36
ENDBRANCH  31  32
ENDBRANCH  30  31
ENDBRANCH  29  30
ENDBRANCH   1  29
TORSDOF 19
ENDMDL
MODEL 2
REMARK VINA RESULT:     -12.8      3.954     10.380
REMARK SMILES Cc1cc(NC(=O)c2ccc(Br)cc2N)ccc1C(=O)NCCCCCCNC(=O)c1ccc(-c2c3nc(c(-c4cc(S(=O)(=O)[O-])ccc4F)c4ccc([nH]4)c(-c4cc(S(=O)(=O)[O-])ccc4F)c4nc(c(-c5cc(S(=O)(=O)[O-])ccc5F)c5ccc2[nH]5)C=C4)C=C3)cc1
REMARK SMILES IDX 24 1 23 2 22 3 21 4 19 5 20 6 18 8 1 9 2 10 3 11 4 12 17 13
REMARK SMILES IDX 16 14 5 15 6 16 7 18 8 19 9 20 14 21 10 22 13 23 11 24 12 25
REMARK SMILES IDX 15 26 25 29 26 30 27 31 28 32 29 33 30 35 31 36 32 37 93 38
REMARK SMILES IDX 33 39 92 40 34 41 35 42 36 43 86 44 37 45 91 46 85 47 87 48
REMARK SMILES IDX 38 49 90 50 84 51 83 52 39 54 71 55 51 56 70 57 52 58 55 59
REMARK SMILES IDX 69 60 88 61 53 62 54 63 68 65 89 66 56 67 40 68 41 69 49 70
REMARK SMILES IDX 42 71 48 72 50 73 47 74 43 75 44 76 45 77 46 78 72 79 73 80
REMARK SMILES IDX 81 81 74 82 80 83 82 84 79 85 75 86 76 87 77 88 78 89 57 90
REMARK SMILES IDX 58 91 66 92 59 93 65 94 67 95 64 96 60 97 61 98 62 99 63 100
REMARK H PARENT 21 7 5 17 15 27 15 28 28 34 87 53 55 64
REMARK Flexibility Score: inf
ROOT
ATOM      1  C   UNL A   1      35.794  22.648  26.092  1.00  0.00     0.002 C 
ENDROOT
BRANCH   1   2
ATOM      2  C   UNL A   1      34.756  22.090  27.074  1.00  0.00     0.021 C 
BRANCH   2   3
ATOM      3  C   UNL A   1      33.292  22.241  26.642  1.00  0.00     0.116 C 
BRANCH   3   4
ATOM      4  N   UNL A   1      32.985  21.313  25.569  1.00  0.00    -0.352 N 
ATOM      5  C   UNL A   1      32.522  21.459  24.289  1.00  0.00     0.251 C 
ATOM      6  O   UNL A   1      32.403  20.431  23.614  1.00  0.00    -0.269 OA
ATOM      7  H   UNL A   1      33.146  20.372  25.815  1.00  0.00     0.163 HD
BRANCH   5   8
ATOM      8  C   UNL A   1      32.262  22.766  23.609  1.00  0.00     0.042 A 
ATOM      9  C   UNL A   1      34.630  23.285  22.741  1.00  0.00     0.045 C 
ATOM     10  C   UNL A   1      33.163  23.560  22.880  1.00  0.00    -0.036 A 
ATOM     11  C   UNL A   1      32.697  24.751  22.276  1.00  0.00     0.030 A 
ATOM     12  C   UNL A   1      31.401  25.222  22.488  1.00  0.00     0.041 A 
ATOM     13  C   UNL A   1      30.976  23.294  23.864  1.00  0.00     0.016 A 
ATOM     14  C   UNL A   1      30.564  24.526  23.349  1.00  0.00     0.027 A 
BRANCH  12  15
ATOM     15  N   UNL A   1      30.900  26.384  21.879  1.00  0.00    -0.322 N 
ATOM     16  C   UNL A   1      30.840  27.674  22.367  1.00  0.00     0.257 C 
ATOM     17  H   UNL A   1      30.538  26.260  20.972  1.00  0.00     0.170 HD
ATOM     18  O   UNL A   1      30.114  28.505  21.821  1.00  0.00    -0.269 OA
BRANCH  16  19
ATOM     19  C   UNL A   1      31.719  28.109  23.485  1.00  0.00     0.063 A 
ATOM     20  C   UNL A   1      31.104  28.281  24.737  1.00  0.00     0.017 A 
ATOM     21  C   UNL A   1      33.096  28.382  23.321  1.00  0.00     0.045 A 
ATOM     22  C   UNL A   1      31.852  28.698  25.837  1.00  0.00     0.016 A 
ATOM     23  C   UNL A   1      33.824  28.817  24.437  1.00  0.00     0.042 A 
ATOM     24  C   UNL A   1      33.210  28.960  25.682  1.00  0.00     0.020 A 
ATOM     25  Br  UNL A   1      34.229  29.549  27.162  1.00  0.00    -0.051 Br
BRANCH  21  26
ATOM     26  N   UNL A   1      33.732  28.413  22.078  1.00  0.00    -0.398 N 
ATOM     27  H   UNL A   1      33.199  28.481  21.253  1.00  0.00     0.156 HD
ATOM     28  H   UNL A   1      34.714  28.364  22.026  1.00  0.00     0.156 HD
ENDBRANCH  21  26
ENDBRANCH  16  19
ENDBRANCH  12  15
ENDBRANCH   5   8
ENDBRANCH   3   4
ENDBRANCH   2   3
ENDBRANCH   1   2
BRANCH   1  29
ATOM     29  C   UNL A   1      36.574  21.618  25.263  1.00  0.00     0.002 C 
BRANCH  29  30
ATOM     30  C   UNL A   1      38.090  21.615  25.457  1.00  0.00     0.021 C 
BRANCH  30  31
ATOM     31  C   UNL A   1      38.640  22.863  26.143  1.00  0.00     0.116 C 
BRANCH  31  32
ATOM     32  N   UNL A   1      40.096  22.904  26.214  1.00  0.00    -0.352 N 
ATOM     33  C   UNL A   1      40.918  23.964  26.540  1.00  0.00     0.251 C 
ATOM     34  H   UNL A   1      40.556  22.060  26.001  1.00  0.00     0.163 HD
ATOM     35  O   UNL A   1      42.143  23.852  26.494  1.00  0.00    -0.269 OA
BRANCH  33  36
ATOM     36  C   UNL A   1      40.317  25.214  27.061  1.00  0.00     0.039 A 
ATOM     37  C   UNL A   1      40.603  26.403  26.380  1.00  0.00     0.014 A 
ATOM     38  C   UNL A   1      39.655  25.249  28.286  1.00  0.00     0.014 A 
ATOM     39  C   UNL A   1      40.421  27.626  27.025  1.00  0.00     0.010 A 
ATOM     40  C   UNL A   1      39.548  26.455  28.957  1.00  0.00     0.010 A 
ATOM     41  C   UNL A   1      39.987  27.636  28.350  1.00  0.00    -0.014 A 
BRANCH  41  42
ATOM     42  C   UNL A   1      40.097  28.810  29.212  1.00  0.00     0.031 A 
ATOM     43  C   UNL A   1      39.033  29.834  29.257  1.00  0.00     0.074 A 
ATOM     44  C   UNL A   1      41.187  28.964  29.996  1.00  0.00     0.049 A 
ATOM     45  N   UNL A   1      39.223  31.062  29.609  1.00  0.00    -0.248 NA
ATOM     46  C   UNL A   1      37.659  29.554  28.862  1.00  0.00     0.031 C 
ATOM     47  C   UNL A   1      41.389  29.940  31.063  1.00  0.00     0.029 A 
ATOM     48  N   UNL A   1      42.453  28.427  29.772  1.00  0.00    -0.354 N 
ATOM     49  C   UNL A   1      37.994  31.664  29.726  1.00  0.00     0.074 A 
ATOM     50  C   UNL A   1      37.053  30.695  29.209  1.00  0.00     0.031 C 
ATOM     51  C   UNL A   1      42.705  30.144  31.214  1.00  0.00     0.029 A 
ATOM     52  C   UNL A   1      43.387  29.405  30.166  1.00  0.00     0.049 A 
ATOM     53  H   UNL A   1      42.655  27.536  29.407  1.00  0.00     0.167 HD
ATOM     54  C   UNL A   1      37.884  32.874  30.344  1.00  0.00     0.034 A 
ATOM     55  C   UNL A   1      44.272  29.920  29.265  1.00  0.00     0.034 A 
ATOM     56  C   UNL A   1      39.180  33.412  30.751  1.00  0.00     0.049 A 
ATOM     57  C   UNL A   1      44.136  31.414  29.046  1.00  0.00     0.074 A 
ATOM     58  C   UNL A   1      39.886  33.447  31.941  1.00  0.00     0.029 A 
ATOM     59  N   UNL A   1      40.067  33.813  29.769  1.00  0.00    -0.354 N 
ATOM     60  N   UNL A   1      43.224  32.164  29.602  1.00  0.00    -0.248 NA
ATOM     61  C   UNL A   1      44.966  32.160  28.099  1.00  0.00     0.031 C 
ATOM     62  C   UNL A   1      41.225  33.839  31.650  1.00  0.00     0.029 A 
ATOM     63  C   UNL A   1      41.322  34.061  30.288  1.00  0.00     0.049 A 
ATOM     64  H   UNL A   1      39.833  33.910  28.817  1.00  0.00     0.167 HD
ATOM     65  C   UNL A   1      43.286  33.424  29.066  1.00  0.00     0.074 A 
ATOM     66  C   UNL A   1      44.396  33.375  28.132  1.00  0.00     0.031 C 
ATOM     67  C   UNL A   1      42.399  34.412  29.378  1.00  0.00     0.034 A 
BRANCH  54  68
ATOM     68  C   UNL A   1      36.571  33.467  30.786  1.00  0.00     0.023 A 
ATOM     69  C   UNL A   1      35.727  34.064  29.827  1.00  0.00     0.031 A 
ATOM     70  C   UNL A   1      36.105  33.501  32.113  1.00  0.00     0.131 A 
ATOM     71  C   UNL A   1      34.555  34.739  30.206  1.00  0.00     0.055 A 
ATOM     72  C   UNL A   1      34.974  34.230  32.501  1.00  0.00     0.041 A 
ATOM     73  F   UNL A   1      36.702  32.790  33.082  1.00  0.00    -0.206 F 
ATOM     74  C   UNL A   1      34.198  34.868  31.544  1.00  0.00     0.022 A 
BRANCH  71  75
ATOM     75  S   UNL A   1      33.488  35.440  28.916  1.00  0.00     0.124 S 
ATOM     76  O   UNL A   1      32.676  36.393  29.667  1.00  0.00    -0.237 OA
ATOM     77  O   UNL A   1      34.461  36.007  27.990  1.00  0.00    -0.237 OA
ATOM     78  O   UNL A   1      32.759  34.276  28.411  1.00  0.00    -0.744 OA
ENDBRANCH  71  75
ENDBRANCH  54  68
BRANCH  55  79
ATOM     79  C   UNL A   1      44.695  28.923  28.236  1.00  0.00     0.023 A 
ATOM     80  C   UNL A   1      45.579  27.905  28.656  1.00  0.00     0.031 A 
ATOM     81  C   UNL A   1      43.985  28.722  27.045  1.00  0.00     0.131 A 
ATOM     82  C   UNL A   1      45.587  26.664  28.006  1.00  0.00     0.055 A 
ATOM     83  C   UNL A   1      44.070  27.512  26.344  1.00  0.00     0.041 A 
ATOM     84  F   UNL A   1      43.102  29.632  26.608  1.00  0.00    -0.206 F 
ATOM     85  C   UNL A   1      44.834  26.459  26.850  1.00  0.00     0.022 A 
BRANCH  82  86
ATOM     86  S   UNL A   1      46.332  25.244  28.865  1.00  0.00     0.124 S 
ATOM     87  O   UNL A   1      46.040  24.145  27.951  1.00  0.00    -0.237 OA
ATOM     88  O   UNL A   1      47.737  25.629  28.970  1.00  0.00    -0.237 OA
ATOM     89  O   UNL A   1      45.624  25.207  30.143  1.00  0.00    -0.744 OA
ENDBRANCH  82  86
ENDBRANCH  55  79
BRANCH  67  90
ATOM     90  C   UNL A   1      42.492  35.794  28.797  1.00  0.00     0.023 A 
ATOM     91  C   UNL A   1      42.936  36.883  29.563  1.00  0.00     0.031 A 
ATOM     92  C   UNL A   1      42.078  36.077  27.477  1.00  0.00     0.131 A 
ATOM     93  C   UNL A   1      43.032  38.165  28.998  1.00  0.00     0.055 A 
ATOM     94  C   UNL A   1      42.092  37.369  26.947  1.00  0.00     0.041 A 
ATOM     95  F   UNL A   1      41.689  35.105  26.640  1.00  0.00    -0.206 F 
ATOM     96  C   UNL A   1      42.585  38.422  27.703  1.00  0.00     0.022 A 
BRANCH  93  97
ATOM     97  S   UNL A   1      43.844  39.470  29.956  1.00  0.00     0.124 S 
ATOM     98  O   UNL A   1      44.151  38.799  31.215  1.00  0.00    -0.237 OA
ATOM     99  O   UNL A   1      44.992  39.787  29.109  1.00  0.00    -0.237 OA
ATOM    100  O   UNL A   1      42.830  40.519  30.039  1.00  0.00    -0.744 OA
ENDBRANCH  93  97
ENDBRANCH  67  90
ENDBRANCH  41  42
ENDBRANCH  33  36
ENDBRANCH  31  32
ENDBRANCH  30  31
ENDBRANCH  29  30
ENDBRANCH   1  29
TORSDOF 19
ENDMDL
MODEL 3
REMARK VINA RESULT:     -12.2      3.843      9.554
REMARK SMILES Cc1cc(NC(=O)c2ccc(Br)cc2N)ccc1C(=O)NCCCCCCNC(=O)c1ccc(-c2c3nc(c(-c4cc(S(=O)(=O)[O-])ccc4F)c4ccc([nH]4)c(-c4cc(S(=O)(=O)[O-])ccc4F)c4nc(c(-c5cc(S(=O)(=O)[O-])ccc5F)c5ccc2[nH]5)C=C4)C=C3)cc1
REMARK SMILES IDX 24 1 23 2 22 3 21 4 19 5 20 6 18 8 1 9 2 10 3 11 4 12 17 13
REMARK SMILES IDX 16 14 5 15 6 16 7 18 8 19 9 20 14 21 10 22 13 23 11 24 12 25
REMARK SMILES IDX 15 26 25 29 26 30 27 31 28 32 29 33 30 35 31 36 32 37 93 38
REMARK SMILES IDX 33 39 92 40 34 41 35 42 36 43 86 44 37 45 91 46 85 47 87 48
REMARK SMILES IDX 38 49 90 50 84 51 83 52 39 54 71 55 51 56 70 57 52 58 55 59
REMARK SMILES IDX 69 60 88 61 53 62 54 63 68 65 89 66 56 67 40 68 41 69 49 70
REMARK SMILES IDX 42 71 48 72 50 73 47 74 43 75 44 76 45 77 46 78 72 79 73 80
REMARK SMILES IDX 81 81 74 82 80 83 82 84 79 85 75 86 76 87 77 88 78 89 57 90
REMARK SMILES IDX 58 91 66 92 59 93 65 94 67 95 64 96 60 97 61 98 62 99 63 100
REMARK H PARENT 21 7 5 17 15 27 15 28 28 34 87 53 55 64
REMARK Flexibility Score: inf
ROOT
ATOM      1  C   UNL A   1      35.679  23.482  26.030  1.00  0.00     0.002 C 
ENDROOT
BRANCH   1   2
ATOM      2  C   UNL A   1      35.280  22.302  26.924  1.00  0.00     0.021 C 
BRANCH   2   3
ATOM      3  C   UNL A   1      33.805  22.263  27.345  1.00  0.00     0.116 C 
BRANCH   3   4
ATOM      4  N   UNL A   1      33.068  21.327  26.515  1.00  0.00    -0.352 N 
ATOM      5  C   UNL A   1      32.201  21.466  25.465  1.00  0.00     0.251 C 
ATOM      6  O   UNL A   1      31.770  20.429  24.951  1.00  0.00    -0.269 OA
ATOM      7  H   UNL A   1      33.227  20.386  26.760  1.00  0.00     0.163 HD
BRANCH   5   8
ATOM      8  C   UNL A   1      31.827  22.764  24.820  1.00  0.00     0.042 A 
ATOM      9  C   UNL A   1      33.653  22.892  23.009  1.00  0.00     0.045 C 
ATOM     10  C   UNL A   1      32.422  23.383  23.708  1.00  0.00    -0.036 A 
ATOM     11  C   UNL A   1      31.882  24.599  23.228  1.00  0.00     0.030 A 
ATOM     12  C   UNL A   1      30.856  25.262  23.902  1.00  0.00     0.041 A 
ATOM     13  C   UNL A   1      30.836  23.484  25.523  1.00  0.00     0.016 A 
ATOM     14  C   UNL A   1      30.385  24.736  25.097  1.00  0.00     0.027 A 
BRANCH  12  15
ATOM     15  N   UNL A   1      30.278  26.454  23.435  1.00  0.00    -0.322 N 
ATOM     16  C   UNL A   1      30.438  27.745  23.897  1.00  0.00     0.257 C 
ATOM     17  H   UNL A   1      29.671  26.354  22.667  1.00  0.00     0.170 HD
ATOM     18  O   UNL A   1      29.642  28.622  23.559  1.00  0.00    -0.269 OA
BRANCH  16  19
ATOM     19  C   UNL A   1      31.619  28.123  24.719  1.00  0.00     0.063 A 
ATOM     20  C   UNL A   1      31.535  27.858  26.097  1.00  0.00     0.017 A 
ATOM     21  C   UNL A   1      32.763  28.751  24.178  1.00  0.00     0.045 A 
ATOM     22  C   UNL A   1      32.593  28.191  26.942  1.00  0.00     0.016 A 
ATOM     23  C   UNL A   1      33.807  29.092  25.050  1.00  0.00     0.042 A 
ATOM     24  C   UNL A   1      33.726  28.802  26.413  1.00  0.00     0.020 A 
ATOM     25  Br  UNL A   1      35.157  29.278  27.554  1.00  0.00    -0.051 Br
BRANCH  21  26
ATOM     26  N   UNL A   1      32.841  29.210  22.861  1.00  0.00    -0.398 N 
ATOM     27  H   UNL A   1      33.448  28.771  22.222  1.00  0.00     0.156 HD
ATOM     28  H   UNL A   1      32.290  29.973  22.572  1.00  0.00     0.156 HD
ENDBRANCH  21  26
ENDBRANCH  16  19
ENDBRANCH  12  15
ENDBRANCH   5   8
ENDBRANCH   3   4
ENDBRANCH   2   3
ENDBRANCH   1   2
BRANCH   1  29
ATOM     29  C   UNL A   1      37.178  23.646  25.741  1.00  0.00     0.002 C 
BRANCH  29  30
ATOM     30  C   UNL A   1      37.984  22.351  25.644  1.00  0.00     0.021 C 
BRANCH  30  31
ATOM     31  C   UNL A   1      39.309  22.375  26.402  1.00  0.00     0.116 C 
BRANCH  31  32
ATOM     32  N   UNL A   1      40.257  21.356  25.966  1.00  0.00    -0.352 N 
ATOM     33  C   UNL A   1      41.635  21.361  26.048  1.00  0.00     0.251 C 
ATOM     34  H   UNL A   1      39.859  20.553  25.557  1.00  0.00     0.163 HD
ATOM     35  O   UNL A   1      42.301  20.441  25.574  1.00  0.00    -0.269 OA
BRANCH  33  36
ATOM     36  C   UNL A   1      42.311  22.431  26.818  1.00  0.00     0.039 A 
ATOM     37  C   UNL A   1      42.384  22.284  28.207  1.00  0.00     0.014 A 
ATOM     38  C   UNL A   1      42.688  23.631  26.219  1.00  0.00     0.014 A 
ATOM     39  C   UNL A   1      42.626  23.400  29.006  1.00  0.00     0.010 A 
ATOM     40  C   UNL A   1      42.850  24.755  27.011  1.00  0.00     0.010 A 
ATOM     41  C   UNL A   1      42.759  24.651  28.402  1.00  0.00    -0.014 A 
BRANCH  41  42
ATOM     42  C   UNL A   1      42.665  25.905  29.146  1.00  0.00     0.031 A 
ATOM     43  C   UNL A   1      41.484  26.784  29.026  1.00  0.00     0.074 A 
ATOM     44  C   UNL A   1      43.672  26.269  29.971  1.00  0.00     0.049 A 
ATOM     45  N   UNL A   1      41.499  28.053  29.263  1.00  0.00    -0.248 NA
ATOM     46  C   UNL A   1      40.185  26.295  28.584  1.00  0.00     0.031 C 
ATOM     47  C   UNL A   1      43.679  27.358  30.943  1.00  0.00     0.029 A 
ATOM     48  N   UNL A   1      45.006  25.880  29.875  1.00  0.00    -0.354 N 
ATOM     49  C   UNL A   1      40.200  28.502  29.248  1.00  0.00     0.074 A 
ATOM     50  C   UNL A   1      39.422  27.376  28.779  1.00  0.00     0.031 C 
ATOM     51  C   UNL A   1      44.948  27.742  31.147  1.00  0.00     0.029 A 
ATOM     52  C   UNL A   1      45.785  27.001  30.220  1.00  0.00     0.049 A 
ATOM     53  H   UNL A   1      45.340  24.991  29.614  1.00  0.00     0.167 HD
ATOM     54  C   UNL A   1      39.902  29.740  29.733  1.00  0.00     0.034 A 
ATOM     55  C   UNL A   1      46.661  27.539  29.323  1.00  0.00     0.034 A 
ATOM     56  C   UNL A   1      41.092  30.475  30.156  1.00  0.00     0.049 A 
ATOM     57  C   UNL A   1      46.360  28.976  28.947  1.00  0.00     0.074 A 
ATOM     58  C   UNL A   1      41.704  30.711  31.375  1.00  0.00     0.029 A 
ATOM     59  N   UNL A   1      41.989  30.893  29.191  1.00  0.00    -0.354 N 
ATOM     60  N   UNL A   1      45.327  29.653  29.371  1.00  0.00    -0.248 NA
ATOM     61  C   UNL A   1      47.157  29.731  27.978  1.00  0.00     0.031 C 
ATOM     62  C   UNL A   1      43.003  31.242  31.122  1.00  0.00     0.029 A 
ATOM     63  C   UNL A   1      43.166  31.347  29.753  1.00  0.00     0.049 A 
ATOM     64  H   UNL A   1      41.812  30.870  28.222  1.00  0.00     0.167 HD
ATOM     65  C   UNL A   1      45.273  30.854  28.715  1.00  0.00     0.074 A 
ATOM     66  C   UNL A   1      46.442  30.861  27.855  1.00  0.00     0.031 C 
ATOM     67  C   UNL A   1      44.252  31.746  28.874  1.00  0.00     0.034 A 
BRANCH  54  68
ATOM     68  C   UNL A   1      38.499  30.199  30.037  1.00  0.00     0.023 A 
ATOM     69  C   UNL A   1      38.024  31.393  29.457  1.00  0.00     0.031 A 
ATOM     70  C   UNL A   1      37.600  29.536  30.891  1.00  0.00     0.131 A 
ATOM     71  C   UNL A   1      36.772  31.926  29.807  1.00  0.00     0.055 A 
ATOM     72  C   UNL A   1      36.382  30.099  31.293  1.00  0.00     0.041 A 
ATOM     73  F   UNL A   1      37.844  28.294  31.336  1.00  0.00    -0.206 F 
ATOM     74  C   UNL A   1      35.967  31.311  30.760  1.00  0.00     0.022 A 
BRANCH  71  75
ATOM     75  S   UNL A   1      36.199  33.438  28.984  1.00  0.00     0.124 S 
ATOM     76  O   UNL A   1      37.400  34.268  28.986  1.00  0.00    -0.237 OA
ATOM     77  O   UNL A   1      35.763  32.933  27.686  1.00  0.00    -0.237 OA
ATOM     78  O   UNL A   1      35.123  33.911  29.855  1.00  0.00    -0.744 OA
ENDBRANCH  71  75
ENDBRANCH  54  68
BRANCH  55  79
ATOM     79  C   UNL A   1      47.272  26.512  28.426  1.00  0.00     0.023 A 
ATOM     80  C   UNL A   1      46.970  26.603  27.050  1.00  0.00     0.031 A 
ATOM     81  C   UNL A   1      48.386  25.750  28.803  1.00  0.00     0.131 A 
ATOM     82  C   UNL A   1      47.871  26.113  26.095  1.00  0.00     0.055 A 
ATOM     83  C   UNL A   1      49.232  25.179  27.844  1.00  0.00     0.041 A 
ATOM     84  F   UNL A   1      48.750  25.652  30.090  1.00  0.00    -0.206 F 
ATOM     85  C   UNL A   1      49.006  25.401  26.485  1.00  0.00     0.022 A 
BRANCH  82  86
ATOM     86  S   UNL A   1      47.710  26.693  24.378  1.00  0.00     0.124 S 
ATOM     87  O   UNL A   1      46.327  27.154  24.339  1.00  0.00    -0.237 OA
ATOM     88  O   UNL A   1      48.732  27.734  24.291  1.00  0.00    -0.237 OA
ATOM     89  O   UNL A   1      48.001  25.500  23.586  1.00  0.00    -0.744 OA
ENDBRANCH  82  86
ENDBRANCH  55  79
BRANCH  67  90
ATOM     90  C   UNL A   1      44.216  33.068  28.162  1.00  0.00     0.023 A 
ATOM     91  C   UNL A   1      44.349  34.279  28.860  1.00  0.00     0.031 A 
ATOM     92  C   UNL A   1      43.985  33.160  26.773  1.00  0.00     0.131 A 
ATOM     93  C   UNL A   1      44.329  35.505  28.175  1.00  0.00     0.055 A 
ATOM     94  C   UNL A   1      43.877  34.385  26.110  1.00  0.00     0.041 A 
ATOM     95  F   UNL A   1      43.898  32.067  26.002  1.00  0.00    -0.206 F 
ATOM     96  C   UNL A   1      44.065  35.569  26.808  1.00  0.00     0.022 A 
BRANCH  93  97
ATOM     97  S   UNL A   1      44.753  37.009  29.091  1.00  0.00     0.124 S 
ATOM     98  O   UNL A   1      45.607  37.726  28.150  1.00  0.00    -0.237 OA
ATOM     99  O   UNL A   1      43.434  37.593  29.325  1.00  0.00    -0.237 OA
ATOM    100  O   UNL A   1      45.426  36.507  30.287  1.00  0.00    -0.744 OA
ENDBRANCH  93  97
ENDBRANCH  67  90
ENDBRANCH  41  42
ENDBRANCH  33  36
ENDBRANCH  31  32
ENDBRANCH  30  31
ENDBRANCH  29  30
ENDBRANCH   1  29
TORSDOF 19
ENDMDL
