MODEL 1
REMARK VINA RESULT:     -11.6      0.000      0.000
REMARK SMILES O=C1CCCC2=C1[C@H](c1ccc([N+](=O)[O-])cc1)CC(=O)N2c1ccccc1C(=O)NCCCCCCNC(=O)c1ccc(-c2c3nc(c(-c4cc(S(=O)(=O)[O-])ccc4F)c4ccc([nH]4)c(-c4cc(S(=O)(=O)[O-])ccc4F)c4nc(c(-c5cc(S(=O)(=O)[O-])ccc5F)c5ccc2[nH]5)C=C4)C=C3)cc1
REMARK SMILES IDX 33 1 32 2 31 3 30 4 28 5 29 6 27 8 22 9 23 10 24 11 26 12
REMARK SMILES IDX 25 13 21 14 1 15 2 16 3 17 7 18 4 19 6 20 8 21 5 22 18 23
REMARK SMILES IDX 19 24 20 25 9 26 10 27 17 28 11 29 16 30 12 31 13 32 14 33
REMARK SMILES IDX 15 34 34 35 35 36 36 37 37 38 38 39 39 41 40 42 41 43 102 44
REMARK SMILES IDX 42 45 101 46 43 47 44 48 45 49 95 50 46 51 100 52 94 53
REMARK SMILES IDX 96 54 47 55 99 56 93 57 92 58 48 60 80 61 60 62 79 63 61 64
REMARK SMILES IDX 64 65 78 66 97 67 62 68 63 69 77 71 98 72 65 73 49 74 50 75
REMARK SMILES IDX 58 76 51 77 57 78 59 79 56 80 52 81 53 82 54 83 55 84 81 85
REMARK SMILES IDX 82 86 90 87 83 88 89 89 91 90 88 91 84 92 85 93 86 94 87 95
REMARK SMILES IDX 66 96 67 97 75 98 68 99 74 100 76 101 73 102 69 103 70 104
REMARK SMILES IDX 71 105 72 106
REMARK H PARENT 30 7 37 40 96 59 64 70
REMARK Flexibility Score: inf
ROOT
ATOM      1  C   UNL A   1      36.903  20.967  24.504  1.00  0.00     0.002 C 
ENDROOT
BRANCH   1   2
ATOM      2  C   UNL A   1      36.603  22.448  24.053  1.00  0.00     0.021 C 
BRANCH   2   3
ATOM      3  C   UNL A   1      36.658  23.713  24.926  1.00  0.00     0.116 C 
BRANCH   3   4
ATOM      4  N   UNL A   1      35.813  23.727  26.120  1.00  0.00    -0.352 N 
ATOM      5  C   UNL A   1      34.693  23.060  26.583  1.00  0.00     0.253 C 
ATOM      6  O   UNL A   1      34.511  23.276  27.793  1.00  0.00    -0.269 OA
ATOM      7  H   UNL A   1      36.127  24.394  26.772  1.00  0.00     0.163 HD
BRANCH   5   8
ATOM      8  C   UNL A   1      33.685  22.127  25.907  1.00  0.00     0.063 A 
ATOM      9  C   UNL A   1      32.506  22.349  25.164  1.00  0.00     0.061 A 
ATOM     10  C   UNL A   1      31.755  21.248  24.647  1.00  0.00     0.027 A 
ATOM     11  C   UNL A   1      32.119  19.928  24.856  1.00  0.00     0.002 A 
ATOM     12  C   UNL A   1      34.004  20.746  26.110  1.00  0.00     0.016 A 
ATOM     13  C   UNL A   1      33.249  19.675  25.601  1.00  0.00     0.001 A 
BRANCH   9  14
ATOM     14  N   UNL A   1      31.977  23.606  24.755  1.00  0.00    -0.284 N 
ATOM     15  O   UNL A   1      31.057  26.483  21.265  1.00  0.00    -0.294 OA
ATOM     16  C   UNL A   1      31.879  25.728  21.772  1.00  0.00     0.161 C 
ATOM     17  C   UNL A   1      33.048  25.162  20.981  1.00  0.00     0.081 C 
ATOM     18  C   UNL A   1      31.801  25.382  23.219  1.00  0.00     0.023 C 
ATOM     19  C   UNL A   1      32.992  23.658  21.017  1.00  0.00     0.015 C 
ATOM     20  C   UNL A   1      32.170  24.102  23.465  1.00  0.00     0.033 C 
ATOM     21  C   UNL A   1      31.060  26.272  24.250  1.00  0.00     0.064 C 
ATOM     22  C   UNL A   1      32.788  23.140  22.437  1.00  0.00     0.055 C 
ATOM     23  C   UNL A   1      30.184  25.300  25.027  1.00  0.00     0.114 C 
ATOM     24  C   UNL A   1      31.036  24.199  25.631  1.00  0.00     0.232 C 
ATOM     25  O   UNL A   1      30.841  23.835  26.792  1.00  0.00    -0.274 OA
BRANCH  21  26
ATOM     26  C   UNL A   1      31.833  27.240  25.221  1.00  0.00    -0.039 A 
ATOM     27  C   UNL A   1      31.477  27.529  26.557  1.00  0.00     0.011 A 
ATOM     28  C   UNL A   1      32.874  28.037  24.730  1.00  0.00     0.011 A 
ATOM     29  C   UNL A   1      32.191  28.457  27.358  1.00  0.00     0.086 A 
ATOM     30  C   UNL A   1      33.644  28.922  25.512  1.00  0.00     0.086 A 
ATOM     31  C   UNL A   1      33.308  29.114  26.843  1.00  0.00     0.269 A 
BRANCH  31  32
ATOM     32  N   UNL A   1      34.136  29.978  27.694  1.00  0.00     0.062 N 
ATOM     33  O   UNL A   1      35.090  29.459  28.292  1.00  0.00    -0.258 OA
ATOM     34  O   UNL A   1      33.859  31.187  27.729  1.00  0.00    -0.258 OA
ENDBRANCH  31  32
ENDBRANCH  21  26
ENDBRANCH   9  14
ENDBRANCH   5   8
ENDBRANCH   3   4
ENDBRANCH   2   3
ENDBRANCH   1   2
BRANCH   1  35
ATOM     35  C   UNL A   1      38.172  20.174  24.977  1.00  0.00     0.002 C 
BRANCH  35  36
ATOM     36  C   UNL A   1      39.423  20.719  25.691  1.00  0.00     0.021 C 
BRANCH  36  37
ATOM     37  C   UNL A   1      40.419  20.015  26.667  1.00  0.00     0.116 C 
BRANCH  37  38
ATOM     38  N   UNL A   1      41.574  19.332  26.137  1.00  0.00    -0.352 N 
ATOM     39  C   UNL A   1      42.736  19.922  25.648  1.00  0.00     0.251 C 
ATOM     40  H   UNL A   1      41.536  18.348  26.119  1.00  0.00     0.163 HD
ATOM     41  O   UNL A   1      43.489  19.275  24.938  1.00  0.00    -0.269 OA
BRANCH  39  42
ATOM     42  C   UNL A   1      43.078  21.339  25.969  1.00  0.00     0.039 A 
ATOM     43  C   UNL A   1      43.377  21.706  27.286  1.00  0.00     0.014 A 
ATOM     44  C   UNL A   1      42.978  22.332  24.990  1.00  0.00     0.014 A 
ATOM     45  C   UNL A   1      43.642  23.051  27.607  1.00  0.00     0.010 A 
ATOM     46  C   UNL A   1      43.265  23.672  25.308  1.00  0.00     0.010 A 
ATOM     47  C   UNL A   1      43.612  24.050  26.617  1.00  0.00    -0.014 A 
BRANCH  47  48
ATOM     48  C   UNL A   1      43.953  25.473  26.941  1.00  0.00     0.031 A 
ATOM     49  C   UNL A   1      45.354  25.999  26.747  1.00  0.00     0.074 A 
ATOM     50  C   UNL A   1      43.015  26.290  27.462  1.00  0.00     0.049 A 
ATOM     51  N   UNL A   1      45.850  27.177  27.038  1.00  0.00    -0.248 NA
ATOM     52  C   UNL A   1      46.323  25.064  26.166  1.00  0.00     0.031 C 
ATOM     53  C   UNL A   1      41.627  25.909  27.726  1.00  0.00     0.029 A 
ATOM     54  N   UNL A   1      43.083  27.600  27.881  1.00  0.00    -0.354 N 
ATOM     55  C   UNL A   1      47.197  27.124  26.686  1.00  0.00     0.074 A 
ATOM     56  C   UNL A   1      47.441  25.775  26.212  1.00  0.00     0.031 C 
ATOM     57  C   UNL A   1      40.977  26.955  28.258  1.00  0.00     0.029 A 
ATOM     58  C   UNL A   1      41.905  28.072  28.418  1.00  0.00     0.049 A 
ATOM     59  H   UNL A   1      43.897  28.148  27.804  1.00  0.00     0.167 HD
ATOM     60  C   UNL A   1      48.137  28.106  26.737  1.00  0.00     0.034 A 
ATOM     61  C   UNL A   1      41.605  29.255  28.998  1.00  0.00     0.034 A 
ATOM     62  C   UNL A   1      47.881  29.444  27.223  1.00  0.00     0.049 A 
ATOM     63  C   UNL A   1      42.666  30.322  29.088  1.00  0.00     0.074 A 
ATOM     64  C   UNL A   1      48.746  30.524  27.281  1.00  0.00     0.029 A 
ATOM     65  N   UNL A   1      46.673  29.881  27.755  1.00  0.00    -0.354 N 
ATOM     66  N   UNL A   1      43.922  30.269  28.710  1.00  0.00    -0.248 NA
ATOM     67  C   UNL A   1      42.272  31.612  29.673  1.00  0.00     0.031 C 
ATOM     68  C   UNL A   1      48.088  31.584  27.916  1.00  0.00     0.029 A 
ATOM     69  C   UNL A   1      46.783  31.198  28.177  1.00  0.00     0.049 A 
ATOM     70  H   UNL A   1      45.857  29.334  27.823  1.00  0.00     0.167 HD
ATOM     71  C   UNL A   1      44.458  31.525  28.981  1.00  0.00     0.074 A 
ATOM     72  C   UNL A   1      43.390  32.316  29.558  1.00  0.00     0.031 C 
ATOM     73  C   UNL A   1      45.717  31.982  28.758  1.00  0.00     0.034 A 
BRANCH  60  74
ATOM     74  C   UNL A   1      49.541  27.744  26.297  1.00  0.00     0.023 A 
ATOM     75  C   UNL A   1      50.039  28.121  25.038  1.00  0.00     0.031 A 
ATOM     76  C   UNL A   1      50.371  26.957  27.116  1.00  0.00     0.131 A 
ATOM     77  C   UNL A   1      51.267  27.614  24.587  1.00  0.00     0.055 A 
ATOM     78  C   UNL A   1      51.639  26.540  26.702  1.00  0.00     0.041 A 
ATOM     79  F   UNL A   1      49.954  26.553  28.327  1.00  0.00    -0.206 F 
ATOM     80  C   UNL A   1      52.083  26.846  25.418  1.00  0.00     0.022 A 
BRANCH  77  81
ATOM     81  S   UNL A   1      51.680  27.799  22.828  1.00  0.00     0.124 S 
ATOM     82  O   UNL A   1      51.374  29.210  22.602  1.00  0.00    -0.237 OA
ATOM     83  O   UNL A   1      53.093  27.439  22.798  1.00  0.00    -0.237 OA
ATOM     84  O   UNL A   1      50.779  26.860  22.164  1.00  0.00    -0.744 OA
ENDBRANCH  77  81
ENDBRANCH  60  74
BRANCH  61  85
ATOM     85  C   UNL A   1      40.244  29.473  29.572  1.00  0.00     0.023 A 
ATOM     86  C   UNL A   1      40.005  29.397  30.954  1.00  0.00     0.031 A 
ATOM     87  C   UNL A   1      39.154  29.770  28.731  1.00  0.00     0.131 A 
ATOM     88  C   UNL A   1      38.705  29.599  31.451  1.00  0.00     0.055 A 
ATOM     89  C   UNL A   1      37.876  30.015  29.234  1.00  0.00     0.041 A 
ATOM     90  F   UNL A   1      39.328  29.855  27.403  1.00  0.00    -0.206 F 
ATOM     91  C   UNL A   1      37.644  29.923  30.602  1.00  0.00     0.022 A 
BRANCH  88  92
ATOM     92  S   UNL A   1      38.405  29.387  33.228  1.00  0.00     0.124 S 
ATOM     93  O   UNL A   1      37.348  28.383  33.235  1.00  0.00    -0.237 OA
ATOM     94  O   UNL A   1      39.712  28.949  33.707  1.00  0.00    -0.237 OA
ATOM     95  O   UNL A   1      38.001  30.723  33.666  1.00  0.00    -0.744 OA
ENDBRANCH  88  92
ENDBRANCH  61  85
BRANCH  73  96
ATOM     96  C   UNL A   1      46.005  33.429  29.084  1.00  0.00     0.023 A 
ATOM     97  C   UNL A   1      45.896  34.449  28.123  1.00  0.00     0.031 A 
ATOM     98  C   UNL A   1      46.350  33.792  30.399  1.00  0.00     0.131 A 
ATOM     99  C   UNL A   1      46.155  35.781  28.487  1.00  0.00     0.055 A 
ATOM    100  C   UNL A   1      46.556  35.123  30.766  1.00  0.00     0.041 A 
ATOM    101  F   UNL A   1      46.472  32.858  31.355  1.00  0.00    -0.206 F 
ATOM    102  C   UNL A   1      46.463  36.126  29.806  1.00  0.00     0.022 A 
BRANCH  99 103
ATOM    103  S   UNL A   1      46.127  37.063  27.203  1.00  0.00     0.124 S 
ATOM    104  O   UNL A   1      44.759  37.560  27.300  1.00  0.00    -0.237 OA
ATOM    105  O   UNL A   1      47.172  37.979  27.650  1.00  0.00    -0.237 OA
ATOM    106  O   UNL A   1      46.434  36.328  25.976  1.00  0.00    -0.744 OA
ENDBRANCH  99 103
ENDBRANCH  73  96
ENDBRANCH  47  48
ENDBRANCH  39  42
ENDBRANCH  37  38
ENDBRANCH  36  37
ENDBRANCH  35  36
ENDBRANCH   1  35
TORSDOF 19
ENDMDL
MODEL 2
REMARK VINA RESULT:     -11.3      3.677      7.762
REMARK SMILES O=C1CCCC2=C1[C@H](c1ccc([N+](=O)[O-])cc1)CC(=O)N2c1ccccc1C(=O)NCCCCCCNC(=O)c1ccc(-c2c3nc(c(-c4cc(S(=O)(=O)[O-])ccc4F)c4ccc([nH]4)c(-c4cc(S(=O)(=O)[O-])ccc4F)c4nc(c(-c5cc(S(=O)(=O)[O-])ccc5F)c5ccc2[nH]5)C=C4)C=C3)cc1
REMARK SMILES IDX 33 1 32 2 31 3 30 4 28 5 29 6 27 8 22 9 23 10 24 11 26 12
REMARK SMILES IDX 25 13 21 14 1 15 2 16 3 17 7 18 4 19 6 20 8 21 5 22 18 23
REMARK SMILES IDX 19 24 20 25 9 26 10 27 17 28 11 29 16 30 12 31 13 32 14 33
REMARK SMILES IDX 15 34 34 35 35 36 36 37 37 38 38 39 39 41 40 42 41 43 102 44
REMARK SMILES IDX 42 45 101 46 43 47 44 48 45 49 95 50 46 51 100 52 94 53
REMARK SMILES IDX 96 54 47 55 99 56 93 57 92 58 48 60 80 61 60 62 79 63 61 64
REMARK SMILES IDX 64 65 78 66 97 67 62 68 63 69 77 71 98 72 65 73 49 74 50 75
REMARK SMILES IDX 58 76 51 77 57 78 59 79 56 80 52 81 53 82 54 83 55 84 81 85
REMARK SMILES IDX 82 86 90 87 83 88 89 89 91 90 88 91 84 92 85 93 86 94 87 95
REMARK SMILES IDX 66 96 67 97 75 98 68 99 74 100 76 101 73 102 69 103 70 104
REMARK SMILES IDX 71 105 72 106
REMARK H PARENT 30 7 37 40 96 59 64 70
REMARK Flexibility Score: inf
ROOT
ATOM      1  C   UNL A   1      35.318  30.622  28.623  1.00  0.00     0.002 C 
ENDROOT
BRANCH   1   2
ATOM      2  C   UNL A   1      34.258  31.137  27.574  1.00  0.00     0.021 C 
BRANCH   2   3
ATOM      3  C   UNL A   1      33.288  30.283  26.740  1.00  0.00     0.116 C 
BRANCH   3   4
ATOM      4  N   UNL A   1      33.620  28.867  26.589  1.00  0.00    -0.352 N 
ATOM      5  C   UNL A   1      33.367  27.853  25.683  1.00  0.00     0.253 C 
ATOM      6  O   UNL A   1      34.100  26.871  25.893  1.00  0.00    -0.269 OA
ATOM      7  H   UNL A   1      34.174  28.548  27.337  1.00  0.00     0.163 HD
BRANCH   5   8
ATOM      8  C   UNL A   1      32.398  27.729  24.504  1.00  0.00     0.063 A 
ATOM      9  C   UNL A   1      32.026  26.658  23.664  1.00  0.00     0.061 A 
ATOM     10  C   UNL A   1      31.070  26.853  22.620  1.00  0.00     0.027 A 
ATOM     11  C   UNL A   1      30.481  28.080  22.362  1.00  0.00     0.002 A 
ATOM     12  C   UNL A   1      31.775  28.977  24.182  1.00  0.00     0.016 A 
ATOM     13  C   UNL A   1      30.843  29.153  23.145  1.00  0.00     0.001 A 
BRANCH   9  14
ATOM     14  N   UNL A   1      32.432  25.298  23.781  1.00  0.00    -0.284 N 
ATOM     15  O   UNL A   1      31.468  21.082  25.394  1.00  0.00    -0.294 OA
ATOM     16  C   UNL A   1      31.500  22.283  25.639  1.00  0.00     0.161 C 
ATOM     17  C   UNL A   1      30.720  22.890  26.795  1.00  0.00     0.081 C 
ATOM     18  C   UNL A   1      32.366  23.197  24.843  1.00  0.00     0.023 C 
ATOM     19  C   UNL A   1      29.786  23.945  26.265  1.00  0.00     0.015 C 
ATOM     20  C   UNL A   1      31.797  24.413  24.653  1.00  0.00     0.033 C 
ATOM     21  C   UNL A   1      33.598  22.696  24.048  1.00  0.00     0.064 C 
ATOM     22  C   UNL A   1      30.503  24.904  25.321  1.00  0.00     0.055 C 
ATOM     23  C   UNL A   1      33.437  23.321  22.669  1.00  0.00     0.114 C 
ATOM     24  C   UNL A   1      33.327  24.830  22.790  1.00  0.00     0.232 C 
ATOM     25  O   UNL A   1      33.948  25.557  22.013  1.00  0.00    -0.274 OA
BRANCH  21  26
ATOM     26  C   UNL A   1      35.067  22.878  24.584  1.00  0.00    -0.039 A 
ATOM     27  C   UNL A   1      36.219  22.243  24.074  1.00  0.00     0.011 A 
ATOM     28  C   UNL A   1      35.294  23.591  25.768  1.00  0.00     0.011 A 
ATOM     29  C   UNL A   1      37.507  22.413  24.645  1.00  0.00     0.086 A 
ATOM     30  C   UNL A   1      36.564  23.831  26.329  1.00  0.00     0.086 A 
ATOM     31  C   UNL A   1      37.681  23.252  25.745  1.00  0.00     0.269 A 
BRANCH  31  32
ATOM     32  N   UNL A   1      39.021  23.543  26.270  1.00  0.00     0.062 N 
ATOM     33  O   UNL A   1      39.398  24.723  26.272  1.00  0.00    -0.258 OA
ATOM     34  O   UNL A   1      39.680  22.595  26.723  1.00  0.00    -0.258 OA
ENDBRANCH  31  32
ENDBRANCH  21  26
ENDBRANCH   9  14
ENDBRANCH   5   8
ENDBRANCH   3   4
ENDBRANCH   2   3
ENDBRANCH   1   2
BRANCH   1  35
ATOM     35  C   UNL A   1      36.209  31.283  29.733  1.00  0.00     0.002 C 
BRANCH  35  36
ATOM     36  C   UNL A   1      35.763  31.877  31.082  1.00  0.00     0.021 C 
BRANCH  36  37
ATOM     37  C   UNL A   1      36.359  31.694  32.515  1.00  0.00     0.116 C 
BRANCH  37  38
ATOM     38  N   UNL A   1      36.636  30.367  33.008  1.00  0.00    -0.352 N 
ATOM     39  C   UNL A   1      37.715  29.559  32.659  1.00  0.00     0.251 C 
ATOM     40  H   UNL A   1      35.996  29.995  33.658  1.00  0.00     0.163 HD
ATOM     41  O   UNL A   1      37.666  28.360  32.882  1.00  0.00    -0.269 OA
BRANCH  39  42
ATOM     42  C   UNL A   1      38.930  30.131  32.009  1.00  0.00     0.039 A 
ATOM     43  C   UNL A   1      39.841  30.880  32.763  1.00  0.00     0.014 A 
ATOM     44  C   UNL A   1      39.106  30.035  30.625  1.00  0.00     0.014 A 
ATOM     45  C   UNL A   1      40.959  31.472  32.144  1.00  0.00     0.010 A 
ATOM     46  C   UNL A   1      40.236  30.608  30.013  1.00  0.00     0.010 A 
ATOM     47  C   UNL A   1      41.183  31.325  30.764  1.00  0.00    -0.014 A 
BRANCH  47  48
ATOM     48  C   UNL A   1      42.404  31.901  30.111  1.00  0.00     0.031 A 
ATOM     49  C   UNL A   1      43.637  31.060  29.890  1.00  0.00     0.074 A 
ATOM     50  C   UNL A   1      42.430  33.203  29.759  1.00  0.00     0.049 A 
ATOM     51  N   UNL A   1      44.806  31.405  29.408  1.00  0.00    -0.248 NA
ATOM     52  C   UNL A   1      43.540  29.651  30.286  1.00  0.00     0.031 C 
ATOM     53  C   UNL A   1      41.319  34.139  29.934  1.00  0.00     0.029 A 
ATOM     54  N   UNL A   1      43.423  33.972  29.197  1.00  0.00    -0.354 N 
ATOM     55  C   UNL A   1      45.593  30.255  29.451  1.00  0.00     0.074 A 
ATOM     56  C   UNL A   1      44.774  29.225  30.059  1.00  0.00     0.031 C 
ATOM     57  C   UNL A   1      41.690  35.351  29.492  1.00  0.00     0.029 A 
ATOM     58  C   UNL A   1      43.078  35.296  29.040  1.00  0.00     0.049 A 
ATOM     59  H   UNL A   1      44.300  33.609  28.932  1.00  0.00     0.167 HD
ATOM     60  C   UNL A   1      46.868  30.071  29.013  1.00  0.00     0.034 A 
ATOM     61  C   UNL A   1      43.796  36.356  28.608  1.00  0.00     0.034 A 
ATOM     62  C   UNL A   1      47.675  31.113  28.418  1.00  0.00     0.049 A 
ATOM     63  C   UNL A   1      45.222  36.149  28.164  1.00  0.00     0.074 A 
ATOM     64  C   UNL A   1      48.959  31.026  27.905  1.00  0.00     0.029 A 
ATOM     65  N   UNL A   1      47.285  32.440  28.275  1.00  0.00    -0.354 N 
ATOM     66  N   UNL A   1      45.935  35.046  28.170  1.00  0.00    -0.248 NA
ATOM     67  C   UNL A   1      45.940  37.323  27.646  1.00  0.00     0.031 C 
ATOM     68  C   UNL A   1      49.371  32.309  27.526  1.00  0.00     0.029 A 
ATOM     69  C   UNL A   1      48.314  33.185  27.719  1.00  0.00     0.049 A 
ATOM     70  H   UNL A   1      46.405  32.799  28.532  1.00  0.00     0.167 HD
ATOM     71  C   UNL A   1      47.172  35.386  27.630  1.00  0.00     0.074 A 
ATOM     72  C   UNL A   1      47.111  36.798  27.309  1.00  0.00     0.031 C 
ATOM     73  C   UNL A   1      48.252  34.595  27.407  1.00  0.00     0.034 A 
BRANCH  60  74
ATOM     74  C   UNL A   1      47.475  28.697  29.210  1.00  0.00     0.023 A 
ATOM     75  C   UNL A   1      47.323  27.680  28.252  1.00  0.00     0.031 A 
ATOM     76  C   UNL A   1      48.158  28.377  30.397  1.00  0.00     0.131 A 
ATOM     77  C   UNL A   1      47.734  26.371  28.545  1.00  0.00     0.055 A 
ATOM     78  C   UNL A   1      48.659  27.094  30.640  1.00  0.00     0.041 A 
ATOM     79  F   UNL A   1      48.331  29.298  31.359  1.00  0.00    -0.206 F 
ATOM     80  C   UNL A   1      48.423  26.074  29.722  1.00  0.00     0.022 A 
BRANCH  77  81
ATOM     81  S   UNL A   1      47.168  25.028  27.462  1.00  0.00     0.124 S 
ATOM     82  O   UNL A   1      48.396  24.258  27.283  1.00  0.00    -0.237 OA
ATOM     83  O   UNL A   1      46.127  24.395  28.264  1.00  0.00    -0.237 OA
ATOM     84  O   UNL A   1      46.701  25.726  26.267  1.00  0.00    -0.744 OA
ENDBRANCH  77  81
ENDBRANCH  60  74
BRANCH  61  85
ATOM     85  C   UNL A   1      43.181  37.717  28.611  1.00  0.00     0.023 A 
ATOM     86  C   UNL A   1      43.398  38.622  29.663  1.00  0.00     0.031 A 
ATOM     87  C   UNL A   1      42.364  38.133  27.543  1.00  0.00     0.131 A 
ATOM     88  C   UNL A   1      42.792  39.890  29.631  1.00  0.00     0.055 A 
ATOM     89  C   UNL A   1      41.802  39.409  27.495  1.00  0.00     0.041 A 
ATOM     90  F   UNL A   1      42.124  37.308  26.512  1.00  0.00    -0.206 F 
ATOM     91  C   UNL A   1      42.009  40.294  28.547  1.00  0.00     0.022 A 
BRANCH  88  92
ATOM     92  S   UNL A   1      43.002  40.996  31.054  1.00  0.00     0.124 S 
ATOM     93  O   UNL A   1      44.402  41.382  30.929  1.00  0.00    -0.237 OA
ATOM     94  O   UNL A   1      42.020  42.040  30.777  1.00  0.00    -0.237 OA
ATOM     95  O   UNL A   1      42.689  40.141  32.198  1.00  0.00    -0.744 OA
ENDBRANCH  88  92
ENDBRANCH  61  85
BRANCH  73  96
ATOM     96  C   UNL A   1      49.450  35.219  26.729  1.00  0.00     0.023 A 
ATOM     97  C   UNL A   1      50.575  35.655  27.450  1.00  0.00     0.031 A 
ATOM     98  C   UNL A   1      49.476  35.333  25.327  1.00  0.00     0.131 A 
ATOM     99  C   UNL A   1      51.670  36.208  26.764  1.00  0.00     0.055 A 
ATOM    100  C   UNL A   1      50.587  35.837  24.649  1.00  0.00     0.041 A 
ATOM    101  F   UNL A   1      48.426  34.937  24.590  1.00  0.00    -0.206 F 
ATOM    102  C   UNL A   1      51.691  36.282  25.369  1.00  0.00     0.022 A 
BRANCH  99 103
ATOM    103  S   UNL A   1      53.059  36.875  27.723  1.00  0.00     0.124 S 
ATOM    104  O   UNL A   1      52.756  38.302  27.744  1.00  0.00    -0.237 OA
ATOM    105  O   UNL A   1      52.927  36.176  28.998  1.00  0.00    -0.237 OA
ATOM    106  O   UNL A   1      54.233  36.502  26.934  1.00  0.00    -0.744 OA
ENDBRANCH  99 103
ENDBRANCH  73  96
ENDBRANCH  47  48
ENDBRANCH  39  42
ENDBRANCH  37  38
ENDBRANCH  36  37
ENDBRANCH  35  36
ENDBRANCH   1  35
TORSDOF 19
ENDMDL
MODEL 3
REMARK VINA RESULT:     -11.3      6.182     12.422
REMARK SMILES O=C1CCCC2=C1[C@H](c1ccc([N+](=O)[O-])cc1)CC(=O)N2c1ccccc1C(=O)NCCCCCCNC(=O)c1ccc(-c2c3nc(c(-c4cc(S(=O)(=O)[O-])ccc4F)c4ccc([nH]4)c(-c4cc(S(=O)(=O)[O-])ccc4F)c4nc(c(-c5cc(S(=O)(=O)[O-])ccc5F)c5ccc2[nH]5)C=C4)C=C3)cc1
REMARK SMILES IDX 33 1 32 2 31 3 30 4 28 5 29 6 27 8 22 9 23 10 24 11 26 12
REMARK SMILES IDX 25 13 21 14 1 15 2 16 3 17 7 18 4 19 6 20 8 21 5 22 18 23
REMARK SMILES IDX 19 24 20 25 9 26 10 27 17 28 11 29 16 30 12 31 13 32 14 33
REMARK SMILES IDX 15 34 34 35 35 36 36 37 37 38 38 39 39 41 40 42 41 43 102 44
REMARK SMILES IDX 42 45 101 46 43 47 44 48 45 49 95 50 46 51 100 52 94 53
REMARK SMILES IDX 96 54 47 55 99 56 93 57 92 58 48 60 80 61 60 62 79 63 61 64
REMARK SMILES IDX 64 65 78 66 97 67 62 68 63 69 77 71 98 72 65 73 49 74 50 75
REMARK SMILES IDX 58 76 51 77 57 78 59 79 56 80 52 81 53 82 54 83 55 84 81 85
REMARK SMILES IDX 82 86 90 87 83 88 89 89 91 90 88 91 84 92 85 93 86 94 87 95
REMARK SMILES IDX 66 96 67 97 75 98 68 99 74 100 76 101 73 102 69 103 70 104
REMARK SMILES IDX 71 105 72 106
REMARK H PARENT 30 7 37 40 96 59 64 70
REMARK Flexibility Score: inf
ROOT
ATOM      1  C   UNL A   1      47.342  33.044  28.553  1.00  0.00     0.002 C 
ENDROOT
BRANCH   1   2
ATOM      2  C   UNL A   1      47.189  31.843  29.565  1.00  0.00     0.021 C 
BRANCH   2   3
ATOM      3  C   UNL A   1      48.190  30.702  29.808  1.00  0.00     0.116 C 
BRANCH   3   4
ATOM      4  N   UNL A   1      48.301  29.687  28.761  1.00  0.00    -0.352 N 
ATOM      5  C   UNL A   1      47.765  28.441  28.490  1.00  0.00     0.253 C 
ATOM      6  O   UNL A   1      48.002  28.096  27.319  1.00  0.00    -0.269 OA
ATOM      7  H   UNL A   1      48.928  29.967  28.057  1.00  0.00     0.163 HD
BRANCH   5   8
ATOM      8  C   UNL A   1      46.952  27.453  29.331  1.00  0.00     0.063 A 
ATOM      9  C   UNL A   1      45.851  26.616  29.048  1.00  0.00     0.061 A 
ATOM     10  C   UNL A   1      45.292  25.784  30.066  1.00  0.00     0.027 A 
ATOM     11  C   UNL A   1      45.771  25.762  31.365  1.00  0.00     0.002 A 
ATOM     12  C   UNL A   1      47.395  27.407  30.691  1.00  0.00     0.016 A 
ATOM     13  C   UNL A   1      46.827  26.588  31.683  1.00  0.00     0.001 A 
BRANCH   9  14
ATOM     14  N   UNL A   1      45.239  26.408  27.779  1.00  0.00    -0.284 N 
ATOM     15  O   UNL A   1      42.453  28.061  24.492  1.00  0.00    -0.294 OA
ATOM     16  C   UNL A   1      42.618  27.890  25.694  1.00  0.00     0.161 C 
ATOM     17  C   UNL A   1      41.837  28.677  26.735  1.00  0.00     0.081 C 
ATOM     18  C   UNL A   1      43.558  26.844  26.190  1.00  0.00     0.023 C 
ATOM     19  C   UNL A   1      42.799  29.412  27.628  1.00  0.00     0.015 C 
ATOM     20  C   UNL A   1      44.209  27.227  27.314  1.00  0.00     0.033 C 
ATOM     21  C   UNL A   1      43.980  25.628  25.328  1.00  0.00     0.064 C 
ATOM     22  C   UNL A   1      43.911  28.495  28.129  1.00  0.00     0.055 C 
ATOM     23  C   UNL A   1      45.497  25.586  25.452  1.00  0.00     0.114 C 
ATOM     24  C   UNL A   1      45.898  25.502  26.913  1.00  0.00     0.232 C 
ATOM     25  O   UNL A   1      46.789  24.726  27.265  1.00  0.00    -0.274 OA
BRANCH  21  26
ATOM     26  C   UNL A   1      43.355  24.199  25.540  1.00  0.00    -0.039 A 
ATOM     27  C   UNL A   1      42.270  23.888  26.388  1.00  0.00     0.011 A 
ATOM     28  C   UNL A   1      43.984  23.073  24.995  1.00  0.00     0.011 A 
ATOM     29  C   UNL A   1      41.792  22.565  26.572  1.00  0.00     0.086 A 
ATOM     30  C   UNL A   1      43.504  21.753  25.106  1.00  0.00     0.086 A 
ATOM     31  C   UNL A   1      42.384  21.505  25.886  1.00  0.00     0.269 A 
BRANCH  31  32
ATOM     32  N   UNL A   1      41.824  20.149  25.961  1.00  0.00     0.062 N 
ATOM     33  O   UNL A   1      42.359  19.264  25.278  1.00  0.00    -0.258 OA
ATOM     34  O   UNL A   1      40.877  19.960  26.739  1.00  0.00    -0.258 OA
ENDBRANCH  31  32
ENDBRANCH  21  26
ENDBRANCH   9  14
ENDBRANCH   5   8
ENDBRANCH   3   4
ENDBRANCH   2   3
ENDBRANCH   1   2
BRANCH   1  35
ATOM     35  C   UNL A   1      47.940  33.227  27.113  1.00  0.00     0.002 C 
BRANCH  35  36
ATOM     36  C   UNL A   1      47.935  34.492  26.236  1.00  0.00     0.021 C 
BRANCH  36  37
ATOM     37  C   UNL A   1      46.748  35.389  25.760  1.00  0.00     0.116 C 
BRANCH  37  38
ATOM     38  N   UNL A   1      45.790  34.864  24.819  1.00  0.00    -0.352 N 
ATOM     39  C   UNL A   1      44.641  34.137  25.120  1.00  0.00     0.251 C 
ATOM     40  H   UNL A   1      45.967  35.037  23.865  1.00  0.00     0.163 HD
ATOM     41  O   UNL A   1      44.099  33.478  24.248  1.00  0.00    -0.269 OA
BRANCH  39  42
ATOM     42  C   UNL A   1      44.062  34.142  26.495  1.00  0.00     0.039 A 
ATOM     43  C   UNL A   1      44.024  32.961  27.244  1.00  0.00     0.014 A 
ATOM     44  C   UNL A   1      43.440  35.289  26.999  1.00  0.00     0.014 A 
ATOM     45  C   UNL A   1      43.426  32.945  28.519  1.00  0.00     0.010 A 
ATOM     46  C   UNL A   1      42.863  35.277  28.282  1.00  0.00     0.010 A 
ATOM     47  C   UNL A   1      42.857  34.109  29.064  1.00  0.00    -0.014 A 
BRANCH  47  48
ATOM     48  C   UNL A   1      42.273  34.113  30.445  1.00  0.00     0.031 A 
ATOM     49  C   UNL A   1      43.149  33.916  31.659  1.00  0.00     0.074 A 
ATOM     50  C   UNL A   1      40.942  34.243  30.615  1.00  0.00     0.049 A 
ATOM     51  N   UNL A   1      42.813  33.819  32.922  1.00  0.00    -0.248 NA
ATOM     52  C   UNL A   1      44.588  33.792  31.407  1.00  0.00     0.031 C 
ATOM     53  C   UNL A   1      39.974  34.418  29.532  1.00  0.00     0.029 A 
ATOM     54  N   UNL A   1      40.166  34.233  31.752  1.00  0.00    -0.354 N 
ATOM     55  C   UNL A   1      44.001  33.612  33.620  1.00  0.00     0.074 A 
ATOM     56  C   UNL A   1      45.052  33.543  32.623  1.00  0.00     0.031 C 
ATOM     57  C   UNL A   1      38.739  34.497  30.053  1.00  0.00     0.029 A 
ATOM     58  C   UNL A   1      38.815  34.337  31.503  1.00  0.00     0.049 A 
ATOM     59  H   UNL A   1      40.542  34.157  32.660  1.00  0.00     0.167 HD
ATOM     60  C   UNL A   1      44.201  33.503  34.962  1.00  0.00     0.034 A 
ATOM     61  C   UNL A   1      37.752  34.285  32.335  1.00  0.00     0.034 A 
ATOM     62  C   UNL A   1      43.140  33.562  35.943  1.00  0.00     0.049 A 
ATOM     63  C   UNL A   1      37.982  34.122  33.816  1.00  0.00     0.074 A 
ATOM     64  C   UNL A   1      43.234  33.505  37.324  1.00  0.00     0.029 A 
ATOM     65  N   UNL A   1      41.786  33.673  35.647  1.00  0.00    -0.354 N 
ATOM     66  N   UNL A   1      39.115  33.971  34.462  1.00  0.00    -0.248 NA
ATOM     67  C   UNL A   1      36.796  34.131  34.684  1.00  0.00     0.031 C 
ATOM     68  C   UNL A   1      41.940  33.501  37.855  1.00  0.00     0.029 A 
ATOM     69  C   UNL A   1      41.036  33.646  36.814  1.00  0.00     0.049 A 
ATOM     70  H   UNL A   1      41.413  33.756  34.740  1.00  0.00     0.167 HD
ATOM     71  C   UNL A   1      38.781  33.900  35.812  1.00  0.00     0.074 A 
ATOM     72  C   UNL A   1      37.339  34.022  35.889  1.00  0.00     0.031 C 
ATOM     73  C   UNL A   1      39.597  33.761  36.887  1.00  0.00     0.034 A 
BRANCH  60  74
ATOM     74  C   UNL A   1      45.621  33.261  35.432  1.00  0.00     0.023 A 
ATOM     75  C   UNL A   1      46.451  34.318  35.843  1.00  0.00     0.031 A 
ATOM     76  C   UNL A   1      46.175  31.968  35.410  1.00  0.00     0.131 A 
ATOM     77  C   UNL A   1      47.812  34.086  36.093  1.00  0.00     0.055 A 
ATOM     78  C   UNL A   1      47.506  31.728  35.762  1.00  0.00     0.041 A 
ATOM     79  F   UNL A   1      45.441  30.914  35.019  1.00  0.00    -0.206 F 
ATOM     80  C   UNL A   1      48.341  32.795  36.080  1.00  0.00     0.022 A 
BRANCH  77  81
ATOM     81  S   UNL A   1      48.918  35.520  36.229  1.00  0.00     0.124 S 
ATOM     82  O   UNL A   1      48.570  36.273  35.026  1.00  0.00    -0.237 OA
ATOM     83  O   UNL A   1      48.509  36.114  37.496  1.00  0.00    -0.237 OA
ATOM     84  O   UNL A   1      50.253  34.925  36.216  1.00  0.00    -0.744 OA
ENDBRANCH  77  81
ENDBRANCH  60  74
BRANCH  61  85
ATOM     85  C   UNL A   1      36.370  34.351  31.774  1.00  0.00     0.023 A 
ATOM     86  C   UNL A   1      35.537  35.461  31.992  1.00  0.00     0.031 A 
ATOM     87  C   UNL A   1      35.864  33.291  30.997  1.00  0.00     0.131 A 
ATOM     88  C   UNL A   1      34.238  35.478  31.453  1.00  0.00     0.055 A 
ATOM     89  C   UNL A   1      34.591  33.334  30.427  1.00  0.00     0.041 A 
ATOM     90  F   UNL A   1      36.618  32.208  30.757  1.00  0.00    -0.206 F 
ATOM     91  C   UNL A   1      33.767  34.429  30.659  1.00  0.00     0.022 A 
BRANCH  88  92
ATOM     92  S   UNL A   1      33.148  36.874  31.842  1.00  0.00     0.124 S 
ATOM     93  O   UNL A   1      32.893  37.432  30.519  1.00  0.00    -0.237 OA
ATOM     94  O   UNL A   1      32.020  36.210  32.487  1.00  0.00    -0.237 OA
ATOM     95  O   UNL A   1      33.963  37.707  32.724  1.00  0.00    -0.744 OA
ENDBRANCH  88  92
ENDBRANCH  61  85
BRANCH  73  96
ATOM     96  C   UNL A   1      38.963  33.790  38.258  1.00  0.00     0.023 A 
ATOM     97  C   UNL A   1      38.292  32.679  38.796  1.00  0.00     0.031 A 
ATOM     98  C   UNL A   1      39.077  34.945  39.053  1.00  0.00     0.131 A 
ATOM     99  C   UNL A   1      37.739  32.756  40.086  1.00  0.00     0.055 A 
ATOM    100  C   UNL A   1      38.569  34.998  40.352  1.00  0.00     0.041 A 
ATOM    101  F   UNL A   1      39.703  36.037  38.586  1.00  0.00    -0.206 F 
ATOM    102  C   UNL A   1      37.892  33.900  40.874  1.00  0.00     0.022 A 
BRANCH  99 103
ATOM    103  S   UNL A   1      36.773  31.352  40.712  1.00  0.00     0.124 S 
ATOM    104  O   UNL A   1      36.021  31.964  41.802  1.00  0.00    -0.237 OA
ATOM    105  O   UNL A   1      35.995  30.959  39.542  1.00  0.00    -0.237 OA
ATOM    106  O   UNL A   1      37.794  30.390  41.126  1.00  0.00    -0.744 OA
ENDBRANCH  99 103
ENDBRANCH  73  96
ENDBRANCH  47  48
ENDBRANCH  39  42
ENDBRANCH  37  38
ENDBRANCH  36  37
ENDBRANCH  35  36
ENDBRANCH   1  35
TORSDOF 19
ENDMDL
