MODEL 1
REMARK VINA RESULT:     -11.2      0.000      0.000
REMARK SMILES [NH3+][C@H](Cc1ccc(O)c(F)c1)C(=O)NCCCCCCNC(=O)c1ccc(-c2c3nc(c(-c4cc(S(=O)(=O)[O-])ccc4F)c4ccc([nH]4)c(-c4cc(S(=O)(=O)[O-])ccc4F)c4nc(c(-c5cc(S(=O)(=O)[O-])ccc5F)c5ccc2[nH]5)C=C4)C=C3)cc1
REMARK SMILES IDX 17 1 16 2 15 3 14 4 12 5 13 6 2 8 1 9 3 13 4 14 5 15 11 16
REMARK SMILES IDX 6 17 9 18 7 19 10 20 8 21 18 23 19 24 20 25 21 26 22 27
REMARK SMILES IDX 23 29 24 30 25 31 86 32 26 33 85 34 27 35 28 36 29 37 79 38
REMARK SMILES IDX 30 39 84 40 78 41 80 42 31 43 83 44 77 45 76 46 32 48 64 49
REMARK SMILES IDX 44 50 63 51 45 52 48 53 62 54 81 55 46 56 47 57 61 59 82 60
REMARK SMILES IDX 49 61 33 62 34 63 42 64 35 65 41 66 43 67 40 68 36 69 37 70
REMARK SMILES IDX 38 71 39 72 65 73 66 74 74 75 67 76 73 77 75 78 72 79 68 80
REMARK SMILES IDX 69 81 70 82 71 83 50 84 51 85 59 86 52 87 58 88 60 89 57 90
REMARK SMILES IDX 53 91 54 92 55 93 56 94
REMARK H PARENT 14 7 1 10 1 11 1 12 8 22 21 28 80 47 48 58
REMARK Flexibility Score: inf
ROOT
ATOM      1  C   UNL A   1      32.701  29.296  26.674  1.00  0.00     0.002 C 
ENDROOT
BRANCH   1   2
ATOM      2  C   UNL A   1      33.543  28.474  25.699  1.00  0.00     0.021 C 
BRANCH   2   3
ATOM      3  C   UNL A   1      33.431  28.947  24.253  1.00  0.00     0.116 C 
BRANCH   3   4
ATOM      4  N   UNL A   1      33.050  27.873  23.366  1.00  0.00    -0.351 N 
ATOM      5  C   UNL A   1      31.851  27.244  23.204  1.00  0.00     0.278 C 
ATOM      6  O   UNL A   1      31.829  26.267  22.449  1.00  0.00    -0.268 OA
ATOM      7  H   UNL A   1      33.773  27.542  22.786  1.00  0.00     0.163 HD
BRANCH   5   8
ATOM      8  C   UNL A   1      30.547  27.769  23.866  1.00  0.00     0.275 C 
BRANCH   8   9
ATOM      9  N   UNL A   1      30.227  26.902  25.022  1.00  0.00    -0.347 N 
ATOM     10  H   UNL A   1      29.332  27.186  25.422  1.00  0.00     0.345 HD
ATOM     11  H   UNL A   1      30.958  26.991  25.727  1.00  0.00     0.345 HD
ATOM     12  H   UNL A   1      30.167  25.931  24.713  1.00  0.00     0.345 HD
ENDBRANCH   8   9
BRANCH   8  13
ATOM     13  C   UNL A   1      29.391  28.103  22.880  1.00  0.00     0.111 C 
BRANCH  13  14
ATOM     14  C   UNL A   1      29.096  29.581  22.657  1.00  0.00    -0.038 A 
ATOM     15  C   UNL A   1      29.325  30.510  23.683  1.00  0.00     0.008 A 
ATOM     16  C   UNL A   1      28.569  30.060  21.446  1.00  0.00     0.047 A 
ATOM     17  C   UNL A   1      28.992  31.862  23.519  1.00  0.00     0.049 A 
ATOM     18  C   UNL A   1      28.227  31.399  21.290  1.00  0.00     0.165 A 
ATOM     19  C   UNL A   1      28.426  32.299  22.326  1.00  0.00     0.151 A 
ATOM     20  F   UNL A   1      27.679  31.792  20.132  1.00  0.00    -0.203 F 
BRANCH  19  21
ATOM     21  O   UNL A   1      28.044  33.595  22.151  1.00  0.00    -0.505 OA
ATOM     22  H   UNL A   1      28.223  34.230  22.818  1.00  0.00     0.293 HD
ENDBRANCH  19  21
ENDBRANCH  13  14
ENDBRANCH   8  13
ENDBRANCH   5   8
ENDBRANCH   3   4
ENDBRANCH   2   3
ENDBRANCH   1   2
BRANCH   1  23
ATOM     23  C   UNL A   1      31.914  30.440  26.026  1.00  0.00     0.002 C 
BRANCH  23  24
ATOM     24  C   UNL A   1      31.688  31.664  26.919  1.00  0.00     0.021 C 
BRANCH  24  25
ATOM     25  C   UNL A   1      32.960  32.416  27.302  1.00  0.00     0.116 C 
BRANCH  25  26
ATOM     26  N   UNL A   1      32.694  33.816  27.592  1.00  0.00    -0.352 N 
ATOM     27  C   UNL A   1      33.224  34.618  28.571  1.00  0.00     0.251 C 
ATOM     28  H   UNL A   1      32.040  34.253  27.000  1.00  0.00     0.163 HD
ATOM     29  O   UNL A   1      32.716  35.714  28.802  1.00  0.00    -0.269 OA
BRANCH  27  30
ATOM     30  C   UNL A   1      34.386  34.151  29.353  1.00  0.00     0.039 A 
ATOM     31  C   UNL A   1      34.165  33.414  30.518  1.00  0.00     0.014 A 
ATOM     32  C   UNL A   1      35.689  34.436  28.936  1.00  0.00     0.014 A 
ATOM     33  C   UNL A   1      35.254  32.903  31.228  1.00  0.00     0.010 A 
ATOM     34  C   UNL A   1      36.769  33.863  29.601  1.00  0.00     0.010 A 
ATOM     35  C   UNL A   1      36.563  33.088  30.753  1.00  0.00    -0.014 A 
BRANCH  35  36
ATOM     36  C   UNL A   1      37.725  32.468  31.440  1.00  0.00     0.031 A 
ATOM     37  C   UNL A   1      38.472  31.334  30.791  1.00  0.00     0.074 A 
ATOM     38  C   UNL A   1      38.065  32.882  32.676  1.00  0.00     0.049 A 
ATOM     39  N   UNL A   1      39.456  30.613  31.265  1.00  0.00    -0.248 NA
ATOM     40  C   UNL A   1      38.033  30.943  29.444  1.00  0.00     0.031 C 
ATOM     41  C   UNL A   1      37.390  33.946  33.423  1.00  0.00     0.029 A 
ATOM     42  N   UNL A   1      39.052  32.456  33.529  1.00  0.00    -0.354 N 
ATOM     43  C   UNL A   1      39.749  29.677  30.278  1.00  0.00     0.074 A 
ATOM     44  C   UNL A   1      38.792  29.883  29.210  1.00  0.00     0.031 C 
ATOM     45  C   UNL A   1      37.994  34.102  34.612  1.00  0.00     0.029 A 
ATOM     46  C   UNL A   1      39.062  33.116  34.737  1.00  0.00     0.049 A 
ATOM     47  H   UNL A   1      39.693  31.745  33.299  1.00  0.00     0.167 HD
ATOM     48  C   UNL A   1      40.737  28.749  30.257  1.00  0.00     0.034 A 
ATOM     49  C   UNL A   1      39.827  32.933  35.832  1.00  0.00     0.034 A 
ATOM     50  C   UNL A   1      41.680  28.560  31.333  1.00  0.00     0.049 A 
ATOM     51  C   UNL A   1      40.890  31.864  35.805  1.00  0.00     0.074 A 
ATOM     52  C   UNL A   1      42.754  27.688  31.395  1.00  0.00     0.029 A 
ATOM     53  N   UNL A   1      41.654  29.240  32.545  1.00  0.00    -0.354 N 
ATOM     54  N   UNL A   1      41.193  31.025  34.841  1.00  0.00    -0.248 NA
ATOM     55  C   UNL A   1      41.720  31.723  37.008  1.00  0.00     0.031 C 
ATOM     56  C   UNL A   1      43.322  27.780  32.670  1.00  0.00     0.029 A 
ATOM     57  C   UNL A   1      42.665  28.776  33.375  1.00  0.00     0.049 A 
ATOM     58  H   UNL A   1      41.013  29.948  32.781  1.00  0.00     0.167 HD
ATOM     59  C   UNL A   1      42.268  30.276  35.313  1.00  0.00     0.074 A 
ATOM     60  C   UNL A   1      42.569  30.775  36.639  1.00  0.00     0.031 C 
ATOM     61  C   UNL A   1      42.947  29.271  34.704  1.00  0.00     0.034 A 
BRANCH  48  62
ATOM     62  C   UNL A   1      40.822  27.849  29.044  1.00  0.00     0.023 A 
ATOM     63  C   UNL A   1      41.750  28.083  28.014  1.00  0.00     0.031 A 
ATOM     64  C   UNL A   1      39.943  26.762  28.899  1.00  0.00     0.131 A 
ATOM     65  C   UNL A   1      41.720  27.299  26.852  1.00  0.00     0.055 A 
ATOM     66  C   UNL A   1      39.981  25.928  27.780  1.00  0.00     0.041 A 
ATOM     67  F   UNL A   1      39.019  26.499  29.837  1.00  0.00    -0.206 F 
ATOM     68  C   UNL A   1      40.862  26.204  26.739  1.00  0.00     0.022 A 
BRANCH  65  69
ATOM     69  S   UNL A   1      42.703  27.832  25.423  1.00  0.00     0.124 S 
ATOM     70  O   UNL A   1      42.683  26.634  24.587  1.00  0.00    -0.237 OA
ATOM     71  O   UNL A   1      41.942  28.972  24.925  1.00  0.00    -0.237 OA
ATOM     72  O   UNL A   1      44.005  28.154  26.004  1.00  0.00    -0.744 OA
ENDBRANCH  65  69
ENDBRANCH  48  62
BRANCH  49  73
ATOM     73  C   UNL A   1      39.599  33.756  37.056  1.00  0.00     0.023 A 
ATOM     74  C   UNL A   1      39.071  33.190  38.227  1.00  0.00     0.031 A 
ATOM     75  C   UNL A   1      39.878  35.136  37.059  1.00  0.00     0.131 A 
ATOM     76  C   UNL A   1      38.794  34.007  39.335  1.00  0.00     0.055 A 
ATOM     77  C   UNL A   1      39.657  35.932  38.184  1.00  0.00     0.041 A 
ATOM     78  F   UNL A   1      40.386  35.728  35.966  1.00  0.00    -0.206 F 
ATOM     79  C   UNL A   1      39.100  35.370  39.327  1.00  0.00     0.022 A 
BRANCH  76  80
ATOM     80  S   UNL A   1      37.941  33.278  40.761  1.00  0.00     0.124 S 
ATOM     81  O   UNL A   1      38.537  31.948  40.814  1.00  0.00    -0.237 OA
ATOM     82  O   UNL A   1      38.314  34.192  41.836  1.00  0.00    -0.237 OA
ATOM     83  O   UNL A   1      36.533  33.317  40.371  1.00  0.00    -0.744 OA
ENDBRANCH  76  80
ENDBRANCH  49  73
BRANCH  61  84
ATOM     84  C   UNL A   1      44.113  28.673  35.455  1.00  0.00     0.023 A 
ATOM     85  C   UNL A   1      43.956  27.577  36.322  1.00  0.00     0.031 A 
ATOM     86  C   UNL A   1      45.404  29.211  35.299  1.00  0.00     0.131 A 
ATOM     87  C   UNL A   1      45.059  27.090  37.040  1.00  0.00     0.055 A 
ATOM     88  C   UNL A   1      46.509  28.679  35.964  1.00  0.00     0.041 A 
ATOM     89  F   UNL A   1      45.614  30.261  34.489  1.00  0.00    -0.206 F 
ATOM     90  C   UNL A   1      46.338  27.621  36.851  1.00  0.00     0.022 A 
BRANCH  87  91
ATOM     91  S   UNL A   1      44.785  25.813  38.298  1.00  0.00     0.124 S 
ATOM     92  O   UNL A   1      43.700  25.034  37.709  1.00  0.00    -0.237 OA
ATOM     93  O   UNL A   1      46.083  25.151  38.361  1.00  0.00    -0.237 OA
ATOM     94  O   UNL A   1      44.421  26.577  39.490  1.00  0.00    -0.744 OA
ENDBRANCH  87  91
ENDBRANCH  61  84
ENDBRANCH  35  36
ENDBRANCH  27  30
ENDBRANCH  25  26
ENDBRANCH  24  25
ENDBRANCH  23  24
ENDBRANCH   1  23
TORSDOF 20
ENDMDL
MODEL 2
REMARK VINA RESULT:     -10.9      2.834      3.919
REMARK SMILES [NH3+][C@H](Cc1ccc(O)c(F)c1)C(=O)NCCCCCCNC(=O)c1ccc(-c2c3nc(c(-c4cc(S(=O)(=O)[O-])ccc4F)c4ccc([nH]4)c(-c4cc(S(=O)(=O)[O-])ccc4F)c4nc(c(-c5cc(S(=O)(=O)[O-])ccc5F)c5ccc2[nH]5)C=C4)C=C3)cc1
REMARK SMILES IDX 17 1 16 2 15 3 14 4 12 5 13 6 2 8 1 9 3 13 4 14 5 15 11 16
REMARK SMILES IDX 6 17 9 18 7 19 10 20 8 21 18 23 19 24 20 25 21 26 22 27
REMARK SMILES IDX 23 29 24 30 25 31 86 32 26 33 85 34 27 35 28 36 29 37 79 38
REMARK SMILES IDX 30 39 84 40 78 41 80 42 31 43 83 44 77 45 76 46 32 48 64 49
REMARK SMILES IDX 44 50 63 51 45 52 48 53 62 54 81 55 46 56 47 57 61 59 82 60
REMARK SMILES IDX 49 61 33 62 34 63 42 64 35 65 41 66 43 67 40 68 36 69 37 70
REMARK SMILES IDX 38 71 39 72 65 73 66 74 74 75 67 76 73 77 75 78 72 79 68 80
REMARK SMILES IDX 69 81 70 82 71 83 50 84 51 85 59 86 52 87 58 88 60 89 57 90
REMARK SMILES IDX 53 91 54 92 55 93 56 94
REMARK H PARENT 14 7 1 10 1 11 1 12 8 22 21 28 80 47 48 58
REMARK Flexibility Score: inf
ROOT
ATOM      1  C   UNL A   1      33.503  26.781  25.706  1.00  0.00     0.002 C 
ENDROOT
BRANCH   1   2
ATOM      2  C   UNL A   1      34.267  25.512  25.327  1.00  0.00     0.021 C 
BRANCH   2   3
ATOM      3  C   UNL A   1      33.895  24.304  26.180  1.00  0.00     0.116 C 
BRANCH   3   4
ATOM      4  N   UNL A   1      34.630  23.125  25.787  1.00  0.00    -0.351 N 
ATOM      5  C   UNL A   1      34.189  21.933  25.292  1.00  0.00     0.278 C 
ATOM      6  O   UNL A   1      35.031  21.041  25.146  1.00  0.00    -0.268 OA
ATOM      7  H   UNL A   1      35.606  23.192  25.894  1.00  0.00     0.163 HD
BRANCH   5   8
ATOM      8  C   UNL A   1      32.716  21.716  24.849  1.00  0.00     0.275 C 
BRANCH   8   9
ATOM      9  N   UNL A   1      32.255  20.412  25.373  1.00  0.00    -0.347 N 
ATOM     10  H   UNL A   1      32.081  20.490  26.375  1.00  0.00     0.345 HD
ATOM     11  H   UNL A   1      32.971  19.706  25.206  1.00  0.00     0.345 HD
ATOM     12  H   UNL A   1      31.392  20.141  24.900  1.00  0.00     0.345 HD
ENDBRANCH   8   9
BRANCH   8  13
ATOM     13  C   UNL A   1      32.419  22.033  23.355  1.00  0.00     0.111 C 
BRANCH  13  14
ATOM     14  C   UNL A   1      32.092  23.483  23.020  1.00  0.00    -0.038 A 
ATOM     15  C   UNL A   1      30.961  24.098  23.579  1.00  0.00     0.008 A 
ATOM     16  C   UNL A   1      32.878  24.239  22.135  1.00  0.00     0.047 A 
ATOM     17  C   UNL A   1      30.605  25.408  23.226  1.00  0.00     0.049 A 
ATOM     18  C   UNL A   1      32.516  25.532  21.777  1.00  0.00     0.165 A 
ATOM     19  C   UNL A   1      31.377  26.115  22.310  1.00  0.00     0.151 A 
ATOM     20  F   UNL A   1      33.274  26.189  20.888  1.00  0.00    -0.203 F 
BRANCH  19  21
ATOM     21  O   UNL A   1      31.032  27.370  21.907  1.00  0.00    -0.505 OA
ATOM     22  H   UNL A   1      31.697  28.014  21.759  1.00  0.00     0.293 HD
ENDBRANCH  19  21
ENDBRANCH  13  14
ENDBRANCH   8  13
ENDBRANCH   5   8
ENDBRANCH   3   4
ENDBRANCH   2   3
ENDBRANCH   1   2
BRANCH   1  23
ATOM     23  C   UNL A   1      33.634  27.927  24.697  1.00  0.00     0.002 C 
BRANCH  23  24
ATOM     24  C   UNL A   1      32.592  29.040  24.837  1.00  0.00     0.021 C 
BRANCH  24  25
ATOM     25  C   UNL A   1      32.292  29.455  26.275  1.00  0.00     0.116 C 
BRANCH  25  26
ATOM     26  N   UNL A   1      32.108  30.893  26.396  1.00  0.00    -0.352 N 
ATOM     27  C   UNL A   1      32.822  31.803  27.132  1.00  0.00     0.251 C 
ATOM     28  H   UNL A   1      31.362  31.268  25.874  1.00  0.00     0.163 HD
ATOM     29  O   UNL A   1      32.383  32.941  27.285  1.00  0.00    -0.269 OA
BRANCH  27  30
ATOM     30  C   UNL A   1      34.101  31.404  27.753  1.00  0.00     0.039 A 
ATOM     31  C   UNL A   1      35.041  32.389  28.060  1.00  0.00     0.014 A 
ATOM     32  C   UNL A   1      34.369  30.061  28.036  1.00  0.00     0.014 A 
ATOM     33  C   UNL A   1      36.223  32.034  28.714  1.00  0.00     0.010 A 
ATOM     34  C   UNL A   1      35.510  29.720  28.755  1.00  0.00     0.010 A 
ATOM     35  C   UNL A   1      36.449  30.704  29.104  1.00  0.00    -0.014 A 
BRANCH  35  36
ATOM     36  C   UNL A   1      37.654  30.327  29.888  1.00  0.00     0.031 A 
ATOM     37  C   UNL A   1      38.673  29.387  29.304  1.00  0.00     0.074 A 
ATOM     38  C   UNL A   1      37.794  30.778  31.150  1.00  0.00     0.049 A 
ATOM     39  N   UNL A   1      39.743  28.878  29.859  1.00  0.00    -0.248 NA
ATOM     40  C   UNL A   1      38.441  28.940  27.923  1.00  0.00     0.031 C 
ATOM     41  C   UNL A   1      36.850  31.663  31.838  1.00  0.00     0.029 A 
ATOM     42  N   UNL A   1      38.773  30.551  32.084  1.00  0.00    -0.354 N 
ATOM     43  C   UNL A   1      40.307  28.044  28.899  1.00  0.00     0.074 A 
ATOM     44  C   UNL A   1      39.422  28.067  27.754  1.00  0.00     0.031 C 
ATOM     45  C   UNL A   1      37.306  31.917  33.074  1.00  0.00     0.029 A 
ATOM     46  C   UNL A   1      38.543  31.173  33.290  1.00  0.00     0.049 A 
ATOM     47  H   UNL A   1      39.566  29.994  31.909  1.00  0.00     0.167 HD
ATOM     48  C   UNL A   1      41.467  27.343  28.962  1.00  0.00     0.034 A 
ATOM     49  C   UNL A   1      39.234  31.132  34.447  1.00  0.00     0.034 A 
ATOM     50  C   UNL A   1      42.335  27.333  30.115  1.00  0.00     0.049 A 
ATOM     51  C   UNL A   1      40.497  30.310  34.509  1.00  0.00     0.074 A 
ATOM     52  C   UNL A   1      43.558  26.704  30.268  1.00  0.00     0.029 A 
ATOM     53  N   UNL A   1      42.065  27.969  31.322  1.00  0.00    -0.354 N 
ATOM     54  N   UNL A   1      41.049  29.572  33.573  1.00  0.00    -0.248 NA
ATOM     55  C   UNL A   1      41.233  30.321  35.779  1.00  0.00     0.031 C 
ATOM     56  C   UNL A   1      43.985  26.887  31.587  1.00  0.00     0.029 A 
ATOM     57  C   UNL A   1      43.077  27.710  32.235  1.00  0.00     0.049 A 
ATOM     58  H   UNL A   1      41.272  28.523  31.503  1.00  0.00     0.167 HD
ATOM     59  C   UNL A   1      42.214  29.055  34.134  1.00  0.00     0.074 A 
ATOM     60  C   UNL A   1      42.291  29.579  35.482  1.00  0.00     0.031 C 
ATOM     61  C   UNL A   1      43.137  28.226  33.584  1.00  0.00     0.034 A 
BRANCH  48  62
ATOM     62  C   UNL A   1      41.840  26.505  27.760  1.00  0.00     0.023 A 
ATOM     63  C   UNL A   1      41.422  25.169  27.631  1.00  0.00     0.031 A 
ATOM     64  C   UNL A   1      42.651  27.039  26.742  1.00  0.00     0.131 A 
ATOM     65  C   UNL A   1      41.885  24.389  26.561  1.00  0.00     0.055 A 
ATOM     66  C   UNL A   1      43.032  26.284  25.632  1.00  0.00     0.041 A 
ATOM     67  F   UNL A   1      43.101  28.301  26.817  1.00  0.00    -0.206 F 
ATOM     68  C   UNL A   1      42.664  24.944  25.544  1.00  0.00     0.022 A 
BRANCH  65  69
ATOM     69  S   UNL A   1      41.593  22.599  26.605  1.00  0.00     0.124 S 
ATOM     70  O   UNL A   1      42.283  22.218  27.835  1.00  0.00    -0.237 OA
ATOM     71  O   UNL A   1      40.137  22.519  26.639  1.00  0.00    -0.237 OA
ATOM     72  O   UNL A   1      42.218  22.119  25.375  1.00  0.00    -0.744 OA
ENDBRANCH  65  69
ENDBRANCH  48  62
BRANCH  49  73
ATOM     73  C   UNL A   1      38.738  31.865  35.648  1.00  0.00     0.023 A 
ATOM     74  C   UNL A   1      38.161  31.183  36.730  1.00  0.00     0.031 A 
ATOM     75  C   UNL A   1      38.804  33.270  35.714  1.00  0.00     0.131 A 
ATOM     76  C   UNL A   1      37.630  31.907  37.810  1.00  0.00     0.055 A 
ATOM     77  C   UNL A   1      38.330  33.981  36.817  1.00  0.00     0.041 A 
ATOM     78  F   UNL A   1      39.348  33.972  34.707  1.00  0.00    -0.206 F 
ATOM     79  C   UNL A   1      37.726  33.300  37.869  1.00  0.00     0.022 A 
BRANCH  76  80
ATOM     80  S   UNL A   1      36.727  31.006  39.100  1.00  0.00     0.124 S 
ATOM     81  O   UNL A   1      35.504  31.792  39.209  1.00  0.00    -0.237 OA
ATOM     82  O   UNL A   1      36.589  29.681  38.504  1.00  0.00    -0.237 OA
ATOM     83  O   UNL A   1      37.621  31.078  40.255  1.00  0.00    -0.744 OA
ENDBRANCH  76  80
ENDBRANCH  49  73
BRANCH  61  84
ATOM     84  C   UNL A   1      44.335  27.869  34.431  1.00  0.00     0.023 A 
ATOM     85  C   UNL A   1      44.363  26.713  35.232  1.00  0.00     0.031 A 
ATOM     86  C   UNL A   1      45.468  28.704  34.438  1.00  0.00     0.131 A 
ATOM     87  C   UNL A   1      45.477  26.452  36.044  1.00  0.00     0.055 A 
ATOM     88  C   UNL A   1      46.600  28.403  35.197  1.00  0.00     0.041 A 
ATOM     89  F   UNL A   1      45.497  29.824  33.699  1.00  0.00    -0.206 F 
ATOM     90  C   UNL A   1      46.604  27.278  36.016  1.00  0.00     0.022 A 
BRANCH  87  91
ATOM     91  S   UNL A   1      45.398  25.067  37.212  1.00  0.00     0.124 S 
ATOM     92  O   UNL A   1      46.707  24.447  37.036  1.00  0.00    -0.237 OA
ATOM     93  O   UNL A   1      45.179  25.743  38.486  1.00  0.00    -0.237 OA
ATOM     94  O   UNL A   1      44.268  24.275  36.730  1.00  0.00    -0.744 OA
ENDBRANCH  87  91
ENDBRANCH  61  84
ENDBRANCH  35  36
ENDBRANCH  27  30
ENDBRANCH  25  26
ENDBRANCH  24  25
ENDBRANCH  23  24
ENDBRANCH   1  23
TORSDOF 20
ENDMDL
MODEL 3
REMARK VINA RESULT:     -10.9      1.496      7.782
REMARK SMILES [NH3+][C@H](Cc1ccc(O)c(F)c1)C(=O)NCCCCCCNC(=O)c1ccc(-c2c3nc(c(-c4cc(S(=O)(=O)[O-])ccc4F)c4ccc([nH]4)c(-c4cc(S(=O)(=O)[O-])ccc4F)c4nc(c(-c5cc(S(=O)(=O)[O-])ccc5F)c5ccc2[nH]5)C=C4)C=C3)cc1
REMARK SMILES IDX 17 1 16 2 15 3 14 4 12 5 13 6 2 8 1 9 3 13 4 14 5 15 11 16
REMARK SMILES IDX 6 17 9 18 7 19 10 20 8 21 18 23 19 24 20 25 21 26 22 27
REMARK SMILES IDX 23 29 24 30 25 31 86 32 26 33 85 34 27 35 28 36 29 37 79 38
REMARK SMILES IDX 30 39 84 40 78 41 80 42 31 43 83 44 77 45 76 46 32 48 64 49
REMARK SMILES IDX 44 50 63 51 45 52 48 53 62 54 81 55 46 56 47 57 61 59 82 60
REMARK SMILES IDX 49 61 33 62 34 63 42 64 35 65 41 66 43 67 40 68 36 69 37 70
REMARK SMILES IDX 38 71 39 72 65 73 66 74 74 75 67 76 73 77 75 78 72 79 68 80
REMARK SMILES IDX 69 81 70 82 71 83 50 84 51 85 59 86 52 87 58 88 60 89 57 90
REMARK SMILES IDX 53 91 54 92 55 93 56 94
REMARK H PARENT 14 7 1 10 1 11 1 12 8 22 21 28 80 47 48 58
REMARK Flexibility Score: inf
ROOT
ATOM      1  C   UNL A   1      33.177  29.857  26.158  1.00  0.00     0.002 C 
ENDROOT
BRANCH   1   2
ATOM      2  C   UNL A   1      33.503  28.894  25.016  1.00  0.00     0.021 C 
BRANCH   2   3
ATOM      3  C   UNL A   1      32.510  27.743  24.893  1.00  0.00     0.116 C 
BRANCH   3   4
ATOM      4  N   UNL A   1      32.198  27.451  23.514  1.00  0.00    -0.351 N 
ATOM      5  C   UNL A   1      30.996  27.225  22.908  1.00  0.00     0.278 C 
ATOM      6  O   UNL A   1      31.023  26.879  21.722  1.00  0.00    -0.268 OA
ATOM      7  H   UNL A   1      32.978  27.407  22.914  1.00  0.00     0.163 HD
BRANCH   5   8
ATOM      8  C   UNL A   1      29.646  27.466  23.637  1.00  0.00     0.275 C 
BRANCH   8   9
ATOM      9  N   UNL A   1      29.279  26.232  24.365  1.00  0.00    -0.347 N 
ATOM     10  H   UNL A   1      29.675  25.424  23.885  1.00  0.00     0.345 HD
ATOM     11  H   UNL A   1      28.264  26.145  24.396  1.00  0.00     0.345 HD
ATOM     12  H   UNL A   1      29.647  26.276  25.315  1.00  0.00     0.345 HD
ENDBRANCH   8   9
BRANCH   8  13
ATOM     13  C   UNL A   1      28.542  28.147  22.777  1.00  0.00     0.111 C 
BRANCH  13  14
ATOM     14  C   UNL A   1      28.581  29.668  22.703  1.00  0.00    -0.038 A 
ATOM     15  C   UNL A   1      29.077  30.415  23.782  1.00  0.00     0.008 A 
ATOM     16  C   UNL A   1      28.105  30.371  21.583  1.00  0.00     0.047 A 
ATOM     17  C   UNL A   1      29.053  31.817  23.760  1.00  0.00     0.049 A 
ATOM     18  C   UNL A   1      28.071  31.761  21.570  1.00  0.00     0.165 A 
ATOM     19  C   UNL A   1      28.532  32.486  22.657  1.00  0.00     0.151 A 
ATOM     20  F   UNL A   1      27.559  32.380  20.496  1.00  0.00    -0.203 F 
BRANCH  19  21
ATOM     21  O   UNL A   1      28.448  33.845  22.623  1.00  0.00    -0.505 OA
ATOM     22  H   UNL A   1      29.051  34.339  22.102  1.00  0.00     0.293 HD
ENDBRANCH  19  21
ENDBRANCH  13  14
ENDBRANCH   8  13
ENDBRANCH   5   8
ENDBRANCH   3   4
ENDBRANCH   2   3
ENDBRANCH   1   2
BRANCH   1  23
ATOM     23  C   UNL A   1      31.750  30.414  26.132  1.00  0.00     0.002 C 
BRANCH  23  24
ATOM     24  C   UNL A   1      31.587  31.817  26.726  1.00  0.00     0.021 C 
BRANCH  24  25
ATOM     25  C   UNL A   1      32.864  32.411  27.314  1.00  0.00     0.116 C 
BRANCH  25  26
ATOM     26  N   UNL A   1      32.701  33.815  27.655  1.00  0.00    -0.352 N 
ATOM     27  C   UNL A   1      33.291  34.542  28.657  1.00  0.00     0.251 C 
ATOM     28  H   UNL A   1      32.076  34.318  27.084  1.00  0.00     0.163 HD
ATOM     29  O   UNL A   1      32.863  35.662  28.931  1.00  0.00    -0.269 OA
BRANCH  27  30
ATOM     30  C   UNL A   1      34.420  33.966  29.415  1.00  0.00     0.039 A 
ATOM     31  C   UNL A   1      34.150  33.137  30.506  1.00  0.00     0.014 A 
ATOM     32  C   UNL A   1      35.741  34.238  29.046  1.00  0.00     0.014 A 
ATOM     33  C   UNL A   1      35.206  32.526  31.185  1.00  0.00     0.010 A 
ATOM     34  C   UNL A   1      36.786  33.570  29.676  1.00  0.00     0.010 A 
ATOM     35  C   UNL A   1      36.530  32.704  30.750  1.00  0.00    -0.014 A 
BRANCH  35  36
ATOM     36  C   UNL A   1      37.656  31.983  31.399  1.00  0.00     0.031 A 
ATOM     37  C   UNL A   1      38.136  32.400  32.763  1.00  0.00     0.074 A 
ATOM     38  C   UNL A   1      38.288  30.999  30.731  1.00  0.00     0.049 A 
ATOM     39  N   UNL A   1      39.150  31.951  33.456  1.00  0.00    -0.248 NA
ATOM     40  C   UNL A   1      37.392  33.485  33.419  1.00  0.00     0.031 C 
ATOM     41  C   UNL A   1      37.939  30.534  29.386  1.00  0.00     0.029 A 
ATOM     42  N   UNL A   1      39.361  30.218  31.081  1.00  0.00    -0.354 N 
ATOM     43  C   UNL A   1      39.172  32.702  34.626  1.00  0.00     0.074 A 
ATOM     44  C   UNL A   1      38.110  33.680  34.514  1.00  0.00     0.031 C 
ATOM     45  C   UNL A   1      38.767  29.538  29.035  1.00  0.00     0.029 A 
ATOM     46  C   UNL A   1      39.741  29.329  30.101  1.00  0.00     0.049 A 
ATOM     47  H   UNL A   1      39.817  30.287  31.951  1.00  0.00     0.167 HD
ATOM     48  C   UNL A   1      39.990  32.574  35.701  1.00  0.00     0.034 A 
ATOM     49  C   UNL A   1      40.771  28.460  30.054  1.00  0.00     0.034 A 
ATOM     50  C   UNL A   1      41.044  31.592  35.792  1.00  0.00     0.049 A 
ATOM     51  C   UNL A   1      41.695  28.365  31.242  1.00  0.00     0.074 A 
ATOM     52  C   UNL A   1      41.895  31.337  36.853  1.00  0.00     0.029 A 
ATOM     53  N   UNL A   1      41.406  30.714  34.777  1.00  0.00    -0.354 N 
ATOM     54  N   UNL A   1      41.668  29.044  32.366  1.00  0.00    -0.248 NA
ATOM     55  C   UNL A   1      42.783  27.382  31.159  1.00  0.00     0.031 C 
ATOM     56  C   UNL A   1      42.821  30.369  36.452  1.00  0.00     0.029 A 
ATOM     57  C   UNL A   1      42.493  29.949  35.172  1.00  0.00     0.049 A 
ATOM     58  H   UNL A   1      40.956  30.644  33.904  1.00  0.00     0.167 HD
ATOM     59  C   UNL A   1      42.718  28.547  33.135  1.00  0.00     0.074 A 
ATOM     60  C   UNL A   1      43.346  27.503  32.352  1.00  0.00     0.031 C 
ATOM     61  C   UNL A   1      43.123  28.919  34.377  1.00  0.00     0.034 A 
BRANCH  48  62
ATOM     62  C   UNL A   1      39.791  33.541  36.847  1.00  0.00     0.023 A 
ATOM     63  C   UNL A   1      40.628  34.656  37.026  1.00  0.00     0.031 A 
ATOM     64  C   UNL A   1      38.772  33.329  37.791  1.00  0.00     0.131 A 
ATOM     65  C   UNL A   1      40.487  35.463  38.165  1.00  0.00     0.055 A 
ATOM     66  C   UNL A   1      38.578  34.190  38.873  1.00  0.00     0.041 A 
ATOM     67  F   UNL A   1      37.953  32.269  37.689  1.00  0.00    -0.206 F 
ATOM     68  C   UNL A   1      39.450  35.256  39.075  1.00  0.00     0.022 A 
BRANCH  65  69
ATOM     69  S   UNL A   1      41.780  36.685  38.524  1.00  0.00     0.124 S 
ATOM     70  O   UNL A   1      40.999  37.780  39.095  1.00  0.00    -0.237 OA
ATOM     71  O   UNL A   1      42.644  35.964  39.453  1.00  0.00    -0.237 OA
ATOM     72  O   UNL A   1      42.363  36.963  37.214  1.00  0.00    -0.744 OA
ENDBRANCH  65  69
ENDBRANCH  48  62
BRANCH  49  73
ATOM     73  C   UNL A   1      41.004  27.632  28.835  1.00  0.00     0.023 A 
ATOM     74  C   UNL A   1      42.035  27.939  27.933  1.00  0.00     0.031 A 
ATOM     75  C   UNL A   1      40.171  26.537  28.536  1.00  0.00     0.131 A 
ATOM     76  C   UNL A   1      42.177  27.189  26.754  1.00  0.00     0.055 A 
ATOM     77  C   UNL A   1      40.355  25.758  27.393  1.00  0.00     0.041 A 
ATOM     78  F   UNL A   1      39.171  26.200  29.366  1.00  0.00    -0.206 F 
ATOM     79  C   UNL A   1      41.356  26.091  26.486  1.00  0.00     0.022 A 
BRANCH  76  80
ATOM     80  S   UNL A   1      43.398  27.727  25.524  1.00  0.00     0.124 S 
ATOM     81  O   UNL A   1      44.378  26.649  25.588  1.00  0.00    -0.237 OA
ATOM     82  O   UNL A   1      42.594  27.794  24.308  1.00  0.00    -0.237 OA
ATOM     83  O   UNL A   1      43.854  29.017  26.039  1.00  0.00    -0.744 OA
ENDBRANCH  76  80
ENDBRANCH  49  73
BRANCH  61  84
ATOM     84  C   UNL A   1      44.278  28.157  34.981  1.00  0.00     0.023 A 
ATOM     85  C   UNL A   1      44.086  26.975  35.719  1.00  0.00     0.031 A 
ATOM     86  C   UNL A   1      45.595  28.624  34.815  1.00  0.00     0.131 A 
ATOM     87  C   UNL A   1      45.185  26.332  36.307  1.00  0.00     0.055 A 
ATOM     88  C   UNL A   1      46.691  27.942  35.346  1.00  0.00     0.041 A 
ATOM     89  F   UNL A   1      45.840  29.749  34.125  1.00  0.00    -0.206 F 
ATOM     90  C   UNL A   1      46.488  26.796  36.108  1.00  0.00     0.022 A 
BRANCH  87  91
ATOM     91  S   UNL A   1      44.882  24.930  37.418  1.00  0.00     0.124 S 
ATOM     92  O   UNL A   1      45.592  25.341  38.625  1.00  0.00    -0.237 OA
ATOM     93  O   UNL A   1      43.426  24.910  37.509  1.00  0.00    -0.237 OA
ATOM     94  O   UNL A   1      45.473  23.796  36.708  1.00  0.00    -0.744 OA
ENDBRANCH  87  91
ENDBRANCH  61  84
ENDBRANCH  35  36
ENDBRANCH  27  30
ENDBRANCH  25  26
ENDBRANCH  24  25
ENDBRANCH  23  24
ENDBRANCH   1  23
TORSDOF 20
ENDMDL
