MODEL 1
REMARK VINA RESULT:     -11.9      0.000      0.000
REMARK SMILES C=C1c2ccccc2C(=O)N1[C@](C)(C(=O)NCCCCCCNC(=O)c1ccc(-c2c3nc(c(-c4cc(S(=O)(=O)[O-])ccc4F)c4ccc([nH]4)c(-c4cc(S(=O)(=O)[O-])ccc4F)c4nc(c(-c5cc(S(=O)(=O)[O-])ccc5F)c5ccc2[nH]5)C=C4)C=C3)cc1)C(F)(F)F
REMARK SMILES IDX 20 1 19 2 18 3 17 4 16 5 14 6 15 7 12 9 13 10 11 11 1 12
REMARK SMILES IDX 2 13 3 14 4 15 8 16 9 17 5 18 7 19 10 20 6 21 89 22 90 23
REMARK SMILES IDX 91 24 92 25 21 26 22 27 23 28 24 29 25 31 26 32 27 33 88 34
REMARK SMILES IDX 28 35 87 36 29 37 30 38 31 39 81 40 32 41 86 42 80 43 82 44
REMARK SMILES IDX 33 45 85 46 79 47 78 48 34 50 66 51 46 52 65 53 47 54 50 55
REMARK SMILES IDX 64 56 83 57 48 58 49 59 63 61 84 62 51 63 35 64 36 65 44 66
REMARK SMILES IDX 37 67 43 68 45 69 42 70 38 71 39 72 40 73 41 74 67 75 68 76
REMARK SMILES IDX 76 77 69 78 75 79 77 80 74 81 70 82 71 83 72 84 73 85 52 86
REMARK SMILES IDX 53 87 61 88 54 89 60 90 62 91 59 92 55 93 56 94 57 95 58 96
REMARK H PARENT 16 8 23 30 82 49 50 60
REMARK Flexibility Score: inf
ROOT
ATOM      1  C   UNL A   1      32.533  26.900  26.128  1.00  0.00     0.002 C 
ENDROOT
BRANCH   1   2
ATOM      2  C   UNL A   1      31.108  26.535  26.560  1.00  0.00     0.002 C 
BRANCH   2   3
ATOM      3  C   UNL A   1      30.299  25.631  25.627  1.00  0.00     0.021 C 
BRANCH   3   4
ATOM      4  C   UNL A   1      30.850  24.229  25.404  1.00  0.00     0.116 C 
BRANCH   4   5
ATOM      5  N   UNL A   1      31.607  24.059  24.180  1.00  0.00    -0.354 N 
ATOM      6  C   UNL A   1      32.715  23.301  23.921  1.00  0.00     0.255 C 
ATOM      7  O   UNL A   1      32.778  22.905  22.747  1.00  0.00    -0.272 OA
ATOM      8  H   UNL A   1      31.270  24.574  23.411  1.00  0.00     0.163 HD
BRANCH   6   9
ATOM      9  C   UNL A   1      33.791  22.863  24.969  1.00  0.00     0.219 C 
ATOM     10  C   UNL A   1      33.543  23.350  26.414  1.00  0.00     0.056 C 
BRANCH   9  11
ATOM     11  N   UNL A   1      33.932  21.367  24.915  1.00  0.00    -0.285 N 
ATOM     12  C   UNL A   1      36.365  20.837  25.011  1.00  0.00     0.038 C 
ATOM     13  C   UNL A   1      35.069  20.550  24.879  1.00  0.00     0.046 C 
ATOM     14  C   UNL A   1      34.607  19.161  24.712  1.00  0.00     0.010 A 
ATOM     15  C   UNL A   1      35.259  17.947  24.555  1.00  0.00     0.011 A 
ATOM     16  C   UNL A   1      33.221  19.180  24.716  1.00  0.00     0.049 A 
ATOM     17  C   UNL A   1      32.792  20.556  24.911  1.00  0.00     0.260 C 
ATOM     18  C   UNL A   1      34.490  16.784  24.390  1.00  0.00     0.001 A 
ATOM     19  C   UNL A   1      32.432  18.053  24.550  1.00  0.00     0.014 A 
ATOM     20  O   UNL A   1      31.620  20.844  25.062  1.00  0.00    -0.269 OA
ATOM     21  C   UNL A   1      33.086  16.837  24.380  1.00  0.00     0.001 A 
ENDBRANCH   9  11
BRANCH   9  22
ATOM     22  C   UNL A   1      34.999  23.721  24.494  1.00  0.00     0.420 C 
ATOM     23  F   UNL A   1      35.991  23.735  25.427  1.00  0.00    -0.168 F 
ATOM     24  F   UNL A   1      35.573  23.193  23.377  1.00  0.00    -0.168 F 
ATOM     25  F   UNL A   1      34.718  25.010  24.205  1.00  0.00    -0.168 F 
ENDBRANCH   9  22
ENDBRANCH   6   9
ENDBRANCH   4   5
ENDBRANCH   3   4
ENDBRANCH   2   3
ENDBRANCH   1   2
BRANCH   1  26
ATOM     26  C   UNL A   1      33.240  28.025  26.892  1.00  0.00     0.021 C 
BRANCH  26  27
ATOM     27  C   UNL A   1      33.858  29.140  26.054  1.00  0.00     0.116 C 
BRANCH  27  28
ATOM     28  N   UNL A   1      33.689  30.454  26.642  1.00  0.00    -0.352 N 
ATOM     29  C   UNL A   1      34.431  31.091  27.607  1.00  0.00     0.251 C 
ATOM     30  H   UNL A   1      32.925  30.970  26.296  1.00  0.00     0.163 HD
ATOM     31  O   UNL A   1      34.037  32.172  28.042  1.00  0.00    -0.269 OA
BRANCH  29  32
ATOM     32  C   UNL A   1      35.672  30.485  28.149  1.00  0.00     0.039 A 
ATOM     33  C   UNL A   1      36.862  30.660  27.435  1.00  0.00     0.014 A 
ATOM     34  C   UNL A   1      35.675  29.716  29.317  1.00  0.00     0.014 A 
ATOM     35  C   UNL A   1      38.055  30.111  27.913  1.00  0.00     0.010 A 
ATOM     36  C   UNL A   1      36.878  29.220  29.826  1.00  0.00     0.010 A 
ATOM     37  C   UNL A   1      38.079  29.406  29.126  1.00  0.00    -0.014 A 
BRANCH  37  38
ATOM     38  C   UNL A   1      39.349  28.838  29.656  1.00  0.00     0.031 A 
ATOM     39  C   UNL A   1      40.017  29.463  30.850  1.00  0.00     0.074 A 
ATOM     40  C   UNL A   1      39.922  27.788  29.035  1.00  0.00     0.049 A 
ATOM     41  N   UNL A   1      41.151  29.151  31.426  1.00  0.00    -0.248 NA
ATOM     42  C   UNL A   1      39.330  30.610  31.462  1.00  0.00     0.031 C 
ATOM     43  C   UNL A   1      39.392  27.118  27.845  1.00  0.00     0.029 A 
ATOM     44  N   UNL A   1      41.079  27.104  29.312  1.00  0.00    -0.354 N 
ATOM     45  C   UNL A   1      41.321  30.069  32.458  1.00  0.00     0.074 A 
ATOM     46  C   UNL A   1      40.199  30.983  32.389  1.00  0.00     0.031 C 
ATOM     47  C   UNL A   1      40.211  26.109  27.508  1.00  0.00     0.029 A 
ATOM     48  C   UNL A   1      41.342  26.080  28.432  1.00  0.00     0.049 A 
ATOM     49  H   UNL A   1      41.666  27.325  30.071  1.00  0.00     0.167 HD
ATOM     50  C   UNL A   1      42.308  30.133  33.386  1.00  0.00     0.034 A 
ATOM     51  C   UNL A   1      42.378  25.221  28.371  1.00  0.00     0.034 A 
ATOM     52  C   UNL A   1      43.413  29.207  33.451  1.00  0.00     0.049 A 
ATOM     53  C   UNL A   1      43.461  25.307  29.415  1.00  0.00     0.074 A 
ATOM     54  C   UNL A   1      44.445  29.155  34.373  1.00  0.00     0.029 A 
ATOM     55  N   UNL A   1      43.633  28.169  32.554  1.00  0.00    -0.354 N 
ATOM     56  N   UNL A   1      43.586  26.157  30.408  1.00  0.00    -0.248 NA
ATOM     57  C   UNL A   1      44.533  24.306  29.340  1.00  0.00     0.031 C 
ATOM     58  C   UNL A   1      45.315  28.122  34.003  1.00  0.00     0.029 A 
ATOM     59  C   UNL A   1      44.793  27.484  32.890  1.00  0.00     0.049 A 
ATOM     60  H   UNL A   1      43.051  27.950  31.791  1.00  0.00     0.167 HD
ATOM     61  C   UNL A   1      44.734  25.772  31.094  1.00  0.00     0.074 A 
ATOM     62  C   UNL A   1      45.255  24.606  30.410  1.00  0.00     0.031 C 
ATOM     63  C   UNL A   1      45.304  26.327  32.193  1.00  0.00     0.034 A 
BRANCH  50  64
ATOM     64  C   UNL A   1      42.243  31.263  34.388  1.00  0.00     0.023 A 
ATOM     65  C   UNL A   1      41.277  31.288  35.410  1.00  0.00     0.031 A 
ATOM     66  C   UNL A   1      43.134  32.346  34.299  1.00  0.00     0.131 A 
ATOM     67  C   UNL A   1      41.173  32.408  36.249  1.00  0.00     0.055 A 
ATOM     68  C   UNL A   1      43.078  33.421  35.191  1.00  0.00     0.041 A 
ATOM     69  F   UNL A   1      44.066  32.389  33.335  1.00  0.00    -0.206 F 
ATOM     70  C   UNL A   1      42.083  33.464  36.162  1.00  0.00     0.022 A 
BRANCH  67  71
ATOM     71  S   UNL A   1      39.742  32.530  37.356  1.00  0.00     0.124 S 
ATOM     72  O   UNL A   1      39.194  33.834  36.987  1.00  0.00    -0.237 OA
ATOM     73  O   UNL A   1      38.945  31.370  36.972  1.00  0.00    -0.237 OA
ATOM     74  O   UNL A   1      40.334  32.467  38.691  1.00  0.00    -0.744 OA
ENDBRANCH  67  71
ENDBRANCH  50  64
BRANCH  51  75
ATOM     75  C   UNL A   1      42.449  24.200  27.287  1.00  0.00     0.023 A 
ATOM     76  C   UNL A   1      41.664  23.038  27.334  1.00  0.00     0.031 A 
ATOM     77  C   UNL A   1      43.338  24.355  26.208  1.00  0.00     0.131 A 
ATOM     78  C   UNL A   1      41.814  22.053  26.345  1.00  0.00     0.055 A 
ATOM     79  C   UNL A   1      43.448  23.394  25.201  1.00  0.00     0.041 A 
ATOM     80  F   UNL A   1      44.106  25.452  26.112  1.00  0.00    -0.206 F 
ATOM     81  C   UNL A   1      42.693  22.228  25.275  1.00  0.00     0.022 A 
BRANCH  78  82
ATOM     82  S   UNL A   1      40.896  20.498  26.524  1.00  0.00     0.124 S 
ATOM     83  O   UNL A   1      39.566  20.883  26.064  1.00  0.00    -0.237 OA
ATOM     84  O   UNL A   1      41.645  19.604  25.649  1.00  0.00    -0.237 OA
ATOM     85  O   UNL A   1      41.002  20.203  27.951  1.00  0.00    -0.744 OA
ENDBRANCH  78  82
ENDBRANCH  51  75
BRANCH  63  86
ATOM     86  C   UNL A   1      46.529  25.642  32.746  1.00  0.00     0.023 A 
ATOM     87  C   UNL A   1      46.439  24.642  33.730  1.00  0.00     0.031 A 
ATOM     88  C   UNL A   1      47.809  26.018  32.299  1.00  0.00     0.131 A 
ATOM     89  C   UNL A   1      47.609  24.094  34.278  1.00  0.00     0.055 A 
ATOM     90  C   UNL A   1      48.967  25.429  32.806  1.00  0.00     0.041 A 
ATOM     91  F   UNL A   1      47.952  26.968  31.361  1.00  0.00    -0.206 F 
ATOM     92  C   UNL A   1      48.872  24.471  33.812  1.00  0.00     0.022 A 
BRANCH  89  93
ATOM     93  S   UNL A   1      47.463  22.950  35.678  1.00  0.00     0.124 S 
ATOM     94  O   UNL A   1      48.856  22.775  36.075  1.00  0.00    -0.237 OA
ATOM     95  O   UNL A   1      46.625  23.701  36.608  1.00  0.00    -0.237 OA
ATOM     96  O   UNL A   1      46.833  21.769  35.092  1.00  0.00    -0.744 OA
ENDBRANCH  89  93
ENDBRANCH  63  86
ENDBRANCH  37  38
ENDBRANCH  29  32
ENDBRANCH  27  28
ENDBRANCH  26  27
ENDBRANCH   1  26
TORSDOF 18
ENDMDL
MODEL 2
REMARK VINA RESULT:     -11.7      4.743     10.018
REMARK SMILES C=C1c2ccccc2C(=O)N1[C@](C)(C(=O)NCCCCCCNC(=O)c1ccc(-c2c3nc(c(-c4cc(S(=O)(=O)[O-])ccc4F)c4ccc([nH]4)c(-c4cc(S(=O)(=O)[O-])ccc4F)c4nc(c(-c5cc(S(=O)(=O)[O-])ccc5F)c5ccc2[nH]5)C=C4)C=C3)cc1)C(F)(F)F
REMARK SMILES IDX 20 1 19 2 18 3 17 4 16 5 14 6 15 7 12 9 13 10 11 11 1 12
REMARK SMILES IDX 2 13 3 14 4 15 8 16 9 17 5 18 7 19 10 20 6 21 89 22 90 23
REMARK SMILES IDX 91 24 92 25 21 26 22 27 23 28 24 29 25 31 26 32 27 33 88 34
REMARK SMILES IDX 28 35 87 36 29 37 30 38 31 39 81 40 32 41 86 42 80 43 82 44
REMARK SMILES IDX 33 45 85 46 79 47 78 48 34 50 66 51 46 52 65 53 47 54 50 55
REMARK SMILES IDX 64 56 83 57 48 58 49 59 63 61 84 62 51 63 35 64 36 65 44 66
REMARK SMILES IDX 37 67 43 68 45 69 42 70 38 71 39 72 40 73 41 74 67 75 68 76
REMARK SMILES IDX 76 77 69 78 75 79 77 80 74 81 70 82 71 83 72 84 73 85 52 86
REMARK SMILES IDX 53 87 61 88 54 89 60 90 62 91 59 92 55 93 56 94 57 95 58 96
REMARK H PARENT 16 8 23 30 82 49 50 60
REMARK Flexibility Score: inf
ROOT
ATOM      1  C   UNL A   1      35.111  23.000  23.836  1.00  0.00     0.002 C 
ENDROOT
BRANCH   1   2
ATOM      2  C   UNL A   1      33.720  22.677  23.279  1.00  0.00     0.002 C 
BRANCH   2   3
ATOM      3  C   UNL A   1      33.231  23.499  22.085  1.00  0.00     0.021 C 
BRANCH   3   4
ATOM      4  C   UNL A   1      32.625  24.858  22.408  1.00  0.00     0.116 C 
BRANCH   4   5
ATOM      5  N   UNL A   1      31.870  24.910  23.644  1.00  0.00    -0.354 N 
ATOM      6  C   UNL A   1      31.503  25.978  24.414  1.00  0.00     0.255 C 
ATOM      7  O   UNL A   1      30.439  25.801  25.028  1.00  0.00    -0.272 OA
ATOM      8  H   UNL A   1      31.575  24.034  23.985  1.00  0.00     0.163 HD
BRANCH   6   9
ATOM      9  C   UNL A   1      32.251  27.350  24.496  1.00  0.00     0.219 C 
ATOM     10  C   UNL A   1      33.564  27.435  23.686  1.00  0.00     0.056 C 
BRANCH   9  11
ATOM     11  N   UNL A   1      31.295  28.442  24.101  1.00  0.00    -0.285 N 
ATOM     12  C   UNL A   1      31.640  30.346  25.670  1.00  0.00     0.038 C 
ATOM     13  C   UNL A   1      31.036  29.690  24.678  1.00  0.00     0.046 C 
ATOM     14  C   UNL A   1      29.915  30.293  23.936  1.00  0.00     0.010 A 
ATOM     15  C   UNL A   1      29.192  31.467  24.079  1.00  0.00     0.011 A 
ATOM     16  C   UNL A   1      29.581  29.424  22.908  1.00  0.00     0.049 A 
ATOM     17  C   UNL A   1      30.490  28.291  22.967  1.00  0.00     0.260 C 
ATOM     18  C   UNL A   1      28.138  31.726  23.188  1.00  0.00     0.001 A 
ATOM     19  C   UNL A   1      28.545  29.645  22.015  1.00  0.00     0.014 A 
ATOM     20  O   UNL A   1      30.489  27.426  22.110  1.00  0.00    -0.269 OA
ATOM     21  C   UNL A   1      27.812  30.817  22.167  1.00  0.00     0.001 A 
ENDBRANCH   9  11
BRANCH   9  22
ATOM     22  C   UNL A   1      32.733  27.310  25.974  1.00  0.00     0.420 C 
ATOM     23  F   UNL A   1      33.234  26.085  26.296  1.00  0.00    -0.168 F 
ATOM     24  F   UNL A   1      33.764  28.177  26.182  1.00  0.00    -0.168 F 
ATOM     25  F   UNL A   1      31.796  27.604  26.901  1.00  0.00    -0.168 F 
ENDBRANCH   9  22
ENDBRANCH   6   9
ENDBRANCH   4   5
ENDBRANCH   3   4
ENDBRANCH   2   3
ENDBRANCH   1   2
BRANCH   1  26
ATOM     26  C   UNL A   1      35.328  22.834  25.344  1.00  0.00     0.021 C 
BRANCH  26  27
ATOM     27  C   UNL A   1      36.592  23.458  25.929  1.00  0.00     0.116 C 
BRANCH  27  28
ATOM     28  N   UNL A   1      37.701  22.528  26.011  1.00  0.00    -0.352 N 
ATOM     29  C   UNL A   1      39.004  22.742  26.389  1.00  0.00     0.251 C 
ATOM     30  H   UNL A   1      37.487  21.601  25.759  1.00  0.00     0.163 HD
ATOM     31  O   UNL A   1      39.813  21.823  26.276  1.00  0.00    -0.269 OA
BRANCH  29  32
ATOM     32  C   UNL A   1      39.453  24.063  26.895  1.00  0.00     0.039 A 
ATOM     33  C   UNL A   1      40.044  24.952  25.991  1.00  0.00     0.014 A 
ATOM     34  C   UNL A   1      39.342  24.420  28.242  1.00  0.00     0.014 A 
ATOM     35  C   UNL A   1      40.475  26.210  26.423  1.00  0.00     0.010 A 
ATOM     36  C   UNL A   1      39.718  25.699  28.661  1.00  0.00     0.010 A 
ATOM     37  C   UNL A   1      40.294  26.605  27.758  1.00  0.00    -0.014 A 
BRANCH  37  38
ATOM     38  C   UNL A   1      40.728  27.950  28.223  1.00  0.00     0.031 A 
ATOM     39  C   UNL A   1      42.188  28.315  28.226  1.00  0.00     0.074 A 
ATOM     40  C   UNL A   1      39.813  28.825  28.683  1.00  0.00     0.049 A 
ATOM     41  N   UNL A   1      42.769  29.412  28.642  1.00  0.00    -0.248 NA
ATOM     42  C   UNL A   1      43.120  27.299  27.715  1.00  0.00     0.031 C 
ATOM     43  C   UNL A   1      38.372  28.576  28.767  1.00  0.00     0.029 A 
ATOM     44  N   UNL A   1      39.957  30.099  29.175  1.00  0.00    -0.354 N 
ATOM     45  C   UNL A   1      44.134  29.215  28.459  1.00  0.00     0.074 A 
ATOM     46  C   UNL A   1      44.294  27.869  27.945  1.00  0.00     0.031 C 
ATOM     47  C   UNL A   1      37.765  29.667  29.260  1.00  0.00     0.029 A 
ATOM     48  C   UNL A   1      38.772  30.681  29.562  1.00  0.00     0.049 A 
ATOM     49  H   UNL A   1      40.827  30.554  29.243  1.00  0.00     0.167 HD
ATOM     50  C   UNL A   1      45.157  30.079  28.679  1.00  0.00     0.034 A 
ATOM     51  C   UNL A   1      38.525  31.890  30.104  1.00  0.00     0.034 A 
ATOM     52  C   UNL A   1      44.982  31.421  29.178  1.00  0.00     0.049 A 
ATOM     53  C   UNL A   1      39.675  32.835  30.336  1.00  0.00     0.074 A 
ATOM     54  C   UNL A   1      45.942  32.394  29.400  1.00  0.00     0.029 A 
ATOM     55  N   UNL A   1      43.763  31.983  29.539  1.00  0.00    -0.354 N 
ATOM     56  N   UNL A   1      40.957  32.647  30.119  1.00  0.00    -0.248 NA
ATOM     57  C   UNL A   1      39.343  34.163  30.868  1.00  0.00     0.031 C 
ATOM     58  C   UNL A   1      45.313  33.521  29.942  1.00  0.00     0.029 A 
ATOM     59  C   UNL A   1      43.950  33.279  29.997  1.00  0.00     0.049 A 
ATOM     60  H   UNL A   1      42.892  31.527  29.477  1.00  0.00     0.167 HD
ATOM     61  C   UNL A   1      41.578  33.845  30.460  1.00  0.00     0.074 A 
ATOM     62  C   UNL A   1      40.530  34.751  30.882  1.00  0.00     0.031 C 
ATOM     63  C   UNL A   1      42.895  34.169  30.422  1.00  0.00     0.034 A 
BRANCH  50  64
ATOM     64  C   UNL A   1      46.556  29.579  28.402  1.00  0.00     0.023 A 
ATOM     65  C   UNL A   1      47.305  28.904  29.382  1.00  0.00     0.031 A 
ATOM     66  C   UNL A   1      47.162  29.812  27.155  1.00  0.00     0.131 A 
ATOM     67  C   UNL A   1      48.642  28.558  29.128  1.00  0.00     0.055 A 
ATOM     68  C   UNL A   1      48.466  29.390  26.881  1.00  0.00     0.041 A 
ATOM     69  F   UNL A   1      46.505  30.467  26.186  1.00  0.00    -0.206 F 
ATOM     70  C   UNL A   1      49.219  28.775  27.876  1.00  0.00     0.022 A 
BRANCH  67  71
ATOM     71  S   UNL A   1      49.656  27.956  30.505  1.00  0.00     0.124 S 
ATOM     72  O   UNL A   1      49.839  29.174  31.291  1.00  0.00    -0.237 OA
ATOM     73  O   UNL A   1      48.805  26.932  31.101  1.00  0.00    -0.237 OA
ATOM     74  O   UNL A   1      50.864  27.458  29.850  1.00  0.00    -0.744 OA
ENDBRANCH  67  71
ENDBRANCH  50  64
BRANCH  51  75
ATOM     75  C   UNL A   1      37.134  32.283  30.467  1.00  0.00     0.023 A 
ATOM     76  C   UNL A   1      36.241  32.763  29.497  1.00  0.00     0.031 A 
ATOM     77  C   UNL A   1      36.693  32.225  31.801  1.00  0.00     0.131 A 
ATOM     78  C   UNL A   1      34.966  33.209  29.880  1.00  0.00     0.055 A 
ATOM     79  C   UNL A   1      35.407  32.625  32.169  1.00  0.00     0.041 A 
ATOM     80  F   UNL A   1      37.506  31.768  32.766  1.00  0.00    -0.206 F 
ATOM     81  C   UNL A   1      34.540  33.134  31.207  1.00  0.00     0.022 A 
BRANCH  78  82
ATOM     82  S   UNL A   1      33.898  33.965  28.623  1.00  0.00     0.124 S 
ATOM     83  O   UNL A   1      32.889  34.623  29.446  1.00  0.00    -0.237 OA
ATOM     84  O   UNL A   1      34.829  34.843  27.924  1.00  0.00    -0.237 OA
ATOM     85  O   UNL A   1      33.423  32.820  27.849  1.00  0.00    -0.744 OA
ENDBRANCH  78  82
ENDBRANCH  51  75
BRANCH  63  86
ATOM     86  C   UNL A   1      43.261  35.582  30.804  1.00  0.00     0.023 A 
ATOM     87  C   UNL A   1      43.397  36.598  29.842  1.00  0.00     0.031 A 
ATOM     88  C   UNL A   1      43.502  35.908  32.150  1.00  0.00     0.131 A 
ATOM     89  C   UNL A   1      43.824  37.877  30.233  1.00  0.00     0.055 A 
ATOM     90  C   UNL A   1      43.871  37.196  32.540  1.00  0.00     0.041 A 
ATOM     91  F   UNL A   1      43.387  34.976  33.110  1.00  0.00    -0.206 F 
ATOM     92  C   UNL A   1      44.048  38.186  31.577  1.00  0.00     0.022 A 
BRANCH  89  93
ATOM     93  S   UNL A   1      44.177  39.108  28.948  1.00  0.00     0.124 S 
ATOM     94  O   UNL A   1      43.367  40.242  29.381  1.00  0.00    -0.237 OA
ATOM     95  O   UNL A   1      45.622  39.276  29.066  1.00  0.00    -0.237 OA
ATOM     96  O   UNL A   1      43.727  38.459  27.718  1.00  0.00    -0.744 OA
ENDBRANCH  89  93
ENDBRANCH  63  86
ENDBRANCH  37  38
ENDBRANCH  29  32
ENDBRANCH  27  28
ENDBRANCH  26  27
ENDBRANCH   1  26
TORSDOF 18
ENDMDL
MODEL 3
REMARK VINA RESULT:     -11.7      5.028     10.249
REMARK SMILES C=C1c2ccccc2C(=O)N1[C@](C)(C(=O)NCCCCCCNC(=O)c1ccc(-c2c3nc(c(-c4cc(S(=O)(=O)[O-])ccc4F)c4ccc([nH]4)c(-c4cc(S(=O)(=O)[O-])ccc4F)c4nc(c(-c5cc(S(=O)(=O)[O-])ccc5F)c5ccc2[nH]5)C=C4)C=C3)cc1)C(F)(F)F
REMARK SMILES IDX 20 1 19 2 18 3 17 4 16 5 14 6 15 7 12 9 13 10 11 11 1 12
REMARK SMILES IDX 2 13 3 14 4 15 8 16 9 17 5 18 7 19 10 20 6 21 89 22 90 23
REMARK SMILES IDX 91 24 92 25 21 26 22 27 23 28 24 29 25 31 26 32 27 33 88 34
REMARK SMILES IDX 28 35 87 36 29 37 30 38 31 39 81 40 32 41 86 42 80 43 82 44
REMARK SMILES IDX 33 45 85 46 79 47 78 48 34 50 66 51 46 52 65 53 47 54 50 55
REMARK SMILES IDX 64 56 83 57 48 58 49 59 63 61 84 62 51 63 35 64 36 65 44 66
REMARK SMILES IDX 37 67 43 68 45 69 42 70 38 71 39 72 40 73 41 74 67 75 68 76
REMARK SMILES IDX 76 77 69 78 75 79 77 80 74 81 70 82 71 83 72 84 73 85 52 86
REMARK SMILES IDX 53 87 61 88 54 89 60 90 62 91 59 92 55 93 56 94 57 95 58 96
REMARK H PARENT 16 8 23 30 82 49 50 60
REMARK Flexibility Score: inf
ROOT
ATOM      1  C   UNL A   1      35.191  22.361  26.412  1.00  0.00     0.002 C 
ENDROOT
BRANCH   1   2
ATOM      2  C   UNL A   1      34.048  23.280  25.969  1.00  0.00     0.002 C 
BRANCH   2   3
ATOM      3  C   UNL A   1      33.466  23.057  24.571  1.00  0.00     0.021 C 
BRANCH   3   4
ATOM      4  C   UNL A   1      32.149  23.761  24.272  1.00  0.00     0.116 C 
BRANCH   4   5
ATOM      5  N   UNL A   1      31.725  24.714  25.278  1.00  0.00    -0.354 N 
ATOM      6  C   UNL A   1      31.543  26.067  25.196  1.00  0.00     0.255 C 
ATOM      7  O   UNL A   1      30.670  26.494  25.966  1.00  0.00    -0.272 OA
ATOM      8  H   UNL A   1      31.541  24.326  26.164  1.00  0.00     0.163 HD
BRANCH   6   9
ATOM      9  C   UNL A   1      32.263  27.030  24.195  1.00  0.00     0.219 C 
ATOM     10  C   UNL A   1      32.758  26.373  22.887  1.00  0.00     0.056 C 
BRANCH   9  11
ATOM     11  N   UNL A   1      31.354  28.193  23.911  1.00  0.00    -0.285 N 
ATOM     12  C   UNL A   1      31.795  29.932  25.640  1.00  0.00     0.038 C 
ATOM     13  C   UNL A   1      31.154  29.395  24.600  1.00  0.00     0.046 C 
ATOM     14  C   UNL A   1      30.055  30.110  23.929  1.00  0.00     0.010 A 
ATOM     15  C   UNL A   1      29.386  31.297  24.186  1.00  0.00     0.011 A 
ATOM     16  C   UNL A   1      29.675  29.353  22.831  1.00  0.00     0.049 A 
ATOM     17  C   UNL A   1      30.533  28.180  22.777  1.00  0.00     0.260 C 
ATOM     18  C   UNL A   1      28.338  31.680  23.334  1.00  0.00     0.001 A 
ATOM     19  C   UNL A   1      28.643  29.698  21.974  1.00  0.00     0.014 A 
ATOM     20  O   UNL A   1      30.487  27.397  21.847  1.00  0.00    -0.269 OA
ATOM     21  C   UNL A   1      27.963  30.883  22.239  1.00  0.00     0.001 A 
ENDBRANCH   9  11
BRANCH   9  22
ATOM     22  C   UNL A   1      33.574  27.312  24.983  1.00  0.00     0.420 C 
ATOM     23  F   UNL A   1      34.446  26.271  24.878  1.00  0.00    -0.168 F 
ATOM     24  F   UNL A   1      34.241  28.383  24.467  1.00  0.00    -0.168 F 
ATOM     25  F   UNL A   1      33.419  27.559  26.301  1.00  0.00    -0.168 F 
ENDBRANCH   9  22
ENDBRANCH   6   9
ENDBRANCH   4   5
ENDBRANCH   3   4
ENDBRANCH   2   3
ENDBRANCH   1   2
BRANCH   1  26
ATOM     26  C   UNL A   1      35.679  21.304  25.415  1.00  0.00     0.021 C 
BRANCH  26  27
ATOM     27  C   UNL A   1      37.079  21.498  24.839  1.00  0.00     0.116 C 
BRANCH  27  28
ATOM     28  N   UNL A   1      38.026  20.501  25.297  1.00  0.00    -0.352 N 
ATOM     29  C   UNL A   1      39.254  20.659  25.892  1.00  0.00     0.251 C 
ATOM     30  H   UNL A   1      37.746  19.567  25.162  1.00  0.00     0.163 HD
ATOM     31  O   UNL A   1      39.947  19.664  26.098  1.00  0.00    -0.269 OA
BRANCH  29  32
ATOM     32  C   UNL A   1      39.766  22.003  26.256  1.00  0.00     0.039 A 
ATOM     33  C   UNL A   1      41.062  22.100  26.775  1.00  0.00     0.014 A 
ATOM     34  C   UNL A   1      38.982  23.155  26.137  1.00  0.00     0.014 A 
ATOM     35  C   UNL A   1      41.587  23.347  27.125  1.00  0.00     0.010 A 
ATOM     36  C   UNL A   1      39.529  24.407  26.430  1.00  0.00     0.010 A 
ATOM     37  C   UNL A   1      40.834  24.516  26.933  1.00  0.00    -0.014 A 
BRANCH  37  38
ATOM     38  C   UNL A   1      41.392  25.851  27.280  1.00  0.00     0.031 A 
ATOM     39  C   UNL A   1      42.757  26.252  26.790  1.00  0.00     0.074 A 
ATOM     40  C   UNL A   1      40.689  26.684  28.073  1.00  0.00     0.049 A 
ATOM     41  N   UNL A   1      43.438  27.344  27.028  1.00  0.00    -0.248 NA
ATOM     42  C   UNL A   1      43.459  25.282  25.938  1.00  0.00     0.031 C 
ATOM     43  C   UNL A   1      39.371  26.396  28.644  1.00  0.00     0.029 A 
ATOM     44  N   UNL A   1      40.985  27.940  28.543  1.00  0.00    -0.354 N 
ATOM     45  C   UNL A   1      44.653  27.189  26.369  1.00  0.00     0.074 A 
ATOM     46  C   UNL A   1      44.633  25.870  25.768  1.00  0.00     0.031 C 
ATOM     47  C   UNL A   1      38.966  27.451  29.369  1.00  0.00     0.029 A 
ATOM     48  C   UNL A   1      40.006  28.475  29.347  1.00  0.00     0.049 A 
ATOM     49  H   UNL A   1      41.820  28.412  28.324  1.00  0.00     0.167 HD
ATOM     50  C   UNL A   1      45.680  28.068  26.258  1.00  0.00     0.034 A 
ATOM     51  C   UNL A   1      39.955  29.654  29.998  1.00  0.00     0.034 A 
ATOM     52  C   UNL A   1      45.680  29.384  26.850  1.00  0.00     0.049 A 
ATOM     53  C   UNL A   1      41.105  30.617  29.857  1.00  0.00     0.074 A 
ATOM     54  C   UNL A   1      46.649  30.370  26.767  1.00  0.00     0.029 A 
ATOM     55  N   UNL A   1      44.661  29.900  27.641  1.00  0.00    -0.354 N 
ATOM     56  N   UNL A   1      42.231  30.470  29.197  1.00  0.00    -0.248 NA
ATOM     57  C   UNL A   1      40.969  31.914  30.535  1.00  0.00     0.031 C 
ATOM     58  C   UNL A   1      46.241  31.457  27.548  1.00  0.00     0.029 A 
ATOM     59  C   UNL A   1      44.986  31.180  28.066  1.00  0.00     0.049 A 
ATOM     60  H   UNL A   1      43.828  29.426  27.866  1.00  0.00     0.167 HD
ATOM     61  C   UNL A   1      42.922  31.667  29.356  1.00  0.00     0.074 A 
ATOM     62  C   UNL A   1      42.081  32.529  30.160  1.00  0.00     0.031 C 
ATOM     63  C   UNL A   1      44.140  32.025  28.875  1.00  0.00     0.034 A 
BRANCH  50  64
ATOM     64  C   UNL A   1      46.898  27.615  25.486  1.00  0.00     0.023 A 
ATOM     65  C   UNL A   1      47.115  28.007  24.153  1.00  0.00     0.031 A 
ATOM     66  C   UNL A   1      47.836  26.750  26.077  1.00  0.00     0.131 A 
ATOM     67  C   UNL A   1      48.194  27.474  23.432  1.00  0.00     0.055 A 
ATOM     68  C   UNL A   1      48.954  26.289  25.378  1.00  0.00     0.041 A 
ATOM     69  F   UNL A   1      47.674  26.325  27.340  1.00  0.00    -0.206 F 
ATOM     70  C   UNL A   1      49.129  26.636  24.043  1.00  0.00     0.022 A 
BRANCH  67  71
ATOM     71  S   UNL A   1      48.274  27.775  21.645  1.00  0.00     0.124 S 
ATOM     72  O   UNL A   1      46.936  28.295  21.374  1.00  0.00    -0.237 OA
ATOM     73  O   UNL A   1      49.368  28.734  21.534  1.00  0.00    -0.237 OA
ATOM     74  O   UNL A   1      48.545  26.452  21.086  1.00  0.00    -0.744 OA
ENDBRANCH  67  71
ENDBRANCH  50  64
BRANCH  51  75
ATOM     75  C   UNL A   1      38.776  29.998  30.844  1.00  0.00     0.023 A 
ATOM     76  C   UNL A   1      37.726  30.780  30.338  1.00  0.00     0.031 A 
ATOM     77  C   UNL A   1      38.705  29.584  32.186  1.00  0.00     0.131 A 
ATOM     78  C   UNL A   1      36.671  31.162  31.181  1.00  0.00     0.055 A 
ATOM     79  C   UNL A   1      37.629  29.927  33.006  1.00  0.00     0.041 A 
ATOM     80  F   UNL A   1      39.680  28.828  32.716  1.00  0.00    -0.206 F 
ATOM     81  C   UNL A   1      36.611  30.733  32.508  1.00  0.00     0.022 A 
BRANCH  78  82
ATOM     82  S   UNL A   1      35.414  32.299  30.535  1.00  0.00     0.124 S 
ATOM     83  O   UNL A   1      36.180  33.530  30.372  1.00  0.00    -0.237 OA
ATOM     84  O   UNL A   1      35.004  31.630  29.306  1.00  0.00    -0.237 OA
ATOM     85  O   UNL A   1      34.406  32.327  31.593  1.00  0.00    -0.744 OA
ENDBRANCH  78  82
ENDBRANCH  51  75
BRANCH  63  86
ATOM     86  C   UNL A   1      44.603  33.430  29.171  1.00  0.00     0.023 A 
ATOM     87  C   UNL A   1      44.204  34.525  28.384  1.00  0.00     0.031 A 
ATOM     88  C   UNL A   1      45.482  33.670  30.242  1.00  0.00     0.131 A 
ATOM     89  C   UNL A   1      44.729  35.800  28.643  1.00  0.00     0.055 A 
ATOM     90  C   UNL A   1      45.957  34.950  30.530  1.00  0.00     0.041 A 
ATOM     91  F   UNL A   1      45.896  32.661  31.025  1.00  0.00    -0.206 F 
ATOM     92  C   UNL A   1      45.592  36.022  29.720  1.00  0.00     0.022 A 
BRANCH  89  93
ATOM     93  S   UNL A   1      44.346  37.150  27.494  1.00  0.00     0.124 S 
ATOM     94  O   UNL A   1      45.653  37.429  26.906  1.00  0.00    -0.237 OA
ATOM     95  O   UNL A   1      43.366  36.534  26.605  1.00  0.00    -0.237 OA
ATOM     96  O   UNL A   1      43.820  38.201  28.362  1.00  0.00    -0.744 OA
ENDBRANCH  89  93
ENDBRANCH  63  86
ENDBRANCH  37  38
ENDBRANCH  29  32
ENDBRANCH  27  28
ENDBRANCH  26  27
ENDBRANCH   1  26
TORSDOF 18
ENDMDL
