MODEL 1
REMARK VINA RESULT:     -11.5      0.000      0.000
REMARK SMILES CS(=O)(=O)c1ccc(/C=C(/C(=O)NCCCCCCNC(=O)c2ccc(-c3c4nc(c(-c5cc(S(=O)(=O)[O-])ccc5F)c5ccc([nH]5)c(-c5cc(S(=O)(=O)[O-])ccc5F)c5nc(c(-c6cc(S(=O)(=O)[O-])ccc6F)c6ccc3[nH]6)C=C5)C=C4)cc2)c2cccc(-c3ccc(S(C)(=O)=O)cc3)c2)cc1
REMARK SMILES IDX 16 1 15 2 14 3 13 4 11 5 12 6 10 8 9 9 8 10 5 11 6 12 103 13
REMARK SMILES IDX 7 14 102 15 2 16 1 17 3 18 4 19 86 20 87 21 101 22 88 23
REMARK SMILES IDX 90 24 89 25 91 26 92 27 100 28 93 29 99 30 94 31 95 32 96 33
REMARK SMILES IDX 97 34 98 35 17 36 18 37 19 38 20 39 21 40 22 42 23 43 24 44
REMARK SMILES IDX 85 45 25 46 84 47 26 48 27 49 28 50 78 51 29 52 83 53 77 54
REMARK SMILES IDX 79 55 30 56 82 57 76 58 75 59 31 61 63 62 43 63 62 64 44 65
REMARK SMILES IDX 47 66 61 67 80 68 45 69 46 70 60 72 81 73 48 74 32 75 33 76
REMARK SMILES IDX 41 77 34 78 40 79 42 80 39 81 35 82 36 83 37 84 38 85 64 86
REMARK SMILES IDX 65 87 73 88 66 89 72 90 74 91 71 92 67 93 68 94 69 95 70 96
REMARK SMILES IDX 49 97 50 98 58 99 51 100 57 101 59 102 56 103 52 104 53 105
REMARK SMILES IDX 54 106 55 107
REMARK H PARENT 13 7 20 41 79 60 47 71
REMARK Flexibility Score: inf
ROOT
ATOM      1  C   UNL A   1      36.649  21.222  24.816  1.00  0.00     0.002 C 
ENDROOT
BRANCH   1   2
ATOM      2  C   UNL A   1      36.799  21.926  23.456  1.00  0.00     0.021 C 
BRANCH   2   3
ATOM      3  C   UNL A   1      36.802  23.454  23.556  1.00  0.00     0.116 C 
BRANCH   3   4
ATOM      4  N   UNL A   1      36.582  23.852  24.934  1.00  0.00    -0.352 N 
ATOM      5  C   UNL A   1      35.662  24.621  25.567  1.00  0.00     0.251 C 
ATOM      6  O   UNL A   1      35.864  24.814  26.769  1.00  0.00    -0.269 OA
ATOM      7  H   UNL A   1      37.253  23.479  25.549  1.00  0.00     0.163 HD
BRANCH   5   8
ATOM      8  C   UNL A   1      34.400  25.146  24.912  1.00  0.00     0.047 C 
ATOM      9  C   UNL A   1      33.951  26.410  25.096  1.00  0.00     0.022 C 
BRANCH   9  10
ATOM     10  C   UNL A   1      32.829  27.113  24.429  1.00  0.00    -0.025 A 
ATOM     11  C   UNL A   1      30.605  28.464  23.362  1.00  0.00     0.067 A 
ATOM     12  C   UNL A   1      31.888  28.759  22.897  1.00  0.00     0.021 A 
ATOM     13  C   UNL A   1      30.415  27.467  24.317  1.00  0.00     0.021 A 
ATOM     14  C   UNL A   1      32.991  28.069  23.417  1.00  0.00     0.009 A 
ATOM     15  C   UNL A   1      31.524  26.797  24.846  1.00  0.00     0.009 A 
BRANCH  11  16
ATOM     16  S   UNL A   1      29.204  29.342  22.707  1.00  0.00     0.175 S 
ATOM     17  C   UNL A   1      29.159  30.873  23.601  1.00  0.00     0.163 C 
ATOM     18  O   UNL A   1      28.012  28.601  23.070  1.00  0.00    -0.224 OA
ATOM     19  O   UNL A   1      29.512  29.640  21.321  1.00  0.00    -0.224 OA
ENDBRANCH  11  16
ENDBRANCH   9  10
BRANCH   8  20
ATOM     20  C   UNL A   1      33.572  24.151  24.177  1.00  0.00    -0.012 A 
ATOM     21  C   UNL A   1      33.056  24.501  22.918  1.00  0.00     0.009 A 
ATOM     22  C   UNL A   1      33.392  22.842  24.641  1.00  0.00     0.017 A 
ATOM     23  C   UNL A   1      32.393  23.565  22.131  1.00  0.00     0.001 A 
ATOM     24  C   UNL A   1      32.794  21.865  23.825  1.00  0.00    -0.018 A 
ATOM     25  C   UNL A   1      32.277  22.251  22.577  1.00  0.00     0.009 A 
BRANCH  24  26
ATOM     26  C   UNL A   1      32.832  20.449  24.213  1.00  0.00    -0.018 A 
ATOM     27  C   UNL A   1      32.756  19.455  23.220  1.00  0.00     0.010 A 
ATOM     28  C   UNL A   1      33.015  20.052  25.547  1.00  0.00     0.010 A 
ATOM     29  C   UNL A   1      32.869  18.105  23.541  1.00  0.00     0.021 A 
ATOM     30  C   UNL A   1      33.124  18.699  25.882  1.00  0.00     0.021 A 
ATOM     31  C   UNL A   1      33.049  17.735  24.875  1.00  0.00     0.067 A 
BRANCH  31  32
ATOM     32  S   UNL A   1      33.239  16.014  25.261  1.00  0.00     0.175 S 
ATOM     33  C   UNL A   1      31.766  15.623  26.169  1.00  0.00     0.163 C 
ATOM     34  O   UNL A   1      33.203  15.297  24.003  1.00  0.00    -0.224 OA
ATOM     35  O   UNL A   1      34.362  15.882  26.172  1.00  0.00    -0.224 OA
ENDBRANCH  31  32
ENDBRANCH  24  26
ENDBRANCH   8  20
ENDBRANCH   5   8
ENDBRANCH   3   4
ENDBRANCH   2   3
ENDBRANCH   1   2
BRANCH   1  36
ATOM     36  C   UNL A   1      36.682  19.690  24.764  1.00  0.00     0.002 C 
BRANCH  36  37
ATOM     37  C   UNL A   1      38.061  19.065  24.994  1.00  0.00     0.021 C 
BRANCH  37  38
ATOM     38  C   UNL A   1      39.076  20.002  25.645  1.00  0.00     0.116 C 
BRANCH  38  39
ATOM     39  N   UNL A   1      40.220  19.275  26.174  1.00  0.00    -0.352 N 
ATOM     40  C   UNL A   1      41.412  19.770  26.646  1.00  0.00     0.251 C 
ATOM     41  H   UNL A   1      40.127  18.296  26.197  1.00  0.00     0.163 HD
ATOM     42  O   UNL A   1      42.357  19.013  26.847  1.00  0.00    -0.269 OA
BRANCH  40  43
ATOM     43  C   UNL A   1      41.551  21.223  26.884  1.00  0.00     0.039 A 
ATOM     44  C   UNL A   1      41.808  21.682  28.179  1.00  0.00     0.014 A 
ATOM     45  C   UNL A   1      41.448  22.126  25.822  1.00  0.00     0.014 A 
ATOM     46  C   UNL A   1      42.039  23.042  28.395  1.00  0.00     0.010 A 
ATOM     47  C   UNL A   1      41.738  23.472  26.030  1.00  0.00     0.010 A 
ATOM     48  C   UNL A   1      42.046  23.942  27.317  1.00  0.00    -0.014 A 
BRANCH  48  49
ATOM     49  C   UNL A   1      42.389  25.375  27.501  1.00  0.00     0.031 A 
ATOM     50  C   UNL A   1      43.761  25.871  27.140  1.00  0.00     0.074 A 
ATOM     51  C   UNL A   1      41.496  26.205  28.075  1.00  0.00     0.049 A 
ATOM     52  N   UNL A   1      44.298  27.046  27.346  1.00  0.00    -0.248 NA
ATOM     53  C   UNL A   1      44.655  24.905  26.485  1.00  0.00     0.031 C 
ATOM     54  C   UNL A   1      40.142  25.832  28.494  1.00  0.00     0.029 A 
ATOM     55  N   UNL A   1      41.597  27.528  28.427  1.00  0.00    -0.354 N 
ATOM     56  C   UNL A   1      45.597  26.958  26.860  1.00  0.00     0.074 A 
ATOM     57  C   UNL A   1      45.781  25.598  26.398  1.00  0.00     0.031 C 
ATOM     58  C   UNL A   1      39.538  26.902  29.035  1.00  0.00     0.029 A 
ATOM     59  C   UNL A   1      40.474  28.022  29.051  1.00  0.00     0.049 A 
ATOM     60  H   UNL A   1      42.397  28.073  28.249  1.00  0.00     0.167 HD
ATOM     61  C   UNL A   1      46.543  27.928  26.789  1.00  0.00     0.034 A 
ATOM     62  C   UNL A   1      40.235  29.230  29.597  1.00  0.00     0.034 A 
ATOM     63  C   UNL A   1      46.339  29.282  27.247  1.00  0.00     0.049 A 
ATOM     64  C   UNL A   1      41.318  30.278  29.553  1.00  0.00     0.074 A 
ATOM     65  C   UNL A   1      47.204  30.359  27.165  1.00  0.00     0.029 A 
ATOM     66  N   UNL A   1      45.193  29.741  27.884  1.00  0.00    -0.354 N 
ATOM     67  N   UNL A   1      42.526  30.194  29.048  1.00  0.00    -0.248 NA
ATOM     68  C   UNL A   1      41.005  31.583  30.151  1.00  0.00     0.031 C 
ATOM     69  C   UNL A   1      46.610  31.449  27.813  1.00  0.00     0.029 A 
ATOM     70  C   UNL A   1      45.345  31.074  28.236  1.00  0.00     0.049 A 
ATOM     71  H   UNL A   1      44.391  29.200  28.061  1.00  0.00     0.167 HD
ATOM     72  C   UNL A   1      43.109  31.443  29.246  1.00  0.00     0.074 A 
ATOM     73  C   UNL A   1      42.114  32.264  29.906  1.00  0.00     0.031 C 
ATOM     74  C   UNL A   1      44.349  31.875  28.909  1.00  0.00     0.034 A 
BRANCH  61  75
ATOM     75  C   UNL A   1      47.888  27.546  26.220  1.00  0.00     0.023 A 
ATOM     76  C   UNL A   1      48.180  27.694  24.852  1.00  0.00     0.031 A 
ATOM     77  C   UNL A   1      48.884  27.000  27.049  1.00  0.00     0.131 A 
ATOM     78  C   UNL A   1      49.402  27.229  24.342  1.00  0.00     0.055 A 
ATOM     79  C   UNL A   1      50.129  26.615  26.549  1.00  0.00     0.041 A 
ATOM     80  F   UNL A   1      48.657  26.817  28.359  1.00  0.00    -0.206 F 
ATOM     81  C   UNL A   1      50.388  26.715  25.185  1.00  0.00     0.022 A 
BRANCH  78  82
ATOM     82  S   UNL A   1      49.624  27.178  22.543  1.00  0.00     0.124 S 
ATOM     83  O   UNL A   1      51.049  26.874  22.431  1.00  0.00    -0.237 OA
ATOM     84  O   UNL A   1      48.711  26.114  22.142  1.00  0.00    -0.237 OA
ATOM     85  O   UNL A   1      49.246  28.521  22.112  1.00  0.00    -0.744 OA
ENDBRANCH  78  82
ENDBRANCH  61  75
BRANCH  62  86
ATOM     86  C   UNL A   1      38.929  29.514  30.259  1.00  0.00     0.023 A 
ATOM     87  C   UNL A   1      37.948  30.287  29.617  1.00  0.00     0.031 A 
ATOM     88  C   UNL A   1      38.658  29.047  31.557  1.00  0.00     0.131 A 
ATOM     89  C   UNL A   1      36.759  30.605  30.291  1.00  0.00     0.055 A 
ATOM     90  C   UNL A   1      37.453  29.326  32.204  1.00  0.00     0.041 A 
ATOM     91  F   UNL A   1      39.560  28.299  32.212  1.00  0.00    -0.206 F 
ATOM     92  C   UNL A   1      36.499  30.119  31.574  1.00  0.00     0.022 A 
BRANCH  89  93
ATOM     93  S   UNL A   1      35.582  31.729  29.490  1.00  0.00     0.124 S 
ATOM     94  O   UNL A   1      36.475  32.690  28.853  1.00  0.00    -0.237 OA
ATOM     95  O   UNL A   1      34.865  30.828  28.594  1.00  0.00    -0.237 OA
ATOM     96  O   UNL A   1      34.796  32.250  30.606  1.00  0.00    -0.744 OA
ENDBRANCH  89  93
ENDBRANCH  62  86
BRANCH  74  97
ATOM     97  C   UNL A   1      44.682  33.313  29.217  1.00  0.00     0.023 A 
ATOM     98  C   UNL A   1      44.377  34.349  28.318  1.00  0.00     0.031 A 
ATOM     99  C   UNL A   1      45.311  33.648  30.429  1.00  0.00     0.131 A 
ATOM    100  C   UNL A   1      44.740  35.670  28.628  1.00  0.00     0.055 A 
ATOM    101  C   UNL A   1      45.621  34.969  30.755  1.00  0.00     0.041 A 
ATOM    102  F   UNL A   1      45.626  32.695  31.321  1.00  0.00    -0.206 F 
ATOM    103  C   UNL A   1      45.344  35.987  29.847  1.00  0.00     0.022 A 
BRANCH 100 104
ATOM    104  S   UNL A   1      44.469  36.964  27.386  1.00  0.00     0.124 S 
ATOM    105  O   UNL A   1      45.750  36.984  26.686  1.00  0.00    -0.237 OA
ATOM    106  O   UNL A   1      43.337  36.440  26.628  1.00  0.00    -0.237 OA
ATOM    107  O   UNL A   1      44.180  38.152  28.186  1.00  0.00    -0.744 OA
ENDBRANCH 100 104
ENDBRANCH  74  97
ENDBRANCH  48  49
ENDBRANCH  40  43
ENDBRANCH  38  39
ENDBRANCH  37  38
ENDBRANCH  36  37
ENDBRANCH   1  36
TORSDOF 21
ENDMDL
MODEL 2
REMARK VINA RESULT:     -11.3      1.651      7.263
REMARK SMILES CS(=O)(=O)c1ccc(/C=C(/C(=O)NCCCCCCNC(=O)c2ccc(-c3c4nc(c(-c5cc(S(=O)(=O)[O-])ccc5F)c5ccc([nH]5)c(-c5cc(S(=O)(=O)[O-])ccc5F)c5nc(c(-c6cc(S(=O)(=O)[O-])ccc6F)c6ccc3[nH]6)C=C5)C=C4)cc2)c2cccc(-c3ccc(S(C)(=O)=O)cc3)c2)cc1
REMARK SMILES IDX 16 1 15 2 14 3 13 4 11 5 12 6 10 8 9 9 8 10 5 11 6 12 103 13
REMARK SMILES IDX 7 14 102 15 2 16 1 17 3 18 4 19 86 20 87 21 101 22 88 23
REMARK SMILES IDX 90 24 89 25 91 26 92 27 100 28 93 29 99 30 94 31 95 32 96 33
REMARK SMILES IDX 97 34 98 35 17 36 18 37 19 38 20 39 21 40 22 42 23 43 24 44
REMARK SMILES IDX 85 45 25 46 84 47 26 48 27 49 28 50 78 51 29 52 83 53 77 54
REMARK SMILES IDX 79 55 30 56 82 57 76 58 75 59 31 61 63 62 43 63 62 64 44 65
REMARK SMILES IDX 47 66 61 67 80 68 45 69 46 70 60 72 81 73 48 74 32 75 33 76
REMARK SMILES IDX 41 77 34 78 40 79 42 80 39 81 35 82 36 83 37 84 38 85 64 86
REMARK SMILES IDX 65 87 73 88 66 89 72 90 74 91 71 92 67 93 68 94 69 95 70 96
REMARK SMILES IDX 49 97 50 98 58 99 51 100 57 101 59 102 56 103 52 104 53 105
REMARK SMILES IDX 54 106 55 107
REMARK H PARENT 13 7 20 41 79 60 47 71
REMARK Flexibility Score: inf
ROOT
ATOM      1  C   UNL A   1      37.424  21.652  24.641  1.00  0.00     0.002 C 
ENDROOT
BRANCH   1   2
ATOM      2  C   UNL A   1      36.658  22.250  23.447  1.00  0.00     0.021 C 
BRANCH   2   3
ATOM      3  C   UNL A   1      36.395  23.752  23.582  1.00  0.00     0.116 C 
BRANCH   3   4
ATOM      4  N   UNL A   1      36.167  24.083  24.976  1.00  0.00    -0.352 N 
ATOM      5  C   UNL A   1      35.251  24.832  25.639  1.00  0.00     0.251 C 
ATOM      6  O   UNL A   1      35.444  24.962  26.851  1.00  0.00    -0.269 OA
ATOM      7  H   UNL A   1      36.828  23.671  25.578  1.00  0.00     0.163 HD
BRANCH   5   8
ATOM      8  C   UNL A   1      34.002  25.406  25.000  1.00  0.00     0.047 C 
ATOM      9  C   UNL A   1      33.675  26.717  25.080  1.00  0.00     0.022 C 
BRANCH   9  10
ATOM     10  C   UNL A   1      32.580  27.453  24.404  1.00  0.00    -0.025 A 
ATOM     11  C   UNL A   1      30.435  28.916  23.323  1.00  0.00     0.067 A 
ATOM     12  C   UNL A   1      31.679  28.934  22.690  1.00  0.00     0.021 A 
ATOM     13  C   UNL A   1      30.236  28.137  24.461  1.00  0.00     0.021 A 
ATOM     14  C   UNL A   1      32.739  28.187  23.221  1.00  0.00     0.009 A 
ATOM     15  C   UNL A   1      31.306  27.411  24.996  1.00  0.00     0.009 A 
BRANCH  11  16
ATOM     16  S   UNL A   1      29.089  29.865  22.653  1.00  0.00     0.175 S 
ATOM     17  C   UNL A   1      27.639  28.892  22.963  1.00  0.00     0.163 C 
ATOM     18  O   UNL A   1      29.264  29.923  21.215  1.00  0.00    -0.224 OA
ATOM     19  O   UNL A   1      28.997  31.074  23.449  1.00  0.00    -0.224 OA
ENDBRANCH  11  16
ENDBRANCH   9  10
BRANCH   8  20
ATOM     20  C   UNL A   1      33.049  24.426  24.412  1.00  0.00    -0.012 A 
ATOM     21  C   UNL A   1      32.139  24.871  23.438  1.00  0.00     0.009 A 
ATOM     22  C   UNL A   1      33.109  23.058  24.705  1.00  0.00     0.017 A 
ATOM     23  C   UNL A   1      31.322  23.973  22.758  1.00  0.00     0.001 A 
ATOM     24  C   UNL A   1      32.347  22.130  23.973  1.00  0.00    -0.018 A 
ATOM     25  C   UNL A   1      31.438  22.610  23.015  1.00  0.00     0.009 A 
BRANCH  24  26
ATOM     26  C   UNL A   1      32.596  20.689  24.112  1.00  0.00    -0.018 A 
ATOM     27  C   UNL A   1      32.333  19.832  23.028  1.00  0.00     0.010 A 
ATOM     28  C   UNL A   1      33.160  20.145  25.277  1.00  0.00     0.010 A 
ATOM     29  C   UNL A   1      32.632  18.473  23.095  1.00  0.00     0.021 A 
ATOM     30  C   UNL A   1      33.459  18.782  25.357  1.00  0.00     0.021 A 
ATOM     31  C   UNL A   1      33.190  17.956  24.265  1.00  0.00     0.067 A 
BRANCH  31  32
ATOM     32  S   UNL A   1      33.609  16.232  24.316  1.00  0.00     0.175 S 
ATOM     33  C   UNL A   1      35.039  16.180  25.363  1.00  0.00     0.163 C 
ATOM     34  O   UNL A   1      32.521  15.559  24.995  1.00  0.00    -0.224 OA
ATOM     35  O   UNL A   1      34.027  15.835  22.984  1.00  0.00    -0.224 OA
ENDBRANCH  31  32
ENDBRANCH  24  26
ENDBRANCH   8  20
ENDBRANCH   5   8
ENDBRANCH   3   4
ENDBRANCH   2   3
ENDBRANCH   1   2
BRANCH   1  36
ATOM     36  C   UNL A   1      37.053  20.206  24.994  1.00  0.00     0.002 C 
BRANCH  36  37
ATOM     37  C   UNL A   1      38.243  19.284  25.272  1.00  0.00     0.021 C 
BRANCH  37  38
ATOM     38  C   UNL A   1      39.425  19.969  25.953  1.00  0.00     0.116 C 
BRANCH  38  39
ATOM     39  N   UNL A   1      40.622  19.141  25.920  1.00  0.00    -0.352 N 
ATOM     40  C   UNL A   1      41.938  19.526  25.997  1.00  0.00     0.251 C 
ATOM     41  H   UNL A   1      40.465  18.173  25.832  1.00  0.00     0.163 HD
ATOM     42  O   UNL A   1      42.830  18.726  25.730  1.00  0.00    -0.269 OA
BRANCH  40  43
ATOM     43  C   UNL A   1      42.267  20.916  26.379  1.00  0.00     0.039 A 
ATOM     44  C   UNL A   1      42.478  21.223  27.726  1.00  0.00     0.014 A 
ATOM     45  C   UNL A   1      42.388  21.907  25.401  1.00  0.00     0.014 A 
ATOM     46  C   UNL A   1      42.885  22.510  28.084  1.00  0.00     0.010 A 
ATOM     47  C   UNL A   1      42.852  23.172  25.753  1.00  0.00     0.010 A 
ATOM     48  C   UNL A   1      43.114  23.483  27.097  1.00  0.00    -0.014 A 
BRANCH  48  49
ATOM     49  C   UNL A   1      43.646  24.827  27.438  1.00  0.00     0.031 A 
ATOM     50  C   UNL A   1      42.728  25.882  27.988  1.00  0.00     0.074 A 
ATOM     51  C   UNL A   1      44.933  25.122  27.165  1.00  0.00     0.049 A 
ATOM     52  N   UNL A   1      42.964  27.146  28.222  1.00  0.00    -0.248 NA
ATOM     53  C   UNL A   1      41.352  25.459  28.288  1.00  0.00     0.031 C 
ATOM     54  C   UNL A   1      45.914  24.190  26.604  1.00  0.00     0.029 A 
ATOM     55  N   UNL A   1      45.634  26.295  27.302  1.00  0.00    -0.354 N 
ATOM     56  C   UNL A   1      41.765  27.676  28.684  1.00  0.00     0.074 A 
ATOM     57  C   UNL A   1      40.791  26.605  28.645  1.00  0.00     0.031 C 
ATOM     58  C   UNL A   1      47.088  24.823  26.455  1.00  0.00     0.029 A 
ATOM     59  C   UNL A   1      46.935  26.218  26.859  1.00  0.00     0.049 A 
ATOM     60  H   UNL A   1      45.242  27.115  27.682  1.00  0.00     0.167 HD
ATOM     61  C   UNL A   1      41.505  28.935  29.117  1.00  0.00     0.034 A 
ATOM     62  C   UNL A   1      47.886  27.166  26.764  1.00  0.00     0.034 A 
ATOM     63  C   UNL A   1      42.491  29.989  29.156  1.00  0.00     0.049 A 
ATOM     64  C   UNL A   1      47.561  28.572  27.204  1.00  0.00     0.074 A 
ATOM     65  C   UNL A   1      42.354  31.280  29.635  1.00  0.00     0.029 A 
ATOM     66  N   UNL A   1      43.794  29.876  28.688  1.00  0.00    -0.354 N 
ATOM     67  N   UNL A   1      46.434  29.046  27.681  1.00  0.00    -0.248 NA
ATOM     68  C   UNL A   1      48.635  29.568  27.092  1.00  0.00     0.031 C 
ATOM     69  C   UNL A   1      43.550  31.967  29.393  1.00  0.00     0.029 A 
ATOM     70  C   UNL A   1      44.458  31.085  28.830  1.00  0.00     0.049 A 
ATOM     71  H   UNL A   1      44.188  29.058  28.309  1.00  0.00     0.167 HD
ATOM     72  C   UNL A   1      46.673  30.392  27.950  1.00  0.00     0.074 A 
ATOM     73  C   UNL A   1      48.053  30.648  27.591  1.00  0.00     0.031 C 
ATOM     74  C   UNL A   1      45.831  31.329  28.452  1.00  0.00     0.034 A 
BRANCH  61  75
ATOM     75  C   UNL A   1      40.093  29.242  29.554  1.00  0.00     0.023 A 
ATOM     76  C   UNL A   1      39.759  29.404  30.910  1.00  0.00     0.031 A 
ATOM     77  C   UNL A   1      39.060  29.346  28.606  1.00  0.00     0.131 A 
ATOM     78  C   UNL A   1      38.419  29.582  31.285  1.00  0.00     0.055 A 
ATOM     79  C   UNL A   1      37.740  29.605  28.980  1.00  0.00     0.041 A 
ATOM     80  F   UNL A   1      39.314  29.182  27.298  1.00  0.00    -0.206 F 
ATOM     81  C   UNL A   1      37.411  29.709  30.328  1.00  0.00     0.022 A 
BRANCH  78  82
ATOM     82  S   UNL A   1      37.996  29.502  33.047  1.00  0.00     0.124 S 
ATOM     83  O   UNL A   1      37.356  28.191  33.137  1.00  0.00    -0.237 OA
ATOM     84  O   UNL A   1      39.299  29.621  33.690  1.00  0.00    -0.237 OA
ATOM     85  O   UNL A   1      37.099  30.639  33.237  1.00  0.00    -0.744 OA
ENDBRANCH  78  82
ENDBRANCH  61  75
BRANCH  62  86
ATOM     86  C   UNL A   1      49.228  26.836  26.207  1.00  0.00     0.023 A 
ATOM     87  C   UNL A   1      49.621  27.306  24.944  1.00  0.00     0.031 A 
ATOM     88  C   UNL A   1      50.125  26.015  26.915  1.00  0.00     0.131 A 
ATOM     89  C   UNL A   1      50.859  26.918  24.408  1.00  0.00     0.055 A 
ATOM     90  C   UNL A   1      51.375  25.672  26.398  1.00  0.00     0.041 A 
ATOM     91  F   UNL A   1      49.801  25.544  28.130  1.00  0.00    -0.206 F 
ATOM     92  C   UNL A   1      51.744  26.115  25.132  1.00  0.00     0.022 A 
BRANCH  89  93
ATOM     93  S   UNL A   1      51.266  27.419  22.714  1.00  0.00     0.124 S 
ATOM     94  O   UNL A   1      50.324  26.626  21.933  1.00  0.00    -0.237 OA
ATOM     95  O   UNL A   1      51.015  28.857  22.755  1.00  0.00    -0.237 OA
ATOM     96  O   UNL A   1      52.671  27.039  22.574  1.00  0.00    -0.744 OA
ENDBRANCH  89  93
ENDBRANCH  62  86
BRANCH  74  97
ATOM     97  C   UNL A   1      46.396  32.708  28.677  1.00  0.00     0.023 A 
ATOM     98  C   UNL A   1      46.278  33.721  27.709  1.00  0.00     0.031 A 
ATOM     99  C   UNL A   1      47.060  33.013  29.879  1.00  0.00     0.131 A 
ATOM    100  C   UNL A   1      46.853  34.980  27.943  1.00  0.00     0.055 A 
ATOM    101  C   UNL A   1      47.583  34.282  30.127  1.00  0.00     0.041 A 
ATOM    102  F   UNL A   1      47.201  32.081  30.835  1.00  0.00    -0.206 F 
ATOM    103  C   UNL A   1      47.490  35.271  29.152  1.00  0.00     0.022 A 
BRANCH 100 104
ATOM    104  S   UNL A   1      46.816  36.217  26.617  1.00  0.00     0.124 S 
ATOM    105  O   UNL A   1      45.402  36.580  26.582  1.00  0.00    -0.237 OA
ATOM    106  O   UNL A   1      47.726  37.241  27.117  1.00  0.00    -0.237 OA
ATOM    107  O   UNL A   1      47.295  35.481  25.449  1.00  0.00    -0.744 OA
ENDBRANCH 100 104
ENDBRANCH  74  97
ENDBRANCH  48  49
ENDBRANCH  40  43
ENDBRANCH  38  39
ENDBRANCH  37  38
ENDBRANCH  36  37
ENDBRANCH   1  36
TORSDOF 21
ENDMDL
MODEL 3
REMARK VINA RESULT:     -11.2      1.468      7.138
REMARK SMILES CS(=O)(=O)c1ccc(/C=C(/C(=O)NCCCCCCNC(=O)c2ccc(-c3c4nc(c(-c5cc(S(=O)(=O)[O-])ccc5F)c5ccc([nH]5)c(-c5cc(S(=O)(=O)[O-])ccc5F)c5nc(c(-c6cc(S(=O)(=O)[O-])ccc6F)c6ccc3[nH]6)C=C5)C=C4)cc2)c2cccc(-c3ccc(S(C)(=O)=O)cc3)c2)cc1
REMARK SMILES IDX 16 1 15 2 14 3 13 4 11 5 12 6 10 8 9 9 8 10 5 11 6 12 103 13
REMARK SMILES IDX 7 14 102 15 2 16 1 17 3 18 4 19 86 20 87 21 101 22 88 23
REMARK SMILES IDX 90 24 89 25 91 26 92 27 100 28 93 29 99 30 94 31 95 32 96 33
REMARK SMILES IDX 97 34 98 35 17 36 18 37 19 38 20 39 21 40 22 42 23 43 24 44
REMARK SMILES IDX 85 45 25 46 84 47 26 48 27 49 28 50 78 51 29 52 83 53 77 54
REMARK SMILES IDX 79 55 30 56 82 57 76 58 75 59 31 61 63 62 43 63 62 64 44 65
REMARK SMILES IDX 47 66 61 67 80 68 45 69 46 70 60 72 81 73 48 74 32 75 33 76
REMARK SMILES IDX 41 77 34 78 40 79 42 80 39 81 35 82 36 83 37 84 38 85 64 86
REMARK SMILES IDX 65 87 73 88 66 89 72 90 74 91 71 92 67 93 68 94 69 95 70 96
REMARK SMILES IDX 49 97 50 98 58 99 51 100 57 101 59 102 56 103 52 104 53 105
REMARK SMILES IDX 54 106 55 107
REMARK H PARENT 13 7 20 41 79 60 47 71
REMARK Flexibility Score: inf
ROOT
ATOM      1  C   UNL A   1      36.958  21.511  24.653  1.00  0.00     0.002 C 
ENDROOT
BRANCH   1   2
ATOM      2  C   UNL A   1      36.572  22.162  23.313  1.00  0.00     0.021 C 
BRANCH   2   3
ATOM      3  C   UNL A   1      36.285  23.662  23.424  1.00  0.00     0.116 C 
BRANCH   3   4
ATOM      4  N   UNL A   1      36.183  24.036  24.822  1.00  0.00    -0.352 N 
ATOM      5  C   UNL A   1      35.336  24.816  25.539  1.00  0.00     0.251 C 
ATOM      6  O   UNL A   1      35.636  24.978  26.726  1.00  0.00    -0.269 OA
ATOM      7  H   UNL A   1      36.890  23.633  25.376  1.00  0.00     0.163 HD
BRANCH   5   8
ATOM      8  C   UNL A   1      34.042  25.387  24.995  1.00  0.00     0.047 C 
ATOM      9  C   UNL A   1      33.778  26.714  24.977  1.00  0.00     0.022 C 
BRANCH   9  10
ATOM     10  C   UNL A   1      32.638  27.435  24.362  1.00  0.00    -0.025 A 
ATOM     11  C   UNL A   1      30.520  28.971  23.331  1.00  0.00     0.067 A 
ATOM     12  C   UNL A   1      31.320  28.221  22.468  1.00  0.00     0.021 A 
ATOM     13  C   UNL A   1      30.733  28.924  24.708  1.00  0.00     0.021 A 
ATOM     14  C   UNL A   1      32.361  27.442  22.988  1.00  0.00     0.009 A 
ATOM     15  C   UNL A   1      31.788  28.159  25.216  1.00  0.00     0.009 A 
BRANCH  11  16
ATOM     16  S   UNL A   1      29.200  29.965  22.673  1.00  0.00     0.175 S 
ATOM     17  C   UNL A   1      27.753  28.944  22.787  1.00  0.00     0.163 C 
ATOM     18  O   UNL A   1      29.465  30.171  21.263  1.00  0.00    -0.224 OA
ATOM     19  O   UNL A   1      29.032  31.085  23.579  1.00  0.00    -0.224 OA
ENDBRANCH  11  16
ENDBRANCH   9  10
BRANCH   8  20
ATOM     20  C   UNL A   1      32.988  24.403  24.625  1.00  0.00    -0.012 A 
ATOM     21  C   UNL A   1      31.879  24.849  23.886  1.00  0.00     0.009 A 
ATOM     22  C   UNL A   1      33.123  23.033  24.881  1.00  0.00     0.017 A 
ATOM     23  C   UNL A   1      30.936  23.950  23.397  1.00  0.00     0.001 A 
ATOM     24  C   UNL A   1      32.222  22.105  24.328  1.00  0.00    -0.018 A 
ATOM     25  C   UNL A   1      31.117  22.585  23.606  1.00  0.00     0.009 A 
BRANCH  24  26
ATOM     26  C   UNL A   1      32.507  20.665  24.391  1.00  0.00    -0.018 A 
ATOM     27  C   UNL A   1      32.229  19.854  23.275  1.00  0.00     0.010 A 
ATOM     28  C   UNL A   1      33.118  20.080  25.511  1.00  0.00     0.010 A 
ATOM     29  C   UNL A   1      32.559  18.501  23.269  1.00  0.00     0.021 A 
ATOM     30  C   UNL A   1      33.449  18.722  25.517  1.00  0.00     0.021 A 
ATOM     31  C   UNL A   1      33.165  17.942  24.395  1.00  0.00     0.067 A 
BRANCH  31  32
ATOM     32  S   UNL A   1      33.622  16.228  24.351  1.00  0.00     0.175 S 
ATOM     33  C   UNL A   1      35.076  16.157  25.365  1.00  0.00     0.163 C 
ATOM     34  O   UNL A   1      32.565  15.497  25.018  1.00  0.00    -0.224 OA
ATOM     35  O   UNL A   1      34.020  15.907  22.992  1.00  0.00    -0.224 OA
ENDBRANCH  31  32
ENDBRANCH  24  26
ENDBRANCH   8  20
ENDBRANCH   5   8
ENDBRANCH   3   4
ENDBRANCH   2   3
ENDBRANCH   1   2
BRANCH   1  36
ATOM     36  C   UNL A   1      36.776  19.989  24.714  1.00  0.00     0.002 C 
BRANCH  36  37
ATOM     37  C   UNL A   1      38.061  19.195  24.964  1.00  0.00     0.021 C 
BRANCH  37  38
ATOM     38  C   UNL A   1      39.143  19.967  25.715  1.00  0.00     0.116 C 
BRANCH  38  39
ATOM     39  N   UNL A   1      40.324  19.150  25.952  1.00  0.00    -0.352 N 
ATOM     40  C   UNL A   1      41.604  19.552  26.248  1.00  0.00     0.251 C 
ATOM     41  H   UNL A   1      40.185  18.178  25.893  1.00  0.00     0.163 HD
ATOM     42  O   UNL A   1      42.529  18.747  26.197  1.00  0.00    -0.269 OA
BRANCH  40  43
ATOM     43  C   UNL A   1      41.857  20.965  26.602  1.00  0.00     0.039 A 
ATOM     44  C   UNL A   1      42.093  21.303  27.937  1.00  0.00     0.014 A 
ATOM     45  C   UNL A   1      41.884  21.948  25.609  1.00  0.00     0.014 A 
ATOM     46  C   UNL A   1      42.431  22.617  28.267  1.00  0.00     0.010 A 
ATOM     47  C   UNL A   1      42.280  23.244  25.931  1.00  0.00     0.010 A 
ATOM     48  C   UNL A   1      42.567  23.589  27.262  1.00  0.00    -0.014 A 
BRANCH  48  49
ATOM     49  C   UNL A   1      43.025  24.969  27.568  1.00  0.00     0.031 A 
ATOM     50  C   UNL A   1      42.080  25.951  28.202  1.00  0.00     0.074 A 
ATOM     51  C   UNL A   1      44.259  25.359  27.191  1.00  0.00     0.049 A 
ATOM     52  N   UNL A   1      42.241  27.229  28.426  1.00  0.00    -0.248 NA
ATOM     53  C   UNL A   1      40.769  25.426  28.612  1.00  0.00     0.031 C 
ATOM     54  C   UNL A   1      45.255  24.503  26.543  1.00  0.00     0.029 A 
ATOM     55  N   UNL A   1      44.880  26.580  27.280  1.00  0.00    -0.354 N 
ATOM     56  C   UNL A   1      41.049  27.667  28.991  1.00  0.00     0.074 A 
ATOM     57  C   UNL A   1      40.157  26.526  29.024  1.00  0.00     0.031 C 
ATOM     58  C   UNL A   1      46.363  25.222  26.302  1.00  0.00     0.029 A 
ATOM     59  C   UNL A   1      46.141  26.600  26.730  1.00  0.00     0.049 A 
ATOM     60  H   UNL A   1      44.463  27.367  27.698  1.00  0.00     0.167 HD
ATOM     61  C   UNL A   1      40.734  28.903  29.455  1.00  0.00     0.034 A 
ATOM     62  C   UNL A   1      47.009  27.617  26.564  1.00  0.00     0.034 A 
ATOM     63  C   UNL A   1      41.640  30.026  29.421  1.00  0.00     0.049 A 
ATOM     64  C   UNL A   1      46.619  28.994  27.041  1.00  0.00     0.074 A 
ATOM     65  C   UNL A   1      41.449  31.303  29.921  1.00  0.00     0.029 A 
ATOM     66  N   UNL A   1      42.904  30.011  28.845  1.00  0.00    -0.354 N 
ATOM     67  N   UNL A   1      45.504  29.382  27.615  1.00  0.00    -0.248 NA
ATOM     68  C   UNL A   1      47.604  30.067  26.849  1.00  0.00     0.031 C 
ATOM     69  C   UNL A   1      42.566  32.076  29.586  1.00  0.00     0.029 A 
ATOM     70  C   UNL A   1      43.487  31.266  28.942  1.00  0.00     0.049 A 
ATOM     71  H   UNL A   1      43.324  29.225  28.428  1.00  0.00     0.167 HD
ATOM     72  C   UNL A   1      45.665  30.741  27.874  1.00  0.00     0.074 A 
ATOM     73  C   UNL A   1      46.988  31.099  27.404  1.00  0.00     0.031 C 
ATOM     74  C   UNL A   1      44.801  31.612  28.453  1.00  0.00     0.034 A 
BRANCH  61  75
ATOM     75  C   UNL A   1      39.345  29.103  30.011  1.00  0.00     0.023 A 
ATOM     76  C   UNL A   1      38.331  29.720  29.258  1.00  0.00     0.031 A 
ATOM     77  C   UNL A   1      39.037  28.697  31.321  1.00  0.00     0.131 A 
ATOM     78  C   UNL A   1      37.084  29.985  29.846  1.00  0.00     0.055 A 
ATOM     79  C   UNL A   1      37.769  28.890  31.872  1.00  0.00     0.041 A 
ATOM     80  F   UNL A   1      39.969  28.119  32.095  1.00  0.00    -0.206 F 
ATOM     81  C   UNL A   1      36.788  29.550  31.139  1.00  0.00     0.022 A 
BRANCH  78  82
ATOM     82  S   UNL A   1      35.908  31.030  28.944  1.00  0.00     0.124 S 
ATOM     83  O   UNL A   1      36.806  31.920  28.211  1.00  0.00    -0.237 OA
ATOM     84  O   UNL A   1      35.175  30.060  28.139  1.00  0.00    -0.237 OA
ATOM     85  O   UNL A   1      35.136  31.672  30.005  1.00  0.00    -0.744 OA
ENDBRANCH  78  82
ENDBRANCH  61  75
BRANCH  62  86
ATOM     86  C   UNL A   1      48.321  27.389  25.894  1.00  0.00     0.023 A 
ATOM     87  C   UNL A   1      48.446  27.489  24.500  1.00  0.00     0.031 A 
ATOM     88  C   UNL A   1      49.461  27.031  26.636  1.00  0.00     0.131 A 
ATOM     89  C   UNL A   1      49.673  27.195  23.886  1.00  0.00     0.055 A 
ATOM     90  C   UNL A   1      50.691  26.786  26.024  1.00  0.00     0.041 A 
ATOM     91  F   UNL A   1      49.396  26.927  27.973  1.00  0.00    -0.206 F 
ATOM     92  C   UNL A   1      50.800  26.856  24.639  1.00  0.00     0.022 A 
BRANCH  89  93
ATOM     93  S   UNL A   1      49.757  27.187  22.074  1.00  0.00     0.124 S 
ATOM     94  O   UNL A   1      51.169  26.904  21.842  1.00  0.00    -0.237 OA
ATOM     95  O   UNL A   1      48.824  26.118  21.733  1.00  0.00    -0.237 OA
ATOM     96  O   UNL A   1      49.320  28.533  21.707  1.00  0.00    -0.744 OA
ENDBRANCH  89  93
ENDBRANCH  62  86
BRANCH  74  97
ATOM     97  C   UNL A   1      45.280  33.029  28.642  1.00  0.00     0.023 A 
ATOM     98  C   UNL A   1      46.008  33.416  29.780  1.00  0.00     0.031 A 
ATOM     99  C   UNL A   1      45.006  34.003  27.666  1.00  0.00     0.131 A 
ATOM    100  C   UNL A   1      46.401  34.755  29.934  1.00  0.00     0.055 A 
ATOM    101  C   UNL A   1      45.445  35.321  27.799  1.00  0.00     0.041 A 
ATOM    102  F   UNL A   1      44.313  33.686  26.560  1.00  0.00    -0.206 F 
ATOM    103  C   UNL A   1      46.138  35.705  28.944  1.00  0.00     0.022 A 
BRANCH 100 104
ATOM    104  S   UNL A   1      47.205  35.256  31.481  1.00  0.00     0.124 S 
ATOM    105  O   UNL A   1      48.452  35.842  30.997  1.00  0.00    -0.237 OA
ATOM    106  O   UNL A   1      46.240  36.191  32.049  1.00  0.00    -0.237 OA
ATOM    107  O   UNL A   1      47.353  34.000  32.212  1.00  0.00    -0.744 OA
ENDBRANCH 100 104
ENDBRANCH  74  97
ENDBRANCH  48  49
ENDBRANCH  40  43
ENDBRANCH  38  39
ENDBRANCH  37  38
ENDBRANCH  36  37
ENDBRANCH   1  36
TORSDOF 21
ENDMDL
