MODEL 1
REMARK VINA RESULT:     -11.8      0.000      0.000
REMARK SMILES COc1cc2c(cc1OC)[C@H](C(=O)NCCCCCCNC(=O)c1ccc(-c3c4nc(c(-c5cc(S(=O)(=O)[O-])ccc5F)c5ccc([nH]5)c(-c5cc(S(=O)(=O)[O-])ccc5F)c5nc(c(-c6cc(S(=O)(=O)[O-])ccc6F)c6ccc3[nH]6)C=C5)C=C4)cc1)[C@H](c1cccc(Cl)c1)N(C)C2=O
REMARK SMILES IDX 18 1 17 2 16 3 15 4 14 5 12 6 13 7 11 9 3 10 4 11 8 12 5 13
REMARK SMILES IDX 7 14 6 15 97 16 95 17 98 18 87 19 96 20 2 21 1 22 9 23 10 24
REMARK SMILES IDX 88 25 89 26 94 27 90 28 92 29 91 30 93 31 19 32 20 33 21 34
REMARK SMILES IDX 22 35 23 37 24 38 25 39 86 40 26 41 85 42 27 43 28 44 29 45
REMARK SMILES IDX 79 46 30 47 84 48 78 49 80 50 31 51 83 52 77 53 76 54 32 56
REMARK SMILES IDX 64 57 44 58 63 59 45 60 48 61 62 62 81 63 46 64 47 65 61 67
REMARK SMILES IDX 82 68 49 69 33 70 34 71 42 72 35 73 41 74 43 75 40 76 36 77
REMARK SMILES IDX 37 78 38 79 39 80 65 81 66 82 74 83 67 84 73 85 75 86 72 87
REMARK SMILES IDX 68 88 69 89 70 90 71 91 50 92 51 93 59 94 52 95 58 96 60 97
REMARK SMILES IDX 57 98 53 99 54 100 55 101 56 102
REMARK H PARENT 14 8 21 36 80 55 48 66
REMARK Flexibility Score: inf
ROOT
ATOM      1  C   UNL A   1      35.468  32.942  27.924  1.00  0.00     0.002 C 
ENDROOT
BRANCH   1   2
ATOM      2  C   UNL A   1      34.865  31.695  28.577  1.00  0.00     0.002 C 
BRANCH   2   3
ATOM      3  C   UNL A   1      34.640  30.521  27.624  1.00  0.00     0.021 C 
BRANCH   3   4
ATOM      4  C   UNL A   1      33.286  30.526  26.902  1.00  0.00     0.116 C 
BRANCH   4   5
ATOM      5  N   UNL A   1      32.481  29.415  27.381  1.00  0.00    -0.355 N 
ATOM      6  C   UNL A   1      32.181  28.190  26.887  1.00  0.00     0.230 C 
ATOM      7  O   UNL A   1      31.363  27.552  27.569  1.00  0.00    -0.274 OA
ATOM      8  H   UNL A   1      32.063  29.590  28.255  1.00  0.00     0.163 HD
BRANCH   6   9
ATOM      9  C   UNL A   1      32.832  27.479  25.705  1.00  0.00     0.136 C 
ATOM     10  C   UNL A   1      32.314  23.261  24.996  1.00  0.00     0.161 A 
ATOM     11  C   UNL A   1      32.664  24.118  23.951  1.00  0.00     0.064 A 
ATOM     12  C   UNL A   1      32.393  23.712  26.318  1.00  0.00     0.161 A 
ATOM     13  C   UNL A   1      32.953  25.459  24.221  1.00  0.00     0.048 A 
ATOM     14  C   UNL A   1      32.720  25.056  26.562  1.00  0.00     0.056 A 
ATOM     15  C   UNL A   1      32.807  25.976  25.519  1.00  0.00    -0.016 A 
ATOM     16  C   UNL A   1      33.460  26.338  23.128  1.00  0.00     0.254 C 
ATOM     17  N   UNL A   1      33.297  27.706  23.308  1.00  0.00    -0.333 N 
ATOM     18  O   UNL A   1      33.993  25.844  22.135  1.00  0.00    -0.269 OA
ATOM     19  C   UNL A   1      32.415  28.204  24.380  1.00  0.00     0.132 C 
ATOM     20  C   UNL A   1      33.809  28.629  22.313  1.00  0.00     0.147 C 
BRANCH  10  21
ATOM     21  O   UNL A   1      31.794  22.033  24.693  1.00  0.00    -0.493 OA
ATOM     22  C   UNL A   1      32.801  21.073  24.391  1.00  0.00     0.278 C 
ENDBRANCH  10  21
BRANCH  12  23
ATOM     23  O   UNL A   1      32.177  22.995  27.465  1.00  0.00    -0.493 OA
ATOM     24  C   UNL A   1      33.249  22.201  27.959  1.00  0.00     0.278 C 
ENDBRANCH  12  23
BRANCH  19  25
ATOM     25  C   UNL A   1      30.929  28.133  23.972  1.00  0.00    -0.023 A 
ATOM     26  C   UNL A   1      30.178  26.974  24.239  1.00  0.00     0.006 A 
ATOM     27  C   UNL A   1      30.247  29.207  23.365  1.00  0.00     0.026 A 
ATOM     28  C   UNL A   1      28.839  26.863  23.845  1.00  0.00     0.002 A 
ATOM     29  C   UNL A   1      28.908  29.101  22.986  1.00  0.00     0.041 A 
ATOM     30  C   UNL A   1      28.204  27.926  23.208  1.00  0.00     0.020 A 
ATOM     31  Cl  UNL A   1      28.121  30.443  22.248  1.00  0.00    -0.084 Cl
ENDBRANCH  19  25
ENDBRANCH   6   9
ENDBRANCH   4   5
ENDBRANCH   3   4
ENDBRANCH   2   3
ENDBRANCH   1   2
BRANCH   1  32
ATOM     32  C   UNL A   1      34.620  34.217  28.011  1.00  0.00     0.021 C 
BRANCH  32  33
ATOM     33  C   UNL A   1      33.211  34.034  28.571  1.00  0.00     0.116 C 
BRANCH  33  34
ATOM     34  N   UNL A   1      32.899  35.009  29.599  1.00  0.00    -0.352 N 
ATOM     35  C   UNL A   1      33.389  35.125  30.876  1.00  0.00     0.251 C 
ATOM     36  H   UNL A   1      32.235  35.690  29.342  1.00  0.00     0.163 HD
ATOM     37  O   UNL A   1      32.835  35.886  31.665  1.00  0.00    -0.269 OA
BRANCH  35  38
ATOM     38  C   UNL A   1      34.563  34.333  31.309  1.00  0.00     0.039 A 
ATOM     39  C   UNL A   1      35.842  34.837  31.055  1.00  0.00     0.014 A 
ATOM     40  C   UNL A   1      34.418  33.080  31.914  1.00  0.00     0.014 A 
ATOM     41  C   UNL A   1      36.970  34.110  31.445  1.00  0.00     0.010 A 
ATOM     42  C   UNL A   1      35.544  32.380  32.353  1.00  0.00     0.010 A 
ATOM     43  C   UNL A   1      36.833  32.885  32.117  1.00  0.00    -0.014 A 
BRANCH  43  44
ATOM     44  C   UNL A   1      38.030  32.122  32.563  1.00  0.00     0.031 A 
ATOM     45  C   UNL A   1      38.664  32.415  33.897  1.00  0.00     0.074 A 
ATOM     46  C   UNL A   1      38.569  31.189  31.753  1.00  0.00     0.049 A 
ATOM     47  N   UNL A   1      39.733  31.890  34.440  1.00  0.00    -0.248 NA
ATOM     48  C   UNL A   1      38.021  33.452  34.717  1.00  0.00     0.031 C 
ATOM     49  C   UNL A   1      38.064  30.832  30.426  1.00  0.00     0.029 A 
ATOM     50  N   UNL A   1      39.661  30.375  31.921  1.00  0.00    -0.354 N 
ATOM     51  C   UNL A   1      39.897  32.534  35.662  1.00  0.00     0.074 A 
ATOM     52  C   UNL A   1      38.848  33.530  35.749  1.00  0.00     0.031 C 
ATOM     53  C   UNL A   1      38.832  29.859  29.911  1.00  0.00     0.029 A 
ATOM     54  C   UNL A   1      39.907  29.549  30.848  1.00  0.00     0.049 A 
ATOM     55  H   UNL A   1      40.216  30.380  32.734  1.00  0.00     0.167 HD
ATOM     56  C   UNL A   1      40.822  32.304  36.628  1.00  0.00     0.034 A 
ATOM     57  C   UNL A   1      40.892  28.653  30.637  1.00  0.00     0.034 A 
ATOM     58  C   UNL A   1      41.858  31.303  36.530  1.00  0.00     0.049 A 
ATOM     59  C   UNL A   1      41.927  28.437  31.712  1.00  0.00     0.074 A 
ATOM     60  C   UNL A   1      42.813  30.957  37.470  1.00  0.00     0.029 A 
ATOM     61  N   UNL A   1      42.080  30.493  35.424  1.00  0.00    -0.354 N 
ATOM     62  N   UNL A   1      42.040  29.025  32.880  1.00  0.00    -0.248 NA
ATOM     63  C   UNL A   1      42.960  27.428  31.443  1.00  0.00     0.031 C 
ATOM     64  C   UNL A   1      43.653  29.988  36.908  1.00  0.00     0.029 A 
ATOM     65  C   UNL A   1      43.177  29.672  35.646  1.00  0.00     0.049 A 
ATOM     66  H   UNL A   1      41.540  30.500  34.601  1.00  0.00     0.167 HD
ATOM     67  C   UNL A   1      43.139  28.432  33.498  1.00  0.00     0.074 A 
ATOM     68  C   UNL A   1      43.642  27.433  32.578  1.00  0.00     0.031 C 
ATOM     69  C   UNL A   1      43.679  28.687  34.718  1.00  0.00     0.034 A 
BRANCH  56  70
ATOM     70  C   UNL A   1      40.768  33.174  37.862  1.00  0.00     0.023 A 
ATOM     71  C   UNL A   1      40.008  32.812  38.989  1.00  0.00     0.031 A 
ATOM     72  C   UNL A   1      41.470  34.393  37.908  1.00  0.00     0.131 A 
ATOM     73  C   UNL A   1      39.907  33.691  40.079  1.00  0.00     0.055 A 
ATOM     74  C   UNL A   1      41.430  35.224  39.028  1.00  0.00     0.041 A 
ATOM     75  F   UNL A   1      42.197  34.802  36.856  1.00  0.00    -0.206 F 
ATOM     76  C   UNL A   1      40.633  34.883  40.117  1.00  0.00     0.022 A 
BRANCH  73  77
ATOM     77  S   UNL A   1      38.702  33.319  41.382  1.00  0.00     0.124 S 
ATOM     78  O   UNL A   1      37.438  33.462  40.662  1.00  0.00    -0.237 OA
ATOM     79  O   UNL A   1      39.066  31.963  41.772  1.00  0.00    -0.237 OA
ATOM     80  O   UNL A   1      38.956  34.349  42.388  1.00  0.00    -0.744 OA
ENDBRANCH  73  77
ENDBRANCH  56  70
BRANCH  57  81
ATOM     81  C   UNL A   1      40.963  27.897  29.353  1.00  0.00     0.023 A 
ATOM     82  C   UNL A   1      41.902  28.236  28.365  1.00  0.00     0.031 A 
ATOM     83  C   UNL A   1      40.060  26.856  29.076  1.00  0.00     0.131 A 
ATOM     84  C   UNL A   1      41.885  27.572  27.129  1.00  0.00     0.055 A 
ATOM     85  C   UNL A   1      40.082  26.162  27.865  1.00  0.00     0.041 A 
ATOM     86  F   UNL A   1      39.145  26.490  29.989  1.00  0.00    -0.206 F 
ATOM     87  C   UNL A   1      40.991  26.530  26.877  1.00  0.00     0.022 A 
BRANCH  84  88
ATOM     88  S   UNL A   1      42.996  28.152  25.818  1.00  0.00     0.124 S 
ATOM     89  O   UNL A   1      43.085  29.578  26.114  1.00  0.00    -0.237 OA
ATOM     90  O   UNL A   1      44.199  27.367  26.071  1.00  0.00    -0.237 OA
ATOM     91  O   UNL A   1      42.279  27.813  24.590  1.00  0.00    -0.744 OA
ENDBRANCH  84  88
ENDBRANCH  57  81
BRANCH  69  92
ATOM     92  C   UNL A   1      44.851  27.835  35.139  1.00  0.00     0.023 A 
ATOM     93  C   UNL A   1      44.676  26.585  35.757  1.00  0.00     0.031 A 
ATOM     94  C   UNL A   1      46.166  28.292  34.932  1.00  0.00     0.131 A 
ATOM     95  C   UNL A   1      45.794  25.860  36.197  1.00  0.00     0.055 A 
ATOM     96  C   UNL A   1      47.275  27.539  35.318  1.00  0.00     0.041 A 
ATOM     97  F   UNL A   1      46.393  29.479  34.348  1.00  0.00    -0.206 F 
ATOM     98  C   UNL A   1      47.093  26.321  35.967  1.00  0.00     0.022 A 
BRANCH  95  99
ATOM     99  S   UNL A   1      45.527  24.345  37.160  1.00  0.00     0.124 S 
ATOM    100  O   UNL A   1      44.957  23.447  36.162  1.00  0.00    -0.237 OA
ATOM    101  O   UNL A   1      46.877  24.022  37.613  1.00  0.00    -0.237 OA
ATOM    102  O   UNL A   1      44.605  24.767  38.214  1.00  0.00    -0.744 OA
ENDBRANCH  95  99
ENDBRANCH  69  92
ENDBRANCH  43  44
ENDBRANCH  35  38
ENDBRANCH  33  34
ENDBRANCH  32  33
ENDBRANCH   1  32
TORSDOF 19
ENDMDL
MODEL 2
REMARK VINA RESULT:     -11.4      5.920     10.069
REMARK SMILES COc1cc2c(cc1OC)[C@H](C(=O)NCCCCCCNC(=O)c1ccc(-c3c4nc(c(-c5cc(S(=O)(=O)[O-])ccc5F)c5ccc([nH]5)c(-c5cc(S(=O)(=O)[O-])ccc5F)c5nc(c(-c6cc(S(=O)(=O)[O-])ccc6F)c6ccc3[nH]6)C=C5)C=C4)cc1)[C@H](c1cccc(Cl)c1)N(C)C2=O
REMARK SMILES IDX 18 1 17 2 16 3 15 4 14 5 12 6 13 7 11 9 3 10 4 11 8 12 5 13
REMARK SMILES IDX 7 14 6 15 97 16 95 17 98 18 87 19 96 20 2 21 1 22 9 23 10 24
REMARK SMILES IDX 88 25 89 26 94 27 90 28 92 29 91 30 93 31 19 32 20 33 21 34
REMARK SMILES IDX 22 35 23 37 24 38 25 39 86 40 26 41 85 42 27 43 28 44 29 45
REMARK SMILES IDX 79 46 30 47 84 48 78 49 80 50 31 51 83 52 77 53 76 54 32 56
REMARK SMILES IDX 64 57 44 58 63 59 45 60 48 61 62 62 81 63 46 64 47 65 61 67
REMARK SMILES IDX 82 68 49 69 33 70 34 71 42 72 35 73 41 74 43 75 40 76 36 77
REMARK SMILES IDX 37 78 38 79 39 80 65 81 66 82 74 83 67 84 73 85 75 86 72 87
REMARK SMILES IDX 68 88 69 89 70 90 71 91 50 92 51 93 59 94 52 95 58 96 60 97
REMARK SMILES IDX 57 98 53 99 54 100 55 101 56 102
REMARK H PARENT 14 8 21 36 80 55 48 66
REMARK Flexibility Score: inf
ROOT
ATOM      1  C   UNL A   1      36.878  20.486  24.801  1.00  0.00     0.002 C 
ENDROOT
BRANCH   1   2
ATOM      2  C   UNL A   1      37.147  21.993  24.780  1.00  0.00     0.002 C 
BRANCH   2   3
ATOM      3  C   UNL A   1      36.183  22.802  23.912  1.00  0.00     0.021 C 
BRANCH   3   4
ATOM      4  C   UNL A   1      35.089  23.549  24.686  1.00  0.00     0.116 C 
BRANCH   4   5
ATOM      5  N   UNL A   1      35.019  23.030  26.041  1.00  0.00    -0.355 N 
ATOM      6  C   UNL A   1      34.147  23.190  27.065  1.00  0.00     0.230 C 
ATOM      7  O   UNL A   1      34.494  22.639  28.122  1.00  0.00    -0.274 OA
ATOM      8  H   UNL A   1      35.768  22.432  26.265  1.00  0.00     0.163 HD
BRANCH   6   9
ATOM      9  C   UNL A   1      32.760  23.826  27.016  1.00  0.00     0.136 C 
ATOM     10  C   UNL A   1      31.948  27.380  24.721  1.00  0.00     0.161 A 
ATOM     11  C   UNL A   1      30.916  26.502  25.056  1.00  0.00     0.064 A 
ATOM     12  C   UNL A   1      33.192  27.260  25.347  1.00  0.00     0.161 A 
ATOM     13  C   UNL A   1      31.173  25.423  25.908  1.00  0.00     0.048 A 
ATOM     14  C   UNL A   1      33.412  26.186  26.226  1.00  0.00     0.056 A 
ATOM     15  C   UNL A   1      32.479  25.160  26.357  1.00  0.00    -0.016 A 
ATOM     16  C   UNL A   1      30.044  24.568  26.377  1.00  0.00     0.254 C 
ATOM     17  N   UNL A   1      30.376  23.292  26.818  1.00  0.00    -0.333 N 
ATOM     18  O   UNL A   1      28.894  25.002  26.364  1.00  0.00    -0.269 OA
ATOM     19  C   UNL A   1      31.721  22.751  26.549  1.00  0.00     0.132 C 
ATOM     20  C   UNL A   1      29.340  22.419  27.336  1.00  0.00     0.147 C 
BRANCH  10  21
ATOM     21  O   UNL A   1      31.747  28.269  23.701  1.00  0.00    -0.493 OA
ATOM     22  C   UNL A   1      30.974  29.396  24.103  1.00  0.00     0.278 C 
ENDBRANCH  10  21
BRANCH  12  23
ATOM     23  O   UNL A   1      34.284  28.075  25.212  1.00  0.00    -0.493 OA
ATOM     24  C   UNL A   1      34.423  29.151  26.133  1.00  0.00     0.278 C 
ENDBRANCH  12  23
BRANCH  19  25
ATOM     25  C   UNL A   1      31.845  22.228  25.103  1.00  0.00    -0.023 A 
ATOM     26  C   UNL A   1      31.686  23.108  24.018  1.00  0.00     0.006 A 
ATOM     27  C   UNL A   1      32.157  20.888  24.795  1.00  0.00     0.026 A 
ATOM     28  C   UNL A   1      31.753  22.656  22.694  1.00  0.00     0.002 A 
ATOM     29  C   UNL A   1      32.238  20.441  23.475  1.00  0.00     0.041 A 
ATOM     30  C   UNL A   1      32.020  21.317  22.421  1.00  0.00     0.020 A 
ATOM     31  Cl  UNL A   1      32.623  18.794  23.154  1.00  0.00    -0.084 Cl
ENDBRANCH  19  25
ENDBRANCH   6   9
ENDBRANCH   4   5
ENDBRANCH   3   4
ENDBRANCH   2   3
ENDBRANCH   1   2
BRANCH   1  32
ATOM     32  C   UNL A   1      38.110  19.590  24.979  1.00  0.00     0.021 C 
BRANCH  32  33
ATOM     33  C   UNL A   1      39.231  20.175  25.837  1.00  0.00     0.116 C 
BRANCH  33  34
ATOM     34  N   UNL A   1      40.350  19.262  25.973  1.00  0.00    -0.352 N 
ATOM     35  C   UNL A   1      41.691  19.529  26.093  1.00  0.00     0.251 C 
ATOM     36  H   UNL A   1      40.111  18.307  25.981  1.00  0.00     0.163 HD
ATOM     37  O   UNL A   1      42.499  18.612  25.974  1.00  0.00    -0.269 OA
BRANCH  35  38
ATOM     38  C   UNL A   1      42.167  20.909  26.346  1.00  0.00     0.039 A 
ATOM     39  C   UNL A   1      42.307  21.337  27.669  1.00  0.00     0.014 A 
ATOM     40  C   UNL A   1      42.424  21.798  25.297  1.00  0.00     0.014 A 
ATOM     41  C   UNL A   1      42.747  22.635  27.940  1.00  0.00     0.010 A 
ATOM     42  C   UNL A   1      42.916  23.077  25.568  1.00  0.00     0.010 A 
ATOM     43  C   UNL A   1      43.076  23.512  26.894  1.00  0.00    -0.014 A 
BRANCH  43  44
ATOM     44  C   UNL A   1      43.576  24.884  27.177  1.00  0.00     0.031 A 
ATOM     45  C   UNL A   1      42.643  25.936  27.717  1.00  0.00     0.074 A 
ATOM     46  C   UNL A   1      44.861  25.196  26.916  1.00  0.00     0.049 A 
ATOM     47  N   UNL A   1      42.880  27.195  27.984  1.00  0.00    -0.248 NA
ATOM     48  C   UNL A   1      41.256  25.519  27.968  1.00  0.00     0.031 C 
ATOM     49  C   UNL A   1      45.856  24.273  26.366  1.00  0.00     0.029 A 
ATOM     50  N   UNL A   1      45.550  26.373  27.070  1.00  0.00    -0.354 N 
ATOM     51  C   UNL A   1      41.673  27.725  28.428  1.00  0.00     0.074 A 
ATOM     52  C   UNL A   1      40.694  26.661  28.336  1.00  0.00     0.031 C 
ATOM     53  C   UNL A   1      47.031  24.913  26.249  1.00  0.00     0.029 A 
ATOM     54  C   UNL A   1      46.867  26.299  26.674  1.00  0.00     0.049 A 
ATOM     55  H   UNL A   1      45.142  27.192  27.431  1.00  0.00     0.167 HD
ATOM     56  C   UNL A   1      41.409  28.974  28.887  1.00  0.00     0.034 A 
ATOM     57  C   UNL A   1      47.828  27.244  26.645  1.00  0.00     0.034 A 
ATOM     58  C   UNL A   1      42.396  30.024  28.979  1.00  0.00     0.049 A 
ATOM     59  C   UNL A   1      47.504  28.634  27.131  1.00  0.00     0.074 A 
ATOM     60  C   UNL A   1      42.246  31.308  29.475  1.00  0.00     0.029 A 
ATOM     61  N   UNL A   1      43.716  29.915  28.561  1.00  0.00    -0.354 N 
ATOM     62  N   UNL A   1      46.367  29.104  27.589  1.00  0.00    -0.248 NA
ATOM     63  C   UNL A   1      48.596  29.616  27.106  1.00  0.00     0.031 C 
ATOM     64  C   UNL A   1      43.452  31.995  29.293  1.00  0.00     0.029 A 
ATOM     65  C   UNL A   1      44.380  31.118  28.756  1.00  0.00     0.049 A 
ATOM     66  H   UNL A   1      44.122  29.103  28.180  1.00  0.00     0.167 HD
ATOM     67  C   UNL A   1      46.618  30.430  27.937  1.00  0.00     0.074 A 
ATOM     68  C   UNL A   1      48.017  30.676  27.649  1.00  0.00     0.031 C 
ATOM     69  C   UNL A   1      45.772  31.357  28.454  1.00  0.00     0.034 A 
BRANCH  56  70
ATOM     70  C   UNL A   1      39.987  29.279  29.297  1.00  0.00     0.023 A 
ATOM     71  C   UNL A   1      39.603  29.329  30.650  1.00  0.00     0.031 A 
ATOM     72  C   UNL A   1      38.995  29.502  28.325  1.00  0.00     0.131 A 
ATOM     73  C   UNL A   1      38.254  29.520  30.989  1.00  0.00     0.055 A 
ATOM     74  C   UNL A   1      37.671  29.773  28.672  1.00  0.00     0.041 A 
ATOM     75  F   UNL A   1      39.296  29.448  27.018  1.00  0.00    -0.206 F 
ATOM     76  C   UNL A   1      37.290  29.768  30.010  1.00  0.00     0.022 A 
BRANCH  73  77
ATOM     77  S   UNL A   1      37.757  29.298  32.719  1.00  0.00     0.124 S 
ATOM     78  O   UNL A   1      36.464  29.979  32.743  1.00  0.00    -0.237 OA
ATOM     79  O   UNL A   1      37.719  27.847  32.854  1.00  0.00    -0.237 OA
ATOM     80  O   UNL A   1      38.819  29.968  33.468  1.00  0.00    -0.744 OA
ENDBRANCH  73  77
ENDBRANCH  56  70
BRANCH  57  81
ATOM     81  C   UNL A   1      49.189  26.920  26.127  1.00  0.00     0.023 A 
ATOM     82  C   UNL A   1      49.597  27.342  24.851  1.00  0.00     0.031 A 
ATOM     83  C   UNL A   1      50.084  26.142  26.882  1.00  0.00     0.131 A 
ATOM     84  C   UNL A   1      50.845  26.943  24.350  1.00  0.00     0.055 A 
ATOM     85  C   UNL A   1      51.347  25.793  26.400  1.00  0.00     0.041 A 
ATOM     86  F   UNL A   1      49.744  25.716  28.110  1.00  0.00    -0.206 F 
ATOM     87  C   UNL A   1      51.727  26.183  25.120  1.00  0.00     0.022 A 
BRANCH  84  88
ATOM     88  S   UNL A   1      51.265  27.362  22.635  1.00  0.00     0.124 S 
ATOM     89  O   UNL A   1      51.273  28.820  22.679  1.00  0.00    -0.237 OA
ATOM     90  O   UNL A   1      52.564  26.717  22.476  1.00  0.00    -0.237 OA
ATOM     91  O   UNL A   1      50.176  26.765  21.864  1.00  0.00    -0.744 OA
ENDBRANCH  84  88
ENDBRANCH  57  81
BRANCH  69  92
ATOM     92  C   UNL A   1      46.355  32.710  28.779  1.00  0.00     0.023 A 
ATOM     93  C   UNL A   1      46.346  33.765  27.851  1.00  0.00     0.031 A 
ATOM     94  C   UNL A   1      46.943  32.942  30.036  1.00  0.00     0.131 A 
ATOM     95  C   UNL A   1      46.964  34.984  28.171  1.00  0.00     0.055 A 
ATOM     96  C   UNL A   1      47.502  34.175  30.371  1.00  0.00     0.041 A 
ATOM     97  F   UNL A   1      46.981  31.970  30.962  1.00  0.00    -0.206 F 
ATOM     98  C   UNL A   1      47.528  35.202  29.431  1.00  0.00     0.022 A 
BRANCH  95  99
ATOM     99  S   UNL A   1      47.104  36.255  26.883  1.00  0.00     0.124 S 
ATOM    100  O   UNL A   1      46.593  37.438  27.567  1.00  0.00    -0.237 OA
ATOM    101  O   UNL A   1      48.535  36.251  26.596  1.00  0.00    -0.237 OA
ATOM    102  O   UNL A   1      46.255  35.747  25.806  1.00  0.00    -0.744 OA
ENDBRANCH  95  99
ENDBRANCH  69  92
ENDBRANCH  43  44
ENDBRANCH  35  38
ENDBRANCH  33  34
ENDBRANCH  32  33
ENDBRANCH   1  32
TORSDOF 19
ENDMDL
MODEL 3
REMARK VINA RESULT:     -11.3      0.643      7.411
REMARK SMILES COc1cc2c(cc1OC)[C@H](C(=O)NCCCCCCNC(=O)c1ccc(-c3c4nc(c(-c5cc(S(=O)(=O)[O-])ccc5F)c5ccc([nH]5)c(-c5cc(S(=O)(=O)[O-])ccc5F)c5nc(c(-c6cc(S(=O)(=O)[O-])ccc6F)c6ccc3[nH]6)C=C5)C=C4)cc1)[C@H](c1cccc(Cl)c1)N(C)C2=O
REMARK SMILES IDX 18 1 17 2 16 3 15 4 14 5 12 6 13 7 11 9 3 10 4 11 8 12 5 13
REMARK SMILES IDX 7 14 6 15 97 16 95 17 98 18 87 19 96 20 2 21 1 22 9 23 10 24
REMARK SMILES IDX 88 25 89 26 94 27 90 28 92 29 91 30 93 31 19 32 20 33 21 34
REMARK SMILES IDX 22 35 23 37 24 38 25 39 86 40 26 41 85 42 27 43 28 44 29 45
REMARK SMILES IDX 79 46 30 47 84 48 78 49 80 50 31 51 83 52 77 53 76 54 32 56
REMARK SMILES IDX 64 57 44 58 63 59 45 60 48 61 62 62 81 63 46 64 47 65 61 67
REMARK SMILES IDX 82 68 49 69 33 70 34 71 42 72 35 73 41 74 43 75 40 76 36 77
REMARK SMILES IDX 37 78 38 79 39 80 65 81 66 82 74 83 67 84 73 85 75 86 72 87
REMARK SMILES IDX 68 88 69 89 70 90 71 91 50 92 51 93 59 94 52 95 58 96 60 97
REMARK SMILES IDX 57 98 53 99 54 100 55 101 56 102
REMARK H PARENT 14 8 21 36 80 55 48 66
REMARK Flexibility Score: inf
ROOT
ATOM      1  C   UNL A   1      35.559  32.737  27.798  1.00  0.00     0.002 C 
ENDROOT
BRANCH   1   2
ATOM      2  C   UNL A   1      35.167  31.570  28.708  1.00  0.00     0.002 C 
BRANCH   2   3
ATOM      3  C   UNL A   1      34.912  30.250  27.980  1.00  0.00     0.021 C 
BRANCH   3   4
ATOM      4  C   UNL A   1      33.632  30.215  27.134  1.00  0.00     0.116 C 
BRANCH   4   5
ATOM      5  N   UNL A   1      32.870  29.022  27.464  1.00  0.00    -0.355 N 
ATOM      6  C   UNL A   1      32.546  27.897  26.784  1.00  0.00     0.230 C 
ATOM      7  O   UNL A   1      31.781  27.134  27.396  1.00  0.00    -0.274 OA
ATOM      8  H   UNL A   1      32.513  29.034  28.381  1.00  0.00     0.163 HD
BRANCH   6   9
ATOM      9  C   UNL A   1      33.118  27.416  25.453  1.00  0.00     0.136 C 
ATOM     10  C   UNL A   1      33.178  23.252  24.353  1.00  0.00     0.161 A 
ATOM     11  C   UNL A   1      33.227  24.245  23.373  1.00  0.00     0.064 A 
ATOM     12  C   UNL A   1      33.380  23.591  25.694  1.00  0.00     0.161 A 
ATOM     13  C   UNL A   1      33.336  25.586  23.750  1.00  0.00     0.048 A 
ATOM     14  C   UNL A   1      33.522  24.945  26.042  1.00  0.00     0.056 A 
ATOM     15  C   UNL A   1      33.305  25.954  25.106  1.00  0.00    -0.016 A 
ATOM     16  C   UNL A   1      33.529  26.634  22.705  1.00  0.00     0.254 C 
ATOM     17  N   UNL A   1      33.180  27.931  23.057  1.00  0.00    -0.333 N 
ATOM     18  O   UNL A   1      33.979  26.329  21.601  1.00  0.00    -0.269 OA
ATOM     19  C   UNL A   1      32.399  28.172  24.284  1.00  0.00     0.132 C 
ATOM     20  C   UNL A   1      33.384  29.013  22.112  1.00  0.00     0.147 C 
BRANCH  10  21
ATOM     21  O   UNL A   1      32.820  21.984  23.985  1.00  0.00    -0.493 OA
ATOM     22  C   UNL A   1      32.529  21.880  22.594  1.00  0.00     0.278 C 
ENDBRANCH  10  21
BRANCH  12  23
ATOM     23  O   UNL A   1      33.454  22.749  26.772  1.00  0.00    -0.493 OA
ATOM     24  C   UNL A   1      32.274  22.563  27.545  1.00  0.00     0.278 C 
ENDBRANCH  12  23
BRANCH  19  25
ATOM     25  C   UNL A   1      30.899  27.881  24.071  1.00  0.00    -0.023 A 
ATOM     26  C   UNL A   1      30.362  26.636  24.445  1.00  0.00     0.006 A 
ATOM     27  C   UNL A   1      29.999  28.830  23.544  1.00  0.00     0.026 A 
ATOM     28  C   UNL A   1      29.013  26.326  24.227  1.00  0.00     0.002 A 
ATOM     29  C   UNL A   1      28.652  28.526  23.341  1.00  0.00     0.041 A 
ATOM     30  C   UNL A   1      28.158  27.270  23.664  1.00  0.00     0.020 A 
ATOM     31  Cl  UNL A   1      27.596  29.722  22.695  1.00  0.00    -0.084 Cl
ENDBRANCH  19  25
ENDBRANCH   6   9
ENDBRANCH   4   5
ENDBRANCH   3   4
ENDBRANCH   2   3
ENDBRANCH   1   2
BRANCH   1  32
ATOM     32  C   UNL A   1      34.664  33.980  27.882  1.00  0.00     0.021 C 
BRANCH  32  33
ATOM     33  C   UNL A   1      33.282  33.755  28.493  1.00  0.00     0.116 C 
BRANCH  33  34
ATOM     34  N   UNL A   1      32.947  34.767  29.477  1.00  0.00    -0.352 N 
ATOM     35  C   UNL A   1      33.446  34.960  30.741  1.00  0.00     0.251 C 
ATOM     36  H   UNL A   1      32.257  35.411  29.197  1.00  0.00     0.163 HD
ATOM     37  O   UNL A   1      32.874  35.738  31.501  1.00  0.00    -0.269 OA
BRANCH  35  38
ATOM     38  C   UNL A   1      34.652  34.230  31.197  1.00  0.00     0.039 A 
ATOM     39  C   UNL A   1      35.910  34.730  30.845  1.00  0.00     0.014 A 
ATOM     40  C   UNL A   1      34.556  33.036  31.919  1.00  0.00     0.014 A 
ATOM     41  C   UNL A   1      37.066  34.060  31.254  1.00  0.00     0.010 A 
ATOM     42  C   UNL A   1      35.712  32.398  32.374  1.00  0.00     0.010 A 
ATOM     43  C   UNL A   1      36.980  32.899  32.040  1.00  0.00    -0.014 A 
BRANCH  43  44
ATOM     44  C   UNL A   1      38.209  32.201  32.504  1.00  0.00     0.031 A 
ATOM     45  C   UNL A   1      38.839  31.127  31.657  1.00  0.00     0.074 A 
ATOM     46  C   UNL A   1      38.739  32.506  33.705  1.00  0.00     0.049 A 
ATOM     47  N   UNL A   1      39.881  30.376  31.910  1.00  0.00    -0.248 NA
ATOM     48  C   UNL A   1      38.196  30.847  30.365  1.00  0.00     0.031 C 
ATOM     49  C   UNL A   1      38.206  33.508  34.631  1.00  0.00     0.029 A 
ATOM     50  N   UNL A   1      39.837  32.004  34.358  1.00  0.00    -0.354 N 
ATOM     51  C   UNL A   1      40.018  29.531  30.814  1.00  0.00     0.074 A 
ATOM     52  C   UNL A   1      38.914  29.824  29.924  1.00  0.00     0.031 C 
ATOM     53  C   UNL A   1      38.989  33.561  35.720  1.00  0.00     0.029 A 
ATOM     54  C   UNL A   1      40.054  32.571  35.593  1.00  0.00     0.049 A 
ATOM     55  H   UNL A   1      40.416  31.306  33.978  1.00  0.00     0.167 HD
ATOM     56  C   UNL A   1      40.984  28.611  30.565  1.00  0.00     0.034 A 
ATOM     57  C   UNL A   1      40.996  32.315  36.523  1.00  0.00     0.034 A 
ATOM     58  C   UNL A   1      42.082  28.333  31.459  1.00  0.00     0.049 A 
ATOM     59  C   UNL A   1      42.041  31.266  36.237  1.00  0.00     0.074 A 
ATOM     60  C   UNL A   1      43.140  27.457  31.280  1.00  0.00     0.029 A 
ATOM     61  N   UNL A   1      42.264  28.920  32.705  1.00  0.00    -0.354 N 
ATOM     62  N   UNL A   1      42.180  30.507  35.175  1.00  0.00    -0.248 NA
ATOM     63  C   UNL A   1      43.061  31.048  37.271  1.00  0.00     0.031 C 
ATOM     64  C   UNL A   1      43.920  27.464  32.442  1.00  0.00     0.029 A 
ATOM     65  C   UNL A   1      43.396  28.401  33.318  1.00  0.00     0.049 A 
ATOM     66  H   UNL A   1      41.675  29.604  33.097  1.00  0.00     0.167 HD
ATOM     67  C   UNL A   1      43.324  29.744  35.402  1.00  0.00     0.074 A 
ATOM     68  C   UNL A   1      43.841  30.147  36.694  1.00  0.00     0.031 C 
ATOM     69  C   UNL A   1      43.897  28.801  34.611  1.00  0.00     0.034 A 
BRANCH  56  70
ATOM     70  C   UNL A   1      40.873  27.817  29.284  1.00  0.00     0.023 A 
ATOM     71  C   UNL A   1      41.747  28.036  28.202  1.00  0.00     0.031 A 
ATOM     72  C   UNL A   1      39.870  26.844  29.130  1.00  0.00     0.131 A 
ATOM     73  C   UNL A   1      41.553  27.346  26.995  1.00  0.00     0.055 A 
ATOM     74  C   UNL A   1      39.735  26.103  27.955  1.00  0.00     0.041 A 
ATOM     75  F   UNL A   1      38.994  26.604  30.119  1.00  0.00    -0.206 F 
ATOM     76  C   UNL A   1      40.570  26.364  26.872  1.00  0.00     0.022 A 
BRANCH  73  77
ATOM     77  S   UNL A   1      42.515  27.856  25.544  1.00  0.00     0.124 S 
ATOM     78  O   UNL A   1      42.527  26.628  24.753  1.00  0.00    -0.237 OA
ATOM     79  O   UNL A   1      41.721  28.955  25.008  1.00  0.00    -0.237 OA
ATOM     80  O   UNL A   1      43.809  28.237  26.108  1.00  0.00    -0.744 OA
ENDBRANCH  73  77
ENDBRANCH  56  70
BRANCH  57  81
ATOM     81  C   UNL A   1      40.995  33.051  37.821  1.00  0.00     0.023 A 
ATOM     82  C   UNL A   1      40.221  32.606  38.904  1.00  0.00     0.031 A 
ATOM     83  C   UNL A   1      41.734  34.237  37.980  1.00  0.00     0.131 A 
ATOM     84  C   UNL A   1      40.163  33.368  40.082  1.00  0.00     0.055 A 
ATOM     85  C   UNL A   1      41.716  34.963  39.173  1.00  0.00     0.041 A 
ATOM     86  F   UNL A   1      42.494  34.703  36.976  1.00  0.00    -0.206 F 
ATOM     87  C   UNL A   1      40.915  34.535  40.227  1.00  0.00     0.022 A 
BRANCH  84  88
ATOM     88  S   UNL A   1      39.019  32.854  41.392  1.00  0.00     0.124 S 
ATOM     89  O   UNL A   1      39.546  33.576  42.546  1.00  0.00    -0.237 OA
ATOM     90  O   UNL A   1      37.738  33.318  40.874  1.00  0.00    -0.237 OA
ATOM     91  O   UNL A   1      39.183  31.402  41.436  1.00  0.00    -0.744 OA
ENDBRANCH  84  88
ENDBRANCH  57  81
BRANCH  69  92
ATOM     92  C   UNL A   1      45.176  28.175  35.110  1.00  0.00     0.023 A 
ATOM     93  C   UNL A   1      45.177  26.994  35.872  1.00  0.00     0.031 A 
ATOM     94  C   UNL A   1      46.415  28.782  34.829  1.00  0.00     0.131 A 
ATOM     95  C   UNL A   1      46.386  26.488  36.376  1.00  0.00     0.055 A 
ATOM     96  C   UNL A   1      47.618  28.240  35.282  1.00  0.00     0.041 A 
ATOM     97  F   UNL A   1      46.474  29.911  34.107  1.00  0.00    -0.206 F 
ATOM     98  C   UNL A   1      47.608  27.094  36.072  1.00  0.00     0.022 A 
BRANCH  95  99
ATOM     99  S   UNL A   1      46.332  25.075  37.513  1.00  0.00     0.124 S 
ATOM    100  O   UNL A   1      46.054  25.723  38.790  1.00  0.00    -0.237 OA
ATOM    101  O   UNL A   1      45.249  24.269  36.957  1.00  0.00    -0.237 OA
ATOM    102  O   UNL A   1      47.665  24.487  37.393  1.00  0.00    -0.744 OA
ENDBRANCH  95  99
ENDBRANCH  69  92
ENDBRANCH  43  44
ENDBRANCH  35  38
ENDBRANCH  33  34
ENDBRANCH  32  33
ENDBRANCH   1  32
TORSDOF 19
ENDMDL
