MODEL 1
REMARK VINA RESULT:     -11.2      0.000      0.000
REMARK SMILES Cc1cc(Nc2ccc(C(=O)NCCCCCCNC(=O)c3ccc(-c4c5nc(c(-c6cc(S(=O)(=O)[O-])ccc6F)c6ccc([nH]6)c(-c6cc(S(=O)(=O)[O-])ccc6F)c6nc(c(-c7cc(S(=O)(=O)[O-])ccc7F)c7ccc4[nH]7)C=C6)C=C5)cc3)cc2)nc(C(C)C)n1
REMARK SMILES IDX 15 1 14 2 13 3 12 4 10 5 11 6 9 8 6 9 7 10 86 11 8 12 85 13
REMARK SMILES IDX 5 14 4 16 1 17 2 18 3 19 92 20 88 21 87 22 89 23 90 24 91 25
REMARK SMILES IDX 16 26 17 27 18 28 19 29 20 30 21 32 22 33 23 34 84 35 24 36
REMARK SMILES IDX 83 37 25 38 26 39 27 40 77 41 28 42 82 43 76 44 78 45 29 46
REMARK SMILES IDX 81 47 75 48 74 49 30 51 62 52 42 53 61 54 43 55 46 56 60 57
REMARK SMILES IDX 79 58 44 59 45 60 59 62 80 63 47 64 31 65 32 66 40 67 33 68
REMARK SMILES IDX 39 69 41 70 38 71 34 72 35 73 36 74 37 75 63 76 64 77 72 78
REMARK SMILES IDX 65 79 71 80 73 81 70 82 66 83 67 84 68 85 69 86 48 87 49 88
REMARK SMILES IDX 57 89 50 90 56 91 58 92 55 93 51 94 52 95 53 96 54 97
REMARK H PARENT 12 7 5 15 19 31 78 50 46 61
REMARK Flexibility Score: inf
ROOT
ATOM      1  C   UNL A   1      33.287  27.274  23.609  1.00  0.00     0.002 C 
ENDROOT
BRANCH   1   2
ATOM      2  C   UNL A   1      32.295  28.358  23.166  1.00  0.00     0.021 C 
BRANCH   2   3
ATOM      3  C   UNL A   1      31.285  28.732  24.256  1.00  0.00     0.116 C 
BRANCH   3   4
ATOM      4  N   UNL A   1      29.950  28.328  23.848  1.00  0.00    -0.352 N 
ATOM      5  C   UNL A   1      29.303  27.120  23.865  1.00  0.00     0.251 C 
ATOM      6  O   UNL A   1      28.150  27.080  23.435  1.00  0.00    -0.269 OA
ATOM      7  H   UNL A   1      29.405  29.066  23.491  1.00  0.00     0.163 HD
BRANCH   5   8
ATOM      8  C   UNL A   1      29.900  25.887  24.445  1.00  0.00     0.039 A 
ATOM      9  C   UNL A   1      30.858  23.397  25.350  1.00  0.00     0.040 A 
ATOM     10  C   UNL A   1      30.876  23.703  23.990  1.00  0.00     0.027 A 
ATOM     11  C   UNL A   1      30.478  24.390  26.260  1.00  0.00     0.027 A 
ATOM     12  C   UNL A   1      30.379  24.929  23.539  1.00  0.00     0.016 A 
ATOM     13  C   UNL A   1      30.025  25.636  25.812  1.00  0.00     0.016 A 
BRANCH   9  14
ATOM     14  N   UNL A   1      31.327  22.151  25.798  1.00  0.00    -0.340 N 
ATOM     15  H   UNL A   1      30.740  21.628  26.391  1.00  0.00     0.168 HD
BRANCH  14  16
ATOM     16  C   UNL A   1      32.577  21.597  25.459  1.00  0.00     0.134 A 
ATOM     17  C   UNL A   1      34.067  18.328  24.376  1.00  0.00     0.067 C 
ATOM     18  C   UNL A   1      33.894  19.751  24.812  1.00  0.00     0.043 A 
ATOM     19  C   UNL A   1      32.643  20.266  25.092  1.00  0.00     0.070 A 
ATOM     20  N   UNL A   1      35.016  20.483  24.931  1.00  0.00    -0.238 NA
ATOM     21  C   UNL A   1      34.871  21.762  25.321  1.00  0.00     0.133 A 
ATOM     22  N   UNL A   1      33.688  22.343  25.585  1.00  0.00    -0.216 NA
BRANCH  21  23
ATOM     23  C   UNL A   1      36.114  22.599  25.531  1.00  0.00     0.051 C 
ATOM     24  C   UNL A   1      37.191  22.225  24.513  1.00  0.00     0.016 C 
ATOM     25  C   UNL A   1      35.795  24.092  25.471  1.00  0.00     0.016 C 
ENDBRANCH  21  23
ENDBRANCH  14  16
ENDBRANCH   9  14
ENDBRANCH   5   8
ENDBRANCH   3   4
ENDBRANCH   2   3
ENDBRANCH   1   2
BRANCH   1  26
ATOM     26  C   UNL A   1      33.282  26.974  25.113  1.00  0.00     0.002 C 
BRANCH  26  27
ATOM     27  C   UNL A   1      34.172  27.890  25.960  1.00  0.00     0.021 C 
BRANCH  27  28
ATOM     28  C   UNL A   1      33.485  28.481  27.188  1.00  0.00     0.116 C 
BRANCH  28  29
ATOM     29  N   UNL A   1      33.475  29.934  27.149  1.00  0.00    -0.352 N 
ATOM     30  C   UNL A   1      34.358  30.827  27.706  1.00  0.00     0.251 C 
ATOM     31  H   UNL A   1      32.727  30.337  26.653  1.00  0.00     0.163 HD
ATOM     32  O   UNL A   1      34.054  32.014  27.775  1.00  0.00    -0.269 OA
BRANCH  30  33
ATOM     33  C   UNL A   1      35.658  30.355  28.232  1.00  0.00     0.039 A 
ATOM     34  C   UNL A   1      35.702  29.776  29.503  1.00  0.00     0.014 A 
ATOM     35  C   UNL A   1      36.833  30.509  27.491  1.00  0.00     0.014 A 
ATOM     36  C   UNL A   1      36.916  29.307  30.009  1.00  0.00     0.010 A 
ATOM     37  C   UNL A   1      38.030  29.977  27.966  1.00  0.00     0.010 A 
ATOM     38  C   UNL A   1      38.086  29.378  29.233  1.00  0.00    -0.014 A 
BRANCH  38  39
ATOM     39  C   UNL A   1      39.372  28.835  29.742  1.00  0.00     0.031 A 
ATOM     40  C   UNL A   1      40.039  29.455  30.939  1.00  0.00     0.074 A 
ATOM     41  C   UNL A   1      39.962  27.813  29.092  1.00  0.00     0.049 A 
ATOM     42  N   UNL A   1      41.166  29.132  31.520  1.00  0.00    -0.248 NA
ATOM     43  C   UNL A   1      39.362  30.610  31.542  1.00  0.00     0.031 C 
ATOM     44  C   UNL A   1      39.434  27.159  27.893  1.00  0.00     0.029 A 
ATOM     45  N   UNL A   1      41.129  27.142  29.350  1.00  0.00    -0.354 N 
ATOM     46  C   UNL A   1      41.341  30.053  32.548  1.00  0.00     0.074 A 
ATOM     47  C   UNL A   1      40.236  30.985  32.462  1.00  0.00     0.031 C 
ATOM     48  C   UNL A   1      40.254  26.155  27.544  1.00  0.00     0.029 A 
ATOM     49  C   UNL A   1      41.383  26.118  28.467  1.00  0.00     0.049 A 
ATOM     50  H   UNL A   1      41.731  27.371  30.095  1.00  0.00     0.167 HD
ATOM     51  C   UNL A   1      42.319  30.101  33.490  1.00  0.00     0.034 A 
ATOM     52  C   UNL A   1      42.408  25.245  28.412  1.00  0.00     0.034 A 
ATOM     53  C   UNL A   1      43.408  29.156  33.562  1.00  0.00     0.049 A 
ATOM     54  C   UNL A   1      43.493  25.330  29.452  1.00  0.00     0.074 A 
ATOM     55  C   UNL A   1      44.412  29.063  34.510  1.00  0.00     0.029 A 
ATOM     56  N   UNL A   1      43.649  28.146  32.637  1.00  0.00    -0.354 N 
ATOM     57  N   UNL A   1      43.612  26.163  30.461  1.00  0.00    -0.248 NA
ATOM     58  C   UNL A   1      44.578  24.347  29.349  1.00  0.00     0.031 C 
ATOM     59  C   UNL A   1      45.296  28.049  34.121  1.00  0.00     0.029 A 
ATOM     60  C   UNL A   1      44.804  27.453  32.970  1.00  0.00     0.049 A 
ATOM     61  H   UNL A   1      43.080  27.950  31.858  1.00  0.00     0.167 HD
ATOM     62  C   UNL A   1      44.772  25.785  31.130  1.00  0.00     0.074 A 
ATOM     63  C   UNL A   1      45.303  24.639  30.418  1.00  0.00     0.031 C 
ATOM     64  C   UNL A   1      45.343  26.331  32.236  1.00  0.00     0.034 A 
BRANCH  51  65
ATOM     65  C   UNL A   1      42.259  31.237  34.488  1.00  0.00     0.023 A 
ATOM     66  C   UNL A   1      42.923  32.457  34.263  1.00  0.00     0.031 A 
ATOM     67  C   UNL A   1      41.580  31.078  35.710  1.00  0.00     0.131 A 
ATOM     68  C   UNL A   1      42.983  33.423  35.280  1.00  0.00     0.055 A 
ATOM     69  C   UNL A   1      41.563  32.083  36.680  1.00  0.00     0.041 A 
ATOM     70  F   UNL A   1      40.942  29.933  35.994  1.00  0.00    -0.206 F 
ATOM     71  C   UNL A   1      42.286  33.255  36.478  1.00  0.00     0.022 A 
BRANCH  68  72
ATOM     72  S   UNL A   1      44.135  34.811  35.087  1.00  0.00     0.124 S 
ATOM     73  O   UNL A   1      44.286  34.868  33.633  1.00  0.00    -0.237 OA
ATOM     74  O   UNL A   1      43.405  35.914  35.697  1.00  0.00    -0.237 OA
ATOM     75  O   UNL A   1      45.326  34.371  35.810  1.00  0.00    -0.744 OA
ENDBRANCH  68  72
ENDBRANCH  51  65
BRANCH  52  76
ATOM     76  C   UNL A   1      42.449  24.202  27.349  1.00  0.00     0.023 A 
ATOM     77  C   UNL A   1      41.809  22.967  27.534  1.00  0.00     0.031 A 
ATOM     78  C   UNL A   1      43.143  24.415  26.146  1.00  0.00     0.131 A 
ATOM     79  C   UNL A   1      41.905  21.975  26.546  1.00  0.00     0.055 A 
ATOM     80  C   UNL A   1      43.198  23.442  25.146  1.00  0.00     0.041 A 
ATOM     81  F   UNL A   1      43.765  25.583  25.919  1.00  0.00    -0.206 F 
ATOM     82  C   UNL A   1      42.584  22.209  25.348  1.00  0.00     0.022 A 
BRANCH  79  83
ATOM     83  S   UNL A   1      41.173  20.349  26.874  1.00  0.00     0.124 S 
ATOM     84  O   UNL A   1      42.290  19.456  26.592  1.00  0.00    -0.237 OA
ATOM     85  O   UNL A   1      40.783  20.469  28.275  1.00  0.00    -0.237 OA
ATOM     86  O   UNL A   1      40.062  20.280  25.927  1.00  0.00    -0.744 OA
ENDBRANCH  79  83
ENDBRANCH  52  76
BRANCH  64  87
ATOM     87  C   UNL A   1      46.596  25.664  32.750  1.00  0.00     0.023 A 
ATOM     88  C   UNL A   1      46.547  24.657  33.731  1.00  0.00     0.031 A 
ATOM     89  C   UNL A   1      47.859  26.069  32.284  1.00  0.00     0.131 A 
ATOM     90  C   UNL A   1      47.739  24.141  34.265  1.00  0.00     0.055 A 
ATOM     91  C   UNL A   1      49.040  25.505  32.768  1.00  0.00     0.041 A 
ATOM     92  F   UNL A   1      47.967  27.029  31.350  1.00  0.00    -0.206 F 
ATOM     93  C   UNL A   1      48.984  24.547  33.778  1.00  0.00     0.022 A 
BRANCH  90  94
ATOM     94  S   UNL A   1      47.642  23.018  35.686  1.00  0.00     0.124 S 
ATOM     95  O   UNL A   1      48.284  21.815  35.166  1.00  0.00    -0.237 OA
ATOM     96  O   UNL A   1      48.385  23.745  36.709  1.00  0.00    -0.237 OA
ATOM     97  O   UNL A   1      46.205  22.898  35.931  1.00  0.00    -0.744 OA
ENDBRANCH  90  94
ENDBRANCH  64  87
ENDBRANCH  38  39
ENDBRANCH  30  33
ENDBRANCH  28  29
ENDBRANCH  27  28
ENDBRANCH  26  27
ENDBRANCH   1  26
TORSDOF 19
ENDMDL
MODEL 2
REMARK VINA RESULT:     -11.1      1.842      2.134
REMARK SMILES Cc1cc(Nc2ccc(C(=O)NCCCCCCNC(=O)c3ccc(-c4c5nc(c(-c6cc(S(=O)(=O)[O-])ccc6F)c6ccc([nH]6)c(-c6cc(S(=O)(=O)[O-])ccc6F)c6nc(c(-c7cc(S(=O)(=O)[O-])ccc7F)c7ccc4[nH]7)C=C6)C=C5)cc3)cc2)nc(C(C)C)n1
REMARK SMILES IDX 15 1 14 2 13 3 12 4 10 5 11 6 9 8 6 9 7 10 86 11 8 12 85 13
REMARK SMILES IDX 5 14 4 16 1 17 2 18 3 19 92 20 88 21 87 22 89 23 90 24 91 25
REMARK SMILES IDX 16 26 17 27 18 28 19 29 20 30 21 32 22 33 23 34 84 35 24 36
REMARK SMILES IDX 83 37 25 38 26 39 27 40 77 41 28 42 82 43 76 44 78 45 29 46
REMARK SMILES IDX 81 47 75 48 74 49 30 51 62 52 42 53 61 54 43 55 46 56 60 57
REMARK SMILES IDX 79 58 44 59 45 60 59 62 80 63 47 64 31 65 32 66 40 67 33 68
REMARK SMILES IDX 39 69 41 70 38 71 34 72 35 73 36 74 37 75 63 76 64 77 72 78
REMARK SMILES IDX 65 79 71 80 73 81 70 82 66 83 67 84 68 85 69 86 48 87 49 88
REMARK SMILES IDX 57 89 50 90 56 91 58 92 55 93 51 94 52 95 53 96 54 97
REMARK H PARENT 12 7 5 15 19 31 78 50 46 61
REMARK Flexibility Score: inf
ROOT
ATOM      1  C   UNL A   1      33.629  27.248  24.236  1.00  0.00     0.002 C 
ENDROOT
BRANCH   1   2
ATOM      2  C   UNL A   1      32.399  27.684  23.428  1.00  0.00     0.021 C 
BRANCH   2   3
ATOM      3  C   UNL A   1      31.379  28.467  24.259  1.00  0.00     0.116 C 
BRANCH   3   4
ATOM      4  N   UNL A   1      30.032  28.070  23.887  1.00  0.00    -0.352 N 
ATOM      5  C   UNL A   1      29.376  26.868  23.934  1.00  0.00     0.251 C 
ATOM      6  O   UNL A   1      28.212  26.832  23.531  1.00  0.00    -0.269 OA
ATOM      7  H   UNL A   1      29.485  28.808  23.533  1.00  0.00     0.163 HD
BRANCH   5   8
ATOM      8  C   UNL A   1      29.975  25.637  24.516  1.00  0.00     0.039 A 
ATOM      9  C   UNL A   1      30.939  23.151  25.425  1.00  0.00     0.040 A 
ATOM     10  C   UNL A   1      30.954  23.454  24.064  1.00  0.00     0.027 A 
ATOM     11  C   UNL A   1      30.559  24.145  26.333  1.00  0.00     0.027 A 
ATOM     12  C   UNL A   1      30.454  24.677  23.611  1.00  0.00     0.016 A 
ATOM     13  C   UNL A   1      30.103  25.389  25.883  1.00  0.00     0.016 A 
BRANCH   9  14
ATOM     14  N   UNL A   1      31.410  21.906  25.875  1.00  0.00    -0.340 N 
ATOM     15  H   UNL A   1      30.835  21.394  26.488  1.00  0.00     0.168 HD
BRANCH  14  16
ATOM     16  C   UNL A   1      32.648  21.339  25.511  1.00  0.00     0.134 A 
ATOM     17  C   UNL A   1      34.062  18.094  24.270  1.00  0.00     0.067 C 
ATOM     18  C   UNL A   1      33.922  19.497  24.774  1.00  0.00     0.043 A 
ATOM     19  C   UNL A   1      32.683  20.027  25.078  1.00  0.00     0.070 A 
ATOM     20  N   UNL A   1      35.061  20.195  24.932  1.00  0.00    -0.238 NA
ATOM     21  C   UNL A   1      34.945  21.457  25.384  1.00  0.00     0.133 A 
ATOM     22  N   UNL A   1      33.777  22.051  25.675  1.00  0.00    -0.216 NA
BRANCH  21  23
ATOM     23  C   UNL A   1      36.207  22.252  25.636  1.00  0.00     0.051 C 
ATOM     24  C   UNL A   1      37.322  21.806  24.690  1.00  0.00     0.016 C 
ATOM     25  C   UNL A   1      35.951  23.753  25.516  1.00  0.00     0.016 C 
ENDBRANCH  21  23
ENDBRANCH  14  16
ENDBRANCH   9  14
ENDBRANCH   5   8
ENDBRANCH   3   4
ENDBRANCH   2   3
ENDBRANCH   1   2
BRANCH   1  26
ATOM     26  C   UNL A   1      33.342  26.885  25.698  1.00  0.00     0.002 C 
BRANCH  26  27
ATOM     27  C   UNL A   1      33.729  27.957  26.721  1.00  0.00     0.021 C 
BRANCH  27  28
ATOM     28  C   UNL A   1      34.412  29.185  26.124  1.00  0.00     0.116 C 
BRANCH  28  29
ATOM     29  N   UNL A   1      34.036  30.401  26.824  1.00  0.00    -0.352 N 
ATOM     30  C   UNL A   1      34.593  30.971  27.943  1.00  0.00     0.251 C 
ATOM     31  H   UNL A   1      33.271  30.888  26.441  1.00  0.00     0.163 HD
ATOM     32  O   UNL A   1      33.991  31.865  28.530  1.00  0.00    -0.269 OA
BRANCH  30  33
ATOM     33  C   UNL A   1      35.902  30.496  28.444  1.00  0.00     0.039 A 
ATOM     34  C   UNL A   1      35.934  29.667  29.568  1.00  0.00     0.014 A 
ATOM     35  C   UNL A   1      37.094  30.889  27.828  1.00  0.00     0.014 A 
ATOM     36  C   UNL A   1      37.159  29.192  30.043  1.00  0.00     0.010 A 
ATOM     37  C   UNL A   1      38.308  30.359  28.260  1.00  0.00     0.010 A 
ATOM     38  C   UNL A   1      38.354  29.512  29.377  1.00  0.00    -0.014 A 
BRANCH  38  39
ATOM     39  C   UNL A   1      39.656  28.971  29.845  1.00  0.00     0.031 A 
ATOM     40  C   UNL A   1      40.376  29.612  30.999  1.00  0.00     0.074 A 
ATOM     41  C   UNL A   1      40.212  27.930  29.195  1.00  0.00     0.049 A 
ATOM     42  N   UNL A   1      41.524  29.293  31.541  1.00  0.00    -0.248 NA
ATOM     43  C   UNL A   1      39.732  30.786  31.603  1.00  0.00     0.031 C 
ATOM     44  C   UNL A   1      39.631  27.253  28.033  1.00  0.00     0.029 A 
ATOM     45  N   UNL A   1      41.385  27.256  29.420  1.00  0.00    -0.354 N 
ATOM     46  C   UNL A   1      41.747  30.236  32.540  1.00  0.00     0.074 A 
ATOM     47  C   UNL A   1      40.646  31.174  32.478  1.00  0.00     0.031 C 
ATOM     48  C   UNL A   1      40.430  26.235  27.674  1.00  0.00     0.029 A 
ATOM     49  C   UNL A   1      41.595  26.210  28.551  1.00  0.00     0.049 A 
ATOM     50  H   UNL A   1      42.017  27.497  30.135  1.00  0.00     0.167 HD
ATOM     51  C   UNL A   1      42.763  30.298  33.440  1.00  0.00     0.034 A 
ATOM     52  C   UNL A   1      42.611  25.329  28.475  1.00  0.00     0.034 A 
ATOM     53  C   UNL A   1      43.848  29.346  33.489  1.00  0.00     0.049 A 
ATOM     54  C   UNL A   1      43.738  25.428  29.467  1.00  0.00     0.074 A 
ATOM     55  C   UNL A   1      44.889  29.267  34.397  1.00  0.00     0.029 A 
ATOM     56  N   UNL A   1      44.043  28.314  32.578  1.00  0.00    -0.354 N 
ATOM     57  N   UNL A   1      43.903  26.283  30.451  1.00  0.00    -0.248 NA
ATOM     58  C   UNL A   1      44.811  24.435  29.342  1.00  0.00     0.031 C 
ATOM     59  C   UNL A   1      45.749  28.238  33.995  1.00  0.00     0.029 A 
ATOM     60  C   UNL A   1      45.207  27.620  32.879  1.00  0.00     0.049 A 
ATOM     61  H   UNL A   1      43.442  28.105  31.827  1.00  0.00     0.167 HD
ATOM     62  C   UNL A   1      45.088  25.911  31.080  1.00  0.00     0.074 A 
ATOM     63  C   UNL A   1      45.582  24.746  30.374  1.00  0.00     0.031 C 
ATOM     64  C   UNL A   1      45.707  26.477  32.149  1.00  0.00     0.034 A 
BRANCH  51  65
ATOM     65  C   UNL A   1      42.752  31.456  34.413  1.00  0.00     0.023 A 
ATOM     66  C   UNL A   1      41.822  31.530  35.467  1.00  0.00     0.031 A 
ATOM     67  C   UNL A   1      43.643  32.533  34.252  1.00  0.00     0.131 A 
ATOM     68  C   UNL A   1      41.734  32.694  36.247  1.00  0.00     0.055 A 
ATOM     69  C   UNL A   1      43.614  33.647  35.093  1.00  0.00     0.041 A 
ATOM     70  F   UNL A   1      44.542  32.533  33.256  1.00  0.00    -0.206 F 
ATOM     71  C   UNL A   1      42.640  33.744  36.084  1.00  0.00     0.022 A 
BRANCH  68  72
ATOM     72  S   UNL A   1      40.304  32.892  37.345  1.00  0.00     0.124 S 
ATOM     73  O   UNL A   1      40.762  32.207  38.552  1.00  0.00    -0.237 OA
ATOM     74  O   UNL A   1      40.179  34.341  37.442  1.00  0.00    -0.237 OA
ATOM     75  O   UNL A   1      39.225  32.216  36.628  1.00  0.00    -0.744 OA
ENDBRANCH  68  72
ENDBRANCH  51  65
BRANCH  52  76
ATOM     76  C   UNL A   1      42.601  24.261  27.435  1.00  0.00     0.023 A 
ATOM     77  C   UNL A   1      41.947  23.042  27.667  1.00  0.00     0.031 A 
ATOM     78  C   UNL A   1      43.261  24.436  26.207  1.00  0.00     0.131 A 
ATOM     79  C   UNL A   1      41.995  22.027  26.699  1.00  0.00     0.055 A 
ATOM     80  C   UNL A   1      43.269  23.440  25.227  1.00  0.00     0.041 A 
ATOM     81  F   UNL A   1      43.895  25.588  25.933  1.00  0.00    -0.206 F 
ATOM     82  C   UNL A   1      42.640  22.223  25.476  1.00  0.00     0.022 A 
BRANCH  79  83
ATOM     83  S   UNL A   1      41.246  20.422  27.087  1.00  0.00     0.124 S 
ATOM     84  O   UNL A   1      40.318  20.250  25.975  1.00  0.00    -0.237 OA
ATOM     85  O   UNL A   1      42.407  19.539  27.098  1.00  0.00    -0.237 OA
ATOM     86  O   UNL A   1      40.624  20.645  28.391  1.00  0.00    -0.744 OA
ENDBRANCH  79  83
ENDBRANCH  52  76
BRANCH  64  87
ATOM     87  C   UNL A   1      46.976  25.812  32.627  1.00  0.00     0.023 A 
ATOM     88  C   UNL A   1      48.217  26.065  32.015  1.00  0.00     0.031 A 
ATOM     89  C   UNL A   1      46.937  24.881  33.679  1.00  0.00     0.131 A 
ATOM     90  C   UNL A   1      49.354  25.343  32.413  1.00  0.00     0.055 A 
ATOM     91  C   UNL A   1      48.083  24.216  34.118  1.00  0.00     0.041 A 
ATOM     92  F   UNL A   1      45.779  24.597  34.298  1.00  0.00    -0.206 F 
ATOM     93  C   UNL A   1      49.298  24.433  33.471  1.00  0.00     0.022 A 
BRANCH  90  94
ATOM     94  S   UNL A   1      50.881  25.525  31.451  1.00  0.00     0.124 S 
ATOM     95  O   UNL A   1      50.461  25.074  30.128  1.00  0.00    -0.237 OA
ATOM     96  O   UNL A   1      51.163  26.950  31.579  1.00  0.00    -0.237 OA
ATOM     97  O   UNL A   1      51.824  24.642  32.135  1.00  0.00    -0.744 OA
ENDBRANCH  90  94
ENDBRANCH  64  87
ENDBRANCH  38  39
ENDBRANCH  30  33
ENDBRANCH  28  29
ENDBRANCH  27  28
ENDBRANCH  26  27
ENDBRANCH   1  26
TORSDOF 19
ENDMDL
MODEL 3
REMARK VINA RESULT:     -11.0      4.353      7.850
REMARK SMILES Cc1cc(Nc2ccc(C(=O)NCCCCCCNC(=O)c3ccc(-c4c5nc(c(-c6cc(S(=O)(=O)[O-])ccc6F)c6ccc([nH]6)c(-c6cc(S(=O)(=O)[O-])ccc6F)c6nc(c(-c7cc(S(=O)(=O)[O-])ccc7F)c7ccc4[nH]7)C=C6)C=C5)cc3)cc2)nc(C(C)C)n1
REMARK SMILES IDX 15 1 14 2 13 3 12 4 10 5 11 6 9 8 6 9 7 10 86 11 8 12 85 13
REMARK SMILES IDX 5 14 4 16 1 17 2 18 3 19 92 20 88 21 87 22 89 23 90 24 91 25
REMARK SMILES IDX 16 26 17 27 18 28 19 29 20 30 21 32 22 33 23 34 84 35 24 36
REMARK SMILES IDX 83 37 25 38 26 39 27 40 77 41 28 42 82 43 76 44 78 45 29 46
REMARK SMILES IDX 81 47 75 48 74 49 30 51 62 52 42 53 61 54 43 55 46 56 60 57
REMARK SMILES IDX 79 58 44 59 45 60 59 62 80 63 47 64 31 65 32 66 40 67 33 68
REMARK SMILES IDX 39 69 41 70 38 71 34 72 35 73 36 74 37 75 63 76 64 77 72 78
REMARK SMILES IDX 65 79 71 80 73 81 70 82 66 83 67 84 68 85 69 86 48 87 49 88
REMARK SMILES IDX 57 89 50 90 56 91 58 92 55 93 51 94 52 95 53 96 54 97
REMARK H PARENT 12 7 5 15 19 31 78 50 46 61
REMARK Flexibility Score: inf
ROOT
ATOM      1  C   UNL A   1      33.448  36.553  30.534  1.00  0.00     0.002 C 
ENDROOT
BRANCH   1   2
ATOM      2  C   UNL A   1      33.131  36.414  32.029  1.00  0.00     0.021 C 
BRANCH   2   3
ATOM      3  C   UNL A   1      34.374  36.499  32.920  1.00  0.00     0.116 C 
BRANCH   3   4
ATOM      4  N   UNL A   1      34.498  35.286  33.709  1.00  0.00    -0.352 N 
ATOM      5  C   UNL A   1      35.373  34.233  33.655  1.00  0.00     0.251 C 
ATOM      6  O   UNL A   1      35.223  33.318  34.466  1.00  0.00    -0.269 OA
ATOM      7  H   UNL A   1      33.823  35.205  34.421  1.00  0.00     0.163 HD
BRANCH   5   8
ATOM      8  C   UNL A   1      36.529  34.183  32.720  1.00  0.00     0.039 A 
ATOM      9  C   UNL A   1      38.789  34.364  31.047  1.00  0.00     0.040 A 
ATOM     10  C   UNL A   1      38.906  34.615  32.414  1.00  0.00     0.027 A 
ATOM     11  C   UNL A   1      37.566  33.901  30.549  1.00  0.00     0.027 A 
ATOM     12  C   UNL A   1      37.780  34.548  33.239  1.00  0.00     0.016 A 
ATOM     13  C   UNL A   1      36.449  33.787  31.384  1.00  0.00     0.016 A 
BRANCH   9  14
ATOM     14  N   UNL A   1      39.915  34.465  30.213  1.00  0.00    -0.340 N 
ATOM     15  H   UNL A   1      39.781  34.824  29.306  1.00  0.00     0.168 HD
BRANCH  14  16
ATOM     16  C   UNL A   1      41.221  34.089  30.583  1.00  0.00     0.134 A 
ATOM     17  C   UNL A   1      43.488  31.102  30.465  1.00  0.00     0.067 C 
ATOM     18  C   UNL A   1      42.921  32.461  30.734  1.00  0.00     0.043 A 
ATOM     19  C   UNL A   1      41.650  32.802  30.315  1.00  0.00     0.070 A 
ATOM     20  N   UNL A   1      43.705  33.314  31.418  1.00  0.00    -0.238 NA
ATOM     21  C   UNL A   1      43.205  34.539  31.664  1.00  0.00     0.133 A 
ATOM     22  N   UNL A   1      41.991  34.953  31.266  1.00  0.00    -0.216 NA
BRANCH  21  23
ATOM     23  C   UNL A   1      44.031  35.503  32.487  1.00  0.00     0.051 C 
ATOM     24  C   UNL A   1      43.164  36.182  33.548  1.00  0.00     0.016 C 
ATOM     25  C   UNL A   1      45.232  34.805  33.122  1.00  0.00     0.016 C 
ENDBRANCH  21  23
ENDBRANCH  14  16
ENDBRANCH   9  14
ENDBRANCH   5   8
ENDBRANCH   3   4
ENDBRANCH   2   3
ENDBRANCH   1   2
BRANCH   1  26
ATOM     26  C   UNL A   1      32.968  35.384  29.664  1.00  0.00     0.002 C 
BRANCH  26  27
ATOM     27  C   UNL A   1      33.841  35.084  28.442  1.00  0.00     0.021 C 
BRANCH  27  28
ATOM     28  C   UNL A   1      34.609  33.767  28.521  1.00  0.00     0.116 C 
BRANCH  28  29
ATOM     29  N   UNL A   1      33.858  32.672  27.931  1.00  0.00    -0.352 N 
ATOM     30  C   UNL A   1      34.248  31.376  27.693  1.00  0.00     0.251 C 
ATOM     31  H   UNL A   1      32.937  32.889  27.663  1.00  0.00     0.163 HD
ATOM     32  O   UNL A   1      33.563  30.662  26.968  1.00  0.00    -0.269 OA
BRANCH  30  33
ATOM     33  C   UNL A   1      35.494  30.854  28.296  1.00  0.00     0.039 A 
ATOM     34  C   UNL A   1      35.406  29.870  29.284  1.00  0.00     0.014 A 
ATOM     35  C   UNL A   1      36.743  31.351  27.912  1.00  0.00     0.014 A 
ATOM     36  C   UNL A   1      36.572  29.351  29.851  1.00  0.00     0.010 A 
ATOM     37  C   UNL A   1      37.906  30.782  28.426  1.00  0.00     0.010 A 
ATOM     38  C   UNL A   1      37.833  29.782  29.407  1.00  0.00    -0.014 A 
BRANCH  38  39
ATOM     39  C   UNL A   1      39.079  29.199  29.967  1.00  0.00     0.031 A 
ATOM     40  C   UNL A   1      39.660  29.732  31.248  1.00  0.00     0.074 A 
ATOM     41  C   UNL A   1      39.714  28.220  29.292  1.00  0.00     0.049 A 
ATOM     42  N   UNL A   1      40.743  29.364  31.884  1.00  0.00    -0.248 NA
ATOM     43  C   UNL A   1      38.943  30.847  31.879  1.00  0.00     0.031 C 
ATOM     44  C   UNL A   1      39.272  27.653  28.017  1.00  0.00     0.029 A 
ATOM     45  N   UNL A   1      40.860  27.528  29.585  1.00  0.00    -0.354 N 
ATOM     46  C   UNL A   1      40.845  30.212  32.983  1.00  0.00     0.074 A 
ATOM     47  C   UNL A   1      39.750  31.153  32.882  1.00  0.00     0.031 C 
ATOM     48  C   UNL A   1      40.115  26.670  27.659  1.00  0.00     0.029 A 
ATOM     49  C   UNL A   1      41.174  26.564  28.655  1.00  0.00     0.049 A 
ATOM     50  H   UNL A   1      41.406  27.702  30.386  1.00  0.00     0.167 HD
ATOM     51  C   UNL A   1      41.753  30.190  33.993  1.00  0.00     0.034 A 
ATOM     52  C   UNL A   1      42.201  25.692  28.614  1.00  0.00     0.034 A 
ATOM     53  C   UNL A   1      42.834  29.237  34.077  1.00  0.00     0.049 A 
ATOM     54  C   UNL A   1      43.209  25.700  29.731  1.00  0.00     0.074 A 
ATOM     55  C   UNL A   1      43.768  29.074  35.085  1.00  0.00     0.029 A 
ATOM     56  N   UNL A   1      43.140  28.291  33.104  1.00  0.00    -0.354 N 
ATOM     57  N   UNL A   1      43.256  26.461  30.800  1.00  0.00    -0.248 NA
ATOM     58  C   UNL A   1      44.298  24.720  29.638  1.00  0.00     0.031 C 
ATOM     59  C   UNL A   1      44.677  28.084  34.691  1.00  0.00     0.029 A 
ATOM     60  C   UNL A   1      44.268  27.571  33.470  1.00  0.00     0.049 A 
ATOM     61  H   UNL A   1      42.627  28.151  32.275  1.00  0.00     0.167 HD
ATOM     62  C   UNL A   1      44.366  26.032  31.522  1.00  0.00     0.074 A 
ATOM     63  C   UNL A   1      44.946  24.935  30.774  1.00  0.00     0.031 C 
ATOM     64  C   UNL A   1      44.857  26.498  32.701  1.00  0.00     0.034 A 
BRANCH  51  65
ATOM     65  C   UNL A   1      41.623  31.255  35.059  1.00  0.00     0.023 A 
ATOM     66  C   UNL A   1      40.541  31.277  35.958  1.00  0.00     0.031 A 
ATOM     67  C   UNL A   1      42.562  32.301  35.142  1.00  0.00     0.131 A 
ATOM     68  C   UNL A   1      40.366  32.369  36.823  1.00  0.00     0.055 A 
ATOM     69  C   UNL A   1      42.434  33.335  36.071  1.00  0.00     0.041 A 
ATOM     70  F   UNL A   1      43.607  32.349  34.302  1.00  0.00    -0.206 F 
ATOM     71  C   UNL A   1      41.318  33.387  36.904  1.00  0.00     0.022 A 
BRANCH  68  72
ATOM     72  S   UNL A   1      38.787  32.532  37.700  1.00  0.00     0.124 S 
ATOM     73  O   UNL A   1      38.060  31.358  37.219  1.00  0.00    -0.237 OA
ATOM     74  O   UNL A   1      39.197  32.502  39.098  1.00  0.00    -0.237 OA
ATOM     75  O   UNL A   1      38.263  33.813  37.228  1.00  0.00    -0.744 OA
ENDBRANCH  68  72
ENDBRANCH  51  65
BRANCH  52  76
ATOM     76  C   UNL A   1      42.316  24.723  27.487  1.00  0.00     0.023 A 
ATOM     77  C   UNL A   1      41.553  23.546  27.475  1.00  0.00     0.031 A 
ATOM     78  C   UNL A   1      43.204  24.949  26.422  1.00  0.00     0.131 A 
ATOM     79  C   UNL A   1      41.716  22.619  26.434  1.00  0.00     0.055 A 
ATOM     80  C   UNL A   1      43.330  24.045  25.365  1.00  0.00     0.041 A 
ATOM     81  F   UNL A   1      43.951  26.064  26.384  1.00  0.00    -0.206 F 
ATOM     82  C   UNL A   1      42.589  22.866  25.373  1.00  0.00     0.022 A 
BRANCH  79  83
ATOM     83  S   UNL A   1      40.805  21.053  26.518  1.00  0.00     0.124 S 
ATOM     84  O   UNL A   1      40.809  20.782  27.951  1.00  0.00    -0.237 OA
ATOM     85  O   UNL A   1      39.518  21.418  25.936  1.00  0.00    -0.237 OA
ATOM     86  O   UNL A   1      41.616  20.145  25.708  1.00  0.00    -0.744 OA
ENDBRANCH  79  83
ENDBRANCH  52  76
BRANCH  64  87
ATOM     87  C   UNL A   1      46.070  25.791  33.255  1.00  0.00     0.023 A 
ATOM     88  C   UNL A   1      45.951  24.713  34.152  1.00  0.00     0.031 A 
ATOM     89  C   UNL A   1      47.363  26.226  32.917  1.00  0.00     0.131 A 
ATOM     90  C   UNL A   1      47.100  24.155  34.733  1.00  0.00     0.055 A 
ATOM     91  C   UNL A   1      48.505  25.624  33.445  1.00  0.00     0.041 A 
ATOM     92  F   UNL A   1      47.538  27.254  32.069  1.00  0.00    -0.206 F 
ATOM     93  C   UNL A   1      48.377  24.592  34.373  1.00  0.00     0.022 A 
BRANCH  90  94
ATOM     94  S   UNL A   1      46.900  22.928  36.054  1.00  0.00     0.124 S 
ATOM     95  O   UNL A   1      47.318  23.681  37.232  1.00  0.00    -0.237 OA
ATOM     96  O   UNL A   1      45.478  22.611  35.972  1.00  0.00    -0.237 OA
ATOM     97  O   UNL A   1      47.801  21.847  35.658  1.00  0.00    -0.744 OA
ENDBRANCH  90  94
ENDBRANCH  64  87
ENDBRANCH  38  39
ENDBRANCH  30  33
ENDBRANCH  28  29
ENDBRANCH  27  28
ENDBRANCH  26  27
ENDBRANCH   1  26
TORSDOF 19
ENDMDL
