MODEL 1
REMARK VINA RESULT:     -12.7      0.000      0.000
REMARK SMILES Cc1c(F)cc(C(=O)NCCCCCCNC(=O)c2ccc(-c3c4nc(c(-c5cc(S(=O)(=O)[O-])ccc5F)c5ccc([nH]5)c(-c5cc(S(=O)(=O)[O-])ccc5F)c5nc(c(-c6cc(S(=O)(=O)[O-])ccc6F)c6ccc3[nH]6)C=C5)C=C4)cc2)cc1S(=O)(=O)Nc1ccc(N2CCCC2)c(F)c1
REMARK SMILES IDX 12 1 11 2 10 3 9 4 7 5 8 6 6 8 1 9 2 10 3 11 83 12 4 13 5 14
REMARK SMILES IDX 82 15 84 16 85 17 86 18 87 19 88 21 89 22 99 23 90 24 97 25
REMARK SMILES IDX 91 26 98 27 92 28 93 29 96 30 94 31 95 32 13 33 14 34 15 35
REMARK SMILES IDX 16 36 17 37 18 39 19 40 20 41 81 42 21 43 80 44 22 45 23 46
REMARK SMILES IDX 24 47 74 48 25 49 79 50 73 51 75 52 26 53 78 54 72 55 71 56
REMARK SMILES IDX 27 58 59 59 39 60 58 61 40 62 43 63 57 64 76 65 41 66 42 67
REMARK SMILES IDX 56 69 77 70 44 71 28 72 29 73 37 74 30 75 36 76 38 77 35 78
REMARK SMILES IDX 31 79 32 80 33 81 34 82 60 83 61 84 69 85 62 86 68 87 70 88
REMARK SMILES IDX 67 89 63 90 64 91 65 92 66 93 45 94 46 95 54 96 47 97 53 98
REMARK SMILES IDX 55 99 52 100 48 101 49 102 50 103 51 104
REMARK H PARENT 9 7 87 20 16 38 75 57 43 68
REMARK Flexibility Score: inf
ROOT
ATOM      1  C   UNL A   1      34.211  32.956  28.081  1.00  0.00     0.002 C 
ENDROOT
BRANCH   1   2
ATOM      2  C   UNL A   1      35.067  31.682  28.054  1.00  0.00     0.021 C 
BRANCH   2   3
ATOM      3  C   UNL A   1      34.271  30.481  27.549  1.00  0.00     0.116 C 
BRANCH   3   4
ATOM      4  N   UNL A   1      32.942  30.940  27.196  1.00  0.00    -0.352 N 
ATOM      5  C   UNL A   1      32.114  30.623  26.156  1.00  0.00     0.251 C 
ATOM      6  O   UNL A   1      31.149  31.351  25.932  1.00  0.00    -0.269 OA
ATOM      7  H   UNL A   1      32.568  31.603  27.821  1.00  0.00     0.163 HD
BRANCH   5   8
ATOM      8  C   UNL A   1      32.231  29.326  25.447  1.00  0.00     0.044 A 
ATOM      9  C   UNL A   1      31.730  26.692  22.154  1.00  0.00     0.049 C 
ATOM     10  C   UNL A   1      31.981  27.376  23.454  1.00  0.00     0.005 A 
ATOM     11  C   UNL A   1      33.004  28.338  23.418  1.00  0.00     0.128 A 
ATOM     12  C   UNL A   1      31.257  27.233  24.643  1.00  0.00     0.094 A 
ATOM     13  F   UNL A   1      33.820  28.400  22.355  1.00  0.00    -0.207 F 
ATOM     14  C   UNL A   1      33.125  29.316  24.385  1.00  0.00     0.053 A 
ATOM     15  C   UNL A   1      31.420  28.210  25.652  1.00  0.00     0.036 A 
BRANCH  12  16
ATOM     16  S   UNL A   1      30.026  25.998  25.056  1.00  0.00     0.262 S 
ATOM     17  O   UNL A   1      30.032  25.905  26.501  1.00  0.00    -0.201 OA
ATOM     18  O   UNL A   1      28.834  26.411  24.343  1.00  0.00    -0.201 OA
BRANCH  16  19
ATOM     19  N   UNL A   1      30.372  24.478  24.466  1.00  0.00    -0.280 N 
ATOM     20  H   UNL A   1      29.703  24.068  23.873  1.00  0.00     0.180 HD
BRANCH  19  21
ATOM     21  C   UNL A   1      31.535  23.723  24.739  1.00  0.00     0.052 A 
ATOM     22  C   UNL A   1      32.095  23.063  23.644  1.00  0.00     0.029 A 
ATOM     23  C   UNL A   1      32.205  23.737  25.952  1.00  0.00     0.068 A 
ATOM     24  C   UNL A   1      33.423  22.642  23.692  1.00  0.00     0.031 A 
ATOM     25  C   UNL A   1      33.531  23.294  25.992  1.00  0.00     0.148 A 
ATOM     26  C   UNL A   1      34.202  22.823  24.844  1.00  0.00     0.073 A 
ATOM     27  F   UNL A   1      34.194  23.486  27.143  1.00  0.00    -0.205 F 
BRANCH  26  28
ATOM     28  N   UNL A   1      35.571  22.640  24.750  1.00  0.00    -0.369 N 
ATOM     29  C   UNL A   1      36.233  21.348  24.622  1.00  0.00     0.116 C 
ATOM     30  C   UNL A   1      36.448  23.626  25.397  1.00  0.00     0.116 C 
ATOM     31  C   UNL A   1      37.441  21.463  25.548  1.00  0.00     0.023 C 
ATOM     32  C   UNL A   1      37.806  22.936  25.459  1.00  0.00     0.023 C 
ENDBRANCH  26  28
ENDBRANCH  19  21
ENDBRANCH  16  19
ENDBRANCH  12  16
ENDBRANCH   5   8
ENDBRANCH   3   4
ENDBRANCH   2   3
ENDBRANCH   1   2
BRANCH   1  33
ATOM     33  C   UNL A   1      34.924  34.168  28.702  1.00  0.00     0.002 C 
BRANCH  33  34
ATOM     34  C   UNL A   1      33.977  35.243  29.258  1.00  0.00     0.021 C 
BRANCH  34  35
ATOM     35  C   UNL A   1      33.424  34.840  30.603  1.00  0.00     0.116 C 
BRANCH  35  36
ATOM     36  N   UNL A   1      33.835  35.816  31.600  1.00  0.00    -0.352 N 
ATOM     37  C   UNL A   1      34.701  35.621  32.647  1.00  0.00     0.251 C 
ATOM     38  H   UNL A   1      33.450  36.717  31.514  1.00  0.00     0.163 HD
ATOM     39  O   UNL A   1      34.702  36.391  33.587  1.00  0.00    -0.269 OA
BRANCH  37  40
ATOM     40  C   UNL A   1      35.652  34.511  32.506  1.00  0.00     0.039 A 
ATOM     41  C   UNL A   1      35.527  33.317  33.212  1.00  0.00     0.014 A 
ATOM     42  C   UNL A   1      36.720  34.738  31.637  1.00  0.00     0.014 A 
ATOM     43  C   UNL A   1      36.525  32.358  33.080  1.00  0.00     0.010 A 
ATOM     44  C   UNL A   1      37.587  33.731  31.364  1.00  0.00     0.010 A 
ATOM     45  C   UNL A   1      37.559  32.598  32.173  1.00  0.00    -0.014 A 
BRANCH  45  46
ATOM     46  C   UNL A   1      38.747  31.785  32.030  1.00  0.00     0.031 A 
ATOM     47  C   UNL A   1      38.663  30.513  31.312  1.00  0.00     0.074 A 
ATOM     48  C   UNL A   1      39.897  32.355  32.466  1.00  0.00     0.049 A 
ATOM     49  N   UNL A   1      39.411  29.503  31.567  1.00  0.00    -0.248 NA
ATOM     50  C   UNL A   1      37.685  30.256  30.253  1.00  0.00     0.031 C 
ATOM     51  C   UNL A   1      41.275  32.000  32.190  1.00  0.00     0.029 A 
ATOM     52  N   UNL A   1      40.020  33.414  33.381  1.00  0.00    -0.354 N 
ATOM     53  C   UNL A   1      39.288  28.650  30.491  1.00  0.00     0.074 A 
ATOM     54  C   UNL A   1      38.082  29.056  29.809  1.00  0.00     0.031 C 
ATOM     55  C   UNL A   1      42.062  32.575  33.121  1.00  0.00     0.029 A 
ATOM     56  C   UNL A   1      41.180  33.174  34.115  1.00  0.00     0.049 A 
ATOM     57  H   UNL A   1      39.406  34.177  33.485  1.00  0.00     0.167 HD
ATOM     58  C   UNL A   1      40.356  27.874  30.152  1.00  0.00     0.034 A 
ATOM     59  C   UNL A   1      41.147  32.874  35.450  1.00  0.00     0.034 A 
ATOM     60  C   UNL A   1      41.476  28.164  31.053  1.00  0.00     0.049 A 
ATOM     61  C   UNL A   1      41.717  31.495  35.705  1.00  0.00     0.074 A 
ATOM     62  C   UNL A   1      42.566  29.009  30.915  1.00  0.00     0.029 A 
ATOM     63  N   UNL A   1      41.372  27.878  32.408  1.00  0.00    -0.354 N 
ATOM     64  N   UNL A   1      41.757  30.552  34.807  1.00  0.00    -0.248 NA
ATOM     65  C   UNL A   1      42.306  31.082  36.971  1.00  0.00     0.031 C 
ATOM     66  C   UNL A   1      43.125  29.224  32.199  1.00  0.00     0.029 A 
ATOM     67  C   UNL A   1      42.376  28.513  33.121  1.00  0.00     0.049 A 
ATOM     68  H   UNL A   1      40.679  27.303  32.806  1.00  0.00     0.167 HD
ATOM     69  C   UNL A   1      42.364  29.434  35.321  1.00  0.00     0.074 A 
ATOM     70  C   UNL A   1      42.701  29.829  36.677  1.00  0.00     0.031 C 
ATOM     71  C   UNL A   1      42.522  28.302  34.563  1.00  0.00     0.034 A 
BRANCH  58  72
ATOM     72  C   UNL A   1      40.517  27.137  28.835  1.00  0.00     0.023 A 
ATOM     73  C   UNL A   1      41.440  27.489  27.824  1.00  0.00     0.031 A 
ATOM     74  C   UNL A   1      39.715  26.005  28.555  1.00  0.00     0.131 A 
ATOM     75  C   UNL A   1      41.584  26.702  26.658  1.00  0.00     0.055 A 
ATOM     76  C   UNL A   1      39.836  25.248  27.386  1.00  0.00     0.041 A 
ATOM     77  F   UNL A   1      38.797  25.554  29.419  1.00  0.00    -0.206 F 
ATOM     78  C   UNL A   1      40.782  25.586  26.435  1.00  0.00     0.022 A 
BRANCH  75  79
ATOM     79  S   UNL A   1      42.860  27.056  25.413  1.00  0.00     0.124 S 
ATOM     80  O   UNL A   1      42.271  28.169  24.669  1.00  0.00    -0.237 OA
ATOM     81  O   UNL A   1      44.017  27.405  26.234  1.00  0.00    -0.237 OA
ATOM     82  O   UNL A   1      42.972  25.810  24.661  1.00  0.00    -0.744 OA
ENDBRANCH  75  79
ENDBRANCH  58  72
BRANCH  59  83
ATOM     83  C   UNL A   1      39.965  33.457  36.164  1.00  0.00     0.023 A 
ATOM     84  C   UNL A   1      40.113  34.538  37.048  1.00  0.00     0.031 A 
ATOM     85  C   UNL A   1      38.819  32.641  36.305  1.00  0.00     0.131 A 
ATOM     86  C   UNL A   1      39.221  34.676  38.128  1.00  0.00     0.055 A 
ATOM     87  C   UNL A   1      37.974  32.748  37.413  1.00  0.00     0.041 A 
ATOM     88  F   UNL A   1      38.602  31.629  35.449  1.00  0.00    -0.206 F 
ATOM     89  C   UNL A   1      38.203  33.742  38.358  1.00  0.00     0.022 A 
BRANCH  86  90
ATOM     90  S   UNL A   1      39.452  36.034  39.316  1.00  0.00     0.124 S 
ATOM     91  O   UNL A   1      40.863  35.877  39.658  1.00  0.00    -0.237 OA
ATOM     92  O   UNL A   1      39.133  37.227  38.540  1.00  0.00    -0.237 OA
ATOM     93  O   UNL A   1      38.497  35.713  40.370  1.00  0.00    -0.744 OA
ENDBRANCH  86  90
ENDBRANCH  59  83
BRANCH  71  94
ATOM     94  C   UNL A   1      42.895  26.895  35.016  1.00  0.00     0.023 A 
ATOM     95  C   UNL A   1      43.891  26.196  34.278  1.00  0.00     0.031 A 
ATOM     96  C   UNL A   1      42.284  26.147  36.032  1.00  0.00     0.131 A 
ATOM     97  C   UNL A   1      44.188  24.848  34.502  1.00  0.00     0.055 A 
ATOM     98  C   UNL A   1      42.643  24.820  36.314  1.00  0.00     0.041 A 
ATOM     99  F   UNL A   1      41.289  26.629  36.781  1.00  0.00    -0.206 F 
ATOM    100  C   UNL A   1      43.580  24.156  35.536  1.00  0.00     0.022 A 
BRANCH  97 101
ATOM    101  S   UNL A   1      45.277  23.934  33.374  1.00  0.00     0.124 S 
ATOM    102  O   UNL A   1      45.294  22.609  33.989  1.00  0.00    -0.237 OA
ATOM    103  O   UNL A   1      44.549  24.027  32.109  1.00  0.00    -0.237 OA
ATOM    104  O   UNL A   1      46.534  24.671  33.423  1.00  0.00    -0.744 OA
ENDBRANCH  97 101
ENDBRANCH  71  94
ENDBRANCH  45  46
ENDBRANCH  37  40
ENDBRANCH  35  36
ENDBRANCH  34  35
ENDBRANCH  33  34
ENDBRANCH   1  33
TORSDOF 20
ENDMDL
MODEL 2
REMARK VINA RESULT:     -12.3      1.968      2.461
REMARK SMILES Cc1c(F)cc(C(=O)NCCCCCCNC(=O)c2ccc(-c3c4nc(c(-c5cc(S(=O)(=O)[O-])ccc5F)c5ccc([nH]5)c(-c5cc(S(=O)(=O)[O-])ccc5F)c5nc(c(-c6cc(S(=O)(=O)[O-])ccc6F)c6ccc3[nH]6)C=C5)C=C4)cc2)cc1S(=O)(=O)Nc1ccc(N2CCCC2)c(F)c1
REMARK SMILES IDX 12 1 11 2 10 3 9 4 7 5 8 6 6 8 1 9 2 10 3 11 83 12 4 13 5 14
REMARK SMILES IDX 82 15 84 16 85 17 86 18 87 19 88 21 89 22 99 23 90 24 97 25
REMARK SMILES IDX 91 26 98 27 92 28 93 29 96 30 94 31 95 32 13 33 14 34 15 35
REMARK SMILES IDX 16 36 17 37 18 39 19 40 20 41 81 42 21 43 80 44 22 45 23 46
REMARK SMILES IDX 24 47 74 48 25 49 79 50 73 51 75 52 26 53 78 54 72 55 71 56
REMARK SMILES IDX 27 58 59 59 39 60 58 61 40 62 43 63 57 64 76 65 41 66 42 67
REMARK SMILES IDX 56 69 77 70 44 71 28 72 29 73 37 74 30 75 36 76 38 77 35 78
REMARK SMILES IDX 31 79 32 80 33 81 34 82 60 83 61 84 69 85 62 86 68 87 70 88
REMARK SMILES IDX 67 89 63 90 64 91 65 92 66 93 45 94 46 95 54 96 47 97 53 98
REMARK SMILES IDX 55 99 52 100 48 101 49 102 50 103 51 104
REMARK H PARENT 9 7 87 20 16 38 75 57 43 68
REMARK Flexibility Score: inf
ROOT
ATOM      1  C   UNL A   1      34.411  32.053  28.782  1.00  0.00     0.002 C 
ENDROOT
BRANCH   1   2
ATOM      2  C   UNL A   1      35.167  30.823  28.261  1.00  0.00     0.021 C 
BRANCH   2   3
ATOM      3  C   UNL A   1      34.399  30.124  27.141  1.00  0.00     0.116 C 
BRANCH   3   4
ATOM      4  N   UNL A   1      33.569  29.098  27.740  1.00  0.00    -0.352 N 
ATOM      5  C   UNL A   1      32.398  28.520  27.335  1.00  0.00     0.251 C 
ATOM      6  O   UNL A   1      31.753  27.866  28.152  1.00  0.00    -0.269 OA
ATOM      7  H   UNL A   1      33.911  28.754  28.597  1.00  0.00     0.163 HD
BRANCH   5   8
ATOM      8  C   UNL A   1      32.011  28.485  25.903  1.00  0.00     0.044 A 
ATOM      9  C   UNL A   1      29.260  28.405  22.670  1.00  0.00     0.049 C 
ATOM     10  C   UNL A   1      30.423  28.378  23.600  1.00  0.00     0.005 A 
ATOM     11  C   UNL A   1      30.655  29.586  24.279  1.00  0.00     0.128 A 
ATOM     12  C   UNL A   1      31.222  27.277  23.931  1.00  0.00     0.094 A 
ATOM     13  F   UNL A   1      30.021  30.701  23.886  1.00  0.00    -0.207 F 
ATOM     14  C   UNL A   1      31.421  29.647  25.427  1.00  0.00     0.053 A 
ATOM     15  C   UNL A   1      32.042  27.361  25.079  1.00  0.00     0.036 A 
BRANCH  12  16
ATOM     16  S   UNL A   1      31.288  25.671  23.137  1.00  0.00     0.262 S 
ATOM     17  O   UNL A   1      30.004  25.054  23.392  1.00  0.00    -0.201 OA
ATOM     18  O   UNL A   1      31.726  25.946  21.783  1.00  0.00    -0.201 OA
BRANCH  16  19
ATOM     19  N   UNL A   1      32.453  24.657  23.765  1.00  0.00    -0.280 N 
ATOM     20  H   UNL A   1      33.354  25.034  23.882  1.00  0.00     0.180 HD
BRANCH  19  21
ATOM     21  C   UNL A   1      32.267  23.308  24.142  1.00  0.00     0.052 A 
ATOM     22  C   UNL A   1      31.960  22.429  23.102  1.00  0.00     0.029 A 
ATOM     23  C   UNL A   1      32.522  22.813  25.411  1.00  0.00     0.068 A 
ATOM     24  C   UNL A   1      32.156  21.059  23.271  1.00  0.00     0.031 A 
ATOM     25  C   UNL A   1      32.697  21.435  25.572  1.00  0.00     0.148 A 
ATOM     26  C   UNL A   1      32.610  20.534  24.489  1.00  0.00     0.073 A 
ATOM     27  F   UNL A   1      33.111  21.018  26.778  1.00  0.00    -0.205 F 
BRANCH  26  28
ATOM     28  N   UNL A   1      33.043  19.220  24.520  1.00  0.00    -0.369 N 
ATOM     29  C   UNL A   1      34.404  18.798  24.825  1.00  0.00     0.116 C 
ATOM     30  C   UNL A   1      32.366  18.246  23.652  1.00  0.00     0.116 C 
ATOM     31  C   UNL A   1      34.679  17.688  23.812  1.00  0.00     0.023 C 
ATOM     32  C   UNL A   1      33.313  17.051  23.618  1.00  0.00     0.023 C 
ENDBRANCH  26  28
ENDBRANCH  19  21
ENDBRANCH  16  19
ENDBRANCH  12  16
ENDBRANCH   5   8
ENDBRANCH   3   4
ENDBRANCH   2   3
ENDBRANCH   1   2
BRANCH   1  33
ATOM     33  C   UNL A   1      35.181  33.371  28.611  1.00  0.00     0.002 C 
BRANCH  33  34
ATOM     34  C   UNL A   1      34.749  34.487  29.575  1.00  0.00     0.021 C 
BRANCH  34  35
ATOM     35  C   UNL A   1      34.223  33.916  30.870  1.00  0.00     0.116 C 
BRANCH  35  36
ATOM     36  N   UNL A   1      34.247  34.951  31.892  1.00  0.00    -0.352 N 
ATOM     37  C   UNL A   1      35.126  35.064  32.941  1.00  0.00     0.251 C 
ATOM     38  H   UNL A   1      33.557  35.649  31.823  1.00  0.00     0.163 HD
ATOM     39  O   UNL A   1      34.844  35.759  33.898  1.00  0.00    -0.269 OA
BRANCH  37  40
ATOM     40  C   UNL A   1      36.419  34.388  32.781  1.00  0.00     0.039 A 
ATOM     41  C   UNL A   1      37.497  34.972  32.120  1.00  0.00     0.014 A 
ATOM     42  C   UNL A   1      36.496  33.098  33.307  1.00  0.00     0.014 A 
ATOM     43  C   UNL A   1      38.654  34.220  31.940  1.00  0.00     0.010 A 
ATOM     44  C   UNL A   1      37.683  32.440  33.299  1.00  0.00     0.010 A 
ATOM     45  C   UNL A   1      38.713  32.948  32.513  1.00  0.00    -0.014 A 
BRANCH  45  46
ATOM     46  C   UNL A   1      39.768  31.984  32.291  1.00  0.00     0.031 A 
ATOM     47  C   UNL A   1      39.476  30.760  31.545  1.00  0.00     0.074 A 
ATOM     48  C   UNL A   1      41.005  32.375  32.685  1.00  0.00     0.049 A 
ATOM     49  N   UNL A   1      40.086  29.648  31.738  1.00  0.00    -0.248 NA
ATOM     50  C   UNL A   1      38.426  30.675  30.529  1.00  0.00     0.031 C 
ATOM     51  C   UNL A   1      42.306  31.842  32.334  1.00  0.00     0.029 A 
ATOM     52  N   UNL A   1      41.315  33.376  33.621  1.00  0.00    -0.354 N 
ATOM     53  C   UNL A   1      39.798  28.856  30.647  1.00  0.00     0.074 A 
ATOM     54  C   UNL A   1      38.631  29.447  30.035  1.00  0.00     0.031 C 
ATOM     55  C   UNL A   1      43.206  32.272  33.241  1.00  0.00     0.029 A 
ATOM     56  C   UNL A   1      42.461  32.955  34.292  1.00  0.00     0.049 A 
ATOM     57  H   UNL A   1      40.819  34.213  33.774  1.00  0.00     0.167 HD
ATOM     58  C   UNL A   1      40.731  27.951  30.237  1.00  0.00     0.034 A 
ATOM     59  C   UNL A   1      42.446  32.619  35.619  1.00  0.00     0.034 A 
ATOM     60  C   UNL A   1      41.919  28.054  31.090  1.00  0.00     0.049 A 
ATOM     61  C   UNL A   1      42.829  31.168  35.810  1.00  0.00     0.074 A 
ATOM     62  C   UNL A   1      43.109  28.745  30.921  1.00  0.00     0.029 A 
ATOM     63  N   UNL A   1      41.837  27.742  32.440  1.00  0.00    -0.354 N 
ATOM     64  N   UNL A   1      42.697  30.257  34.886  1.00  0.00    -0.248 NA
ATOM     65  C   UNL A   1      43.410  30.636  37.034  1.00  0.00     0.031 C 
ATOM     66  C   UNL A   1      43.749  28.838  32.182  1.00  0.00     0.029 A 
ATOM     67  C   UNL A   1      42.950  28.208  33.121  1.00  0.00     0.049 A 
ATOM     68  H   UNL A   1      41.089  27.255  32.856  1.00  0.00     0.167 HD
ATOM     69  C   UNL A   1      43.164  29.050  35.341  1.00  0.00     0.074 A 
ATOM     70  C   UNL A   1      43.612  29.351  36.689  1.00  0.00     0.031 C 
ATOM     71  C   UNL A   1      43.129  27.932  34.548  1.00  0.00     0.034 A 
BRANCH  58  72
ATOM     72  C   UNL A   1      40.729  27.242  28.895  1.00  0.00     0.023 A 
ATOM     73  C   UNL A   1      41.636  27.508  27.843  1.00  0.00     0.031 A 
ATOM     74  C   UNL A   1      39.778  26.228  28.632  1.00  0.00     0.131 A 
ATOM     75  C   UNL A   1      41.619  26.747  26.652  1.00  0.00     0.055 A 
ATOM     76  C   UNL A   1      39.741  25.500  27.439  1.00  0.00     0.041 A 
ATOM     77  F   UNL A   1      38.856  25.867  29.534  1.00  0.00    -0.206 F 
ATOM     78  C   UNL A   1      40.672  25.747  26.446  1.00  0.00     0.022 A 
BRANCH  75  79
ATOM     79  S   UNL A   1      42.862  26.978  25.347  1.00  0.00     0.124 S 
ATOM     80  O   UNL A   1      42.795  25.710  24.623  1.00  0.00    -0.237 OA
ATOM     81  O   UNL A   1      42.347  28.134  24.618  1.00  0.00    -0.237 OA
ATOM     82  O   UNL A   1      44.105  27.196  26.081  1.00  0.00    -0.744 OA
ENDBRANCH  75  79
ENDBRANCH  58  72
BRANCH  59  83
ATOM     83  C   UNL A   1      41.390  33.337  36.404  1.00  0.00     0.023 A 
ATOM     84  C   UNL A   1      40.193  32.698  36.763  1.00  0.00     0.031 A 
ATOM     85  C   UNL A   1      41.399  34.751  36.369  1.00  0.00     0.131 A 
ATOM     86  C   UNL A   1      39.019  33.460  36.916  1.00  0.00     0.055 A 
ATOM     87  C   UNL A   1      40.220  35.494  36.462  1.00  0.00     0.041 A 
ATOM     88  F   UNL A   1      42.534  35.412  36.087  1.00  0.00    -0.206 F 
ATOM     89  C   UNL A   1      39.013  34.842  36.690  1.00  0.00     0.022 A 
BRANCH  86  90
ATOM     90  S   UNL A   1      37.452  32.627  37.312  1.00  0.00     0.124 S 
ATOM     91  O   UNL A   1      36.496  33.460  36.588  1.00  0.00    -0.237 OA
ATOM     92  O   UNL A   1      37.632  31.284  36.774  1.00  0.00    -0.237 OA
ATOM     93  O   UNL A   1      37.399  32.705  38.767  1.00  0.00    -0.744 OA
ENDBRANCH  86  90
ENDBRANCH  59  83
BRANCH  71  94
ATOM     94  C   UNL A   1      43.321  26.474  34.946  1.00  0.00     0.023 A 
ATOM     95  C   UNL A   1      44.640  25.939  34.912  1.00  0.00     0.031 A 
ATOM     96  C   UNL A   1      42.319  25.542  35.245  1.00  0.00     0.131 A 
ATOM     97  C   UNL A   1      44.908  24.579  35.095  1.00  0.00     0.055 A 
ATOM     98  C   UNL A   1      42.595  24.192  35.514  1.00  0.00     0.041 A 
ATOM     99  F   UNL A   1      41.022  25.861  35.259  1.00  0.00    -0.206 F 
ATOM    100  C   UNL A   1      43.887  23.699  35.417  1.00  0.00     0.022 A 
BRANCH  97 101
ATOM    101  S   UNL A   1      46.565  23.905  34.792  1.00  0.00     0.124 S 
ATOM    102  O   UNL A   1      46.952  24.609  33.573  1.00  0.00    -0.237 OA
ATOM    103  O   UNL A   1      47.282  24.310  36.001  1.00  0.00    -0.237 OA
ATOM    104  O   UNL A   1      46.343  22.471  34.654  1.00  0.00    -0.744 OA
ENDBRANCH  97 101
ENDBRANCH  71  94
ENDBRANCH  45  46
ENDBRANCH  37  40
ENDBRANCH  35  36
ENDBRANCH  34  35
ENDBRANCH  33  34
ENDBRANCH   1  33
TORSDOF 20
ENDMDL
MODEL 3
REMARK VINA RESULT:     -11.9      2.272      2.710
REMARK SMILES Cc1c(F)cc(C(=O)NCCCCCCNC(=O)c2ccc(-c3c4nc(c(-c5cc(S(=O)(=O)[O-])ccc5F)c5ccc([nH]5)c(-c5cc(S(=O)(=O)[O-])ccc5F)c5nc(c(-c6cc(S(=O)(=O)[O-])ccc6F)c6ccc3[nH]6)C=C5)C=C4)cc2)cc1S(=O)(=O)Nc1ccc(N2CCCC2)c(F)c1
REMARK SMILES IDX 12 1 11 2 10 3 9 4 7 5 8 6 6 8 1 9 2 10 3 11 83 12 4 13 5 14
REMARK SMILES IDX 82 15 84 16 85 17 86 18 87 19 88 21 89 22 99 23 90 24 97 25
REMARK SMILES IDX 91 26 98 27 92 28 93 29 96 30 94 31 95 32 13 33 14 34 15 35
REMARK SMILES IDX 16 36 17 37 18 39 19 40 20 41 81 42 21 43 80 44 22 45 23 46
REMARK SMILES IDX 24 47 74 48 25 49 79 50 73 51 75 52 26 53 78 54 72 55 71 56
REMARK SMILES IDX 27 58 59 59 39 60 58 61 40 62 43 63 57 64 76 65 41 66 42 67
REMARK SMILES IDX 56 69 77 70 44 71 28 72 29 73 37 74 30 75 36 76 38 77 35 78
REMARK SMILES IDX 31 79 32 80 33 81 34 82 60 83 61 84 69 85 62 86 68 87 70 88
REMARK SMILES IDX 67 89 63 90 64 91 65 92 66 93 45 94 46 95 54 96 47 97 53 98
REMARK SMILES IDX 55 99 52 100 48 101 49 102 50 103 51 104
REMARK H PARENT 9 7 87 20 16 38 75 57 43 68
REMARK Flexibility Score: inf
ROOT
ATOM      1  C   UNL A   1      35.328  31.848  27.904  1.00  0.00     0.002 C 
ENDROOT
BRANCH   1   2
ATOM      2  C   UNL A   1      35.842  30.417  28.117  1.00  0.00     0.021 C 
BRANCH   2   3
ATOM      3  C   UNL A   1      34.839  29.380  27.617  1.00  0.00     0.116 C 
BRANCH   3   4
ATOM      4  N   UNL A   1      33.562  30.042  27.436  1.00  0.00    -0.352 N 
ATOM      5  C   UNL A   1      32.639  29.985  26.430  1.00  0.00     0.251 C 
ATOM      6  O   UNL A   1      31.764  30.847  26.386  1.00  0.00    -0.269 OA
ATOM      7  H   UNL A   1      33.314  30.644  28.175  1.00  0.00     0.163 HD
BRANCH   5   8
ATOM      8  C   UNL A   1      32.546  28.804  25.537  1.00  0.00     0.044 A 
ATOM      9  C   UNL A   1      31.565  26.784  21.933  1.00  0.00     0.049 C 
ATOM     10  C   UNL A   1      31.953  27.226  23.302  1.00  0.00     0.005 A 
ATOM     11  C   UNL A   1      33.103  28.032  23.350  1.00  0.00     0.128 A 
ATOM     12  C   UNL A   1      31.255  27.009  24.495  1.00  0.00     0.094 A 
ATOM     13  F   UNL A   1      33.885  28.138  22.266  1.00  0.00    -0.207 F 
ATOM     14  C   UNL A   1      33.395  28.829  24.439  1.00  0.00     0.053 A 
ATOM     15  C   UNL A   1      31.590  27.793  25.623  1.00  0.00     0.036 A 
BRANCH  12  16
ATOM     16  S   UNL A   1      29.873  25.907  24.792  1.00  0.00     0.262 S 
ATOM     17  O   UNL A   1      29.829  25.709  26.226  1.00  0.00    -0.201 OA
ATOM     18  O   UNL A   1      28.759  26.515  24.091  1.00  0.00    -0.201 OA
BRANCH  16  19
ATOM     19  N   UNL A   1      30.047  24.404  24.094  1.00  0.00    -0.280 N 
ATOM     20  H   UNL A   1      29.347  24.123  23.462  1.00  0.00     0.180 HD
BRANCH  19  21
ATOM     21  C   UNL A   1      31.105  23.495  24.325  1.00  0.00     0.052 A 
ATOM     22  C   UNL A   1      32.039  23.385  23.294  1.00  0.00     0.029 A 
ATOM     23  C   UNL A   1      31.333  22.860  25.535  1.00  0.00     0.068 A 
ATOM     24  C   UNL A   1      33.303  22.858  23.557  1.00  0.00     0.031 A 
ATOM     25  C   UNL A   1      32.599  22.318  25.780  1.00  0.00     0.148 A 
ATOM     26  C   UNL A   1      33.643  22.385  24.833  1.00  0.00     0.073 A 
ATOM     27  F   UNL A   1      32.830  21.868  27.023  1.00  0.00    -0.205 F 
BRANCH  26  28
ATOM     28  N   UNL A   1      34.975  22.131  25.108  1.00  0.00    -0.369 N 
ATOM     29  C   UNL A   1      36.071  23.058  24.855  1.00  0.00     0.116 C 
ATOM     30  C   UNL A   1      35.438  20.736  25.066  1.00  0.00     0.116 C 
ATOM     31  C   UNL A   1      37.178  22.170  24.291  1.00  0.00     0.023 C 
ATOM     32  C   UNL A   1      36.957  20.846  25.004  1.00  0.00     0.023 C 
ENDBRANCH  26  28
ENDBRANCH  19  21
ENDBRANCH  16  19
ENDBRANCH  12  16
ENDBRANCH   5   8
ENDBRANCH   3   4
ENDBRANCH   2   3
ENDBRANCH   1   2
BRANCH   1  33
ATOM     33  C   UNL A   1      36.041  32.897  28.771  1.00  0.00     0.002 C 
BRANCH  33  34
ATOM     34  C   UNL A   1      35.133  34.035  29.263  1.00  0.00     0.021 C 
BRANCH  34  35
ATOM     35  C   UNL A   1      34.587  33.741  30.639  1.00  0.00     0.116 C 
BRANCH  35  36
ATOM     36  N   UNL A   1      35.088  34.737  31.574  1.00  0.00    -0.352 N 
ATOM     37  C   UNL A   1      36.119  34.594  32.469  1.00  0.00     0.251 C 
ATOM     38  H   UNL A   1      34.637  35.612  31.562  1.00  0.00     0.163 HD
ATOM     39  O   UNL A   1      36.218  35.359  33.408  1.00  0.00    -0.269 OA
BRANCH  37  40
ATOM     40  C   UNL A   1      37.104  33.550  32.163  1.00  0.00     0.039 A 
ATOM     41  C   UNL A   1      36.996  32.248  32.647  1.00  0.00     0.014 A 
ATOM     42  C   UNL A   1      38.185  33.951  31.379  1.00  0.00     0.014 A 
ATOM     43  C   UNL A   1      38.025  31.350  32.377  1.00  0.00     0.010 A 
ATOM     44  C   UNL A   1      39.088  33.028  30.959  1.00  0.00     0.010 A 
ATOM     45  C   UNL A   1      39.073  31.771  31.557  1.00  0.00    -0.014 A 
BRANCH  45  46
ATOM     46  C   UNL A   1      40.286  31.024  31.308  1.00  0.00     0.031 A 
ATOM     47  C   UNL A   1      40.203  29.714  30.662  1.00  0.00     0.074 A 
ATOM     48  C   UNL A   1      41.439  31.684  31.577  1.00  0.00     0.049 A 
ATOM     49  N   UNL A   1      41.040  28.765  30.871  1.00  0.00    -0.248 NA
ATOM     50  C   UNL A   1      39.127  29.344  29.741  1.00  0.00     0.031 C 
ATOM     51  C   UNL A   1      42.796  31.398  31.153  1.00  0.00     0.029 A 
ATOM     52  N   UNL A   1      41.599  32.794  32.423  1.00  0.00    -0.354 N 
ATOM     53  C   UNL A   1      40.849  27.852  29.855  1.00  0.00     0.074 A 
ATOM     54  C   UNL A   1      39.547  28.149  29.306  1.00  0.00     0.031 C 
ATOM     55  C   UNL A   1      43.648  32.067  31.957  1.00  0.00     0.029 A 
ATOM     56  C   UNL A   1      42.851  32.662  33.022  1.00  0.00     0.049 A 
ATOM     57  H   UNL A   1      40.953  33.523  32.566  1.00  0.00     0.167 HD
ATOM     58  C   UNL A   1      41.918  27.125  29.425  1.00  0.00     0.034 A 
ATOM     59  C   UNL A   1      42.994  32.430  34.364  1.00  0.00     0.034 A 
ATOM     60  C   UNL A   1      43.114  27.528  30.171  1.00  0.00     0.049 A 
ATOM     61  C   UNL A   1      43.679  31.104  34.609  1.00  0.00     0.074 A 
ATOM     62  C   UNL A   1      44.123  28.429  29.866  1.00  0.00     0.029 A 
ATOM     63  N   UNL A   1      43.189  27.307  31.540  1.00  0.00    -0.354 N 
ATOM     64  N   UNL A   1      43.676  30.119  33.755  1.00  0.00    -0.248 NA
ATOM     65  C   UNL A   1      44.438  30.793  35.812  1.00  0.00     0.031 C 
ATOM     66  C   UNL A   1      44.813  28.743  31.063  1.00  0.00     0.029 A 
ATOM     67  C   UNL A   1      44.226  28.037  32.099  1.00  0.00     0.049 A 
ATOM     68  H   UNL A   1      42.587  26.713  32.044  1.00  0.00     0.167 HD
ATOM     69  C   UNL A   1      44.411  29.068  34.241  1.00  0.00     0.074 A 
ATOM     70  C   UNL A   1      44.877  29.553  35.528  1.00  0.00     0.031 C 
ATOM     71  C   UNL A   1      44.554  27.909  33.521  1.00  0.00     0.034 A 
BRANCH  58  72
ATOM     72  C   UNL A   1      41.972  26.332  28.132  1.00  0.00     0.023 A 
ATOM     73  C   UNL A   1      41.916  24.922  28.050  1.00  0.00     0.031 A 
ATOM     74  C   UNL A   1      42.077  27.006  26.892  1.00  0.00     0.131 A 
ATOM     75  C   UNL A   1      41.891  24.262  26.801  1.00  0.00     0.055 A 
ATOM     76  C   UNL A   1      42.087  26.349  25.659  1.00  0.00     0.041 A 
ATOM     77  F   UNL A   1      42.140  28.342  26.813  1.00  0.00    -0.206 F 
ATOM     78  C   UNL A   1      41.981  24.971  25.606  1.00  0.00     0.022 A 
BRANCH  75  79
ATOM     79  S   UNL A   1      41.678  22.462  26.670  1.00  0.00     0.124 S 
ATOM     80  O   UNL A   1      40.225  22.312  26.745  1.00  0.00    -0.237 OA
ATOM     81  O   UNL A   1      42.262  22.166  25.365  1.00  0.00    -0.237 OA
ATOM     82  O   UNL A   1      42.406  21.937  27.821  1.00  0.00    -0.744 OA
ENDBRANCH  75  79
ENDBRANCH  58  72
BRANCH  59  83
ATOM     83  C   UNL A   1      41.868  32.978  35.188  1.00  0.00     0.023 A 
ATOM     84  C   UNL A   1      40.847  32.143  35.667  1.00  0.00     0.031 A 
ATOM     85  C   UNL A   1      41.595  34.362  35.082  1.00  0.00     0.131 A 
ATOM     86  C   UNL A   1      39.557  32.672  35.868  1.00  0.00     0.055 A 
ATOM     87  C   UNL A   1      40.300  34.867  35.225  1.00  0.00     0.041 A 
ATOM     88  F   UNL A   1      42.557  35.211  34.684  1.00  0.00    -0.206 F 
ATOM     89  C   UNL A   1      39.263  34.009  35.573  1.00  0.00     0.022 A 
BRANCH  86  90
ATOM     90  S   UNL A   1      38.213  31.577  36.420  1.00  0.00     0.124 S 
ATOM     91  O   UNL A   1      38.534  30.347  35.701  1.00  0.00    -0.237 OA
ATOM     92  O   UNL A   1      38.395  31.513  37.865  1.00  0.00    -0.237 OA
ATOM     93  O   UNL A   1      37.016  32.283  35.982  1.00  0.00    -0.744 OA
ENDBRANCH  86  90
ENDBRANCH  59  83
BRANCH  71  94
ATOM     94  C   UNL A   1      45.068  26.553  33.988  1.00  0.00     0.023 A 
ATOM     95  C   UNL A   1      46.471  26.319  33.944  1.00  0.00     0.031 A 
ATOM     96  C   UNL A   1      44.300  25.444  34.363  1.00  0.00     0.131 A 
ATOM     97  C   UNL A   1      47.034  25.062  34.189  1.00  0.00     0.055 A 
ATOM     98  C   UNL A   1      44.870  24.204  34.693  1.00  0.00     0.041 A 
ATOM     99  F   UNL A   1      42.965  25.472  34.398  1.00  0.00    -0.206 F 
ATOM    100  C   UNL A   1      46.238  24.001  34.585  1.00  0.00     0.022 A 
BRANCH  97 101
ATOM    101  S   UNL A   1      48.794  24.751  33.874  1.00  0.00     0.124 S 
ATOM    102  O   UNL A   1      49.428  25.603  34.876  1.00  0.00    -0.237 OA
ATOM    103  O   UNL A   1      48.896  23.313  34.122  1.00  0.00    -0.237 OA
ATOM    104  O   UNL A   1      48.980  25.157  32.486  1.00  0.00    -0.744 OA
ENDBRANCH  97 101
ENDBRANCH  71  94
ENDBRANCH  45  46
ENDBRANCH  37  40
ENDBRANCH  35  36
ENDBRANCH  34  35
ENDBRANCH  33  34
ENDBRANCH   1  33
TORSDOF 20
ENDMDL
