MODEL 1
REMARK VINA RESULT:     -11.8      0.000      0.000
REMARK SMILES Cc1c(C)c2cc(Cl)c(O[C@@H](C)C(=O)NCCCCCCNC(=O)c3ccc(-c4c5nc(c(-c6cc(S(=O)(=O)[O-])ccc6F)c6ccc([nH]6)c(-c6cc(S(=O)(=O)[O-])ccc6F)c6nc(c(-c7cc(S(=O)(=O)[O-])ccc7F)c7ccc4[nH]7)C=C6)C=C5)cc3)cc2oc1=O
REMARK SMILES IDX 19 1 18 2 17 3 16 4 15 5 13 6 14 7 11 9 12 10 10 11 9 12
REMARK SMILES IDX 1 13 2 14 3 15 91 16 4 17 5 18 90 19 92 20 6 21 89 22 7 23
REMARK SMILES IDX 88 24 8 25 20 26 21 27 22 28 23 29 24 31 25 32 26 33 87 34
REMARK SMILES IDX 27 35 86 36 28 37 29 38 30 39 80 40 31 41 85 42 79 43 81 44
REMARK SMILES IDX 32 45 84 46 78 47 77 48 33 50 65 51 45 52 64 53 46 54 49 55
REMARK SMILES IDX 63 56 82 57 47 58 48 59 62 61 83 62 50 63 34 64 35 65 43 66
REMARK SMILES IDX 36 67 42 68 44 69 41 70 37 71 38 72 39 73 40 74 66 75 67 76
REMARK SMILES IDX 75 77 68 78 74 79 76 80 73 81 69 82 70 83 71 84 72 85 51 86
REMARK SMILES IDX 52 87 60 88 53 89 59 90 61 91 58 92 54 93 55 94 56 95 57 96
REMARK H PARENT 15 8 22 30 81 49 49 60
REMARK Flexibility Score: inf
ROOT
ATOM      1  C   UNL A   1      31.769  27.804  26.765  1.00  0.00     0.002 C 
ENDROOT
BRANCH   1   2
ATOM      2  C   UNL A   1      33.126  27.145  26.465  1.00  0.00     0.002 C 
BRANCH   2   3
ATOM      3  C   UNL A   1      33.110  25.645  26.127  1.00  0.00     0.021 C 
BRANCH   3   4
ATOM      4  C   UNL A   1      34.469  25.023  25.778  1.00  0.00     0.116 C 
BRANCH   4   5
ATOM      5  N   UNL A   1      34.518  23.611  26.107  1.00  0.00    -0.353 N 
ATOM      6  C   UNL A   1      34.791  22.490  25.385  1.00  0.00     0.260 C 
ATOM      7  O   UNL A   1      34.714  21.427  26.021  1.00  0.00    -0.271 OA
ATOM      8  H   UNL A   1      34.310  23.424  27.051  1.00  0.00     0.163 HD
BRANCH   6   9
ATOM      9  C   UNL A   1      35.253  22.451  23.889  1.00  0.00     0.258 C 
ATOM     10  C   UNL A   1      36.654  23.019  23.665  1.00  0.00     0.064 C 
BRANCH   9  11
ATOM     11  O   UNL A   1      34.381  22.597  22.770  1.00  0.00    -0.479 OA
BRANCH  11  12
ATOM     12  C   UNL A   1      33.419  23.555  22.752  1.00  0.00     0.142 A 
ATOM     13  C   UNL A   1      30.305  29.061  23.803  1.00  0.00     0.052 C 
ATOM     14  C   UNL A   1      31.032  27.883  23.258  1.00  0.00     0.038 A 
ATOM     15  C   UNL A   1      30.525  26.637  23.325  1.00  0.00    -0.030 A 
ATOM     16  C   UNL A   1      32.383  28.181  22.705  1.00  0.00     0.339 A 
ATOM     17  C   UNL A   1      29.156  26.328  23.877  1.00  0.00     0.046 C 
ATOM     18  C   UNL A   1      31.410  25.523  22.961  1.00  0.00     0.023 A 
ATOM     19  O   UNL A   1      33.079  27.118  22.165  1.00  0.00    -0.422 OA
ATOM     20  O   UNL A   1      32.885  29.294  22.749  1.00  0.00    -0.246 OA
ATOM     21  C   UNL A   1      31.112  24.185  23.219  1.00  0.00     0.036 A 
ATOM     22  C   UNL A   1      32.668  25.810  22.442  1.00  0.00     0.142 A 
ATOM     23  C   UNL A   1      32.115  23.211  23.132  1.00  0.00     0.083 A 
ATOM     24  C   UNL A   1      33.650  24.836  22.280  1.00  0.00     0.096 A 
ATOM     25  Cl  UNL A   1      31.704  21.588  23.556  1.00  0.00    -0.080 Cl
ENDBRANCH  11  12
ENDBRANCH   9  11
ENDBRANCH   6   9
ENDBRANCH   4   5
ENDBRANCH   3   4
ENDBRANCH   2   3
ENDBRANCH   1   2
BRANCH   1  26
ATOM     26  C   UNL A   1      31.780  29.267  27.234  1.00  0.00     0.021 C 
BRANCH  26  27
ATOM     27  C   UNL A   1      32.625  30.260  26.422  1.00  0.00     0.116 C 
BRANCH  27  28
ATOM     28  N   UNL A   1      32.521  31.638  26.880  1.00  0.00    -0.352 N 
ATOM     29  C   UNL A   1      33.426  32.392  27.601  1.00  0.00     0.251 C 
ATOM     30  H   UNL A   1      31.685  32.099  26.640  1.00  0.00     0.163 HD
ATOM     31  O   UNL A   1      33.149  33.545  27.915  1.00  0.00    -0.269 OA
BRANCH  29  32
ATOM     32  C   UNL A   1      34.731  31.817  28.009  1.00  0.00     0.039 A 
ATOM     33  C   UNL A   1      34.843  30.467  28.310  1.00  0.00     0.014 A 
ATOM     34  C   UNL A   1      35.871  32.618  28.065  1.00  0.00     0.014 A 
ATOM     35  C   UNL A   1      36.044  29.968  28.847  1.00  0.00     0.010 A 
ATOM     36  C   UNL A   1      37.092  32.088  28.535  1.00  0.00     0.010 A 
ATOM     37  C   UNL A   1      37.187  30.771  29.020  1.00  0.00    -0.014 A 
BRANCH  37  38
ATOM     38  C   UNL A   1      38.419  30.272  29.754  1.00  0.00     0.031 A 
ATOM     39  C   UNL A   1      39.379  29.284  29.098  1.00  0.00     0.074 A 
ATOM     40  C   UNL A   1      38.749  30.706  30.994  1.00  0.00     0.049 A 
ATOM     41  N   UNL A   1      40.382  28.619  29.627  1.00  0.00    -0.248 NA
ATOM     42  C   UNL A   1      39.179  28.996  27.669  1.00  0.00     0.031 C 
ATOM     43  C   UNL A   1      37.995  31.681  31.778  1.00  0.00     0.029 A 
ATOM     44  N   UNL A   1      39.818  30.393  31.814  1.00  0.00    -0.354 N 
ATOM     45  C   UNL A   1      40.874  27.785  28.622  1.00  0.00     0.074 A 
ATOM     46  C   UNL A   1      40.048  28.016  27.458  1.00  0.00     0.031 C 
ATOM     47  C   UNL A   1      38.655  31.944  32.914  1.00  0.00     0.029 A 
ATOM     48  C   UNL A   1      39.811  31.057  33.023  1.00  0.00     0.049 A 
ATOM     49  H   UNL A   1      40.522  29.753  31.557  1.00  0.00     0.167 HD
ATOM     50  C   UNL A   1      41.923  26.922  28.651  1.00  0.00     0.034 A 
ATOM     51  C   UNL A   1      40.592  30.951  34.123  1.00  0.00     0.034 A 
ATOM     52  C   UNL A   1      42.824  26.761  29.768  1.00  0.00     0.049 A 
ATOM     53  C   UNL A   1      41.730  29.961  34.153  1.00  0.00     0.074 A 
ATOM     54  C   UNL A   1      43.943  25.945  29.845  1.00  0.00     0.029 A 
ATOM     55  N   UNL A   1      42.743  27.431  30.977  1.00  0.00    -0.354 N 
ATOM     56  N   UNL A   1      42.157  29.169  33.200  1.00  0.00    -0.248 NA
ATOM     57  C   UNL A   1      42.486  29.839  35.410  1.00  0.00     0.031 C 
ATOM     58  C   UNL A   1      44.491  26.063  31.121  1.00  0.00     0.029 A 
ATOM     59  C   UNL A   1      43.772  27.021  31.815  1.00  0.00     0.049 A 
ATOM     60  H   UNL A   1      42.057  28.098  31.208  1.00  0.00     0.167 HD
ATOM     61  C   UNL A   1      43.239  28.471  33.736  1.00  0.00     0.074 A 
ATOM     62  C   UNL A   1      43.423  28.957  35.085  1.00  0.00     0.031 C 
ATOM     63  C   UNL A   1      43.997  27.509  33.154  1.00  0.00     0.034 A 
BRANCH  50  64
ATOM     64  C   UNL A   1      42.206  26.061  27.435  1.00  0.00     0.023 A 
ATOM     65  C   UNL A   1      41.773  24.718  27.419  1.00  0.00     0.031 A 
ATOM     66  C   UNL A   1      43.037  26.498  26.389  1.00  0.00     0.131 A 
ATOM     67  C   UNL A   1      42.213  23.852  26.409  1.00  0.00     0.055 A 
ATOM     68  C   UNL A   1      43.426  25.645  25.354  1.00  0.00     0.041 A 
ATOM     69  F   UNL A   1      43.491  27.762  26.361  1.00  0.00    -0.206 F 
ATOM     70  C   UNL A   1      43.028  24.311  25.370  1.00  0.00     0.022 A 
BRANCH  67  71
ATOM     71  S   UNL A   1      41.829  22.077  26.457  1.00  0.00     0.124 S 
ATOM     72  O   UNL A   1      42.665  21.562  25.374  1.00  0.00    -0.237 OA
ATOM     73  O   UNL A   1      42.257  21.708  27.802  1.00  0.00    -0.237 OA
ATOM     74  O   UNL A   1      40.392  22.021  26.212  1.00  0.00    -0.744 OA
ENDBRANCH  67  71
ENDBRANCH  50  64
BRANCH  51  75
ATOM     75  C   UNL A   1      40.301  31.820  35.308  1.00  0.00     0.023 A 
ATOM     76  C   UNL A   1      39.375  31.419  36.289  1.00  0.00     0.031 A 
ATOM     77  C   UNL A   1      40.865  33.103  35.423  1.00  0.00     0.131 A 
ATOM     78  C   UNL A   1      38.960  32.327  37.271  1.00  0.00     0.055 A 
ATOM     79  C   UNL A   1      40.520  33.970  36.463  1.00  0.00     0.041 A 
ATOM     80  F   UNL A   1      41.754  33.535  34.516  1.00  0.00    -0.206 F 
ATOM     81  C   UNL A   1      39.543  33.593  37.379  1.00  0.00     0.022 A 
BRANCH  78  82
ATOM     82  S   UNL A   1      37.533  31.955  38.328  1.00  0.00     0.124 S 
ATOM     83  O   UNL A   1      38.079  32.163  39.665  1.00  0.00    -0.237 OA
ATOM     84  O   UNL A   1      36.565  32.954  37.877  1.00  0.00    -0.237 OA
ATOM     85  O   UNL A   1      37.201  30.576  37.987  1.00  0.00    -0.744 OA
ENDBRANCH  78  82
ENDBRANCH  51  75
BRANCH  63  86
ATOM     86  C   UNL A   1      45.138  26.889  33.931  1.00  0.00     0.023 A 
ATOM     87  C   UNL A   1      44.914  25.740  34.716  1.00  0.00     0.031 A 
ATOM     88  C   UNL A   1      46.389  27.520  34.031  1.00  0.00     0.131 A 
ATOM     89  C   UNL A   1      45.902  25.292  35.603  1.00  0.00     0.055 A 
ATOM     90  C   UNL A   1      47.392  27.038  34.876  1.00  0.00     0.041 A 
ATOM     91  F   UNL A   1      46.655  28.625  33.314  1.00  0.00    -0.206 F 
ATOM     92  C   UNL A   1      47.144  25.929  35.681  1.00  0.00     0.022 A 
BRANCH  89  93
ATOM     93  S   UNL A   1      45.580  23.930  36.759  1.00  0.00     0.124 S 
ATOM     94  O   UNL A   1      44.810  24.597  37.807  1.00  0.00    -0.237 OA
ATOM     95  O   UNL A   1      44.822  22.997  35.929  1.00  0.00    -0.237 OA
ATOM     96  O   UNL A   1      46.909  23.481  37.156  1.00  0.00    -0.744 OA
ENDBRANCH  89  93
ENDBRANCH  63  86
ENDBRANCH  37  38
ENDBRANCH  29  32
ENDBRANCH  27  28
ENDBRANCH  26  27
ENDBRANCH   1  26
TORSDOF 18
ENDMDL
MODEL 2
REMARK VINA RESULT:     -11.3      1.996      2.466
REMARK SMILES Cc1c(C)c2cc(Cl)c(O[C@@H](C)C(=O)NCCCCCCNC(=O)c3ccc(-c4c5nc(c(-c6cc(S(=O)(=O)[O-])ccc6F)c6ccc([nH]6)c(-c6cc(S(=O)(=O)[O-])ccc6F)c6nc(c(-c7cc(S(=O)(=O)[O-])ccc7F)c7ccc4[nH]7)C=C6)C=C5)cc3)cc2oc1=O
REMARK SMILES IDX 19 1 18 2 17 3 16 4 15 5 13 6 14 7 11 9 12 10 10 11 9 12
REMARK SMILES IDX 1 13 2 14 3 15 91 16 4 17 5 18 90 19 92 20 6 21 89 22 7 23
REMARK SMILES IDX 88 24 8 25 20 26 21 27 22 28 23 29 24 31 25 32 26 33 87 34
REMARK SMILES IDX 27 35 86 36 28 37 29 38 30 39 80 40 31 41 85 42 79 43 81 44
REMARK SMILES IDX 32 45 84 46 78 47 77 48 33 50 65 51 45 52 64 53 46 54 49 55
REMARK SMILES IDX 63 56 82 57 47 58 48 59 62 61 83 62 50 63 34 64 35 65 43 66
REMARK SMILES IDX 36 67 42 68 44 69 41 70 37 71 38 72 39 73 40 74 66 75 67 76
REMARK SMILES IDX 75 77 68 78 74 79 76 80 73 81 69 82 70 83 71 84 72 85 51 86
REMARK SMILES IDX 52 87 60 88 53 89 59 90 61 91 58 92 54 93 55 94 56 95 57 96
REMARK H PARENT 15 8 22 30 81 49 49 60
REMARK Flexibility Score: inf
ROOT
ATOM      1  C   UNL A   1      31.483  28.327  26.135  1.00  0.00     0.002 C 
ENDROOT
BRANCH   1   2
ATOM      2  C   UNL A   1      31.854  26.860  26.413  1.00  0.00     0.002 C 
BRANCH   2   3
ATOM      3  C   UNL A   1      33.292  26.433  26.079  1.00  0.00     0.021 C 
BRANCH   3   4
ATOM      4  C   UNL A   1      33.511  24.929  25.863  1.00  0.00     0.116 C 
BRANCH   4   5
ATOM      5  N   UNL A   1      32.387  24.145  26.338  1.00  0.00    -0.353 N 
ATOM      6  C   UNL A   1      31.551  23.250  25.745  1.00  0.00     0.260 C 
ATOM      7  O   UNL A   1      30.670  22.786  26.486  1.00  0.00    -0.271 OA
ATOM      8  H   UNL A   1      32.186  24.291  27.292  1.00  0.00     0.163 HD
BRANCH   6   9
ATOM      9  C   UNL A   1      31.663  22.726  24.273  1.00  0.00     0.258 C 
ATOM     10  C   UNL A   1      32.966  21.980  23.986  1.00  0.00     0.064 C 
BRANCH   9  11
ATOM     11  O   UNL A   1      31.107  23.384  23.137  1.00  0.00    -0.479 OA
BRANCH  11  12
ATOM     12  C   UNL A   1      30.816  24.710  23.167  1.00  0.00     0.142 A 
ATOM     13  C   UNL A   1      27.746  30.279  22.339  1.00  0.00     0.052 C 
ATOM     14  C   UNL A   1      28.401  29.039  22.838  1.00  0.00     0.038 A 
ATOM     15  C   UNL A   1      29.713  28.798  22.649  1.00  0.00    -0.030 A 
ATOM     16  C   UNL A   1      27.482  28.065  23.492  1.00  0.00     0.339 A 
ATOM     17  C   UNL A   1      30.649  29.782  21.994  1.00  0.00     0.046 C 
ATOM     18  C   UNL A   1      30.212  27.459  22.982  1.00  0.00     0.023 A 
ATOM     19  O   UNL A   1      28.057  26.915  23.993  1.00  0.00    -0.422 OA
ATOM     20  O   UNL A   1      26.276  28.238  23.561  1.00  0.00    -0.246 OA
ATOM     21  C   UNL A   1      31.472  26.990  22.609  1.00  0.00     0.036 A 
ATOM     22  C   UNL A   1      29.350  26.557  23.596  1.00  0.00     0.142 A 
ATOM     23  C   UNL A   1      31.764  25.622  22.684  1.00  0.00     0.083 A 
ATOM     24  C   UNL A   1      29.660  25.207  23.745  1.00  0.00     0.096 A 
ATOM     25  Cl  UNL A   1      33.309  25.094  22.118  1.00  0.00    -0.080 Cl
ENDBRANCH  11  12
ENDBRANCH   9  11
ENDBRANCH   6   9
ENDBRANCH   4   5
ENDBRANCH   3   4
ENDBRANCH   2   3
ENDBRANCH   1   2
BRANCH   1  26
ATOM     26  C   UNL A   1      32.071  29.397  27.068  1.00  0.00     0.021 C 
BRANCH  26  27
ATOM     27  C   UNL A   1      32.986  30.455  26.436  1.00  0.00     0.116 C 
BRANCH  27  28
ATOM     28  N   UNL A   1      32.883  31.771  27.051  1.00  0.00    -0.352 N 
ATOM     29  C   UNL A   1      33.785  32.429  27.864  1.00  0.00     0.251 C 
ATOM     30  H   UNL A   1      32.052  32.261  26.860  1.00  0.00     0.163 HD
ATOM     31  O   UNL A   1      33.509  33.539  28.310  1.00  0.00    -0.269 OA
BRANCH  29  32
ATOM     32  C   UNL A   1      35.083  31.804  28.213  1.00  0.00     0.039 A 
ATOM     33  C   UNL A   1      35.143  30.472  28.598  1.00  0.00     0.014 A 
ATOM     34  C   UNL A   1      36.267  32.536  28.130  1.00  0.00     0.014 A 
ATOM     35  C   UNL A   1      36.352  29.936  29.078  1.00  0.00     0.010 A 
ATOM     36  C   UNL A   1      37.489  31.963  28.543  1.00  0.00     0.010 A 
ATOM     37  C   UNL A   1      37.548  30.678  29.110  1.00  0.00    -0.014 A 
BRANCH  37  38
ATOM     38  C   UNL A   1      38.804  30.153  29.784  1.00  0.00     0.031 A 
ATOM     39  C   UNL A   1      39.710  29.145  29.083  1.00  0.00     0.074 A 
ATOM     40  C   UNL A   1      39.203  30.581  31.006  1.00  0.00     0.049 A 
ATOM     41  N   UNL A   1      40.723  28.459  29.563  1.00  0.00    -0.248 NA
ATOM     42  C   UNL A   1      39.434  28.861  27.666  1.00  0.00     0.031 C 
ATOM     43  C   UNL A   1      38.510  31.571  31.825  1.00  0.00     0.029 A 
ATOM     44  N   UNL A   1      40.304  30.245  31.773  1.00  0.00    -0.354 N 
ATOM     45  C   UNL A   1      41.148  27.614  28.536  1.00  0.00     0.074 A 
ATOM     46  C   UNL A   1      40.271  27.863  27.414  1.00  0.00     0.031 C 
ATOM     47  C   UNL A   1      39.230  31.821  32.926  1.00  0.00     0.029 A 
ATOM     48  C   UNL A   1      40.370  30.910  32.979  1.00  0.00     0.049 A 
ATOM     49  H   UNL A   1      40.981  29.591  31.483  1.00  0.00     0.167 HD
ATOM     50  C   UNL A   1      42.179  26.730  28.514  1.00  0.00     0.034 A 
ATOM     51  C   UNL A   1      41.202  30.787  34.041  1.00  0.00     0.034 A 
ATOM     52  C   UNL A   1      43.129  26.550  29.586  1.00  0.00     0.049 A 
ATOM     53  C   UNL A   1      42.319  29.773  34.015  1.00  0.00     0.074 A 
ATOM     54  C   UNL A   1      44.234  25.711  29.610  1.00  0.00     0.029 A 
ATOM     55  N   UNL A   1      43.122  27.222  30.797  1.00  0.00    -0.354 N 
ATOM     56  N   UNL A   1      42.682  28.973  33.044  1.00  0.00    -0.248 NA
ATOM     57  C   UNL A   1      43.133  29.636  35.235  1.00  0.00     0.031 C 
ATOM     58  C   UNL A   1      44.846  25.818  30.858  1.00  0.00     0.029 A 
ATOM     59  C   UNL A   1      44.182  26.791  31.584  1.00  0.00     0.049 A 
ATOM     60  H   UNL A   1      42.462  27.903  31.061  1.00  0.00     0.167 HD
ATOM     61  C   UNL A   1      43.774  28.253  33.527  1.00  0.00     0.074 A 
ATOM     62  C   UNL A   1      44.034  28.735  34.865  1.00  0.00     0.031 C 
ATOM     63  C   UNL A   1      44.482  27.274  32.910  1.00  0.00     0.034 A 
BRANCH  50  64
ATOM     64  C   UNL A   1      42.383  25.863  27.287  1.00  0.00     0.023 A 
ATOM     65  C   UNL A   1      41.916  24.531  27.292  1.00  0.00     0.031 A 
ATOM     66  C   UNL A   1      43.177  26.279  26.204  1.00  0.00     0.131 A 
ATOM     67  C   UNL A   1      42.287  23.655  26.264  1.00  0.00     0.055 A 
ATOM     68  C   UNL A   1      43.496  25.417  25.153  1.00  0.00     0.041 A 
ATOM     69  F   UNL A   1      43.661  27.531  26.155  1.00  0.00    -0.206 F 
ATOM     70  C   UNL A   1      43.065  24.094  25.188  1.00  0.00     0.022 A 
BRANCH  67  71
ATOM     71  S   UNL A   1      41.861  21.891  26.329  1.00  0.00     0.124 S 
ATOM     72  O   UNL A   1      42.739  21.333  25.302  1.00  0.00    -0.237 OA
ATOM     73  O   UNL A   1      42.211  21.543  27.703  1.00  0.00    -0.237 OA
ATOM     74  O   UNL A   1      40.437  21.860  26.013  1.00  0.00    -0.744 OA
ENDBRANCH  67  71
ENDBRANCH  50  64
BRANCH  51  75
ATOM     75  C   UNL A   1      40.988  31.663  35.237  1.00  0.00     0.023 A 
ATOM     76  C   UNL A   1      39.899  31.450  36.103  1.00  0.00     0.031 A 
ATOM     77  C   UNL A   1      41.805  32.783  35.473  1.00  0.00     0.131 A 
ATOM     78  C   UNL A   1      39.594  32.397  37.087  1.00  0.00     0.055 A 
ATOM     79  C   UNL A   1      41.553  33.672  36.520  1.00  0.00     0.041 A 
ATOM     80  F   UNL A   1      42.858  33.031  34.679  1.00  0.00    -0.206 F 
ATOM     81  C   UNL A   1      40.427  33.496  37.317  1.00  0.00     0.022 A 
BRANCH  78  82
ATOM     82  S   UNL A   1      38.017  32.324  37.982  1.00  0.00     0.124 S 
ATOM     83  O   UNL A   1      37.488  31.029  37.565  1.00  0.00    -0.237 OA
ATOM     84  O   UNL A   1      38.463  32.406  39.372  1.00  0.00    -0.237 OA
ATOM     85  O   UNL A   1      37.289  33.491  37.496  1.00  0.00    -0.744 OA
ENDBRANCH  78  82
ENDBRANCH  51  75
BRANCH  63  86
ATOM     86  C   UNL A   1      45.647  26.631  33.631  1.00  0.00     0.023 A 
ATOM     87  C   UNL A   1      46.963  27.068  33.375  1.00  0.00     0.031 A 
ATOM     88  C   UNL A   1      45.477  25.490  34.433  1.00  0.00     0.131 A 
ATOM     89  C   UNL A   1      48.053  26.339  33.869  1.00  0.00     0.055 A 
ATOM     90  C   UNL A   1      46.566  24.798  34.968  1.00  0.00     0.041 A 
ATOM     91  F   UNL A   1      44.247  25.022  34.701  1.00  0.00    -0.206 F 
ATOM     92  C   UNL A   1      47.862  25.211  34.672  1.00  0.00     0.022 A 
BRANCH  89  93
ATOM     93  S   UNL A   1      49.756  26.768  33.406  1.00  0.00     0.124 S 
ATOM     94  O   UNL A   1      50.536  25.917  34.303  1.00  0.00    -0.237 OA
ATOM     95  O   UNL A   1      49.795  26.388  31.996  1.00  0.00    -0.237 OA
ATOM     96  O   UNL A   1      49.845  28.198  33.675  1.00  0.00    -0.744 OA
ENDBRANCH  89  93
ENDBRANCH  63  86
ENDBRANCH  37  38
ENDBRANCH  29  32
ENDBRANCH  27  28
ENDBRANCH  26  27
ENDBRANCH   1  26
TORSDOF 18
ENDMDL
MODEL 3
REMARK VINA RESULT:     -11.1      4.902      9.955
REMARK SMILES Cc1c(C)c2cc(Cl)c(O[C@@H](C)C(=O)NCCCCCCNC(=O)c3ccc(-c4c5nc(c(-c6cc(S(=O)(=O)[O-])ccc6F)c6ccc([nH]6)c(-c6cc(S(=O)(=O)[O-])ccc6F)c6nc(c(-c7cc(S(=O)(=O)[O-])ccc7F)c7ccc4[nH]7)C=C6)C=C5)cc3)cc2oc1=O
REMARK SMILES IDX 19 1 18 2 17 3 16 4 15 5 13 6 14 7 11 9 12 10 10 11 9 12
REMARK SMILES IDX 1 13 2 14 3 15 91 16 4 17 5 18 90 19 92 20 6 21 89 22 7 23
REMARK SMILES IDX 88 24 8 25 20 26 21 27 22 28 23 29 24 31 25 32 26 33 87 34
REMARK SMILES IDX 27 35 86 36 28 37 29 38 30 39 80 40 31 41 85 42 79 43 81 44
REMARK SMILES IDX 32 45 84 46 78 47 77 48 33 50 65 51 45 52 64 53 46 54 49 55
REMARK SMILES IDX 63 56 82 57 47 58 48 59 62 61 83 62 50 63 34 64 35 65 43 66
REMARK SMILES IDX 36 67 42 68 44 69 41 70 37 71 38 72 39 73 40 74 66 75 67 76
REMARK SMILES IDX 75 77 68 78 74 79 76 80 73 81 69 82 70 83 71 84 72 85 51 86
REMARK SMILES IDX 52 87 60 88 53 89 59 90 61 91 58 92 54 93 55 94 56 95 57 96
REMARK H PARENT 15 8 22 30 81 49 49 60
REMARK Flexibility Score: inf
ROOT
ATOM      1  C   UNL A   1      35.656  24.279  24.759  1.00  0.00     0.002 C 
ENDROOT
BRANCH   1   2
ATOM      2  C   UNL A   1      34.591  24.898  23.838  1.00  0.00     0.002 C 
BRANCH   2   3
ATOM      3  C   UNL A   1      34.050  26.281  24.235  1.00  0.00     0.021 C 
BRANCH   3   4
ATOM      4  C   UNL A   1      33.150  26.970  23.200  1.00  0.00     0.116 C 
BRANCH   4   5
ATOM      5  N   UNL A   1      32.424  28.088  23.772  1.00  0.00    -0.353 N 
ATOM      6  C   UNL A   1      31.101  28.371  23.918  1.00  0.00     0.260 C 
ATOM      7  O   UNL A   1      30.856  29.463  24.453  1.00  0.00    -0.271 OA
ATOM      8  H   UNL A   1      33.013  28.791  24.132  1.00  0.00     0.163 HD
BRANCH   6   9
ATOM      9  C   UNL A   1      29.913  27.421  23.542  1.00  0.00     0.258 C 
ATOM     10  C   UNL A   1      28.760  28.133  22.836  1.00  0.00     0.064 C 
BRANCH   9  11
ATOM     11  O   UNL A   1      29.515  26.284  24.305  1.00  0.00    -0.479 OA
BRANCH  11  12
ATOM     12  C   UNL A   1      30.413  25.333  24.666  1.00  0.00     0.142 A 
ATOM     13  C   UNL A   1      33.103  19.614  25.756  1.00  0.00     0.052 C 
ATOM     14  C   UNL A   1      32.701  20.966  25.280  1.00  0.00     0.038 A 
ATOM     15  C   UNL A   1      32.734  22.046  26.083  1.00  0.00    -0.030 A 
ATOM     16  C   UNL A   1      32.197  21.012  23.878  1.00  0.00     0.339 A 
ATOM     17  C   UNL A   1      33.249  22.008  27.500  1.00  0.00     0.046 C 
ATOM     18  C   UNL A   1      32.115  23.281  25.588  1.00  0.00     0.023 A 
ATOM     19  O   UNL A   1      31.841  22.253  23.390  1.00  0.00    -0.422 OA
ATOM     20  O   UNL A   1      32.063  20.012  23.190  1.00  0.00    -0.246 OA
ATOM     21  C   UNL A   1      31.851  24.389  26.393  1.00  0.00     0.036 A 
ATOM     22  C   UNL A   1      31.650  23.317  24.277  1.00  0.00     0.142 A 
ATOM     23  C   UNL A   1      30.991  25.399  25.941  1.00  0.00     0.083 A 
ATOM     24  C   UNL A   1      30.856  24.354  23.793  1.00  0.00     0.096 A 
ATOM     25  Cl  UNL A   1      30.631  26.697  27.023  1.00  0.00    -0.080 Cl
ENDBRANCH  11  12
ENDBRANCH   9  11
ENDBRANCH   6   9
ENDBRANCH   4   5
ENDBRANCH   3   4
ENDBRANCH   2   3
ENDBRANCH   1   2
BRANCH   1  26
ATOM     26  C   UNL A   1      36.008  22.798  24.541  1.00  0.00     0.021 C 
BRANCH  26  27
ATOM     27  C   UNL A   1      36.419  21.985  25.777  1.00  0.00     0.116 C 
BRANCH  27  28
ATOM     28  N   UNL A   1      37.543  21.087  25.547  1.00  0.00    -0.352 N 
ATOM     29  C   UNL A   1      38.881  21.271  25.833  1.00  0.00     0.251 C 
ATOM     30  H   UNL A   1      37.315  20.226  25.130  1.00  0.00     0.163 HD
ATOM     31  O   UNL A   1      39.694  20.397  25.543  1.00  0.00    -0.269 OA
BRANCH  29  32
ATOM     32  C   UNL A   1      39.351  22.520  26.479  1.00  0.00     0.039 A 
ATOM     33  C   UNL A   1      38.785  23.743  26.144  1.00  0.00     0.014 A 
ATOM     34  C   UNL A   1      40.346  22.482  27.455  1.00  0.00     0.014 A 
ATOM     35  C   UNL A   1      39.345  24.933  26.644  1.00  0.00     0.010 A 
ATOM     36  C   UNL A   1      40.849  23.680  28.006  1.00  0.00     0.010 A 
ATOM     37  C   UNL A   1      40.422  24.940  27.550  1.00  0.00    -0.014 A 
BRANCH  37  38
ATOM     38  C   UNL A   1      41.130  26.222  27.951  1.00  0.00     0.031 A 
ATOM     39  C   UNL A   1      40.412  27.293  28.768  1.00  0.00     0.074 A 
ATOM     40  C   UNL A   1      42.428  26.459  27.647  1.00  0.00     0.049 A 
ATOM     41  N   UNL A   1      40.794  28.517  29.056  1.00  0.00    -0.248 NA
ATOM     42  C   UNL A   1      39.093  26.950  29.322  1.00  0.00     0.031 C 
ATOM     43  C   UNL A   1      43.306  25.550  26.915  1.00  0.00     0.029 A 
ATOM     44  N   UNL A   1      43.247  27.537  27.930  1.00  0.00    -0.354 N 
ATOM     45  C   UNL A   1      39.735  29.106  29.750  1.00  0.00     0.074 A 
ATOM     46  C   UNL A   1      38.690  28.110  29.823  1.00  0.00     0.031 C 
ATOM     47  C   UNL A   1      44.543  26.062  26.875  1.00  0.00     0.029 A 
ATOM     48  C   UNL A   1      44.533  27.405  27.449  1.00  0.00     0.049 A 
ATOM     49  H   UNL A   1      42.940  28.329  28.429  1.00  0.00     0.167 HD
ATOM     50  C   UNL A   1      39.641  30.348  30.293  1.00  0.00     0.034 A 
ATOM     51  C   UNL A   1      45.583  28.260  27.413  1.00  0.00     0.034 A 
ATOM     52  C   UNL A   1      40.714  31.314  30.324  1.00  0.00     0.049 A 
ATOM     53  C   UNL A   1      45.450  29.648  27.987  1.00  0.00     0.074 A 
ATOM     54  C   UNL A   1      40.707  32.572  30.909  1.00  0.00     0.029 A 
ATOM     55  N   UNL A   1      41.978  31.138  29.789  1.00  0.00    -0.354 N 
ATOM     56  N   UNL A   1      44.432  30.186  28.614  1.00  0.00    -0.248 NA
ATOM     57  C   UNL A   1      46.602  30.553  27.840  1.00  0.00     0.031 C 
ATOM     58  C   UNL A   1      41.934  33.183  30.661  1.00  0.00     0.029 A 
ATOM     59  C   UNL A   1      42.745  32.277  30.001  1.00  0.00     0.049 A 
ATOM     60  H   UNL A   1      42.288  30.327  29.325  1.00  0.00     0.167 HD
ATOM     61  C   UNL A   1      44.828  31.480  28.950  1.00  0.00     0.074 A 
ATOM     62  C   UNL A   1      46.189  31.635  28.487  1.00  0.00     0.031 C 
ATOM     63  C   UNL A   1      44.113  32.448  29.576  1.00  0.00     0.034 A 
BRANCH  50  64
ATOM     64  C   UNL A   1      38.336  30.778  30.933  1.00  0.00     0.023 A 
ATOM     65  C   UNL A   1      37.412  31.539  30.184  1.00  0.00     0.031 A 
ATOM     66  C   UNL A   1      38.082  30.597  32.303  1.00  0.00     0.131 A 
ATOM     67  C   UNL A   1      36.311  32.128  30.819  1.00  0.00     0.055 A 
ATOM     68  C   UNL A   1      36.951  31.139  32.919  1.00  0.00     0.041 A 
ATOM     69  F   UNL A   1      38.934  29.895  33.068  1.00  0.00    -0.206 F 
ATOM     70  C   UNL A   1      36.069  31.923  32.180  1.00  0.00     0.022 A 
BRANCH  67  71
ATOM     71  S   UNL A   1      35.207  33.263  29.930  1.00  0.00     0.124 S 
ATOM     72  O   UNL A   1      36.143  33.968  29.056  1.00  0.00    -0.237 OA
ATOM     73  O   UNL A   1      34.300  32.341  29.256  1.00  0.00    -0.237 OA
ATOM     74  O   UNL A   1      34.612  34.075  30.987  1.00  0.00    -0.744 OA
ENDBRANCH  67  71
ENDBRANCH  50  64
BRANCH  51  75
ATOM     75  C   UNL A   1      46.866  27.808  26.787  1.00  0.00     0.023 A 
ATOM     76  C   UNL A   1      47.125  28.039  25.423  1.00  0.00     0.031 A 
ATOM     77  C   UNL A   1      47.803  27.053  27.515  1.00  0.00     0.131 A 
ATOM     78  C   UNL A   1      48.227  27.431  24.809  1.00  0.00     0.055 A 
ATOM     79  C   UNL A   1      48.953  26.530  26.918  1.00  0.00     0.041 A 
ATOM     80  F   UNL A   1      47.606  26.805  28.818  1.00  0.00    -0.206 F 
ATOM     81  C   UNL A   1      49.156  26.696  25.551  1.00  0.00     0.022 A 
BRANCH  78  82
ATOM     82  S   UNL A   1      48.392  27.431  23.001  1.00  0.00     0.124 S 
ATOM     83  O   UNL A   1      48.329  26.008  22.688  1.00  0.00    -0.237 OA
ATOM     84  O   UNL A   1      47.228  28.219  22.600  1.00  0.00    -0.237 OA
ATOM     85  O   UNL A   1      49.682  28.074  22.773  1.00  0.00    -0.744 OA
ENDBRANCH  78  82
ENDBRANCH  51  75
BRANCH  63  86
ATOM     86  C   UNL A   1      44.757  33.791  29.848  1.00  0.00     0.023 A 
ATOM     87  C   UNL A   1      44.647  34.828  28.900  1.00  0.00     0.031 A 
ATOM     88  C   UNL A   1      45.608  33.990  30.947  1.00  0.00     0.131 A 
ATOM     89  C   UNL A   1      45.416  35.992  29.041  1.00  0.00     0.055 A 
ATOM     90  C   UNL A   1      46.331  35.175  31.112  1.00  0.00     0.041 A 
ATOM     91  F   UNL A   1      45.760  33.032  31.875  1.00  0.00    -0.206 F 
ATOM     92  C   UNL A   1      46.251  36.175  30.147  1.00  0.00     0.022 A 
BRANCH  89  93
ATOM     93  S   UNL A   1      45.438  37.266  27.748  1.00  0.00     0.124 S 
ATOM     94  O   UNL A   1      45.813  38.459  28.504  1.00  0.00    -0.237 OA
ATOM     95  O   UNL A   1      46.460  36.760  26.835  1.00  0.00    -0.237 OA
ATOM     96  O   UNL A   1      44.075  37.265  27.228  1.00  0.00    -0.744 OA
ENDBRANCH  89  93
ENDBRANCH  63  86
ENDBRANCH  37  38
ENDBRANCH  29  32
ENDBRANCH  27  28
ENDBRANCH  26  27
ENDBRANCH   1  26
TORSDOF 18
ENDMDL
