MODEL 1
REMARK VINA RESULT:     -11.7      0.000      0.000
REMARK SMILES CCOc1ccc(-c2cc(Cl)cc3c2O[C@H](C(F)(F)F)C(C(=O)NCCCCCCNC(=O)c2ccc(-c4c5nc(c(-c6cc(S(=O)(=O)[O-])ccc6F)c6ccc([nH]6)c(-c6cc(S(=O)(=O)[O-])ccc6F)c6nc(c(-c7cc(S(=O)(=O)[O-])ccc7F)c7ccc4[nH]7)C=C6)C=C5)cc2)=C3)cc1
REMARK SMILES IDX 27 1 26 2 25 3 24 4 22 5 23 6 21 8 8 9 9 10 14 11 10 12
REMARK SMILES IDX 13 13 15 14 11 15 12 16 97 17 16 18 7 19 4 20 5 21 99 22
REMARK SMILES IDX 6 23 98 24 3 25 2 26 1 27 17 28 18 29 19 30 20 31 28 32
REMARK SMILES IDX 29 33 30 34 31 35 32 36 33 38 34 39 35 40 96 41 36 42 95 43
REMARK SMILES IDX 37 44 38 45 39 46 89 47 40 48 94 49 88 50 90 51 41 52 93 53
REMARK SMILES IDX 87 54 86 55 42 57 74 58 54 59 73 60 55 61 58 62 72 63 91 64
REMARK SMILES IDX 56 65 57 66 71 68 92 69 59 70 43 71 44 72 52 73 45 74 51 75
REMARK SMILES IDX 53 76 50 77 46 78 47 79 48 80 49 81 75 82 76 83 84 84 77 85
REMARK SMILES IDX 83 86 85 87 82 88 78 89 79 90 80 91 81 92 60 93 61 94 69 95
REMARK SMILES IDX 62 96 68 97 70 98 67 99 63 100 64 101 65 102 66 103
REMARK H PARENT 24 7 31 37 90 56 58 67
REMARK Flexibility Score: inf
ROOT
ATOM      1  C   UNL A   1      30.820  30.416  24.927  1.00  0.00     0.002 C 
ENDROOT
BRANCH   1   2
ATOM      2  C   UNL A   1      31.827  29.491  25.632  1.00  0.00     0.021 C 
BRANCH   2   3
ATOM      3  C   UNL A   1      33.115  29.221  24.840  1.00  0.00     0.116 C 
BRANCH   3   4
ATOM      4  N   UNL A   1      33.746  28.012  25.331  1.00  0.00    -0.352 N 
ATOM      5  C   UNL A   1      33.113  26.823  25.490  1.00  0.00     0.251 C 
ATOM      6  O   UNL A   1      33.180  26.219  26.555  1.00  0.00    -0.270 OA
ATOM      7  H   UNL A   1      34.702  28.057  25.565  1.00  0.00     0.163 HD
BRANCH   5   8
ATOM      8  C   UNL A   1      32.494  26.238  24.263  1.00  0.00     0.067 C 
ATOM      9  C   UNL A   1      33.641  22.368  24.772  1.00  0.00     0.026 A 
ATOM     10  C   UNL A   1      35.012  22.363  25.127  1.00  0.00     0.033 A 
ATOM     11  C   UNL A   1      33.126  23.578  24.276  1.00  0.00     0.135 A 
ATOM     12  C   UNL A   1      35.858  23.437  24.850  1.00  0.00     0.042 A 
ATOM     13  C   UNL A   1      34.017  24.611  23.897  1.00  0.00     0.019 A 
ATOM     14  O   UNL A   1      31.765  23.826  24.173  1.00  0.00    -0.475 OA
ATOM     15  Cl  UNL A   1      37.509  23.364  25.322  1.00  0.00    -0.084 Cl
ATOM     16  C   UNL A   1      35.380  24.542  24.171  1.00  0.00     0.032 A 
ATOM     17  C   UNL A   1      33.430  25.862  23.369  1.00  0.00     0.025 C 
ATOM     18  C   UNL A   1      31.394  25.220  24.546  1.00  0.00     0.314 C 
BRANCH   9  19
ATOM     19  C   UNL A   1      32.979  21.042  24.748  1.00  0.00    -0.014 A 
ATOM     20  C   UNL A   1      32.655  18.252  24.416  1.00  0.00     0.119 A 
ATOM     21  C   UNL A   1      32.906  18.778  25.680  1.00  0.00     0.047 A 
ATOM     22  C   UNL A   1      32.433  19.114  23.347  1.00  0.00     0.047 A 
ATOM     23  C   UNL A   1      33.059  20.163  25.847  1.00  0.00     0.013 A 
ATOM     24  C   UNL A   1      32.590  20.497  23.513  1.00  0.00     0.013 A 
BRANCH  20  25
ATOM     25  O   UNL A   1      32.558  16.895  24.291  1.00  0.00    -0.494 OA
BRANCH  25  26
ATOM     26  C   UNL A   1      33.117  16.164  25.395  1.00  0.00     0.226 C 
ATOM     27  C   UNL A   1      32.385  14.848  25.613  1.00  0.00     0.049 C 
ENDBRANCH  25  26
ENDBRANCH  20  25
ENDBRANCH   9  19
BRANCH  18  28
ATOM     28  C   UNL A   1      30.103  25.676  23.833  1.00  0.00     0.429 C 
ATOM     29  F   UNL A   1      29.557  24.699  23.075  1.00  0.00    -0.167 F 
ATOM     30  F   UNL A   1      29.167  26.078  24.726  1.00  0.00    -0.167 F 
ATOM     31  F   UNL A   1      30.317  26.733  23.006  1.00  0.00    -0.167 F 
ENDBRANCH  18  28
ENDBRANCH   5   8
ENDBRANCH   3   4
ENDBRANCH   2   3
ENDBRANCH   1   2
BRANCH   1  32
ATOM     32  C   UNL A   1      30.740  31.835  25.494  1.00  0.00     0.002 C 
BRANCH  32  33
ATOM     33  C   UNL A   1      31.356  31.999  26.883  1.00  0.00     0.021 C 
BRANCH  33  34
ATOM     34  C   UNL A   1      32.633  32.833  26.918  1.00  0.00     0.116 C 
BRANCH  34  35
ATOM     35  N   UNL A   1      32.452  34.098  27.616  1.00  0.00    -0.352 N 
ATOM     36  C   UNL A   1      33.150  34.592  28.691  1.00  0.00     0.251 C 
ATOM     37  H   UNL A   1      31.734  34.677  27.271  1.00  0.00     0.163 HD
ATOM     38  O   UNL A   1      32.767  35.608  29.263  1.00  0.00    -0.269 OA
BRANCH  36  39
ATOM     39  C   UNL A   1      34.344  33.865  29.169  1.00  0.00     0.039 A 
ATOM     40  C   UNL A   1      35.612  34.364  28.863  1.00  0.00     0.014 A 
ATOM     41  C   UNL A   1      34.204  32.722  29.964  1.00  0.00     0.014 A 
ATOM     42  C   UNL A   1      36.741  33.765  29.426  1.00  0.00     0.010 A 
ATOM     43  C   UNL A   1      35.325  32.169  30.573  1.00  0.00     0.010 A 
ATOM     44  C   UNL A   1      36.604  32.693  30.322  1.00  0.00    -0.014 A 
BRANCH  44  45
ATOM     45  C   UNL A   1      37.774  32.119  31.035  1.00  0.00     0.031 A 
ATOM     46  C   UNL A   1      38.541  30.978  30.426  1.00  0.00     0.074 A 
ATOM     47  C   UNL A   1      38.087  32.566  32.269  1.00  0.00     0.049 A 
ATOM     48  N   UNL A   1      39.507  30.262  30.940  1.00  0.00    -0.248 NA
ATOM     49  C   UNL A   1      38.150  30.575  29.066  1.00  0.00     0.031 C 
ATOM     50  C   UNL A   1      37.400  33.652  32.974  1.00  0.00     0.029 A 
ATOM     51  N   UNL A   1      39.050  32.156  33.157  1.00  0.00    -0.354 N 
ATOM     52  C   UNL A   1      39.826  29.310  29.978  1.00  0.00     0.074 A 
ATOM     53  C   UNL A   1      38.919  29.514  28.869  1.00  0.00     0.031 C 
ATOM     54  C   UNL A   1      37.975  33.831  34.174  1.00  0.00     0.029 A 
ATOM     55  C   UNL A   1      39.030  32.840  34.352  1.00  0.00     0.049 A 
ATOM     56  H   UNL A   1      39.695  31.438  32.958  1.00  0.00     0.167 HD
ATOM     57  C   UNL A   1      40.795  28.362  30.016  1.00  0.00     0.034 A 
ATOM     58  C   UNL A   1      39.762  32.671  35.472  1.00  0.00     0.034 A 
ATOM     59  C   UNL A   1      41.701  28.187  31.125  1.00  0.00     0.049 A 
ATOM     60  C   UNL A   1      40.798  31.574  35.505  1.00  0.00     0.074 A 
ATOM     61  C   UNL A   1      42.771  27.315  31.230  1.00  0.00     0.029 A 
ATOM     62  N   UNL A   1      41.637  28.882  32.325  1.00  0.00    -0.354 N 
ATOM     63  N   UNL A   1      41.127  30.720  34.563  1.00  0.00    -0.248 NA
ATOM     64  C   UNL A   1      41.559  31.418  36.752  1.00  0.00     0.031 C 
ATOM     65  C   UNL A   1      43.302  27.426  32.519  1.00  0.00     0.029 A 
ATOM     66  C   UNL A   1      42.617  28.424  33.193  1.00  0.00     0.049 A 
ATOM     67  H   UNL A   1      40.991  29.596  32.530  1.00  0.00     0.167 HD
ATOM     68  C   UNL A   1      42.155  29.947  35.097  1.00  0.00     0.074 A 
ATOM     69  C   UNL A   1      42.400  30.444  36.435  1.00  0.00     0.031 C 
ATOM     70  C   UNL A   1      42.839  28.921  34.530  1.00  0.00     0.034 A 
BRANCH  57  71
ATOM     71  C   UNL A   1      40.902  27.422  28.841  1.00  0.00     0.023 A 
ATOM     72  C   UNL A   1      41.865  27.599  27.832  1.00  0.00     0.031 A 
ATOM     73  C   UNL A   1      40.021  26.332  28.726  1.00  0.00     0.131 A 
ATOM     74  C   UNL A   1      41.882  26.741  26.723  1.00  0.00     0.055 A 
ATOM     75  C   UNL A   1      40.094  25.435  27.658  1.00  0.00     0.041 A 
ATOM     76  F   UNL A   1      39.067  26.123  29.647  1.00  0.00    -0.206 F 
ATOM     77  C   UNL A   1      41.021  25.645  26.641  1.00  0.00     0.022 A 
BRANCH  74  78
ATOM     78  S   UNL A   1      42.961  27.154  25.325  1.00  0.00     0.124 S 
ATOM     79  O   UNL A   1      42.954  25.906  24.567  1.00  0.00    -0.237 OA
ATOM     80  O   UNL A   1      42.265  28.279  24.711  1.00  0.00    -0.237 OA
ATOM     81  O   UNL A   1      44.236  27.482  25.962  1.00  0.00    -0.744 OA
ENDBRANCH  74  78
ENDBRANCH  57  71
BRANCH  58  82
ATOM     82  C   UNL A   1      39.534  33.533  36.668  1.00  0.00     0.023 A 
ATOM     83  C   UNL A   1      40.382  34.617  36.944  1.00  0.00     0.031 A 
ATOM     84  C   UNL A   1      38.506  33.252  37.584  1.00  0.00     0.131 A 
ATOM     85  C   UNL A   1      40.220  35.349  38.130  1.00  0.00     0.055 A 
ATOM     86  C   UNL A   1      38.312  34.018  38.735  1.00  0.00     0.041 A 
ATOM     87  F   UNL A   1      37.666  32.226  37.370  1.00  0.00    -0.206 F 
ATOM     88  C   UNL A   1      39.183  35.066  39.022  1.00  0.00     0.022 A 
BRANCH  85  89
ATOM     89  S   UNL A   1      41.450  36.616  38.543  1.00  0.00     0.124 S 
ATOM     90  O   UNL A   1      42.089  36.839  37.251  1.00  0.00    -0.237 OA
ATOM     91  O   UNL A   1      40.610  37.701  39.040  1.00  0.00    -0.237 OA
ATOM     92  O   UNL A   1      42.286  35.965  39.549  1.00  0.00    -0.744 OA
ENDBRANCH  85  89
ENDBRANCH  58  82
BRANCH  70  93
ATOM     93  C   UNL A   1      43.943  28.297  35.347  1.00  0.00     0.023 A 
ATOM     94  C   UNL A   1      45.269  28.757  35.271  1.00  0.00     0.031 A 
ATOM     95  C   UNL A   1      43.661  27.229  36.218  1.00  0.00     0.131 A 
ATOM     96  C   UNL A   1      46.273  28.120  36.017  1.00  0.00     0.055 A 
ATOM     97  C   UNL A   1      44.653  26.638  37.002  1.00  0.00     0.041 A 
ATOM     98  F   UNL A   1      42.412  26.748  36.327  1.00  0.00    -0.206 F 
ATOM     99  C   UNL A   1      45.970  27.077  36.896  1.00  0.00     0.022 A 
BRANCH  96 100
ATOM    100  S   UNL A   1      47.996  28.628  35.773  1.00  0.00     0.124 S 
ATOM    101  O   UNL A   1      48.711  27.710  36.654  1.00  0.00    -0.237 OA
ATOM    102  O   UNL A   1      48.186  28.416  34.341  1.00  0.00    -0.237 OA
ATOM    103  O   UNL A   1      48.005  30.027  36.196  1.00  0.00    -0.744 OA
ENDBRANCH  96 100
ENDBRANCH  70  93
ENDBRANCH  44  45
ENDBRANCH  36  39
ENDBRANCH  34  35
ENDBRANCH  33  34
ENDBRANCH  32  33
ENDBRANCH   1  32
TORSDOF 20
ENDMDL
MODEL 2
REMARK VINA RESULT:     -11.6      4.919     10.692
REMARK SMILES CCOc1ccc(-c2cc(Cl)cc3c2O[C@H](C(F)(F)F)C(C(=O)NCCCCCCNC(=O)c2ccc(-c4c5nc(c(-c6cc(S(=O)(=O)[O-])ccc6F)c6ccc([nH]6)c(-c6cc(S(=O)(=O)[O-])ccc6F)c6nc(c(-c7cc(S(=O)(=O)[O-])ccc7F)c7ccc4[nH]7)C=C6)C=C5)cc2)=C3)cc1
REMARK SMILES IDX 27 1 26 2 25 3 24 4 22 5 23 6 21 8 8 9 9 10 14 11 10 12
REMARK SMILES IDX 13 13 15 14 11 15 12 16 97 17 16 18 7 19 4 20 5 21 99 22
REMARK SMILES IDX 6 23 98 24 3 25 2 26 1 27 17 28 18 29 19 30 20 31 28 32
REMARK SMILES IDX 29 33 30 34 31 35 32 36 33 38 34 39 35 40 96 41 36 42 95 43
REMARK SMILES IDX 37 44 38 45 39 46 89 47 40 48 94 49 88 50 90 51 41 52 93 53
REMARK SMILES IDX 87 54 86 55 42 57 74 58 54 59 73 60 55 61 58 62 72 63 91 64
REMARK SMILES IDX 56 65 57 66 71 68 92 69 59 70 43 71 44 72 52 73 45 74 51 75
REMARK SMILES IDX 53 76 50 77 46 78 47 79 48 80 49 81 75 82 76 83 84 84 77 85
REMARK SMILES IDX 83 86 85 87 82 88 78 89 79 90 80 91 81 92 60 93 61 94 69 95
REMARK SMILES IDX 62 96 68 97 70 98 67 99 63 100 64 101 65 102 66 103
REMARK H PARENT 24 7 31 37 90 56 58 67
REMARK Flexibility Score: inf
ROOT
ATOM      1  C   UNL A   1      34.099  24.863  23.025  1.00  0.00     0.002 C 
ENDROOT
BRANCH   1   2
ATOM      2  C   UNL A   1      33.833  26.330  23.405  1.00  0.00     0.021 C 
BRANCH   2   3
ATOM      3  C   UNL A   1      33.149  27.163  22.312  1.00  0.00     0.116 C 
BRANCH   3   4
ATOM      4  N   UNL A   1      32.057  26.406  21.732  1.00  0.00    -0.352 N 
ATOM      5  C   UNL A   1      30.963  25.985  22.416  1.00  0.00     0.251 C 
ATOM      6  O   UNL A   1      30.614  24.811  22.371  1.00  0.00    -0.270 OA
ATOM      7  H   UNL A   1      32.112  26.182  20.775  1.00  0.00     0.163 HD
BRANCH   5   8
ATOM      8  C   UNL A   1      30.143  27.051  23.065  1.00  0.00     0.067 C 
ATOM      9  C   UNL A   1      32.396  27.628  26.402  1.00  0.00     0.026 A 
ATOM     10  C   UNL A   1      32.724  26.356  26.932  1.00  0.00     0.033 A 
ATOM     11  C   UNL A   1      31.392  27.659  25.419  1.00  0.00     0.135 A 
ATOM     12  C   UNL A   1      31.987  25.211  26.631  1.00  0.00     0.042 A 
ATOM     13  C   UNL A   1      30.584  26.515  25.214  1.00  0.00     0.019 A 
ATOM     14  O   UNL A   1      31.176  28.760  24.604  1.00  0.00    -0.475 OA
ATOM     15  Cl  UNL A   1      32.451  23.698  27.303  1.00  0.00    -0.084 Cl
ATOM     16  C   UNL A   1      30.869  25.296  25.822  1.00  0.00     0.032 A 
ATOM     17  C   UNL A   1      29.532  26.597  24.177  1.00  0.00     0.025 C 
ATOM     18  C   UNL A   1      30.856  28.393  23.196  1.00  0.00     0.314 C 
BRANCH   9  19
ATOM     19  C   UNL A   1      32.986  28.790  27.110  1.00  0.00    -0.014 A 
ATOM     20  C   UNL A   1      34.383  31.216  27.506  1.00  0.00     0.119 A 
ATOM     21  C   UNL A   1      32.996  31.223  27.388  1.00  0.00     0.047 A 
ATOM     22  C   UNL A   1      35.060  30.002  27.563  1.00  0.00     0.047 A 
ATOM     23  C   UNL A   1      32.302  30.019  27.199  1.00  0.00     0.013 A 
ATOM     24  C   UNL A   1      34.367  28.800  27.370  1.00  0.00     0.013 A 
BRANCH  20  25
ATOM     25  O   UNL A   1      35.024  32.416  27.643  1.00  0.00    -0.494 OA
BRANCH  25  26
ATOM     26  C   UNL A   1      34.164  33.497  28.038  1.00  0.00     0.226 C 
ATOM     27  C   UNL A   1      34.628  34.124  29.345  1.00  0.00     0.049 C 
ENDBRANCH  25  26
ENDBRANCH  20  25
ENDBRANCH   9  19
BRANCH  18  28
ATOM     28  C   UNL A   1      30.004  29.476  22.503  1.00  0.00     0.429 C 
ATOM     29  F   UNL A   1      30.665  30.093  21.498  1.00  0.00    -0.167 F 
ATOM     30  F   UNL A   1      28.868  28.949  21.986  1.00  0.00    -0.167 F 
ATOM     31  F   UNL A   1      29.612  30.452  23.364  1.00  0.00    -0.167 F 
ENDBRANCH  18  28
ENDBRANCH   5   8
ENDBRANCH   3   4
ENDBRANCH   2   3
ENDBRANCH   1   2
BRANCH   1  32
ATOM     32  C   UNL A   1      34.411  23.937  24.203  1.00  0.00     0.002 C 
BRANCH  32  33
ATOM     33  C   UNL A   1      35.890  23.594  24.367  1.00  0.00     0.021 C 
BRANCH  33  34
ATOM     34  C   UNL A   1      36.287  23.141  25.769  1.00  0.00     0.116 C 
BRANCH  34  35
ATOM     35  N   UNL A   1      37.157  21.975  25.752  1.00  0.00    -0.352 N 
ATOM     36  C   UNL A   1      38.498  21.901  26.043  1.00  0.00     0.251 C 
ATOM     37  H   UNL A   1      36.728  21.126  25.499  1.00  0.00     0.163 HD
ATOM     38  O   UNL A   1      39.122  20.866  25.825  1.00  0.00    -0.269 OA
BRANCH  36  39
ATOM     39  C   UNL A   1      39.184  23.092  26.586  1.00  0.00     0.039 A 
ATOM     40  C   UNL A   1      40.201  22.921  27.526  1.00  0.00     0.014 A 
ATOM     41  C   UNL A   1      38.853  24.370  26.123  1.00  0.00     0.014 A 
ATOM     42  C   UNL A   1      40.948  24.025  27.941  1.00  0.00     0.010 A 
ATOM     43  C   UNL A   1      39.640  25.457  26.488  1.00  0.00     0.010 A 
ATOM     44  C   UNL A   1      40.705  25.294  27.390  1.00  0.00    -0.014 A 
BRANCH  44  45
ATOM     45  C   UNL A   1      41.565  26.462  27.714  1.00  0.00     0.031 A 
ATOM     46  C   UNL A   1      41.017  27.593  28.538  1.00  0.00     0.074 A 
ATOM     47  C   UNL A   1      42.805  26.541  27.188  1.00  0.00     0.049 A 
ATOM     48  N   UNL A   1      41.561  28.748  28.823  1.00  0.00    -0.248 NA
ATOM     49  C   UNL A   1      39.668  27.410  29.094  1.00  0.00     0.031 C 
ATOM     50  C   UNL A   1      43.436  25.516  26.353  1.00  0.00     0.029 A 
ATOM     51  N   UNL A   1      43.752  27.532  27.264  1.00  0.00    -0.354 N 
ATOM     52  C   UNL A   1      40.614  29.438  29.572  1.00  0.00     0.074 A 
ATOM     53  C   UNL A   1      39.446  28.588  29.658  1.00  0.00     0.031 C 
ATOM     54  C   UNL A   1      44.668  25.925  26.010  1.00  0.00     0.029 A 
ATOM     55  C   UNL A   1      44.896  27.261  26.548  1.00  0.00     0.049 A 
ATOM     56  H   UNL A   1      43.624  28.360  27.781  1.00  0.00     0.167 HD
ATOM     57  C   UNL A   1      40.718  30.663  30.144  1.00  0.00     0.034 A 
ATOM     58  C   UNL A   1      45.994  28.014  26.330  1.00  0.00     0.034 A 
ATOM     59  C   UNL A   1      41.899  31.488  30.062  1.00  0.00     0.049 A 
ATOM     60  C   UNL A   1      46.061  29.395  26.936  1.00  0.00     0.074 A 
ATOM     61  C   UNL A   1      42.140  32.706  30.673  1.00  0.00     0.029 A 
ATOM     62  N   UNL A   1      43.029  31.191  29.311  1.00  0.00    -0.354 N 
ATOM     63  N   UNL A   1      45.180  30.008  27.692  1.00  0.00    -0.248 NA
ATOM     64  C   UNL A   1      47.268  30.183  26.657  1.00  0.00     0.031 C 
ATOM     65  C   UNL A   1      43.379  33.181  30.231  1.00  0.00     0.029 A 
ATOM     66  C   UNL A   1      43.949  32.225  29.407  1.00  0.00     0.049 A 
ATOM     67  H   UNL A   1      43.158  30.367  28.788  1.00  0.00     0.167 HD
ATOM     68  C   UNL A   1      45.743  31.243  28.003  1.00  0.00     0.074 A 
ATOM     69  C   UNL A   1      47.043  31.281  27.364  1.00  0.00     0.031 C 
ATOM     70  C   UNL A   1      45.235  32.254  28.752  1.00  0.00     0.034 A 
BRANCH  57  71
ATOM     71  C   UNL A   1      39.514  31.199  30.878  1.00  0.00     0.023 A 
ATOM     72  C   UNL A   1      39.472  31.274  32.281  1.00  0.00     0.031 A 
ATOM     73  C   UNL A   1      38.386  31.636  30.161  1.00  0.00     0.131 A 
ATOM     74  C   UNL A   1      38.304  31.713  32.923  1.00  0.00     0.055 A 
ATOM     75  C   UNL A   1      37.256  32.146  30.805  1.00  0.00     0.041 A 
ATOM     76  F   UNL A   1      38.359  31.569  28.821  1.00  0.00    -0.206 F 
ATOM     77  C   UNL A   1      37.206  32.174  32.196  1.00  0.00     0.022 A 
BRANCH  74  78
ATOM     78  S   UNL A   1      38.195  31.552  34.727  1.00  0.00     0.124 S 
ATOM     79  O   UNL A   1      39.441  32.182  35.156  1.00  0.00    -0.237 OA
ATOM     80  O   UNL A   1      36.970  32.282  35.035  1.00  0.00    -0.237 OA
ATOM     81  O   UNL A   1      38.130  30.107  34.938  1.00  0.00    -0.744 OA
ENDBRANCH  74  78
ENDBRANCH  57  71
BRANCH  58  82
ATOM     82  C   UNL A   1      47.111  27.505  25.482  1.00  0.00     0.023 A 
ATOM     83  C   UNL A   1      47.249  27.923  24.149  1.00  0.00     0.031 A 
ATOM     84  C   UNL A   1      48.019  26.550  25.970  1.00  0.00     0.131 A 
ATOM     85  C   UNL A   1      48.238  27.352  23.335  1.00  0.00     0.055 A 
ATOM     86  C   UNL A   1      49.039  26.025  25.173  1.00  0.00     0.041 A 
ATOM     87  F   UNL A   1      47.933  26.113  27.236  1.00  0.00    -0.206 F 
ATOM     88  C   UNL A   1      49.143  26.415  23.840  1.00  0.00     0.022 A 
BRANCH  85  89
ATOM     89  S   UNL A   1      48.263  27.777  21.572  1.00  0.00     0.124 S 
ATOM     90  O   UNL A   1      49.310  28.791  21.527  1.00  0.00    -0.237 OA
ATOM     91  O   UNL A   1      48.586  26.493  20.957  1.00  0.00    -0.237 OA
ATOM     92  O   UNL A   1      46.909  28.264  21.320  1.00  0.00    -0.744 OA
ENDBRANCH  85  89
ENDBRANCH  58  82
BRANCH  70  93
ATOM     93  C   UNL A   1      46.108  33.468  28.951  1.00  0.00     0.023 A 
ATOM     94  C   UNL A   1      45.993  34.602  28.129  1.00  0.00     0.031 A 
ATOM     95  C   UNL A   1      47.064  33.490  29.982  1.00  0.00     0.131 A 
ATOM     96  C   UNL A   1      46.853  35.694  28.323  1.00  0.00     0.055 A 
ATOM     97  C   UNL A   1      47.877  34.602  30.207  1.00  0.00     0.041 A 
ATOM     98  F   UNL A   1      47.218  32.432  30.795  1.00  0.00    -0.206 F 
ATOM     99  C   UNL A   1      47.781  35.709  29.368  1.00  0.00     0.022 A 
BRANCH  96 100
ATOM    100  S   UNL A   1      46.793  37.071  27.145  1.00  0.00     0.124 S 
ATOM    101  O   UNL A   1      45.378  37.103  26.788  1.00  0.00    -0.237 OA
ATOM    102  O   UNL A   1      47.273  38.192  27.946  1.00  0.00    -0.237 OA
ATOM    103  O   UNL A   1      47.692  36.647  26.074  1.00  0.00    -0.744 OA
ENDBRANCH  96 100
ENDBRANCH  70  93
ENDBRANCH  44  45
ENDBRANCH  36  39
ENDBRANCH  34  35
ENDBRANCH  33  34
ENDBRANCH  32  33
ENDBRANCH   1  32
TORSDOF 20
ENDMDL
MODEL 3
REMARK VINA RESULT:     -11.5      2.117      2.542
REMARK SMILES CCOc1ccc(-c2cc(Cl)cc3c2O[C@H](C(F)(F)F)C(C(=O)NCCCCCCNC(=O)c2ccc(-c4c5nc(c(-c6cc(S(=O)(=O)[O-])ccc6F)c6ccc([nH]6)c(-c6cc(S(=O)(=O)[O-])ccc6F)c6nc(c(-c7cc(S(=O)(=O)[O-])ccc7F)c7ccc4[nH]7)C=C6)C=C5)cc2)=C3)cc1
REMARK SMILES IDX 27 1 26 2 25 3 24 4 22 5 23 6 21 8 8 9 9 10 14 11 10 12
REMARK SMILES IDX 13 13 15 14 11 15 12 16 97 17 16 18 7 19 4 20 5 21 99 22
REMARK SMILES IDX 6 23 98 24 3 25 2 26 1 27 17 28 18 29 19 30 20 31 28 32
REMARK SMILES IDX 29 33 30 34 31 35 32 36 33 38 34 39 35 40 96 41 36 42 95 43
REMARK SMILES IDX 37 44 38 45 39 46 89 47 40 48 94 49 88 50 90 51 41 52 93 53
REMARK SMILES IDX 87 54 86 55 42 57 74 58 54 59 73 60 55 61 58 62 72 63 91 64
REMARK SMILES IDX 56 65 57 66 71 68 92 69 59 70 43 71 44 72 52 73 45 74 51 75
REMARK SMILES IDX 53 76 50 77 46 78 47 79 48 80 49 81 75 82 76 83 84 84 77 85
REMARK SMILES IDX 83 86 85 87 82 88 78 89 79 90 80 91 81 92 60 93 61 94 69 95
REMARK SMILES IDX 62 96 68 97 70 98 67 99 63 100 64 101 65 102 66 103
REMARK H PARENT 24 7 31 37 90 56 58 67
REMARK Flexibility Score: inf
ROOT
ATOM      1  C   UNL A   1      33.034  29.071  26.639  1.00  0.00     0.002 C 
ENDROOT
BRANCH   1   2
ATOM      2  C   UNL A   1      31.876  29.585  25.767  1.00  0.00     0.021 C 
BRANCH   2   3
ATOM      3  C   UNL A   1      31.399  28.603  24.686  1.00  0.00     0.116 C 
BRANCH   3   4
ATOM      4  N   UNL A   1      31.261  27.278  25.257  1.00  0.00    -0.352 N 
ATOM      5  C   UNL A   1      31.233  26.128  24.537  1.00  0.00     0.251 C 
ATOM      6  O   UNL A   1      30.331  25.314  24.697  1.00  0.00    -0.270 OA
ATOM      7  H   UNL A   1      31.181  27.207  26.236  1.00  0.00     0.163 HD
BRANCH   5   8
ATOM      8  C   UNL A   1      32.432  25.854  23.691  1.00  0.00     0.067 C 
ATOM      9  C   UNL A   1      33.117  22.004  24.812  1.00  0.00     0.026 A 
ATOM     10  C   UNL A   1      33.031  21.939  26.225  1.00  0.00     0.033 A 
ATOM     11  C   UNL A   1      33.195  23.288  24.247  1.00  0.00     0.135 A 
ATOM     12  C   UNL A   1      33.182  23.066  27.033  1.00  0.00     0.042 A 
ATOM     13  C   UNL A   1      33.462  24.401  25.080  1.00  0.00     0.019 A 
ATOM     14  O   UNL A   1      32.983  23.525  22.896  1.00  0.00    -0.475 OA
ATOM     15  Cl  UNL A   1      33.052  22.913  28.740  1.00  0.00    -0.084 Cl
ATOM     16  C   UNL A   1      33.467  24.295  26.468  1.00  0.00     0.032 A 
ATOM     17  C   UNL A   1      33.548  25.731  24.439  1.00  0.00     0.025 C 
ATOM     18  C   UNL A   1      32.215  24.775  22.635  1.00  0.00     0.314 C 
BRANCH   9  19
ATOM     19  C   UNL A   1      33.348  20.712  24.124  1.00  0.00    -0.014 A 
ATOM     20  C   UNL A   1      33.278  17.928  23.629  1.00  0.00     0.119 A 
ATOM     21  C   UNL A   1      32.332  18.764  23.041  1.00  0.00     0.047 A 
ATOM     22  C   UNL A   1      34.330  18.484  24.348  1.00  0.00     0.047 A 
ATOM     23  C   UNL A   1      32.371  20.145  23.280  1.00  0.00     0.013 A 
ATOM     24  C   UNL A   1      34.367  19.863  24.590  1.00  0.00     0.013 A 
BRANCH  20  25
ATOM     25  O   UNL A   1      33.176  16.583  23.406  1.00  0.00    -0.494 OA
BRANCH  25  26
ATOM     26  C   UNL A   1      33.667  15.772  24.486  1.00  0.00     0.226 C 
ATOM     27  C   UNL A   1      32.530  15.280  25.369  1.00  0.00     0.049 C 
ENDBRANCH  25  26
ENDBRANCH  20  25
ENDBRANCH   9  19
BRANCH  18  28
ATOM     28  C   UNL A   1      32.545  25.367  21.248  1.00  0.00     0.429 C 
ATOM     29  F   UNL A   1      32.959  24.427  20.369  1.00  0.00    -0.167 F 
ATOM     30  F   UNL A   1      31.467  25.987  20.712  1.00  0.00    -0.167 F 
ATOM     31  F   UNL A   1      33.531  26.301  21.308  1.00  0.00    -0.167 F 
ENDBRANCH  18  28
ENDBRANCH   5   8
ENDBRANCH   3   4
ENDBRANCH   2   3
ENDBRANCH   1   2
BRANCH   1  32
ATOM     32  C   UNL A   1      33.845  30.161  27.343  1.00  0.00     0.002 C 
BRANCH  32  33
ATOM     33  C   UNL A   1      33.049  31.417  27.695  1.00  0.00     0.021 C 
BRANCH  33  34
ATOM     34  C   UNL A   1      33.676  32.722  27.214  1.00  0.00     0.116 C 
BRANCH  34  35
ATOM     35  N   UNL A   1      33.015  33.895  27.769  1.00  0.00    -0.352 N 
ATOM     36  C   UNL A   1      33.279  34.550  28.947  1.00  0.00     0.251 C 
ATOM     37  H   UNL A   1      32.282  34.267  27.228  1.00  0.00     0.163 HD
ATOM     38  O   UNL A   1      32.522  35.430  29.348  1.00  0.00    -0.269 OA
BRANCH  36  39
ATOM     39  C   UNL A   1      34.462  34.158  29.741  1.00  0.00     0.039 A 
ATOM     40  C   UNL A   1      34.293  33.323  30.846  1.00  0.00     0.014 A 
ATOM     41  C   UNL A   1      35.740  34.576  29.356  1.00  0.00     0.014 A 
ATOM     42  C   UNL A   1      35.416  32.835  31.518  1.00  0.00     0.010 A 
ATOM     43  C   UNL A   1      36.857  34.037  29.986  1.00  0.00     0.010 A 
ATOM     44  C   UNL A   1      36.707  33.150  31.064  1.00  0.00    -0.014 A 
BRANCH  44  45
ATOM     45  C   UNL A   1      37.917  32.544  31.678  1.00  0.00     0.031 A 
ATOM     46  C   UNL A   1      38.621  31.408  30.989  1.00  0.00     0.074 A 
ATOM     47  C   UNL A   1      38.324  32.958  32.895  1.00  0.00     0.049 A 
ATOM     48  N   UNL A   1      39.611  30.668  31.416  1.00  0.00    -0.248 NA
ATOM     49  C   UNL A   1      38.127  31.042  29.653  1.00  0.00     0.031 C 
ATOM     50  C   UNL A   1      37.706  34.036  33.673  1.00  0.00     0.029 A 
ATOM     51  N   UNL A   1      39.343  32.514  33.702  1.00  0.00    -0.354 N 
ATOM     52  C   UNL A   1      39.845  29.734  30.412  1.00  0.00     0.074 A 
ATOM     53  C   UNL A   1      38.864  29.976  29.376  1.00  0.00     0.031 C 
ATOM     54  C   UNL A   1      38.369  34.179  34.831  1.00  0.00     0.029 A 
ATOM     55  C   UNL A   1      39.420  33.170  34.910  1.00  0.00     0.049 A 
ATOM     56  H   UNL A   1      39.961  31.793  33.440  1.00  0.00     0.167 HD
ATOM     57  C   UNL A   1      40.800  28.773  30.358  1.00  0.00     0.034 A 
ATOM     58  C   UNL A   1      40.228  32.965  35.970  1.00  0.00     0.034 A 
ATOM     59  C   UNL A   1      41.782  28.559  31.394  1.00  0.00     0.049 A 
ATOM     60  C   UNL A   1      41.247  31.854  35.903  1.00  0.00     0.074 A 
ATOM     61  C   UNL A   1      42.843  27.671  31.402  1.00  0.00     0.029 A 
ATOM     62  N   UNL A   1      41.814  29.227  32.611  1.00  0.00    -0.354 N 
ATOM     63  N   UNL A   1      41.495  31.019  34.921  1.00  0.00    -0.248 NA
ATOM     64  C   UNL A   1      42.094  31.659  37.088  1.00  0.00     0.031 C 
ATOM     65  C   UNL A   1      43.467  27.745  32.651  1.00  0.00     0.029 A 
ATOM     66  C   UNL A   1      42.848  28.736  33.395  1.00  0.00     0.049 A 
ATOM     67  H   UNL A   1      41.195  29.944  32.878  1.00  0.00     0.167 HD
ATOM     68  C   UNL A   1      42.547  30.219  35.361  1.00  0.00     0.074 A 
ATOM     69  C   UNL A   1      42.894  30.681  36.689  1.00  0.00     0.031 C 
ATOM     70  C   UNL A   1      43.173  29.198  34.724  1.00  0.00     0.034 A 
BRANCH  57  71
ATOM     71  C   UNL A   1      40.808  27.859  29.157  1.00  0.00     0.023 A 
ATOM     72  C   UNL A   1      41.723  28.025  28.103  1.00  0.00     0.031 A 
ATOM     73  C   UNL A   1      39.880  26.806  29.064  1.00  0.00     0.131 A 
ATOM     74  C   UNL A   1      41.648  27.195  26.975  1.00  0.00     0.055 A 
ATOM     75  C   UNL A   1      39.862  25.935  27.973  1.00  0.00     0.041 A 
ATOM     76  F   UNL A   1      38.969  26.611  30.030  1.00  0.00    -0.206 F 
ATOM     77  C   UNL A   1      40.741  26.135  26.913  1.00  0.00     0.022 A 
BRANCH  74  78
ATOM     78  S   UNL A   1      42.668  27.602  25.531  1.00  0.00     0.124 S 
ATOM     79  O   UNL A   1      41.959  28.756  24.985  1.00  0.00    -0.237 OA
ATOM     80  O   UNL A   1      43.969  27.876  26.131  1.00  0.00    -0.237 OA
ATOM     81  O   UNL A   1      42.600  26.393  24.712  1.00  0.00    -0.744 OA
ENDBRANCH  74  78
ENDBRANCH  57  71
BRANCH  58  82
ATOM     82  C   UNL A   1      40.100  33.801  37.199  1.00  0.00     0.023 A 
ATOM     83  C   UNL A   1      39.370  33.343  38.307  1.00  0.00     0.031 A 
ATOM     84  C   UNL A   1      40.652  35.092  37.263  1.00  0.00     0.131 A 
ATOM     85  C   UNL A   1      39.167  34.186  39.410  1.00  0.00     0.055 A 
ATOM     86  C   UNL A   1      40.497  35.908  38.386  1.00  0.00     0.041 A 
ATOM     87  F   UNL A   1      41.359  35.582  36.231  1.00  0.00    -0.206 F 
ATOM     88  C   UNL A   1      39.737  35.460  39.463  1.00  0.00     0.022 A 
BRANCH  85  89
ATOM     89  S   UNL A   1      38.062  33.630  40.736  1.00  0.00     0.124 S 
ATOM     90  O   UNL A   1      37.801  34.878  41.445  1.00  0.00    -0.237 OA
ATOM     91  O   UNL A   1      36.942  33.074  39.982  1.00  0.00    -0.237 OA
ATOM     92  O   UNL A   1      38.868  32.654  41.464  1.00  0.00    -0.744 OA
ENDBRANCH  85  89
ENDBRANCH  58  82
BRANCH  70  93
ATOM     93  C   UNL A   1      44.323  28.540  35.444  1.00  0.00     0.023 A 
ATOM     94  C   UNL A   1      44.140  27.391  36.233  1.00  0.00     0.031 A 
ATOM     95  C   UNL A   1      45.621  29.069  35.335  1.00  0.00     0.131 A 
ATOM     96  C   UNL A   1      45.230  26.835  36.920  1.00  0.00     0.055 A 
ATOM     97  C   UNL A   1      46.712  28.478  35.973  1.00  0.00     0.041 A 
ATOM     98  F   UNL A   1      45.852  30.167  34.597  1.00  0.00    -0.206 F 
ATOM     99  C   UNL A   1      46.518  27.359  36.779  1.00  0.00     0.022 A 
BRANCH  96 100
ATOM    100  S   UNL A   1      44.932  25.455  38.058  1.00  0.00     0.124 S 
ATOM    101  O   UNL A   1      43.717  24.865  37.506  1.00  0.00    -0.237 OA
ATOM    102  O   UNL A   1      46.148  24.661  37.915  1.00  0.00    -0.237 OA
ATOM    103  O   UNL A   1      44.770  26.109  39.355  1.00  0.00    -0.744 OA
ENDBRANCH  96 100
ENDBRANCH  70  93
ENDBRANCH  44  45
ENDBRANCH  36  39
ENDBRANCH  34  35
ENDBRANCH  33  34
ENDBRANCH  32  33
ENDBRANCH   1  32
TORSDOF 20
ENDMDL
