MODEL 1
REMARK VINA RESULT:     -12.3      0.000      0.000
REMARK SMILES Cc1cccc(CC(=O)N2CCCC[C@@H]2C(=O)NCCCCCCNC(=O)c2ccc(-c3c4nc(c(-c5cc(S(=O)(=O)[O-])ccc5F)c5ccc([nH]5)c(-c5cc(S(=O)(=O)[O-])ccc5F)c5nc(c(-c6cc(S(=O)(=O)[O-])ccc6F)c6ccc3[nH]6)C=C5)C=C4)cc2)c1
REMARK SMILES IDX 21 1 20 2 19 3 18 4 16 5 17 6 15 8 10 9 11 10 12 11 14 12
REMARK SMILES IDX 13 13 8 14 9 15 7 16 6 17 1 18 2 19 3 20 91 21 4 22 5 23
REMARK SMILES IDX 22 24 23 25 24 26 25 27 26 28 27 30 28 31 29 32 90 33 30 34
REMARK SMILES IDX 89 35 31 36 32 37 33 38 83 39 34 40 88 41 82 42 84 43 35 44
REMARK SMILES IDX 87 45 81 46 80 47 36 49 68 50 48 51 67 52 49 53 52 54 66 55
REMARK SMILES IDX 85 56 50 57 51 58 65 60 86 61 53 62 37 63 38 64 46 65 39 66
REMARK SMILES IDX 45 67 47 68 44 69 40 70 41 71 42 72 43 73 69 74 70 75 78 76
REMARK SMILES IDX 71 77 77 78 79 79 76 80 72 81 73 82 74 83 75 84 54 85 55 86
REMARK SMILES IDX 63 87 56 88 62 89 64 90 61 91 57 92 58 93 59 94 60 95
REMARK H PARENT 18 7 25 29 84 48 52 59
REMARK Flexibility Score: inf
ROOT
ATOM      1  C   UNL A   1      32.785  28.523  26.676  1.00  0.00     0.002 C 
ENDROOT
BRANCH   1   2
ATOM      2  C   UNL A   1      31.801  27.379  26.398  1.00  0.00     0.021 C 
BRANCH   2   3
ATOM      3  C   UNL A   1      32.416  25.981  26.351  1.00  0.00     0.116 C 
BRANCH   3   4
ATOM      4  N   UNL A   1      31.491  24.958  26.804  1.00  0.00    -0.354 N 
ATOM      5  C   UNL A   1      31.420  23.638  26.473  1.00  0.00     0.242 C 
ATOM      6  O   UNL A   1      30.445  22.988  26.871  1.00  0.00    -0.273 OA
ATOM      7  H   UNL A   1      30.814  25.263  27.449  1.00  0.00     0.163 HD
BRANCH   5   8
ATOM      8  C   UNL A   1      32.365  23.001  25.424  1.00  0.00     0.174 C 
ATOM      9  N   UNL A   1      31.903  22.909  24.016  1.00  0.00    -0.330 N 
ATOM     10  C   UNL A   1      32.528  21.878  23.187  1.00  0.00     0.120 C 
ATOM     11  C   UNL A   1      32.588  20.512  23.838  1.00  0.00     0.022 C 
ATOM     12  C   UNL A   1      32.651  21.610  26.062  1.00  0.00     0.035 C 
ATOM     13  C   UNL A   1      33.332  20.604  25.156  1.00  0.00     0.004 C 
BRANCH   9  14
ATOM     14  C   UNL A   1      31.377  23.968  23.266  1.00  0.00     0.227 C 
ATOM     15  O   UNL A   1      30.152  24.139  23.210  1.00  0.00    -0.275 OA
BRANCH  14  16
ATOM     16  C   UNL A   1      32.271  24.775  22.337  1.00  0.00     0.135 C 
BRANCH  16  17
ATOM     17  C   UNL A   1      32.472  26.231  22.643  1.00  0.00    -0.038 A 
ATOM     18  C   UNL A   1      30.331  29.377  22.684  1.00  0.00     0.044 C 
ATOM     19  C   UNL A   1      31.512  28.468  22.837  1.00  0.00    -0.051 A 
ATOM     20  C   UNL A   1      32.790  28.989  23.049  1.00  0.00     0.003 A 
ATOM     21  C   UNL A   1      31.362  27.089  22.647  1.00  0.00     0.007 A 
ATOM     22  C   UNL A   1      33.891  28.138  23.122  1.00  0.00     0.001 A 
ATOM     23  C   UNL A   1      33.732  26.762  22.936  1.00  0.00     0.004 A 
ENDBRANCH  16  17
ENDBRANCH  14  16
ENDBRANCH   9  14
ENDBRANCH   5   8
ENDBRANCH   3   4
ENDBRANCH   2   3
ENDBRANCH   1   2
BRANCH   1  24
ATOM     24  C   UNL A   1      32.221  29.952  26.632  1.00  0.00     0.002 C 
BRANCH  24  25
ATOM     25  C   UNL A   1      33.070  31.052  27.263  1.00  0.00     0.021 C 
BRANCH  25  26
ATOM     26  C   UNL A   1      34.495  30.628  27.581  1.00  0.00     0.116 C 
BRANCH  26  27
ATOM     27  N   UNL A   1      35.208  31.483  28.520  1.00  0.00    -0.352 N 
ATOM     28  C   UNL A   1      36.326  31.181  29.286  1.00  0.00     0.251 C 
ATOM     29  H   UNL A   1      34.850  32.393  28.626  1.00  0.00     0.163 HD
ATOM     30  O   UNL A   1      36.749  31.951  30.132  1.00  0.00    -0.269 OA
BRANCH  28  31
ATOM     31  C   UNL A   1      37.097  29.954  28.954  1.00  0.00     0.039 A 
ATOM     32  C   UNL A   1      37.305  29.036  29.993  1.00  0.00     0.014 A 
ATOM     33  C   UNL A   1      37.822  29.853  27.771  1.00  0.00     0.014 A 
ATOM     34  C   UNL A   1      38.411  28.192  29.945  1.00  0.00     0.010 A 
ATOM     35  C   UNL A   1      38.980  29.101  27.771  1.00  0.00     0.010 A 
ATOM     36  C   UNL A   1      39.307  28.319  28.883  1.00  0.00    -0.014 A 
BRANCH  36  37
ATOM     37  C   UNL A   1      40.659  27.777  28.918  1.00  0.00     0.031 A 
ATOM     38  C   UNL A   1      40.923  26.394  28.475  1.00  0.00     0.074 A 
ATOM     39  C   UNL A   1      41.688  28.557  29.317  1.00  0.00     0.049 A 
ATOM     40  N   UNL A   1      41.904  25.671  28.899  1.00  0.00    -0.248 NA
ATOM     41  C   UNL A   1      40.064  25.696  27.526  1.00  0.00     0.031 C 
ATOM     42  C   UNL A   1      43.116  28.268  29.215  1.00  0.00     0.029 A 
ATOM     43  N   UNL A   1      41.620  29.681  30.138  1.00  0.00    -0.354 N 
ATOM     44  C   UNL A   1      41.979  24.559  28.096  1.00  0.00     0.074 A 
ATOM     45  C   UNL A   1      40.776  24.588  27.299  1.00  0.00     0.031 C 
ATOM     46  C   UNL A   1      43.770  28.991  30.137  1.00  0.00     0.029 A 
ATOM     47  C   UNL A   1      42.774  29.673  30.943  1.00  0.00     0.049 A 
ATOM     48  H   UNL A   1      40.900  30.354  30.152  1.00  0.00     0.167 HD
ATOM     49  C   UNL A   1      43.118  23.808  28.088  1.00  0.00     0.034 A 
ATOM     50  C   UNL A   1      42.679  29.618  32.303  1.00  0.00     0.034 A 
ATOM     51  C   UNL A   1      44.106  24.320  29.033  1.00  0.00     0.049 A 
ATOM     52  C   UNL A   1      43.318  28.382  32.898  1.00  0.00     0.074 A 
ATOM     53  C   UNL A   1      45.224  25.123  28.880  1.00  0.00     0.029 A 
ATOM     54  N   UNL A   1      43.845  24.265  30.397  1.00  0.00    -0.354 N 
ATOM     55  N   UNL A   1      43.669  27.336  32.200  1.00  0.00    -0.248 NA
ATOM     56  C   UNL A   1      43.610  28.217  34.319  1.00  0.00     0.031 C 
ATOM     57  C   UNL A   1      45.588  25.617  30.159  1.00  0.00     0.029 A 
ATOM     58  C   UNL A   1      44.719  25.079  31.092  1.00  0.00     0.049 A 
ATOM     59  H   UNL A   1      43.136  23.722  30.811  1.00  0.00     0.167 HD
ATOM     60  C   UNL A   1      44.210  26.381  33.024  1.00  0.00     0.074 A 
ATOM     61  C   UNL A   1      44.166  26.991  34.342  1.00  0.00     0.031 C 
ATOM     62  C   UNL A   1      44.642  25.176  32.544  1.00  0.00     0.034 A 
BRANCH  49  63
ATOM     63  C   UNL A   1      43.441  22.815  26.997  1.00  0.00     0.023 A 
ATOM     64  C   UNL A   1      42.864  21.530  27.037  1.00  0.00     0.031 A 
ATOM     65  C   UNL A   1      44.331  23.049  25.931  1.00  0.00     0.131 A 
ATOM     66  C   UNL A   1      43.253  20.522  26.135  1.00  0.00     0.055 A 
ATOM     67  C   UNL A   1      44.768  22.032  25.073  1.00  0.00     0.041 A 
ATOM     68  F   UNL A   1      44.780  24.282  25.653  1.00  0.00    -0.206 F 
ATOM     69  C   UNL A   1      44.240  20.754  25.182  1.00  0.00     0.022 A 
BRANCH  66  70
ATOM     70  S   UNL A   1      42.442  18.902  26.221  1.00  0.00     0.124 S 
ATOM     71  O   UNL A   1      42.588  18.556  27.632  1.00  0.00    -0.237 OA
ATOM     72  O   UNL A   1      41.091  19.209  25.767  1.00  0.00    -0.237 OA
ATOM     73  O   UNL A   1      43.228  18.080  25.301  1.00  0.00    -0.744 OA
ENDBRANCH  66  70
ENDBRANCH  49  63
BRANCH  50  74
ATOM     74  C   UNL A   1      41.488  30.353  32.823  1.00  0.00     0.023 A 
ATOM     75  C   UNL A   1      41.564  31.765  32.805  1.00  0.00     0.031 A 
ATOM     76  C   UNL A   1      40.219  29.769  32.901  1.00  0.00     0.131 A 
ATOM     77  C   UNL A   1      40.403  32.536  32.660  1.00  0.00     0.055 A 
ATOM     78  C   UNL A   1      39.056  30.552  32.845  1.00  0.00     0.041 A 
ATOM     79  F   UNL A   1      40.077  28.436  32.896  1.00  0.00    -0.206 F 
ATOM     80  C   UNL A   1      39.144  31.935  32.669  1.00  0.00     0.022 A 
BRANCH  77  81
ATOM     81  S   UNL A   1      40.578  34.275  32.149  1.00  0.00     0.124 S 
ATOM     82  O   UNL A   1      40.804  34.947  33.424  1.00  0.00    -0.237 OA
ATOM     83  O   UNL A   1      41.723  34.234  31.241  1.00  0.00    -0.237 OA
ATOM     84  O   UNL A   1      39.305  34.571  31.496  1.00  0.00    -0.744 OA
ENDBRANCH  77  81
ENDBRANCH  50  74
BRANCH  62  85
ATOM     85  C   UNL A   1      45.110  23.992  33.367  1.00  0.00     0.023 A 
ATOM     86  C   UNL A   1      46.408  23.868  33.884  1.00  0.00     0.031 A 
ATOM     87  C   UNL A   1      44.203  22.965  33.736  1.00  0.00     0.131 A 
ATOM     88  C   UNL A   1      46.778  22.749  34.655  1.00  0.00     0.055 A 
ATOM     89  C   UNL A   1      44.551  21.898  34.570  1.00  0.00     0.041 A 
ATOM     90  F   UNL A   1      42.933  22.954  33.308  1.00  0.00    -0.206 F 
ATOM     91  C   UNL A   1      45.851  21.777  35.026  1.00  0.00     0.022 A 
BRANCH  88  92
ATOM     92  S   UNL A   1      48.519  22.561  35.119  1.00  0.00     0.124 S 
ATOM     93  O   UNL A   1      48.706  21.117  34.995  1.00  0.00    -0.237 OA
ATOM     94  O   UNL A   1      49.201  23.376  34.121  1.00  0.00    -0.237 OA
ATOM     95  O   UNL A   1      48.572  23.077  36.486  1.00  0.00    -0.744 OA
ENDBRANCH  88  92
ENDBRANCH  62  85
ENDBRANCH  36  37
ENDBRANCH  28  31
ENDBRANCH  26  27
ENDBRANCH  25  26
ENDBRANCH  24  25
ENDBRANCH   1  24
TORSDOF 19
ENDMDL
MODEL 2
REMARK VINA RESULT:     -12.0      1.139      2.453
REMARK SMILES Cc1cccc(CC(=O)N2CCCC[C@@H]2C(=O)NCCCCCCNC(=O)c2ccc(-c3c4nc(c(-c5cc(S(=O)(=O)[O-])ccc5F)c5ccc([nH]5)c(-c5cc(S(=O)(=O)[O-])ccc5F)c5nc(c(-c6cc(S(=O)(=O)[O-])ccc6F)c6ccc3[nH]6)C=C5)C=C4)cc2)c1
REMARK SMILES IDX 21 1 20 2 19 3 18 4 16 5 17 6 15 8 10 9 11 10 12 11 14 12
REMARK SMILES IDX 13 13 8 14 9 15 7 16 6 17 1 18 2 19 3 20 91 21 4 22 5 23
REMARK SMILES IDX 22 24 23 25 24 26 25 27 26 28 27 30 28 31 29 32 90 33 30 34
REMARK SMILES IDX 89 35 31 36 32 37 33 38 83 39 34 40 88 41 82 42 84 43 35 44
REMARK SMILES IDX 87 45 81 46 80 47 36 49 68 50 48 51 67 52 49 53 52 54 66 55
REMARK SMILES IDX 85 56 50 57 51 58 65 60 86 61 53 62 37 63 38 64 46 65 39 66
REMARK SMILES IDX 45 67 47 68 44 69 40 70 41 71 42 72 43 73 69 74 70 75 78 76
REMARK SMILES IDX 71 77 77 78 79 79 76 80 72 81 73 82 74 83 75 84 54 85 55 86
REMARK SMILES IDX 63 87 56 88 62 89 64 90 61 91 57 92 58 93 59 94 60 95
REMARK H PARENT 18 7 25 29 84 48 52 59
REMARK Flexibility Score: inf
ROOT
ATOM      1  C   UNL A   1      32.499  28.408  26.481  1.00  0.00     0.002 C 
ENDROOT
BRANCH   1   2
ATOM      2  C   UNL A   1      31.504  27.245  26.608  1.00  0.00     0.021 C 
BRANCH   2   3
ATOM      3  C   UNL A   1      32.093  25.852  26.393  1.00  0.00     0.116 C 
BRANCH   3   4
ATOM      4  N   UNL A   1      31.373  24.830  27.131  1.00  0.00    -0.354 N 
ATOM      5  C   UNL A   1      30.817  23.666  26.692  1.00  0.00     0.242 C 
ATOM      6  O   UNL A   1      30.114  23.021  27.481  1.00  0.00    -0.273 OA
ATOM      7  H   UNL A   1      31.271  25.004  28.094  1.00  0.00     0.163 HD
BRANCH   5   8
ATOM      8  C   UNL A   1      30.825  23.263  25.197  1.00  0.00     0.174 C 
ATOM      9  N   UNL A   1      31.980  22.489  24.677  1.00  0.00    -0.330 N 
ATOM     10  C   UNL A   1      32.234  22.578  23.239  1.00  0.00     0.120 C 
ATOM     11  C   UNL A   1      32.228  23.991  22.695  1.00  0.00     0.022 C 
ATOM     12  C   UNL A   1      30.654  24.643  24.499  1.00  0.00     0.035 C 
ATOM     13  C   UNL A   1      30.899  24.653  23.003  1.00  0.00     0.004 C 
BRANCH   9  14
ATOM     14  C   UNL A   1      32.496  21.321  25.252  1.00  0.00     0.227 C 
ATOM     15  O   UNL A   1      31.923  20.238  25.076  1.00  0.00    -0.275 OA
BRANCH  14  16
ATOM     16  C   UNL A   1      33.620  21.395  26.275  1.00  0.00     0.135 C 
BRANCH  16  17
ATOM     17  C   UNL A   1      34.838  22.200  25.925  1.00  0.00    -0.038 A 
ATOM     18  C   UNL A   1      38.586  21.590  25.671  1.00  0.00     0.044 C 
ATOM     19  C   UNL A   1      37.258  22.280  25.606  1.00  0.00    -0.051 A 
ATOM     20  C   UNL A   1      37.181  23.664  25.434  1.00  0.00     0.003 A 
ATOM     21  C   UNL A   1      36.081  21.557  25.839  1.00  0.00     0.007 A 
ATOM     22  C   UNL A   1      35.943  24.304  25.442  1.00  0.00     0.001 A 
ATOM     23  C   UNL A   1      34.773  23.574  25.672  1.00  0.00     0.004 A 
ENDBRANCH  16  17
ENDBRANCH  14  16
ENDBRANCH   9  14
ENDBRANCH   5   8
ENDBRANCH   3   4
ENDBRANCH   2   3
ENDBRANCH   1   2
BRANCH   1  24
ATOM     24  C   UNL A   1      31.943  29.824  26.694  1.00  0.00     0.002 C 
BRANCH  24  25
ATOM     25  C   UNL A   1      32.933  30.897  27.139  1.00  0.00     0.021 C 
BRANCH  25  26
ATOM     26  C   UNL A   1      34.199  30.345  27.776  1.00  0.00     0.116 C 
BRANCH  26  27
ATOM     27  N   UNL A   1      34.922  31.271  28.636  1.00  0.00    -0.352 N 
ATOM     28  C   UNL A   1      36.081  31.046  29.367  1.00  0.00     0.251 C 
ATOM     29  H   UNL A   1      34.539  32.175  28.709  1.00  0.00     0.163 HD
ATOM     30  O   UNL A   1      36.514  31.873  30.151  1.00  0.00    -0.269 OA
BRANCH  28  31
ATOM     31  C   UNL A   1      36.877  29.826  29.067  1.00  0.00     0.039 A 
ATOM     32  C   UNL A   1      37.139  28.962  30.139  1.00  0.00     0.014 A 
ATOM     33  C   UNL A   1      37.571  29.692  27.870  1.00  0.00     0.014 A 
ATOM     34  C   UNL A   1      38.267  28.147  30.097  1.00  0.00     0.010 A 
ATOM     35  C   UNL A   1      38.749  28.972  27.869  1.00  0.00     0.010 A 
ATOM     36  C   UNL A   1      39.129  28.251  29.005  1.00  0.00    -0.014 A 
BRANCH  36  37
ATOM     37  C   UNL A   1      40.497  27.747  29.024  1.00  0.00     0.031 A 
ATOM     38  C   UNL A   1      40.797  26.377  28.566  1.00  0.00     0.074 A 
ATOM     39  C   UNL A   1      41.506  28.553  29.422  1.00  0.00     0.049 A 
ATOM     40  N   UNL A   1      41.802  25.679  28.976  1.00  0.00    -0.248 NA
ATOM     41  C   UNL A   1      39.950  25.663  27.618  1.00  0.00     0.031 C 
ATOM     42  C   UNL A   1      42.940  28.307  29.306  1.00  0.00     0.029 A 
ATOM     43  N   UNL A   1      41.412  29.668  30.254  1.00  0.00    -0.354 N 
ATOM     44  C   UNL A   1      41.903  24.576  28.162  1.00  0.00     0.074 A 
ATOM     45  C   UNL A   1      40.692  24.578  27.375  1.00  0.00     0.031 C 
ATOM     46  C   UNL A   1      43.581  29.040  30.229  1.00  0.00     0.029 A 
ATOM     47  C   UNL A   1      42.572  29.685  31.049  1.00  0.00     0.049 A 
ATOM     48  H   UNL A   1      40.673  30.319  30.279  1.00  0.00     0.167 HD
ATOM     49  C   UNL A   1      43.062  23.859  28.138  1.00  0.00     0.034 A 
ATOM     50  C   UNL A   1      42.490  29.616  32.410  1.00  0.00     0.034 A 
ATOM     51  C   UNL A   1      44.043  24.390  29.080  1.00  0.00     0.049 A 
ATOM     52  C   UNL A   1      43.169  28.393  32.988  1.00  0.00     0.074 A 
ATOM     53  C   UNL A   1      45.136  25.227  28.926  1.00  0.00     0.029 A 
ATOM     54  N   UNL A   1      43.795  24.316  30.446  1.00  0.00    -0.354 N 
ATOM     55  N   UNL A   1      43.544  27.364  32.278  1.00  0.00    -0.248 NA
ATOM     56  C   UNL A   1      43.477  28.224  34.405  1.00  0.00     0.031 C 
ATOM     57  C   UNL A   1      45.496  25.720  30.207  1.00  0.00     0.029 A 
ATOM     58  C   UNL A   1      44.650  25.149  31.142  1.00  0.00     0.049 A 
ATOM     59  H   UNL A   1      43.105  23.749  30.861  1.00  0.00     0.167 HD
ATOM     60  C   UNL A   1      44.119  26.419  33.090  1.00  0.00     0.074 A 
ATOM     61  C   UNL A   1      44.068  27.015  34.413  1.00  0.00     0.031 C 
ATOM     62  C   UNL A   1      44.582  25.230  32.595  1.00  0.00     0.034 A 
BRANCH  49  63
ATOM     63  C   UNL A   1      43.405  22.886  27.036  1.00  0.00     0.023 A 
ATOM     64  C   UNL A   1      42.830  21.598  27.044  1.00  0.00     0.031 A 
ATOM     65  C   UNL A   1      44.312  23.139  25.989  1.00  0.00     0.131 A 
ATOM     66  C   UNL A   1      43.236  20.607  26.132  1.00  0.00     0.055 A 
ATOM     67  C   UNL A   1      44.765  22.138  25.121  1.00  0.00     0.041 A 
ATOM     68  F   UNL A   1      44.762  24.377  25.739  1.00  0.00    -0.206 F 
ATOM     69  C   UNL A   1      44.238  20.857  25.199  1.00  0.00     0.022 A 
BRANCH  66  70
ATOM     70  S   UNL A   1      42.426  18.985  26.177  1.00  0.00     0.124 S 
ATOM     71  O   UNL A   1      42.529  18.625  27.588  1.00  0.00    -0.237 OA
ATOM     72  O   UNL A   1      41.089  19.293  25.684  1.00  0.00    -0.237 OA
ATOM     73  O   UNL A   1      43.243  18.173  25.274  1.00  0.00    -0.744 OA
ENDBRANCH  66  70
ENDBRANCH  49  63
BRANCH  50  74
ATOM     74  C   UNL A   1      41.282  30.311  32.946  1.00  0.00     0.023 A 
ATOM     75  C   UNL A   1      41.301  31.725  32.904  1.00  0.00     0.031 A 
ATOM     76  C   UNL A   1      40.039  29.679  33.062  1.00  0.00     0.131 A 
ATOM     77  C   UNL A   1      40.108  32.447  32.774  1.00  0.00     0.055 A 
ATOM     78  C   UNL A   1      38.845  30.414  33.020  1.00  0.00     0.041 A 
ATOM     79  F   UNL A   1      39.951  28.341  33.080  1.00  0.00    -0.206 F 
ATOM     80  C   UNL A   1      38.875  31.798  32.821  1.00  0.00     0.022 A 
BRANCH  77  81
ATOM     81  S   UNL A   1      40.202  34.183  32.233  1.00  0.00     0.124 S 
ATOM     82  O   UNL A   1      38.857  34.667  32.521  1.00  0.00    -0.237 OA
ATOM     83  O   UNL A   1      41.267  34.728  33.074  1.00  0.00    -0.237 OA
ATOM     84  O   UNL A   1      40.548  34.084  30.817  1.00  0.00    -0.744 OA
ENDBRANCH  77  81
ENDBRANCH  50  74
BRANCH  62  85
ATOM     85  C   UNL A   1      45.090  24.054  33.404  1.00  0.00     0.023 A 
ATOM     86  C   UNL A   1      46.404  23.947  33.881  1.00  0.00     0.031 A 
ATOM     87  C   UNL A   1      44.209  23.014  33.800  1.00  0.00     0.131 A 
ATOM     88  C   UNL A   1      46.813  22.833  34.641  1.00  0.00     0.055 A 
ATOM     89  C   UNL A   1      44.596  21.953  34.623  1.00  0.00     0.041 A 
ATOM     90  F   UNL A   1      42.926  22.986  33.411  1.00  0.00    -0.206 F 
ATOM     91  C   UNL A   1      45.911  21.849  35.039  1.00  0.00     0.022 A 
BRANCH  88  92
ATOM     92  S   UNL A   1      48.570  22.668  35.052  1.00  0.00     0.124 S 
ATOM     93  O   UNL A   1      48.944  21.480  34.288  1.00  0.00    -0.237 OA
ATOM     94  O   UNL A   1      49.124  23.929  34.575  1.00  0.00    -0.237 OA
ATOM     95  O   UNL A   1      48.572  22.497  36.504  1.00  0.00    -0.744 OA
ENDBRANCH  88  92
ENDBRANCH  62  85
ENDBRANCH  36  37
ENDBRANCH  28  31
ENDBRANCH  26  27
ENDBRANCH  25  26
ENDBRANCH  24  25
ENDBRANCH   1  24
TORSDOF 19
ENDMDL
MODEL 3
REMARK VINA RESULT:     -11.9      3.905     10.527
REMARK SMILES Cc1cccc(CC(=O)N2CCCC[C@@H]2C(=O)NCCCCCCNC(=O)c2ccc(-c3c4nc(c(-c5cc(S(=O)(=O)[O-])ccc5F)c5ccc([nH]5)c(-c5cc(S(=O)(=O)[O-])ccc5F)c5nc(c(-c6cc(S(=O)(=O)[O-])ccc6F)c6ccc3[nH]6)C=C5)C=C4)cc2)c1
REMARK SMILES IDX 21 1 20 2 19 3 18 4 16 5 17 6 15 8 10 9 11 10 12 11 14 12
REMARK SMILES IDX 13 13 8 14 9 15 7 16 6 17 1 18 2 19 3 20 91 21 4 22 5 23
REMARK SMILES IDX 22 24 23 25 24 26 25 27 26 28 27 30 28 31 29 32 90 33 30 34
REMARK SMILES IDX 89 35 31 36 32 37 33 38 83 39 34 40 88 41 82 42 84 43 35 44
REMARK SMILES IDX 87 45 81 46 80 47 36 49 68 50 48 51 67 52 49 53 52 54 66 55
REMARK SMILES IDX 85 56 50 57 51 58 65 60 86 61 53 62 37 63 38 64 46 65 39 66
REMARK SMILES IDX 45 67 47 68 44 69 40 70 41 71 42 72 43 73 69 74 70 75 78 76
REMARK SMILES IDX 71 77 77 78 79 79 76 80 72 81 73 82 74 83 75 84 54 85 55 86
REMARK SMILES IDX 63 87 56 88 62 89 64 90 61 91 57 92 58 93 59 94 60 95
REMARK H PARENT 18 7 25 29 84 48 52 59
REMARK Flexibility Score: inf
ROOT
ATOM      1  C   UNL A   1      36.529  22.994  24.830  1.00  0.00     0.002 C 
ENDROOT
BRANCH   1   2
ATOM      2  C   UNL A   1      35.599  23.405  23.680  1.00  0.00     0.021 C 
BRANCH   2   3
ATOM      3  C   UNL A   1      34.461  24.349  24.062  1.00  0.00     0.116 C 
BRANCH   3   4
ATOM      4  N   UNL A   1      33.978  25.117  22.929  1.00  0.00    -0.354 N 
ATOM      5  C   UNL A   1      33.334  26.317  22.899  1.00  0.00     0.242 C 
ATOM      6  O   UNL A   1      32.880  26.709  21.816  1.00  0.00    -0.273 OA
ATOM      7  H   UNL A   1      34.143  24.710  22.048  1.00  0.00     0.163 HD
BRANCH   5   8
ATOM      8  C   UNL A   1      32.935  27.069  24.193  1.00  0.00     0.174 C 
ATOM      9  N   UNL A   1      31.508  27.069  24.602  1.00  0.00    -0.330 N 
ATOM     10  C   UNL A   1      31.074  28.167  25.467  1.00  0.00     0.120 C 
ATOM     11  C   UNL A   1      31.511  29.537  24.993  1.00  0.00     0.022 C 
ATOM     12  C   UNL A   1      33.485  28.497  23.909  1.00  0.00     0.035 C 
ATOM     13  C   UNL A   1      33.021  29.578  24.865  1.00  0.00     0.004 C 
BRANCH   9  14
ATOM     14  C   UNL A   1      30.699  25.931  24.717  1.00  0.00     0.227 C 
ATOM     15  O   UNL A   1      29.769  25.750  23.921  1.00  0.00    -0.275 OA
BRANCH  14  16
ATOM     16  C   UNL A   1      30.802  25.030  25.939  1.00  0.00     0.135 C 
BRANCH  16  17
ATOM     17  C   UNL A   1      31.485  23.703  25.779  1.00  0.00    -0.038 A 
ATOM     18  C   UNL A   1      34.169  21.726  27.614  1.00  0.00     0.044 C 
ATOM     19  C   UNL A   1      33.109  22.084  26.618  1.00  0.00    -0.051 A 
ATOM     20  C   UNL A   1      32.917  21.309  25.473  1.00  0.00     0.003 A 
ATOM     21  C   UNL A   1      32.381  23.271  26.767  1.00  0.00     0.007 A 
ATOM     22  C   UNL A   1      31.973  21.689  24.519  1.00  0.00     0.001 A 
ATOM     23  C   UNL A   1      31.248  22.873  24.678  1.00  0.00     0.004 A 
ENDBRANCH  16  17
ENDBRANCH  14  16
ENDBRANCH   9  14
ENDBRANCH   5   8
ENDBRANCH   3   4
ENDBRANCH   2   3
ENDBRANCH   1   2
BRANCH   1  24
ATOM     24  C   UNL A   1      37.409  21.754  24.604  1.00  0.00     0.002 C 
BRANCH  24  25
ATOM     25  C   UNL A   1      38.531  21.509  25.609  1.00  0.00     0.021 C 
BRANCH  25  26
ATOM     26  C   UNL A   1      38.989  22.759  26.343  1.00  0.00     0.116 C 
BRANCH  26  27
ATOM     27  N   UNL A   1      40.431  22.952  26.414  1.00  0.00    -0.352 N 
ATOM     28  C   UNL A   1      41.139  24.140  26.527  1.00  0.00     0.251 C 
ATOM     29  H   UNL A   1      40.974  22.132  26.376  1.00  0.00     0.163 HD
ATOM     30  O   UNL A   1      42.355  24.170  26.447  1.00  0.00    -0.269 OA
BRANCH  28  31
ATOM     31  C   UNL A   1      40.394  25.372  26.897  1.00  0.00     0.039 A 
ATOM     32  C   UNL A   1      40.747  26.551  26.227  1.00  0.00     0.014 A 
ATOM     33  C   UNL A   1      39.603  25.423  28.040  1.00  0.00     0.014 A 
ATOM     34  C   UNL A   1      40.529  27.779  26.847  1.00  0.00     0.010 A 
ATOM     35  C   UNL A   1      39.488  26.626  28.708  1.00  0.00     0.010 A 
ATOM     36  C   UNL A   1      40.007  27.793  28.141  1.00  0.00    -0.014 A 
BRANCH  36  37
ATOM     37  C   UNL A   1      40.088  28.957  29.015  1.00  0.00     0.031 A 
ATOM     38  C   UNL A   1      39.008  29.963  29.026  1.00  0.00     0.074 A 
ATOM     39  C   UNL A   1      41.137  29.097  29.855  1.00  0.00     0.049 A 
ATOM     40  N   UNL A   1      39.174  31.202  29.344  1.00  0.00    -0.248 NA
ATOM     41  C   UNL A   1      37.638  29.648  28.638  1.00  0.00     0.031 C 
ATOM     42  C   UNL A   1      41.286  30.061  30.941  1.00  0.00     0.029 A 
ATOM     43  N   UNL A   1      42.405  28.534  29.715  1.00  0.00    -0.354 N 
ATOM     44  C   UNL A   1      37.929  31.767  29.483  1.00  0.00     0.074 A 
ATOM     45  C   UNL A   1      37.009  30.779  28.972  1.00  0.00     0.031 C 
ATOM     46  C   UNL A   1      42.593  30.234  31.190  1.00  0.00     0.029 A 
ATOM     47  C   UNL A   1      43.330  29.482  30.190  1.00  0.00     0.049 A 
ATOM     48  H   UNL A   1      42.613  27.642  29.353  1.00  0.00     0.167 HD
ATOM     49  C   UNL A   1      37.795  32.950  30.147  1.00  0.00     0.034 A 
ATOM     50  C   UNL A   1      44.301  29.984  29.373  1.00  0.00     0.034 A 
ATOM     51  C   UNL A   1      39.088  33.474  30.580  1.00  0.00     0.049 A 
ATOM     52  C   UNL A   1      44.197  31.480  29.171  1.00  0.00     0.074 A 
ATOM     53  C   UNL A   1      39.758  33.436  31.791  1.00  0.00     0.029 A 
ATOM     54  N   UNL A   1      40.016  33.885  29.630  1.00  0.00    -0.354 N 
ATOM     55  N   UNL A   1      43.147  32.187  29.491  1.00  0.00    -0.248 NA
ATOM     56  C   UNL A   1      45.255  32.301  28.590  1.00  0.00     0.031 C 
ATOM     57  C   UNL A   1      41.120  33.754  31.550  1.00  0.00     0.029 A 
ATOM     58  C   UNL A   1      41.266  34.026  30.201  1.00  0.00     0.049 A 
ATOM     59  H   UNL A   1      39.810  34.054  28.682  1.00  0.00     0.167 HD
ATOM     60  C   UNL A   1      43.357  33.507  29.177  1.00  0.00     0.074 A 
ATOM     61  C   UNL A   1      44.703  33.527  28.631  1.00  0.00     0.031 C 
ATOM     62  C   UNL A   1      42.401  34.460  29.395  1.00  0.00     0.034 A 
BRANCH  49  63
ATOM     63  C   UNL A   1      36.472  33.454  30.672  1.00  0.00     0.023 A 
ATOM     64  C   UNL A   1      35.599  34.143  29.804  1.00  0.00     0.031 A 
ATOM     65  C   UNL A   1      36.035  33.335  32.005  1.00  0.00     0.131 A 
ATOM     66  C   UNL A   1      34.431  34.765  30.282  1.00  0.00     0.055 A 
ATOM     67  C   UNL A   1      34.908  34.007  32.495  1.00  0.00     0.041 A 
ATOM     68  F   UNL A   1      36.659  32.528  32.875  1.00  0.00    -0.206 F 
ATOM     69  C   UNL A   1      34.105  34.741  31.634  1.00  0.00     0.022 A 
BRANCH  66  70
ATOM     70  S   UNL A   1      33.336  35.602  29.102  1.00  0.00     0.124 S 
ATOM     71  O   UNL A   1      32.546  36.468  29.972  1.00  0.00    -0.237 OA
ATOM     72  O   UNL A   1      34.285  36.266  28.217  1.00  0.00    -0.237 OA
ATOM     73  O   UNL A   1      32.592  34.500  28.491  1.00  0.00    -0.744 OA
ENDBRANCH  66  70
ENDBRANCH  49  63
BRANCH  50  74
ATOM     74  C   UNL A   1      44.797  28.976  28.389  1.00  0.00     0.023 A 
ATOM     75  C   UNL A   1      45.594  27.930  28.911  1.00  0.00     0.031 A 
ATOM     76  C   UNL A   1      44.189  28.775  27.146  1.00  0.00     0.131 A 
ATOM     77  C   UNL A   1      45.599  26.670  28.299  1.00  0.00     0.055 A 
ATOM     78  C   UNL A   1      44.269  27.537  26.491  1.00  0.00     0.041 A 
ATOM     79  F   UNL A   1      43.401  29.717  26.609  1.00  0.00    -0.206 F 
ATOM     80  C   UNL A   1      44.930  26.462  27.093  1.00  0.00     0.022 A 
BRANCH  77  81
ATOM     81  S   UNL A   1      46.219  25.248  29.253  1.00  0.00     0.124 S 
ATOM     82  O   UNL A   1      45.323  25.236  30.403  1.00  0.00    -0.237 OA
ATOM     83  O   UNL A   1      46.066  24.136  28.316  1.00  0.00    -0.237 OA
ATOM     84  O   UNL A   1      47.607  25.605  29.537  1.00  0.00    -0.744 OA
ENDBRANCH  77  81
ENDBRANCH  50  74
BRANCH  62  85
ATOM     85  C   UNL A   1      42.453  35.909  28.954  1.00  0.00     0.023 A 
ATOM     86  C   UNL A   1      43.217  36.892  29.599  1.00  0.00     0.031 A 
ATOM     87  C   UNL A   1      41.780  36.331  27.778  1.00  0.00     0.131 A 
ATOM     88  C   UNL A   1      43.236  38.221  29.131  1.00  0.00     0.055 A 
ATOM     89  C   UNL A   1      41.867  37.629  27.268  1.00  0.00     0.041 A 
ATOM     90  F   UNL A   1      41.009  35.497  27.065  1.00  0.00    -0.206 F 
ATOM     91  C   UNL A   1      42.588  38.590  27.954  1.00  0.00     0.022 A 
BRANCH  88  92
ATOM     92  S   UNL A   1      44.082  39.474  30.128  1.00  0.00     0.124 S 
ATOM     93  O   UNL A   1      43.349  40.686  29.769  1.00  0.00    -0.237 OA
ATOM     94  O   UNL A   1      43.875  38.987  31.487  1.00  0.00    -0.237 OA
ATOM     95  O   UNL A   1      45.464  39.421  29.652  1.00  0.00    -0.744 OA
ENDBRANCH  88  92
ENDBRANCH  62  85
ENDBRANCH  36  37
ENDBRANCH  28  31
ENDBRANCH  26  27
ENDBRANCH  25  26
ENDBRANCH  24  25
ENDBRANCH   1  24
TORSDOF 19
ENDMDL
