MODEL 1
REMARK VINA RESULT:     -12.2      0.000      0.000
REMARK SMILES CS(=O)(=O)c1ccc(N2N=C(C(=O)NCCCCCCNC(=O)c3ccc(-c4c5nc(c(-c6cc(S(=O)(=O)[O-])ccc6F)c6ccc([nH]6)c(-c6cc(S(=O)(=O)[O-])ccc6F)c6nc(c(-c7cc(S(=O)(=O)[O-])ccc7F)c7ccc4[nH]7)C=C6)C=C5)cc3)C[C@H]2c2cccs2)cc1
REMARK SMILES IDX 18 1 17 2 16 3 15 4 14 5 12 6 13 7 11 9 9 10 10 11 88 12
REMARK SMILES IDX 87 13 8 14 5 15 6 16 95 17 7 18 94 19 2 20 1 21 3 22 4 23
REMARK SMILES IDX 89 24 90 25 93 26 91 27 92 28 19 29 20 30 21 31 22 32 23 34
REMARK SMILES IDX 24 35 25 36 86 37 26 38 85 39 27 40 28 41 29 42 79 43 30 44
REMARK SMILES IDX 84 45 78 46 80 47 31 48 83 49 77 50 76 51 32 53 64 54 44 55
REMARK SMILES IDX 63 56 45 57 48 58 62 59 81 60 46 61 47 62 61 64 82 65 49 66
REMARK SMILES IDX 33 67 34 68 42 69 35 70 41 71 43 72 40 73 36 74 37 75 38 76
REMARK SMILES IDX 39 77 65 78 66 79 74 80 67 81 73 82 75 83 72 84 68 85 69 86
REMARK SMILES IDX 70 87 71 88 50 89 51 90 59 91 52 92 58 93 60 94 57 95 53 96
REMARK SMILES IDX 54 97 55 98 56 99
REMARK H PARENT 14 8 21 33 80 52 48 63
REMARK Flexibility Score: inf
ROOT
ATOM      1  C   UNL A   1      31.702  28.942  24.636  1.00  0.00     0.002 C 
ENDROOT
BRANCH   1   2
ATOM      2  C   UNL A   1      30.832  28.674  23.404  1.00  0.00     0.002 C 
BRANCH   2   3
ATOM      3  C   UNL A   1      29.690  27.680  23.613  1.00  0.00     0.021 C 
BRANCH   3   4
ATOM      4  C   UNL A   1      30.122  26.222  23.722  1.00  0.00     0.116 C 
BRANCH   4   5
ATOM      5  N   UNL A   1      29.999  25.733  25.080  1.00  0.00    -0.351 N 
ATOM      6  C   UNL A   1      30.581  24.708  25.781  1.00  0.00     0.267 C 
ATOM      7  O   UNL A   1      30.184  24.507  26.927  1.00  0.00    -0.268 OA
ATOM      8  H   UNL A   1      29.356  26.249  25.618  1.00  0.00     0.163 HD
BRANCH   6   9
ATOM      9  C   UNL A   1      31.715  23.846  25.244  1.00  0.00     0.128 C 
ATOM     10  N   UNL A   1      32.941  22.114  25.022  1.00  0.00    -0.256 N 
ATOM     11  N   UNL A   1      31.751  22.570  25.490  1.00  0.00    -0.171 NA
ATOM     12  C   UNL A   1      33.722  23.117  24.297  1.00  0.00     0.154 C 
ATOM     13  C   UNL A   1      32.839  24.364  24.412  1.00  0.00     0.097 C 
BRANCH  10  14
ATOM     14  C   UNL A   1      33.154  20.752  24.864  1.00  0.00     0.060 A 
ATOM     15  C   UNL A   1      33.641  18.012  24.517  1.00  0.00     0.067 A 
ATOM     16  C   UNL A   1      32.327  18.472  24.623  1.00  0.00     0.022 A 
ATOM     17  C   UNL A   1      34.713  18.898  24.610  1.00  0.00     0.022 A 
ATOM     18  C   UNL A   1      32.092  19.839  24.809  1.00  0.00     0.029 A 
ATOM     19  C   UNL A   1      34.462  20.259  24.774  1.00  0.00     0.029 A 
BRANCH  15  20
ATOM     20  S   UNL A   1      33.969  16.286  24.273  1.00  0.00     0.175 S 
ATOM     21  C   UNL A   1      35.402  15.971  25.273  1.00  0.00     0.163 C 
ATOM     22  O   UNL A   1      34.359  16.094  22.894  1.00  0.00    -0.224 OA
ATOM     23  O   UNL A   1      32.851  15.555  24.846  1.00  0.00    -0.224 OA
ENDBRANCH  15  20
ENDBRANCH  10  14
BRANCH  12  24
ATOM     24  C   UNL A   1      35.164  23.313  24.744  1.00  0.00     0.030 A 
ATOM     25  C   UNL A   1      35.592  23.680  26.010  1.00  0.00     0.017 A 
ATOM     26  S   UNL A   1      36.507  23.136  23.686  1.00  0.00    -0.147 S 
ATOM     27  C   UNL A   1      37.009  23.764  26.115  1.00  0.00     0.012 A 
ATOM     28  C   UNL A   1      37.630  23.439  24.932  1.00  0.00     0.065 A 
ENDBRANCH  12  24
ENDBRANCH   6   9
ENDBRANCH   4   5
ENDBRANCH   3   4
ENDBRANCH   2   3
ENDBRANCH   1   2
BRANCH   1  29
ATOM     29  C   UNL A   1      33.052  28.221  24.664  1.00  0.00     0.021 C 
BRANCH  29  30
ATOM     30  C   UNL A   1      33.983  28.635  25.800  1.00  0.00     0.116 C 
BRANCH  30  31
ATOM     31  N   UNL A   1      33.701  29.974  26.280  1.00  0.00    -0.352 N 
ATOM     32  C   UNL A   1      34.338  30.699  27.257  1.00  0.00     0.251 C 
ATOM     33  H   UNL A   1      32.944  30.428  25.843  1.00  0.00     0.163 HD
ATOM     34  O   UNL A   1      33.832  31.740  27.664  1.00  0.00    -0.269 OA
BRANCH  32  35
ATOM     35  C   UNL A   1      35.614  30.213  27.827  1.00  0.00     0.039 A 
ATOM     36  C   UNL A   1      35.596  29.569  29.066  1.00  0.00     0.014 A 
ATOM     37  C   UNL A   1      36.826  30.406  27.156  1.00  0.00     0.014 A 
ATOM     38  C   UNL A   1      36.785  29.080  29.612  1.00  0.00     0.010 A 
ATOM     39  C   UNL A   1      37.998  29.853  27.665  1.00  0.00     0.010 A 
ATOM     40  C   UNL A   1      37.993  29.194  28.904  1.00  0.00    -0.014 A 
BRANCH  40  41
ATOM     41  C   UNL A   1      39.265  28.661  29.460  1.00  0.00     0.031 A 
ATOM     42  C   UNL A   1      39.911  29.339  30.639  1.00  0.00     0.074 A 
ATOM     43  C   UNL A   1      39.861  27.602  28.877  1.00  0.00     0.049 A 
ATOM     44  N   UNL A   1      41.053  29.079  31.221  1.00  0.00    -0.248 NA
ATOM     45  C   UNL A   1      39.188  30.482  31.217  1.00  0.00     0.031 C 
ATOM     46  C   UNL A   1      39.347  26.878  27.712  1.00  0.00     0.029 A 
ATOM     47  N   UNL A   1      41.031  26.952  29.180  1.00  0.00    -0.354 N 
ATOM     48  C   UNL A   1      41.192  30.031  32.227  1.00  0.00     0.074 A 
ATOM     49  C   UNL A   1      40.048  30.914  32.126  1.00  0.00     0.031 C 
ATOM     50  C   UNL A   1      40.183  25.871  27.416  1.00  0.00     0.029 A 
ATOM     51  C   UNL A   1      41.315  25.902  28.337  1.00  0.00     0.049 A 
ATOM     52  H   UNL A   1      41.613  27.212  29.930  1.00  0.00     0.167 HD
ATOM     53  C   UNL A   1      42.166  30.143  33.164  1.00  0.00     0.034 A 
ATOM     54  C   UNL A   1      42.373  25.066  28.304  1.00  0.00     0.034 A 
ATOM     55  C   UNL A   1      43.292  29.246  33.258  1.00  0.00     0.049 A 
ATOM     56  C   UNL A   1      43.460  25.228  29.337  1.00  0.00     0.074 A 
ATOM     57  C   UNL A   1      44.317  29.242  34.189  1.00  0.00     0.029 A 
ATOM     58  N   UNL A   1      43.546  28.194  32.387  1.00  0.00    -0.354 N 
ATOM     59  N   UNL A   1      43.558  26.111  30.305  1.00  0.00    -0.248 NA
ATOM     60  C   UNL A   1      44.574  24.271  29.282  1.00  0.00     0.031 C 
ATOM     61  C   UNL A   1      45.222  28.234  33.843  1.00  0.00     0.029 A 
ATOM     62  C   UNL A   1      44.723  27.553  32.743  1.00  0.00     0.049 A 
ATOM     63  H   UNL A   1      42.975  27.940  31.628  1.00  0.00     0.167 HD
ATOM     64  C   UNL A   1      44.723  25.789  30.996  1.00  0.00     0.074 A 
ATOM     65  C   UNL A   1      45.285  24.626  30.342  1.00  0.00     0.031 C 
ATOM     66  C   UNL A   1      45.275  26.396  32.078  1.00  0.00     0.034 A 
BRANCH  53  67
ATOM     67  C   UNL A   1      42.062  31.292  34.141  1.00  0.00     0.023 A 
ATOM     68  C   UNL A   1      41.125  31.284  35.191  1.00  0.00     0.031 A 
ATOM     69  C   UNL A   1      42.885  32.422  34.006  1.00  0.00     0.131 A 
ATOM     70  C   UNL A   1      40.978  32.416  36.007  1.00  0.00     0.055 A 
ATOM     71  C   UNL A   1      42.795  33.509  34.878  1.00  0.00     0.041 A 
ATOM     72  F   UNL A   1      43.785  32.499  33.012  1.00  0.00    -0.206 F 
ATOM     73  C   UNL A   1      41.824  33.518  35.876  1.00  0.00     0.022 A 
BRANCH  70  74
ATOM     74  S   UNL A   1      39.561  32.487  37.137  1.00  0.00     0.124 S 
ATOM     75  O   UNL A   1      38.860  33.675  36.655  1.00  0.00    -0.237 OA
ATOM     76  O   UNL A   1      38.898  31.212  36.894  1.00  0.00    -0.237 OA
ATOM     77  O   UNL A   1      40.179  32.630  38.454  1.00  0.00    -0.744 OA
ENDBRANCH  70  74
ENDBRANCH  53  67
BRANCH  54  78
ATOM     78  C   UNL A   1      42.468  24.005  27.260  1.00  0.00     0.023 A 
ATOM     79  C   UNL A   1      41.645  22.868  27.309  1.00  0.00     0.031 A 
ATOM     80  C   UNL A   1      43.417  24.086  26.226  1.00  0.00     0.131 A 
ATOM     81  C   UNL A   1      41.822  21.836  26.375  1.00  0.00     0.055 A 
ATOM     82  C   UNL A   1      43.550  23.082  25.265  1.00  0.00     0.041 A 
ATOM     83  F   UNL A   1      44.227  25.154  26.128  1.00  0.00    -0.206 F 
ATOM     84  C   UNL A   1      42.759  21.941  25.346  1.00  0.00     0.022 A 
BRANCH  81  85
ATOM     85  S   UNL A   1      40.871  20.304  26.585  1.00  0.00     0.124 S 
ATOM     86  O   UNL A   1      39.587  20.671  25.999  1.00  0.00    -0.237 OA
ATOM     87  O   UNL A   1      41.673  19.347  25.829  1.00  0.00    -0.237 OA
ATOM     88  O   UNL A   1      40.864  20.104  28.032  1.00  0.00    -0.744 OA
ENDBRANCH  81  85
ENDBRANCH  54  78
BRANCH  66  89
ATOM     89  C   UNL A   1      46.524  25.771  32.653  1.00  0.00     0.023 A 
ATOM     90  C   UNL A   1      47.781  25.922  32.043  1.00  0.00     0.031 A 
ATOM     91  C   UNL A   1      46.449  25.001  33.828  1.00  0.00     0.131 A 
ATOM     92  C   UNL A   1      48.900  25.265  32.576  1.00  0.00     0.055 A 
ATOM     93  C   UNL A   1      47.576  24.403  34.389  1.00  0.00     0.041 A 
ATOM     94  F   UNL A   1      45.274  24.821  34.453  1.00  0.00    -0.206 F 
ATOM     95  C   UNL A   1      48.810  24.520  33.755  1.00  0.00     0.022 A 
BRANCH  92  96
ATOM     96  S   UNL A   1      50.461  25.315  31.652  1.00  0.00     0.124 S 
ATOM     97  O   UNL A   1      50.019  25.756  30.333  1.00  0.00    -0.237 OA
ATOM     98  O   UNL A   1      51.245  26.278  32.417  1.00  0.00    -0.237 OA
ATOM     99  O   UNL A   1      50.941  23.936  31.716  1.00  0.00    -0.744 OA
ENDBRANCH  92  96
ENDBRANCH  66  89
ENDBRANCH  40  41
ENDBRANCH  32  35
ENDBRANCH  30  31
ENDBRANCH  29  30
ENDBRANCH   1  29
TORSDOF 19
ENDMDL
MODEL 2
REMARK VINA RESULT:     -12.0      2.020      2.645
REMARK SMILES CS(=O)(=O)c1ccc(N2N=C(C(=O)NCCCCCCNC(=O)c3ccc(-c4c5nc(c(-c6cc(S(=O)(=O)[O-])ccc6F)c6ccc([nH]6)c(-c6cc(S(=O)(=O)[O-])ccc6F)c6nc(c(-c7cc(S(=O)(=O)[O-])ccc7F)c7ccc4[nH]7)C=C6)C=C5)cc3)C[C@H]2c2cccs2)cc1
REMARK SMILES IDX 18 1 17 2 16 3 15 4 14 5 12 6 13 7 11 9 9 10 10 11 88 12
REMARK SMILES IDX 87 13 8 14 5 15 6 16 95 17 7 18 94 19 2 20 1 21 3 22 4 23
REMARK SMILES IDX 89 24 90 25 93 26 91 27 92 28 19 29 20 30 21 31 22 32 23 34
REMARK SMILES IDX 24 35 25 36 86 37 26 38 85 39 27 40 28 41 29 42 79 43 30 44
REMARK SMILES IDX 84 45 78 46 80 47 31 48 83 49 77 50 76 51 32 53 64 54 44 55
REMARK SMILES IDX 63 56 45 57 48 58 62 59 81 60 46 61 47 62 61 64 82 65 49 66
REMARK SMILES IDX 33 67 34 68 42 69 35 70 41 71 43 72 40 73 36 74 37 75 38 76
REMARK SMILES IDX 39 77 65 78 66 79 74 80 67 81 73 82 75 83 72 84 68 85 69 86
REMARK SMILES IDX 70 87 71 88 50 89 51 90 59 91 52 92 58 93 60 94 57 95 53 96
REMARK SMILES IDX 54 97 55 98 56 99
REMARK H PARENT 14 8 21 33 80 52 48 63
REMARK Flexibility Score: inf
ROOT
ATOM      1  C   UNL A   1      31.450  28.497  25.969  1.00  0.00     0.002 C 
ENDROOT
BRANCH   1   2
ATOM      2  C   UNL A   1      31.442  29.330  24.684  1.00  0.00     0.002 C 
BRANCH   2   3
ATOM      3  C   UNL A   1      31.581  28.532  23.386  1.00  0.00     0.021 C 
BRANCH   3   4
ATOM      4  C   UNL A   1      32.998  28.070  23.068  1.00  0.00     0.116 C 
BRANCH   4   5
ATOM      5  N   UNL A   1      33.030  27.231  21.889  1.00  0.00    -0.351 N 
ATOM      6  C   UNL A   1      33.083  25.876  21.685  1.00  0.00     0.267 C 
ATOM      7  O   UNL A   1      33.183  25.480  20.525  1.00  0.00    -0.268 OA
ATOM      8  H   UNL A   1      33.008  27.745  21.050  1.00  0.00     0.163 HD
BRANCH   6   9
ATOM      9  C   UNL A   1      32.978  24.841  22.797  1.00  0.00     0.128 C 
ATOM     10  N   UNL A   1      32.742  22.916  23.684  1.00  0.00    -0.256 N 
ATOM     11  N   UNL A   1      33.013  23.570  22.526  1.00  0.00    -0.171 NA
ATOM     12  C   UNL A   1      32.634  23.789  24.854  1.00  0.00     0.154 C 
ATOM     13  C   UNL A   1      32.839  25.179  24.243  1.00  0.00     0.097 C 
BRANCH  10  14
ATOM     14  C   UNL A   1      32.998  21.556  23.794  1.00  0.00     0.060 A 
ATOM     15  C   UNL A   1      33.578  18.823  24.029  1.00  0.00     0.067 A 
ATOM     16  C   UNL A   1      32.505  19.235  23.238  1.00  0.00     0.022 A 
ATOM     17  C   UNL A   1      34.348  19.755  24.725  1.00  0.00     0.022 A 
ATOM     18  C   UNL A   1      32.213  20.600  23.135  1.00  0.00     0.029 A 
ATOM     19  C   UNL A   1      34.057  21.111  24.596  1.00  0.00     0.029 A 
BRANCH  15  20
ATOM     20  S   UNL A   1      33.977  17.100  24.172  1.00  0.00     0.175 S 
ATOM     21  C   UNL A   1      32.743  16.459  25.276  1.00  0.00     0.163 C 
ATOM     22  O   UNL A   1      35.252  16.989  24.845  1.00  0.00    -0.224 OA
ATOM     23  O   UNL A   1      33.764  16.504  22.863  1.00  0.00    -0.224 OA
ENDBRANCH  15  20
ENDBRANCH  10  14
BRANCH  12  24
ATOM     24  C   UNL A   1      31.379  23.643  25.701  1.00  0.00     0.030 A 
ATOM     25  C   UNL A   1      30.872  22.466  26.229  1.00  0.00     0.017 A 
ATOM     26  S   UNL A   1      30.357  24.966  26.102  1.00  0.00    -0.147 S 
ATOM     27  C   UNL A   1      29.688  22.664  26.993  1.00  0.00     0.012 A 
ATOM     28  C   UNL A   1      29.329  23.990  27.048  1.00  0.00     0.065 A 
ENDBRANCH  12  24
ENDBRANCH   6   9
ENDBRANCH   4   5
ENDBRANCH   3   4
ENDBRANCH   2   3
ENDBRANCH   1   2
BRANCH   1  29
ATOM     29  C   UNL A   1      32.649  28.720  26.895  1.00  0.00     0.021 C 
BRANCH  29  30
ATOM     30  C   UNL A   1      33.719  29.663  26.353  1.00  0.00     0.116 C 
BRANCH  30  31
ATOM     31  N   UNL A   1      33.595  31.002  26.896  1.00  0.00    -0.352 N 
ATOM     32  C   UNL A   1      34.341  31.618  27.871  1.00  0.00     0.251 C 
ATOM     33  H   UNL A   1      32.871  31.548  26.511  1.00  0.00     0.163 HD
ATOM     34  O   UNL A   1      33.960  32.686  28.340  1.00  0.00    -0.269 OA
BRANCH  32  35
ATOM     35  C   UNL A   1      35.583  30.981  28.366  1.00  0.00     0.039 A 
ATOM     36  C   UNL A   1      36.813  31.521  27.984  1.00  0.00     0.014 A 
ATOM     37  C   UNL A   1      35.537  29.849  29.184  1.00  0.00     0.014 A 
ATOM     38  C   UNL A   1      37.997  30.952  28.459  1.00  0.00     0.010 A 
ATOM     39  C   UNL A   1      36.715  29.328  29.716  1.00  0.00     0.010 A 
ATOM     40  C   UNL A   1      37.958  29.867  29.351  1.00  0.00    -0.014 A 
BRANCH  40  41
ATOM     41  C   UNL A   1      39.208  29.262  29.882  1.00  0.00     0.031 A 
ATOM     42  C   UNL A   1      39.855  29.837  31.114  1.00  0.00     0.074 A 
ATOM     43  C   UNL A   1      39.785  28.232  29.232  1.00  0.00     0.049 A 
ATOM     44  N   UNL A   1      40.982  29.506  31.690  1.00  0.00    -0.248 NA
ATOM     45  C   UNL A   1      39.154  30.954  31.764  1.00  0.00     0.031 C 
ATOM     46  C   UNL A   1      39.268  27.607  28.012  1.00  0.00     0.029 A 
ATOM     47  N   UNL A   1      40.934  27.530  29.501  1.00  0.00    -0.354 N 
ATOM     48  C   UNL A   1      41.132  30.380  32.762  1.00  0.00     0.074 A 
ATOM     49  C   UNL A   1      40.013  31.298  32.711  1.00  0.00     0.031 C 
ATOM     50  C   UNL A   1      40.082  26.601  27.654  1.00  0.00     0.029 A 
ATOM     51  C   UNL A   1      41.202  26.536  28.588  1.00  0.00     0.049 A 
ATOM     52  H   UNL A   1      41.512  27.721  30.274  1.00  0.00     0.167 HD
ATOM     53  C   UNL A   1      42.096  30.398  33.716  1.00  0.00     0.034 A 
ATOM     54  C   UNL A   1      42.238  25.678  28.507  1.00  0.00     0.034 A 
ATOM     55  C   UNL A   1      43.197  29.467  33.759  1.00  0.00     0.049 A 
ATOM     56  C   UNL A   1      43.315  25.736  29.562  1.00  0.00     0.074 A 
ATOM     57  C   UNL A   1      44.209  29.369  34.699  1.00  0.00     0.029 A 
ATOM     58  N   UNL A   1      43.436  28.473  32.817  1.00  0.00    -0.354 N 
ATOM     59  N   UNL A   1      43.422  26.544  30.592  1.00  0.00    -0.248 NA
ATOM     60  C   UNL A   1      44.404  24.756  29.452  1.00  0.00     0.031 C 
ATOM     61  C   UNL A   1      45.092  28.364  34.292  1.00  0.00     0.029 A 
ATOM     62  C   UNL A   1      44.591  27.777  33.141  1.00  0.00     0.049 A 
ATOM     63  H   UNL A   1      42.868  28.289  32.035  1.00  0.00     0.167 HD
ATOM     64  C   UNL A   1      44.570  26.144  31.272  1.00  0.00     0.074 A 
ATOM     65  C   UNL A   1      45.110  25.016  30.542  1.00  0.00     0.031 C 
ATOM     66  C   UNL A   1      45.122  26.656  32.401  1.00  0.00     0.034 A 
BRANCH  53  67
ATOM     67  C   UNL A   1      42.008  31.476  34.772  1.00  0.00     0.023 A 
ATOM     68  C   UNL A   1      41.001  31.467  35.754  1.00  0.00     0.031 A 
ATOM     69  C   UNL A   1      42.921  32.545  34.780  1.00  0.00     0.131 A 
ATOM     70  C   UNL A   1      40.880  32.544  36.645  1.00  0.00     0.055 A 
ATOM     71  C   UNL A   1      42.850  33.568  35.728  1.00  0.00     0.041 A 
ATOM     72  F   UNL A   1      43.892  32.623  33.857  1.00  0.00    -0.206 F 
ATOM     73  C   UNL A   1      41.814  33.581  36.657  1.00  0.00     0.022 A 
BRANCH  70  74
ATOM     74  S   UNL A   1      39.396  32.644  37.683  1.00  0.00     0.124 S 
ATOM     75  O   UNL A   1      38.617  31.510  37.190  1.00  0.00    -0.237 OA
ATOM     76  O   UNL A   1      39.940  32.507  39.028  1.00  0.00    -0.237 OA
ATOM     77  O   UNL A   1      38.841  33.957  37.362  1.00  0.00    -0.744 OA
ENDBRANCH  70  74
ENDBRANCH  53  67
BRANCH  54  78
ATOM     78  C   UNL A   1      42.320  24.691  27.392  1.00  0.00     0.023 A 
ATOM     79  C   UNL A   1      41.551  23.516  27.408  1.00  0.00     0.031 A 
ATOM     80  C   UNL A   1      43.204  24.883  26.316  1.00  0.00     0.131 A 
ATOM     81  C   UNL A   1      41.719  22.555  26.399  1.00  0.00     0.055 A 
ATOM     82  C   UNL A   1      43.327  23.951  25.284  1.00  0.00     0.041 A 
ATOM     83  F   UNL A   1      43.961  25.992  26.247  1.00  0.00    -0.206 F 
ATOM     84  C   UNL A   1      42.592  22.771  25.330  1.00  0.00     0.022 A 
BRANCH  81  85
ATOM     85  S   UNL A   1      40.849  20.971  26.556  1.00  0.00     0.124 S 
ATOM     86  O   UNL A   1      39.556  21.283  25.956  1.00  0.00    -0.237 OA
ATOM     87  O   UNL A   1      41.713  20.076  25.793  1.00  0.00    -0.237 OA
ATOM     88  O   UNL A   1      40.828  20.736  27.998  1.00  0.00    -0.744 OA
ENDBRANCH  81  85
ENDBRANCH  54  78
BRANCH  66  89
ATOM     89  C   UNL A   1      46.347  25.959  32.944  1.00  0.00     0.023 A 
ATOM     90  C   UNL A   1      46.253  24.868  33.825  1.00  0.00     0.031 A 
ATOM     91  C   UNL A   1      47.630  26.404  32.578  1.00  0.00     0.131 A 
ATOM     92  C   UNL A   1      47.419  24.298  34.357  1.00  0.00     0.055 A 
ATOM     93  C   UNL A   1      48.786  25.791  33.060  1.00  0.00     0.041 A 
ATOM     94  F   UNL A   1      47.780  27.443  31.740  1.00  0.00    -0.206 F 
ATOM     95  C   UNL A   1      48.686  24.741  33.967  1.00  0.00     0.022 A 
BRANCH  92  96
ATOM     96  S   UNL A   1      47.259  23.029  35.645  1.00  0.00     0.124 S 
ATOM     97  O   UNL A   1      47.673  23.757  36.840  1.00  0.00    -0.237 OA
ATOM     98  O   UNL A   1      45.843  22.684  35.568  1.00  0.00    -0.237 OA
ATOM     99  O   UNL A   1      48.177  21.980  35.208  1.00  0.00    -0.744 OA
ENDBRANCH  92  96
ENDBRANCH  66  89
ENDBRANCH  40  41
ENDBRANCH  32  35
ENDBRANCH  30  31
ENDBRANCH  29  30
ENDBRANCH   1  29
TORSDOF 19
ENDMDL
MODEL 3
REMARK VINA RESULT:     -11.2      2.784      3.683
REMARK SMILES CS(=O)(=O)c1ccc(N2N=C(C(=O)NCCCCCCNC(=O)c3ccc(-c4c5nc(c(-c6cc(S(=O)(=O)[O-])ccc6F)c6ccc([nH]6)c(-c6cc(S(=O)(=O)[O-])ccc6F)c6nc(c(-c7cc(S(=O)(=O)[O-])ccc7F)c7ccc4[nH]7)C=C6)C=C5)cc3)C[C@H]2c2cccs2)cc1
REMARK SMILES IDX 18 1 17 2 16 3 15 4 14 5 12 6 13 7 11 9 9 10 10 11 88 12
REMARK SMILES IDX 87 13 8 14 5 15 6 16 95 17 7 18 94 19 2 20 1 21 3 22 4 23
REMARK SMILES IDX 89 24 90 25 93 26 91 27 92 28 19 29 20 30 21 31 22 32 23 34
REMARK SMILES IDX 24 35 25 36 86 37 26 38 85 39 27 40 28 41 29 42 79 43 30 44
REMARK SMILES IDX 84 45 78 46 80 47 31 48 83 49 77 50 76 51 32 53 64 54 44 55
REMARK SMILES IDX 63 56 45 57 48 58 62 59 81 60 46 61 47 62 61 64 82 65 49 66
REMARK SMILES IDX 33 67 34 68 42 69 35 70 41 71 43 72 40 73 36 74 37 75 38 76
REMARK SMILES IDX 39 77 65 78 66 79 74 80 67 81 73 82 75 83 72 84 68 85 69 86
REMARK SMILES IDX 70 87 71 88 50 89 51 90 59 91 52 92 58 93 60 94 57 95 53 96
REMARK SMILES IDX 54 97 55 98 56 99
REMARK H PARENT 14 8 21 33 80 52 48 63
REMARK Flexibility Score: inf
ROOT
ATOM      1  C   UNL A   1      31.129  28.673  25.281  1.00  0.00     0.002 C 
ENDROOT
BRANCH   1   2
ATOM      2  C   UNL A   1      30.948  28.992  23.794  1.00  0.00     0.002 C 
BRANCH   2   3
ATOM      3  C   UNL A   1      31.219  27.831  22.837  1.00  0.00     0.021 C 
BRANCH   3   4
ATOM      4  C   UNL A   1      32.658  27.734  22.341  1.00  0.00     0.116 C 
BRANCH   4   5
ATOM      5  N   UNL A   1      32.777  26.793  21.247  1.00  0.00    -0.351 N 
ATOM      6  C   UNL A   1      32.954  25.435  21.172  1.00  0.00     0.267 C 
ATOM      7  O   UNL A   1      33.102  24.943  20.055  1.00  0.00    -0.268 OA
ATOM      8  H   UNL A   1      32.721  27.222  20.362  1.00  0.00     0.163 HD
BRANCH   6   9
ATOM      9  C   UNL A   1      32.927  24.505  22.376  1.00  0.00     0.128 C 
ATOM     10  N   UNL A   1      32.740  22.670  23.448  1.00  0.00    -0.256 N 
ATOM     11  N   UNL A   1      32.923  23.215  22.218  1.00  0.00    -0.171 NA
ATOM     12  C   UNL A   1      32.741  23.645  24.540  1.00  0.00     0.154 C 
ATOM     13  C   UNL A   1      32.912  24.971  23.793  1.00  0.00     0.097 C 
BRANCH  10  14
ATOM     14  C   UNL A   1      32.987  21.321  23.657  1.00  0.00     0.060 A 
ATOM     15  C   UNL A   1      33.547  18.608  24.097  1.00  0.00     0.067 A 
ATOM     16  C   UNL A   1      32.527  18.969  23.214  1.00  0.00     0.022 A 
ATOM     17  C   UNL A   1      34.271  19.583  24.782  1.00  0.00     0.022 A 
ATOM     18  C   UNL A   1      32.245  20.323  23.009  1.00  0.00     0.029 A 
ATOM     19  C   UNL A   1      33.991  20.929  24.552  1.00  0.00     0.029 A 
BRANCH  15  20
ATOM     20  S   UNL A   1      33.933  16.899  24.371  1.00  0.00     0.175 S 
ATOM     21  C   UNL A   1      32.739  16.371  25.573  1.00  0.00     0.163 C 
ATOM     22  O   UNL A   1      35.234  16.827  25.000  1.00  0.00    -0.224 OA
ATOM     23  O   UNL A   1      33.662  16.197  23.127  1.00  0.00    -0.224 OA
ENDBRANCH  15  20
ENDBRANCH  10  14
BRANCH  12  24
ATOM     24  C   UNL A   1      31.557  23.599  25.496  1.00  0.00     0.030 A 
ATOM     25  C   UNL A   1      30.677  24.634  25.769  1.00  0.00     0.017 A 
ATOM     26  S   UNL A   1      31.160  22.214  26.432  1.00  0.00    -0.147 S 
ATOM     27  C   UNL A   1      29.662  24.270  26.698  1.00  0.00     0.012 A 
ATOM     28  C   UNL A   1      29.779  22.960  27.098  1.00  0.00     0.065 A 
ENDBRANCH  12  24
ENDBRANCH   6   9
ENDBRANCH   4   5
ENDBRANCH   3   4
ENDBRANCH   2   3
ENDBRANCH   1   2
BRANCH   1  29
ATOM     29  C   UNL A   1      32.510  28.147  25.682  1.00  0.00     0.021 C 
BRANCH  29  30
ATOM     30  C   UNL A   1      33.616  29.198  25.725  1.00  0.00     0.116 C 
BRANCH  30  31
ATOM     31  N   UNL A   1      33.126  30.491  26.163  1.00  0.00    -0.352 N 
ATOM     32  C   UNL A   1      33.568  31.283  27.193  1.00  0.00     0.251 C 
ATOM     33  H   UNL A   1      32.368  30.852  25.648  1.00  0.00     0.163 HD
ATOM     34  O   UNL A   1      32.901  32.253  27.539  1.00  0.00    -0.269 OA
BRANCH  32  35
ATOM     35  C   UNL A   1      34.830  30.953  27.894  1.00  0.00     0.039 A 
ATOM     36  C   UNL A   1      35.816  31.935  28.004  1.00  0.00     0.014 A 
ATOM     37  C   UNL A   1      35.050  29.677  28.422  1.00  0.00     0.014 A 
ATOM     38  C   UNL A   1      37.004  31.653  28.683  1.00  0.00     0.010 A 
ATOM     39  C   UNL A   1      36.202  29.420  29.161  1.00  0.00     0.010 A 
ATOM     40  C   UNL A   1      37.197  30.401  29.290  1.00  0.00    -0.014 A 
BRANCH  40  41
ATOM     41  C   UNL A   1      38.447  30.091  30.033  1.00  0.00     0.031 A 
ATOM     42  C   UNL A   1      38.658  30.654  31.413  1.00  0.00     0.074 A 
ATOM     43  C   UNL A   1      39.407  29.348  29.450  1.00  0.00     0.049 A 
ATOM     44  N   UNL A   1      39.705  30.566  32.193  1.00  0.00    -0.248 NA
ATOM     45  C   UNL A   1      37.556  31.448  31.976  1.00  0.00     0.031 C 
ATOM     46  C   UNL A   1      39.331  28.770  28.106  1.00  0.00     0.029 A 
ATOM     47  N   UNL A   1      40.639  28.951  29.910  1.00  0.00    -0.354 N 
ATOM     48  C   UNL A   1      39.393  31.301  33.333  1.00  0.00     0.074 A 
ATOM     49  C   UNL A   1      38.086  31.884  33.108  1.00  0.00     0.031 C 
ATOM     50  C   UNL A   1      40.452  28.075  27.861  1.00  0.00     0.029 A 
ATOM     51  C   UNL A   1      41.349  28.193  29.007  1.00  0.00     0.049 A 
ATOM     52  H   UNL A   1      40.982  29.188  30.801  1.00  0.00     0.167 HD
ATOM     53  C   UNL A   1      40.115  31.454  34.471  1.00  0.00     0.034 A 
ATOM     54  C   UNL A   1      42.585  27.662  29.090  1.00  0.00     0.034 A 
ATOM     55  C   UNL A   1      41.410  30.856  34.683  1.00  0.00     0.049 A 
ATOM     56  C   UNL A   1      43.383  27.870  30.353  1.00  0.00     0.074 A 
ATOM     57  C   UNL A   1      42.213  30.912  35.809  1.00  0.00     0.029 A 
ATOM     58  N   UNL A   1      42.097  30.093  33.746  1.00  0.00    -0.354 N 
ATOM     59  N   UNL A   1      43.058  28.537  31.437  1.00  0.00    -0.248 NA
ATOM     60  C   UNL A   1      44.710  27.242  30.410  1.00  0.00     0.031 C 
ATOM     61  C   UNL A   1      43.410  30.243  35.531  1.00  0.00     0.029 A 
ATOM     62  C   UNL A   1      43.324  29.698  34.260  1.00  0.00     0.049 A 
ATOM     63  H   UNL A   1      41.764  29.867  32.849  1.00  0.00     0.167 HD
ATOM     64  C   UNL A   1      44.125  28.375  32.317  1.00  0.00     0.074 A 
ATOM     65  C   UNL A   1      45.094  27.538  31.642  1.00  0.00     0.031 C 
ATOM     66  C   UNL A   1      44.284  28.866  33.573  1.00  0.00     0.034 A 
BRANCH  53  67
ATOM     67  C   UNL A   1      39.524  32.323  35.557  1.00  0.00     0.023 A 
ATOM     68  C   UNL A   1      39.868  33.681  35.684  1.00  0.00     0.031 A 
ATOM     69  C   UNL A   1      38.630  31.783  36.498  1.00  0.00     0.131 A 
ATOM     70  C   UNL A   1      39.391  34.427  36.772  1.00  0.00     0.055 A 
ATOM     71  C   UNL A   1      38.088  32.556  37.528  1.00  0.00     0.041 A 
ATOM     72  F   UNL A   1      38.279  30.489  36.444  1.00  0.00    -0.206 F 
ATOM     73  C   UNL A   1      38.482  33.882  37.680  1.00  0.00     0.022 A 
BRANCH  70  74
ATOM     74  S   UNL A   1      40.099  36.070  37.070  1.00  0.00     0.124 S 
ATOM     75  O   UNL A   1      39.288  36.540  38.191  1.00  0.00    -0.237 OA
ATOM     76  O   UNL A   1      41.491  35.764  37.374  1.00  0.00    -0.237 OA
ATOM     77  O   UNL A   1      39.874  36.774  35.809  1.00  0.00    -0.744 OA
ENDBRANCH  70  74
ENDBRANCH  53  67
BRANCH  54  78
ATOM     78  C   UNL A   1      43.155  26.887  27.950  1.00  0.00     0.023 A 
ATOM     79  C   UNL A   1      42.999  25.494  27.873  1.00  0.00     0.031 A 
ATOM     80  C   UNL A   1      43.908  27.521  26.945  1.00  0.00     0.131 A 
ATOM     81  C   UNL A   1      43.630  24.774  26.847  1.00  0.00     0.055 A 
ATOM     82  C   UNL A   1      44.486  26.807  25.894  1.00  0.00     0.041 A 
ATOM     83  F   UNL A   1      44.086  28.853  26.967  1.00  0.00    -0.206 F 
ATOM     84  C   UNL A   1      44.361  25.423  25.849  1.00  0.00     0.022 A 
BRANCH  81  85
ATOM     85  S   UNL A   1      43.561  22.962  26.889  1.00  0.00     0.124 S 
ATOM     86  O   UNL A   1      44.975  22.613  26.960  1.00  0.00    -0.237 OA
ATOM     87  O   UNL A   1      42.777  22.719  28.096  1.00  0.00    -0.237 OA
ATOM     88  O   UNL A   1      42.894  22.618  25.635  1.00  0.00    -0.744 OA
ENDBRANCH  81  85
ENDBRANCH  54  78
BRANCH  66  89
ATOM     89  C   UNL A   1      45.535  28.459  34.315  1.00  0.00     0.023 A 
ATOM     90  C   UNL A   1      45.601  27.274  35.069  1.00  0.00     0.031 A 
ATOM     91  C   UNL A   1      46.676  29.280  34.274  1.00  0.00     0.131 A 
ATOM     92  C   UNL A   1      46.762  26.974  35.797  1.00  0.00     0.055 A 
ATOM     93  C   UNL A   1      47.849  28.944  34.949  1.00  0.00     0.041 A 
ATOM     94  F   UNL A   1      46.670  30.425  33.572  1.00  0.00    -0.206 F 
ATOM     95  C   UNL A   1      47.893  27.792  35.729  1.00  0.00     0.022 A 
BRANCH  92  96
ATOM     96  S   UNL A   1      46.742  25.547  36.918  1.00  0.00     0.124 S 
ATOM     97  O   UNL A   1      47.178  26.143  38.176  1.00  0.00    -0.237 OA
ATOM     98  O   UNL A   1      45.346  25.127  36.862  1.00  0.00    -0.237 OA
ATOM     99  O   UNL A   1      47.692  24.619  36.308  1.00  0.00    -0.744 OA
ENDBRANCH  92  96
ENDBRANCH  66  89
ENDBRANCH  40  41
ENDBRANCH  32  35
ENDBRANCH  30  31
ENDBRANCH  29  30
ENDBRANCH   1  29
TORSDOF 19
ENDMDL
