MODEL 1
REMARK VINA RESULT:     -12.1      0.000      0.000
REMARK SMILES O=C(NCCCCCCNC(=O)c1ccc2c(c1)[C@@H](C1CCOCC1)C(=O)N2)c1ccc(-c2c3nc(c(-c4cc(S(=O)(=O)[O-])ccc4F)c4ccc([nH]4)c(-c4cc(S(=O)(=O)[O-])ccc4F)c4nc(c(-c5cc(S(=O)(=O)[O-])ccc5F)c5ccc2[nH]5)C=C4)C=C3)cc1
REMARK SMILES IDX 5 1 4 2 3 3 1 4 2 5 29 7 30 8 91 9 31 10 90 11 32 12 33 13
REMARK SMILES IDX 34 14 84 15 35 16 89 17 83 18 85 19 36 20 88 21 82 22 81 23
REMARK SMILES IDX 37 25 69 26 49 27 68 28 50 29 53 30 67 31 86 32 51 33 52 34
REMARK SMILES IDX 66 36 87 37 54 38 38 39 39 40 47 41 40 42 46 43 48 44 45 45
REMARK SMILES IDX 41 46 42 47 43 48 44 49 70 50 71 51 79 52 72 53 78 54 80 55
REMARK SMILES IDX 77 56 73 57 74 58 75 59 76 60 55 61 56 62 64 63 57 64 63 65
REMARK SMILES IDX 65 66 62 67 58 68 59 69 60 70 61 71 6 72 7 73 8 74 9 75
REMARK SMILES IDX 10 76 11 77 12 79 13 80 14 81 18 82 15 83 17 84 16 85 19 86
REMARK SMILES IDX 28 87 26 88 27 90 20 91 21 92 25 93 22 94 24 95 23 96
REMARK H PARENT 3 6 85 24 53 35 10 78 28 89
REMARK Flexibility Score: inf
ROOT
ATOM      1  C   UNL A   1      36.168  22.626  24.415  1.00  0.00     0.021 C 
ENDROOT
BRANCH   1   2
ATOM      2  C   UNL A   1      36.772  22.384  25.790  1.00  0.00     0.116 C 
BRANCH   2   3
ATOM      3  N   UNL A   1      37.700  21.263  25.815  1.00  0.00    -0.352 N 
ATOM      4  O   UNL A   1      39.718  20.255  25.981  1.00  0.00    -0.269 OA
ATOM      5  C   UNL A   1      39.037  21.262  26.145  1.00  0.00     0.251 C 
ATOM      6  H   UNL A   1      37.321  20.389  25.564  1.00  0.00     0.163 HD
BRANCH   5   7
ATOM      7  C   UNL A   1      39.643  22.501  26.678  1.00  0.00     0.039 A 
ATOM      8  C   UNL A   1      39.253  23.738  26.162  1.00  0.00     0.014 A 
ATOM      9  C   UNL A   1      40.638  22.431  27.657  1.00  0.00     0.014 A 
ATOM     10  C   UNL A   1      39.982  24.872  26.479  1.00  0.00     0.010 A 
ATOM     11  C   UNL A   1      41.284  23.601  28.075  1.00  0.00     0.010 A 
ATOM     12  C   UNL A   1      40.981  24.830  27.468  1.00  0.00    -0.014 A 
BRANCH  12  13
ATOM     13  C   UNL A   1      41.605  26.114  27.887  1.00  0.00     0.031 A 
ATOM     14  C   UNL A   1      42.995  26.499  27.466  1.00  0.00     0.074 A 
ATOM     15  C   UNL A   1      40.849  26.973  28.602  1.00  0.00     0.049 A 
ATOM     16  N   UNL A   1      43.644  27.612  27.701  1.00  0.00    -0.248 NA
ATOM     17  C   UNL A   1      43.762  25.513  26.692  1.00  0.00     0.031 C 
ATOM     18  C   UNL A   1      39.488  26.694  29.077  1.00  0.00     0.029 A 
ATOM     19  N   UNL A   1      41.084  28.256  29.022  1.00  0.00    -0.354 N 
ATOM     20  C   UNL A   1      44.893  27.465  27.107  1.00  0.00     0.074 A 
ATOM     21  C   UNL A   1      44.926  26.132  26.539  1.00  0.00     0.031 C 
ATOM     22  C   UNL A   1      38.985  27.793  29.651  1.00  0.00     0.029 A 
ATOM     23  C   UNL A   1      40.016  28.822  29.682  1.00  0.00     0.049 A 
ATOM     24  H   UNL A   1      41.934  28.726  28.867  1.00  0.00     0.167 HD
ATOM     25  C   UNL A   1      45.907  28.364  27.035  1.00  0.00     0.034 A 
ATOM     26  C   UNL A   1      39.885  30.021  30.277  1.00  0.00     0.034 A 
ATOM     27  C   UNL A   1      45.857  29.685  27.620  1.00  0.00     0.049 A 
ATOM     28  C   UNL A   1      41.047  30.974  30.222  1.00  0.00     0.074 A 
ATOM     29  C   UNL A   1      46.828  30.672  27.604  1.00  0.00     0.029 A 
ATOM     30  N   UNL A   1      44.782  30.204  28.331  1.00  0.00    -0.354 N 
ATOM     31  N   UNL A   1      42.217  30.818  29.645  1.00  0.00    -0.248 NA
ATOM     32  C   UNL A   1      40.870  32.266  30.893  1.00  0.00     0.031 C 
ATOM     33  C   UNL A   1      46.371  31.754  28.364  1.00  0.00     0.029 A 
ATOM     34  C   UNL A   1      45.078  31.484  28.781  1.00  0.00     0.049 A 
ATOM     35  H   UNL A   1      43.933  29.733  28.492  1.00  0.00     0.167 HD
ATOM     36  C   UNL A   1      42.909  32.002  29.872  1.00  0.00     0.074 A 
ATOM     37  C   UNL A   1      42.008  32.874  30.597  1.00  0.00     0.031 C 
ATOM     38  C   UNL A   1      44.178  32.336  29.523  1.00  0.00     0.034 A 
BRANCH  25  39
ATOM     39  C   UNL A   1      47.171  27.940  26.322  1.00  0.00     0.023 A 
ATOM     40  C   UNL A   1      47.313  28.066  24.929  1.00  0.00     0.031 A 
ATOM     41  C   UNL A   1      48.259  27.416  27.046  1.00  0.00     0.131 A 
ATOM     42  C   UNL A   1      48.487  27.628  24.298  1.00  0.00     0.055 A 
ATOM     43  C   UNL A   1      49.455  27.053  26.422  1.00  0.00     0.041 A 
ATOM     44  F   UNL A   1      48.178  27.251  28.376  1.00  0.00    -0.206 F 
ATOM     45  C   UNL A   1      49.571  27.147  25.039  1.00  0.00     0.022 A 
BRANCH  42  46
ATOM     46  S   UNL A   1      48.535  27.584  22.486  1.00  0.00     0.124 S 
ATOM     47  O   UNL A   1      49.776  28.304  22.204  1.00  0.00    -0.237 OA
ATOM     48  O   UNL A   1      48.552  26.154  22.203  1.00  0.00    -0.237 OA
ATOM     49  O   UNL A   1      47.314  28.285  22.092  1.00  0.00    -0.744 OA
ENDBRANCH  42  46
ENDBRANCH  25  39
BRANCH  26  50
ATOM     50  C   UNL A   1      38.639  30.363  31.021  1.00  0.00     0.023 A 
ATOM     51  C   UNL A   1      37.598  31.079  30.414  1.00  0.00     0.031 A 
ATOM     52  C   UNL A   1      38.497  30.020  32.380  1.00  0.00     0.131 A 
ATOM     53  C   UNL A   1      36.493  31.486  31.178  1.00  0.00     0.055 A 
ATOM     54  C   UNL A   1      37.361  30.358  33.113  1.00  0.00     0.041 A 
ATOM     55  F   UNL A   1      39.462  29.334  33.014  1.00  0.00    -0.206 F 
ATOM     56  C   UNL A   1      36.358  31.114  32.518  1.00  0.00     0.022 A 
BRANCH  53  57
ATOM     57  S   UNL A   1      35.294  32.621  30.428  1.00  0.00     0.124 S 
ATOM     58  O   UNL A   1      34.274  32.702  31.465  1.00  0.00    -0.237 OA
ATOM     59  O   UNL A   1      36.101  33.821  30.226  1.00  0.00    -0.237 OA
ATOM     60  O   UNL A   1      34.891  31.929  29.206  1.00  0.00    -0.744 OA
ENDBRANCH  53  57
ENDBRANCH  26  50
BRANCH  38  61
ATOM     61  C   UNL A   1      44.638  33.723  29.906  1.00  0.00     0.023 A 
ATOM     62  C   UNL A   1      44.477  34.818  29.037  1.00  0.00     0.031 A 
ATOM     63  C   UNL A   1      45.300  33.943  31.126  1.00  0.00     0.131 A 
ATOM     64  C   UNL A   1      45.048  36.056  29.359  1.00  0.00     0.055 A 
ATOM     65  C   UNL A   1      45.795  35.199  31.479  1.00  0.00     0.041 A 
ATOM     66  F   UNL A   1      45.487  32.935  31.994  1.00  0.00    -0.206 F 
ATOM     67  C   UNL A   1      45.689  36.260  30.584  1.00  0.00     0.022 A 
BRANCH  64  68
ATOM     68  S   UNL A   1      45.065  37.358  28.095  1.00  0.00     0.124 S 
ATOM     69  O   UNL A   1      43.771  37.997  28.304  1.00  0.00    -0.237 OA
ATOM     70  O   UNL A   1      46.234  38.145  28.474  1.00  0.00    -0.237 OA
ATOM     71  O   UNL A   1      45.196  36.616  26.842  1.00  0.00    -0.744 OA
ENDBRANCH  64  68
ENDBRANCH  38  61
ENDBRANCH  12  13
ENDBRANCH   5   7
ENDBRANCH   2   3
ENDBRANCH   1   2
BRANCH   1  72
ATOM     72  C   UNL A   1      34.761  23.215  24.434  1.00  0.00     0.002 C 
BRANCH  72  73
ATOM     73  C   UNL A   1      34.417  24.040  25.678  1.00  0.00     0.002 C 
BRANCH  73  74
ATOM     74  C   UNL A   1      33.737  23.271  26.815  1.00  0.00     0.021 C 
BRANCH  74  75
ATOM     75  C   UNL A   1      32.852  22.110  26.369  1.00  0.00     0.116 C 
BRANCH  75  76
ATOM     76  N   UNL A   1      31.519  22.196  26.943  1.00  0.00    -0.352 N 
ATOM     77  C   UNL A   1      30.541  23.128  26.716  1.00  0.00     0.251 C 
ATOM     78  H   UNL A   1      31.287  21.487  27.584  1.00  0.00     0.163 HD
ATOM     79  O   UNL A   1      29.544  23.177  27.431  1.00  0.00    -0.269 OA
BRANCH  77  80
ATOM     80  C   UNL A   1      30.697  24.097  25.611  1.00  0.00     0.040 A 
ATOM     81  C   UNL A   1      30.924  23.643  24.293  1.00  0.00     0.016 A 
ATOM     82  C   UNL A   1      30.598  25.464  25.904  1.00  0.00     0.020 A 
ATOM     83  C   UNL A   1      31.116  24.554  23.254  1.00  0.00     0.027 A 
ATOM     84  C   UNL A   1      30.789  26.357  24.864  1.00  0.00    -0.011 A 
ATOM     85  C   UNL A   1      31.044  25.893  23.573  1.00  0.00     0.045 A 
ATOM     86  C   UNL A   1      30.783  27.868  24.862  1.00  0.00     0.114 C 
ATOM     87  N   UNL A   1      31.197  26.961  22.708  1.00  0.00    -0.325 N 
ATOM     88  C   UNL A   1      31.033  28.173  23.364  1.00  0.00     0.232 C 
ATOM     89  H   UNL A   1      31.396  26.874  21.749  1.00  0.00     0.169 HD
ATOM     90  O   UNL A   1      31.054  29.269  22.826  1.00  0.00    -0.274 OA
BRANCH  86  91
ATOM     91  C   UNL A   1      31.812  28.498  25.826  1.00  0.00     0.010 C 
ATOM     92  C   UNL A   1      31.647  30.024  25.929  1.00  0.00     0.033 C 
ATOM     93  C   UNL A   1      33.276  28.159  25.491  1.00  0.00     0.033 C 
ATOM     94  C   UNL A   1      32.701  30.633  26.847  1.00  0.00     0.160 C 
ATOM     95  C   UNL A   1      34.231  28.874  26.440  1.00  0.00     0.160 C 
ATOM     96  O   UNL A   1      34.013  30.281  26.416  1.00  0.00    -0.381 OA
ENDBRANCH  86  91
ENDBRANCH  77  80
ENDBRANCH  75  76
ENDBRANCH  74  75
ENDBRANCH  73  74
ENDBRANCH  72  73
ENDBRANCH   1  72
TORSDOF 17
ENDMDL
MODEL 2
REMARK VINA RESULT:     -11.9      4.815     10.074
REMARK SMILES O=C(NCCCCCCNC(=O)c1ccc2c(c1)[C@@H](C1CCOCC1)C(=O)N2)c1ccc(-c2c3nc(c(-c4cc(S(=O)(=O)[O-])ccc4F)c4ccc([nH]4)c(-c4cc(S(=O)(=O)[O-])ccc4F)c4nc(c(-c5cc(S(=O)(=O)[O-])ccc5F)c5ccc2[nH]5)C=C4)C=C3)cc1
REMARK SMILES IDX 5 1 4 2 3 3 1 4 2 5 29 7 30 8 91 9 31 10 90 11 32 12 33 13
REMARK SMILES IDX 34 14 84 15 35 16 89 17 83 18 85 19 36 20 88 21 82 22 81 23
REMARK SMILES IDX 37 25 69 26 49 27 68 28 50 29 53 30 67 31 86 32 51 33 52 34
REMARK SMILES IDX 66 36 87 37 54 38 38 39 39 40 47 41 40 42 46 43 48 44 45 45
REMARK SMILES IDX 41 46 42 47 43 48 44 49 70 50 71 51 79 52 72 53 78 54 80 55
REMARK SMILES IDX 77 56 73 57 74 58 75 59 76 60 55 61 56 62 64 63 57 64 63 65
REMARK SMILES IDX 65 66 62 67 58 68 59 69 60 70 61 71 6 72 7 73 8 74 9 75
REMARK SMILES IDX 10 76 11 77 12 79 13 80 14 81 18 82 15 83 17 84 16 85 19 86
REMARK SMILES IDX 28 87 26 88 27 90 20 91 21 92 25 93 22 94 24 95 23 96
REMARK H PARENT 3 6 85 24 53 35 10 78 28 89
REMARK Flexibility Score: inf
ROOT
ATOM      1  C   UNL A   1      31.777  28.778  26.263  1.00  0.00     0.021 C 
ENDROOT
BRANCH   1   2
ATOM      2  C   UNL A   1      32.819  29.840  25.952  1.00  0.00     0.116 C 
BRANCH   2   3
ATOM      3  N   UNL A   1      32.385  31.184  26.304  1.00  0.00    -0.352 N 
ATOM      4  O   UNL A   1      32.398  33.120  27.475  1.00  0.00    -0.269 OA
ATOM      5  C   UNL A   1      32.966  32.073  27.181  1.00  0.00     0.251 C 
ATOM      6  H   UNL A   1      31.568  31.501  25.854  1.00  0.00     0.163 HD
BRANCH   5   7
ATOM      7  C   UNL A   1      34.275  31.734  27.780  1.00  0.00     0.039 A 
ATOM      8  C   UNL A   1      34.493  30.449  28.281  1.00  0.00     0.014 A 
ATOM      9  C   UNL A   1      35.270  32.709  27.891  1.00  0.00     0.014 A 
ATOM     10  C   UNL A   1      35.614  30.198  29.053  1.00  0.00     0.010 A 
ATOM     11  C   UNL A   1      36.463  32.409  28.559  1.00  0.00     0.010 A 
ATOM     12  C   UNL A   1      36.635  31.158  29.172  1.00  0.00    -0.014 A 
BRANCH  12  13
ATOM     13  C   UNL A   1      37.889  30.764  29.868  1.00  0.00     0.031 A 
ATOM     14  C   UNL A   1      38.195  31.209  31.271  1.00  0.00     0.074 A 
ATOM     15  C   UNL A   1      38.722  29.919  29.226  1.00  0.00     0.049 A 
ATOM     16  N   UNL A   1      39.217  30.892  32.026  1.00  0.00    -0.248 NA
ATOM     17  C   UNL A   1      37.246  32.132  31.908  1.00  0.00     0.031 C 
ATOM     18  C   UNL A   1      38.527  29.435  27.853  1.00  0.00     0.029 A 
ATOM     19  N   UNL A   1      39.866  29.286  29.635  1.00  0.00    -0.354 N 
ATOM     20  C   UNL A   1      39.037  31.572  33.225  1.00  0.00     0.074 A 
ATOM     21  C   UNL A   1      37.829  32.357  33.078  1.00  0.00     0.031 C 
ATOM     22  C   UNL A   1      39.469  28.528  27.567  1.00  0.00     0.029 A 
ATOM     23  C   UNL A   1      40.395  28.440  28.687  1.00  0.00     0.049 A 
ATOM     24  H   UNL A   1      40.270  29.424  30.523  1.00  0.00     0.167 HD
ATOM     25  C   UNL A   1      39.805  31.533  34.345  1.00  0.00     0.034 A 
ATOM     26  C   UNL A   1      41.517  27.698  28.698  1.00  0.00     0.034 A 
ATOM     27  C   UNL A   1      41.015  30.750  34.465  1.00  0.00     0.049 A 
ATOM     28  C   UNL A   1      42.371  27.717  29.935  1.00  0.00     0.074 A 
ATOM     29  C   UNL A   1      41.864  30.639  35.554  1.00  0.00     0.029 A 
ATOM     30  N   UNL A   1      41.553  29.950  33.465  1.00  0.00    -0.354 N 
ATOM     31  N   UNL A   1      42.176  28.360  31.063  1.00  0.00    -0.248 NA
ATOM     32  C   UNL A   1      43.593  26.905  29.903  1.00  0.00     0.031 C 
ATOM     33  C   UNL A   1      42.948  29.834  35.188  1.00  0.00     0.029 A 
ATOM     34  C   UNL A   1      42.735  29.367  33.901  1.00  0.00     0.049 A 
ATOM     35  H   UNL A   1      41.154  29.815  32.576  1.00  0.00     0.167 HD
ATOM     36  C   UNL A   1      43.247  28.017  31.882  1.00  0.00     0.074 A 
ATOM     37  C   UNL A   1      44.054  27.076  31.132  1.00  0.00     0.031 C 
ATOM     38  C   UNL A   1      43.543  28.446  33.135  1.00  0.00     0.034 A 
BRANCH  25  39
ATOM     39  C   UNL A   1      39.377  32.381  35.520  1.00  0.00     0.023 A 
ATOM     40  C   UNL A   1      39.792  33.717  35.658  1.00  0.00     0.031 A 
ATOM     41  C   UNL A   1      38.527  31.853  36.511  1.00  0.00     0.131 A 
ATOM     42  C   UNL A   1      39.404  34.462  36.783  1.00  0.00     0.055 A 
ATOM     43  C   UNL A   1      38.082  32.623  37.588  1.00  0.00     0.041 A 
ATOM     44  F   UNL A   1      38.114  30.578  36.448  1.00  0.00    -0.206 F 
ATOM     45  C   UNL A   1      38.529  33.933  37.735  1.00  0.00     0.022 A 
BRANCH  42  46
ATOM     46  S   UNL A   1      40.153  36.093  37.044  1.00  0.00     0.124 S 
ATOM     47  O   UNL A   1      39.395  36.586  38.193  1.00  0.00    -0.237 OA
ATOM     48  O   UNL A   1      41.550  35.763  37.299  1.00  0.00    -0.237 OA
ATOM     49  O   UNL A   1      39.895  36.795  35.789  1.00  0.00    -0.744 OA
ENDBRANCH  42  46
ENDBRANCH  25  39
BRANCH  26  50
ATOM     50  C   UNL A   1      41.926  26.930  27.487  1.00  0.00     0.023 A 
ATOM     51  C   UNL A   1      41.678  25.554  27.375  1.00  0.00     0.031 A 
ATOM     52  C   UNL A   1      42.626  27.559  26.439  1.00  0.00     0.131 A 
ATOM     53  C   UNL A   1      42.182  24.841  26.277  1.00  0.00     0.055 A 
ATOM     54  C   UNL A   1      43.055  26.861  25.312  1.00  0.00     0.041 A 
ATOM     55  F   UNL A   1      42.892  28.874  26.492  1.00  0.00    -0.206 F 
ATOM     56  C   UNL A   1      42.852  25.488  25.235  1.00  0.00     0.022 A 
BRANCH  53  57
ATOM     57  S   UNL A   1      42.062  23.032  26.291  1.00  0.00     0.124 S 
ATOM     58  O   UNL A   1      42.850  22.692  27.469  1.00  0.00    -0.237 OA
ATOM     59  O   UNL A   1      40.621  22.827  26.402  1.00  0.00    -0.237 OA
ATOM     60  O   UNL A   1      42.650  22.643  25.011  1.00  0.00    -0.744 OA
ENDBRANCH  53  57
ENDBRANCH  26  50
BRANCH  38  61
ATOM     61  C   UNL A   1      44.784  27.866  33.770  1.00  0.00     0.023 A 
ATOM     62  C   UNL A   1      44.747  26.655  34.487  1.00  0.00     0.031 A 
ATOM     63  C   UNL A   1      46.006  28.558  33.711  1.00  0.00     0.131 A 
ATOM     64  C   UNL A   1      45.882  26.223  35.188  1.00  0.00     0.055 A 
ATOM     65  C   UNL A   1      47.155  28.080  34.343  1.00  0.00     0.041 A 
ATOM     66  F   UNL A   1      46.101  29.721  33.045  1.00  0.00    -0.206 F 
ATOM     67  C   UNL A   1      47.091  26.917  35.104  1.00  0.00     0.022 A 
BRANCH  64  68
ATOM     68  S   UNL A   1      45.714  24.818  36.324  1.00  0.00     0.124 S 
ATOM     69  O   UNL A   1      45.783  25.474  37.625  1.00  0.00    -0.237 OA
ATOM     70  O   UNL A   1      44.413  24.271  35.954  1.00  0.00    -0.237 OA
ATOM     71  O   UNL A   1      46.860  23.972  35.994  1.00  0.00    -0.744 OA
ENDBRANCH  64  68
ENDBRANCH  38  61
ENDBRANCH  12  13
ENDBRANCH   5   7
ENDBRANCH   2   3
ENDBRANCH   1   2
BRANCH   1  72
ATOM     72  C   UNL A   1      31.079  28.195  25.038  1.00  0.00     0.002 C 
BRANCH  72  73
ATOM     73  C   UNL A   1      30.757  29.202  23.930  1.00  0.00     0.002 C 
BRANCH  73  74
ATOM     74  C   UNL A   1      30.716  28.632  22.509  1.00  0.00     0.021 C 
BRANCH  74  75
ATOM     75  C   UNL A   1      30.600  27.113  22.427  1.00  0.00     0.116 C 
BRANCH  75  76
ATOM     76  N   UNL A   1      31.549  26.549  21.480  1.00  0.00    -0.352 N 
ATOM     77  C   UNL A   1      32.715  25.873  21.727  1.00  0.00     0.251 C 
ATOM     78  H   UNL A   1      31.323  26.670  20.530  1.00  0.00     0.163 HD
ATOM     79  O   UNL A   1      33.508  25.638  20.819  1.00  0.00    -0.269 OA
BRANCH  77  80
ATOM     80  C   UNL A   1      33.030  25.439  23.104  1.00  0.00     0.040 A 
ATOM     81  C   UNL A   1      33.737  26.295  23.977  1.00  0.00     0.016 A 
ATOM     82  C   UNL A   1      32.597  24.172  23.518  1.00  0.00     0.020 A 
ATOM     83  C   UNL A   1      34.074  25.873  25.263  1.00  0.00     0.027 A 
ATOM     84  C   UNL A   1      32.938  23.765  24.797  1.00  0.00    -0.011 A 
ATOM     85  C   UNL A   1      33.664  24.611  25.637  1.00  0.00     0.045 A 
ATOM     86  C   UNL A   1      32.658  22.465  25.514  1.00  0.00     0.114 C 
ATOM     87  N   UNL A   1      33.882  23.993  26.854  1.00  0.00    -0.325 N 
ATOM     88  C   UNL A   1      33.304  22.733  26.897  1.00  0.00     0.232 C 
ATOM     89  H   UNL A   1      34.384  24.397  27.598  1.00  0.00     0.169 HD
ATOM     90  O   UNL A   1      33.292  21.999  27.873  1.00  0.00    -0.274 OA
BRANCH  86  91
ATOM     91  C   UNL A   1      33.200  21.218  24.783  1.00  0.00     0.010 C 
ATOM     92  C   UNL A   1      32.182  20.066  24.771  1.00  0.00     0.033 C 
ATOM     93  C   UNL A   1      34.549  20.709  25.326  1.00  0.00     0.033 C 
ATOM     94  C   UNL A   1      32.753  18.829  24.088  1.00  0.00     0.160 C 
ATOM     95  C   UNL A   1      34.982  19.438  24.603  1.00  0.00     0.160 C 
ATOM     96  O   UNL A   1      33.978  18.432  24.700  1.00  0.00    -0.381 OA
ENDBRANCH  86  91
ENDBRANCH  77  80
ENDBRANCH  75  76
ENDBRANCH  74  75
ENDBRANCH  73  74
ENDBRANCH  72  73
ENDBRANCH   1  72
TORSDOF 17
ENDMDL
MODEL 3
REMARK VINA RESULT:     -11.9      2.038      2.625
REMARK SMILES O=C(NCCCCCCNC(=O)c1ccc2c(c1)[C@@H](C1CCOCC1)C(=O)N2)c1ccc(-c2c3nc(c(-c4cc(S(=O)(=O)[O-])ccc4F)c4ccc([nH]4)c(-c4cc(S(=O)(=O)[O-])ccc4F)c4nc(c(-c5cc(S(=O)(=O)[O-])ccc5F)c5ccc2[nH]5)C=C4)C=C3)cc1
REMARK SMILES IDX 5 1 4 2 3 3 1 4 2 5 29 7 30 8 91 9 31 10 90 11 32 12 33 13
REMARK SMILES IDX 34 14 84 15 35 16 89 17 83 18 85 19 36 20 88 21 82 22 81 23
REMARK SMILES IDX 37 25 69 26 49 27 68 28 50 29 53 30 67 31 86 32 51 33 52 34
REMARK SMILES IDX 66 36 87 37 54 38 38 39 39 40 47 41 40 42 46 43 48 44 45 45
REMARK SMILES IDX 41 46 42 47 43 48 44 49 70 50 71 51 79 52 72 53 78 54 80 55
REMARK SMILES IDX 77 56 73 57 74 58 75 59 76 60 55 61 56 62 64 63 57 64 63 65
REMARK SMILES IDX 65 66 62 67 58 68 59 69 60 70 61 71 6 72 7 73 8 74 9 75
REMARK SMILES IDX 10 76 11 77 12 79 13 80 14 81 18 82 15 83 17 84 16 85 19 86
REMARK SMILES IDX 28 87 26 88 27 90 20 91 21 92 25 93 22 94 24 95 23 96
REMARK H PARENT 3 6 85 24 53 35 10 78 28 89
REMARK Flexibility Score: inf
ROOT
ATOM      1  C   UNL A   1      35.826  23.433  24.229  1.00  0.00     0.021 C 
ENDROOT
BRANCH   1   2
ATOM      2  C   UNL A   1      36.940  23.893  25.156  1.00  0.00     0.116 C 
BRANCH   2   3
ATOM      3  N   UNL A   1      37.910  22.846  25.442  1.00  0.00    -0.352 N 
ATOM      4  O   UNL A   1      39.882  21.995  26.152  1.00  0.00    -0.269 OA
ATOM      5  C   UNL A   1      39.108  22.946  26.115  1.00  0.00     0.251 C 
ATOM      6  H   UNL A   1      37.680  21.947  25.112  1.00  0.00     0.163 HD
BRANCH   5   7
ATOM      7  C   UNL A   1      39.454  24.225  26.773  1.00  0.00     0.039 A 
ATOM      8  C   UNL A   1      40.174  25.190  26.067  1.00  0.00     0.014 A 
ATOM      9  C   UNL A   1      39.108  24.443  28.109  1.00  0.00     0.014 A 
ATOM     10  C   UNL A   1      40.707  26.275  26.744  1.00  0.00     0.010 A 
ATOM     11  C   UNL A   1      39.537  25.609  28.754  1.00  0.00     0.010 A 
ATOM     12  C   UNL A   1      40.365  26.523  28.085  1.00  0.00    -0.014 A 
BRANCH  12  13
ATOM     13  C   UNL A   1      40.829  27.795  28.701  1.00  0.00     0.031 A 
ATOM     14  C   UNL A   1      42.288  28.115  28.869  1.00  0.00     0.074 A 
ATOM     15  C   UNL A   1      39.890  28.705  29.040  1.00  0.00     0.049 A 
ATOM     16  N   UNL A   1      42.839  29.210  29.329  1.00  0.00    -0.248 NA
ATOM     17  C   UNL A   1      43.254  27.077  28.482  1.00  0.00     0.031 C 
ATOM     18  C   UNL A   1      38.442  28.491  28.933  1.00  0.00     0.029 A 
ATOM     19  N   UNL A   1      39.997  29.990  29.501  1.00  0.00    -0.354 N 
ATOM     20  C   UNL A   1      44.213  28.998  29.289  1.00  0.00     0.074 A 
ATOM     21  C   UNL A   1      44.408  27.647  28.800  1.00  0.00     0.031 C 
ATOM     22  C   UNL A   1      37.804  29.626  29.241  1.00  0.00     0.029 A 
ATOM     23  C   UNL A   1      38.783  30.616  29.668  1.00  0.00     0.049 A 
ATOM     24  H   UNL A   1      40.860  30.424  29.694  1.00  0.00     0.167 HD
ATOM     25  C   UNL A   1      45.212  29.856  29.618  1.00  0.00     0.034 A 
ATOM     26  C   UNL A   1      38.481  31.838  30.144  1.00  0.00     0.034 A 
ATOM     27  C   UNL A   1      44.994  31.196  30.115  1.00  0.00     0.049 A 
ATOM     28  C   UNL A   1      39.610  32.745  30.547  1.00  0.00     0.074 A 
ATOM     29  C   UNL A   1      45.935  32.145  30.476  1.00  0.00     0.029 A 
ATOM     30  N   UNL A   1      43.749  31.777  30.327  1.00  0.00    -0.354 N 
ATOM     31  N   UNL A   1      40.904  32.527  30.490  1.00  0.00    -0.248 NA
ATOM     32  C   UNL A   1      39.240  34.063  31.072  1.00  0.00     0.031 C 
ATOM     33  C   UNL A   1      45.263  33.267  30.973  1.00  0.00     0.029 A 
ATOM     34  C   UNL A   1      43.900  33.058  30.840  1.00  0.00     0.049 A 
ATOM     35  H   UNL A   1      42.886  31.343  30.140  1.00  0.00     0.167 HD
ATOM     36  C   UNL A   1      41.502  33.691  30.960  1.00  0.00     0.074 A 
ATOM     37  C   UNL A   1      40.428  34.619  31.250  1.00  0.00     0.031 C 
ATOM     38  C   UNL A   1      42.819  33.966  31.146  1.00  0.00     0.034 A 
BRANCH  25  39
ATOM     39  C   UNL A   1      46.635  29.363  29.479  1.00  0.00     0.023 A 
ATOM     40  C   UNL A   1      47.353  29.507  28.280  1.00  0.00     0.031 A 
ATOM     41  C   UNL A   1      47.290  28.754  30.566  1.00  0.00     0.131 A 
ATOM     42  C   UNL A   1      48.660  29.004  28.177  1.00  0.00     0.055 A 
ATOM     43  C   UNL A   1      48.616  28.324  30.482  1.00  0.00     0.041 A 
ATOM     44  F   UNL A   1      46.650  28.568  31.732  1.00  0.00    -0.206 F 
ATOM     45  C   UNL A   1      49.306  28.438  29.279  1.00  0.00     0.022 A 
BRANCH  42  46
ATOM     46  S   UNL A   1      49.460  28.992  26.550  1.00  0.00     0.124 S 
ATOM     47  O   UNL A   1      48.355  28.598  25.678  1.00  0.00    -0.237 OA
ATOM     48  O   UNL A   1      49.919  30.369  26.412  1.00  0.00    -0.237 OA
ATOM     49  O   UNL A   1      50.517  27.993  26.693  1.00  0.00    -0.744 OA
ENDBRANCH  42  46
ENDBRANCH  25  39
BRANCH  26  50
ATOM     50  C   UNL A   1      37.058  32.249  30.320  1.00  0.00     0.023 A 
ATOM     51  C   UNL A   1      36.351  32.893  29.295  1.00  0.00     0.031 A 
ATOM     52  C   UNL A   1      36.399  32.049  31.549  1.00  0.00     0.131 A 
ATOM     53  C   UNL A   1      35.053  33.372  29.536  1.00  0.00     0.055 A 
ATOM     54  C   UNL A   1      35.082  32.457  31.757  1.00  0.00     0.041 A 
ATOM     55  F   UNL A   1      37.027  31.439  32.567  1.00  0.00    -0.206 F 
ATOM     56  C   UNL A   1      34.408  33.141  30.753  1.00  0.00     0.022 A 
BRANCH  53  57
ATOM     57  S   UNL A   1      34.269  34.416  28.278  1.00  0.00     0.124 S 
ATOM     58  O   UNL A   1      34.334  35.731  28.903  1.00  0.00    -0.237 OA
ATOM     59  O   UNL A   1      35.143  34.208  27.127  1.00  0.00    -0.237 OA
ATOM     60  O   UNL A   1      32.929  33.847  28.153  1.00  0.00    -0.744 OA
ENDBRANCH  53  57
ENDBRANCH  26  50
BRANCH  38  61
ATOM     61  C   UNL A   1      43.151  35.346  31.661  1.00  0.00     0.023 A 
ATOM     62  C   UNL A   1      43.487  36.397  30.788  1.00  0.00     0.031 A 
ATOM     63  C   UNL A   1      43.193  35.600  33.043  1.00  0.00     0.131 A 
ATOM     64  C   UNL A   1      43.935  37.621  31.306  1.00  0.00     0.055 A 
ATOM     65  C   UNL A   1      43.561  36.847  33.552  1.00  0.00     0.041 A 
ATOM     66  F   UNL A   1      42.887  34.635  33.925  1.00  0.00    -0.206 F 
ATOM     67  C   UNL A   1      43.955  37.859  32.682  1.00  0.00     0.022 A 
BRANCH  64  68
ATOM     68  S   UNL A   1      44.626  38.846  30.159  1.00  0.00     0.124 S 
ATOM     69  O   UNL A   1      44.524  38.150  28.880  1.00  0.00    -0.237 OA
ATOM     70  O   UNL A   1      43.729  39.983  30.340  1.00  0.00    -0.237 OA
ATOM     71  O   UNL A   1      45.988  39.045  30.650  1.00  0.00    -0.744 OA
ENDBRANCH  64  68
ENDBRANCH  38  61
ENDBRANCH  12  13
ENDBRANCH   5   7
ENDBRANCH   2   3
ENDBRANCH   1   2
BRANCH   1  72
ATOM     72  C   UNL A   1      34.445  23.982  24.575  1.00  0.00     0.002 C 
BRANCH  72  73
ATOM     73  C   UNL A   1      34.205  24.251  26.063  1.00  0.00     0.002 C 
BRANCH  73  74
ATOM     74  C   UNL A   1      33.827  23.028  26.904  1.00  0.00     0.021 C 
BRANCH  74  75
ATOM     75  C   UNL A   1      32.840  22.071  26.243  1.00  0.00     0.116 C 
BRANCH  75  76
ATOM     76  N   UNL A   1      31.524  22.142  26.858  1.00  0.00    -0.352 N 
ATOM     77  C   UNL A   1      30.552  23.096  26.708  1.00  0.00     0.251 C 
ATOM     78  H   UNL A   1      31.301  21.403  27.469  1.00  0.00     0.163 HD
ATOM     79  O   UNL A   1      29.576  23.118  27.453  1.00  0.00    -0.269 OA
BRANCH  77  80
ATOM     80  C   UNL A   1      30.689  24.118  25.650  1.00  0.00     0.040 A 
ATOM     81  C   UNL A   1      30.822  23.732  24.298  1.00  0.00     0.016 A 
ATOM     82  C   UNL A   1      30.666  25.469  26.023  1.00  0.00     0.020 A 
ATOM     83  C   UNL A   1      30.996  24.692  23.302  1.00  0.00     0.027 A 
ATOM     84  C   UNL A   1      30.839  26.412  25.024  1.00  0.00    -0.011 A 
ATOM     85  C   UNL A   1      31.002  26.013  23.697  1.00  0.00     0.045 A 
ATOM     86  C   UNL A   1      30.900  27.920  25.106  1.00  0.00     0.114 C 
ATOM     87  N   UNL A   1      31.153  27.121  22.885  1.00  0.00    -0.325 N 
ATOM     88  C   UNL A   1      31.079  28.299  23.614  1.00  0.00     0.232 C 
ATOM     89  H   UNL A   1      31.294  27.081  21.912  1.00  0.00     0.169 HD
ATOM     90  O   UNL A   1      31.120  29.423  23.137  1.00  0.00    -0.274 OA
BRANCH  86  91
ATOM     91  C   UNL A   1      32.008  28.451  26.041  1.00  0.00     0.010 C 
ATOM     92  C   UNL A   1      31.838  29.949  26.345  1.00  0.00     0.033 C 
ATOM     93  C   UNL A   1      33.438  28.186  25.535  1.00  0.00     0.033 C 
ATOM     94  C   UNL A   1      32.966  30.465  27.230  1.00  0.00     0.160 C 
ATOM     95  C   UNL A   1      34.470  28.801  26.473  1.00  0.00     0.160 C 
ATOM     96  O   UNL A   1      34.236  30.197  26.641  1.00  0.00    -0.381 OA
ENDBRANCH  86  91
ENDBRANCH  77  80
ENDBRANCH  75  76
ENDBRANCH  74  75
ENDBRANCH  73  74
ENDBRANCH  72  73
ENDBRANCH   1  72
TORSDOF 17
ENDMDL
