MODEL 1
REMARK VINA RESULT:     -11.3      0.000      0.000
REMARK SMILES O=C(C[C@@H]1CN(C(=O)[C@H]2C[C@H](O)C[NH2+]2)CCO1)NCCCCCCNC(=O)c1ccc(-c2c3nc(c(-c4cc(S(=O)(=O)[O-])ccc4F)c4ccc([nH]4)c(-c4cc(S(=O)(=O)[O-])ccc4F)c4nc(c(-c5cc(S(=O)(=O)[O-])ccc5F)c5ccc2[nH]5)C=C4)C=C3)cc1
REMARK SMILES IDX 21 1 20 2 19 3 18 4 1 5 2 6 3 8 4 9 5 10 17 11 6 12 16 13
REMARK SMILES IDX 15 14 7 15 8 16 9 17 10 18 14 19 11 20 13 21 12 24 22 26
REMARK SMILES IDX 23 27 24 28 25 29 26 30 27 32 28 33 29 34 90 35 30 36 89 37
REMARK SMILES IDX 31 38 32 39 33 40 83 41 34 42 88 43 82 44 84 45 35 46 87 47
REMARK SMILES IDX 81 48 80 49 36 51 68 52 48 53 67 54 49 55 52 56 66 57 85 58
REMARK SMILES IDX 50 59 51 60 65 62 86 63 53 64 37 65 38 66 46 67 39 68 45 69
REMARK SMILES IDX 47 70 44 71 40 72 41 73 42 74 43 75 69 76 70 77 78 78 71 79
REMARK SMILES IDX 77 80 79 81 76 82 72 83 73 84 74 85 75 86 54 87 55 88 63 89
REMARK SMILES IDX 56 90 62 91 64 92 61 93 57 94 58 95 59 96 60 97
REMARK H PARENT 18 7 14 22 14 23 12 25 25 31 84 50 52 61
REMARK Flexibility Score: inf
ROOT
ATOM      1  C   UNL A   1      33.714  27.989  24.568  1.00  0.00     0.002 C 
ENDROOT
BRANCH   1   2
ATOM      2  C   UNL A   1      33.999  28.564  23.175  1.00  0.00     0.021 C 
BRANCH   2   3
ATOM      3  C   UNL A   1      33.694  27.636  21.995  1.00  0.00     0.116 C 
BRANCH   3   4
ATOM      4  N   UNL A   1      33.056  26.386  22.376  1.00  0.00    -0.356 N 
ATOM      5  O   UNL A   1      33.156  25.516  20.259  1.00  0.00    -0.275 OA
ATOM      6  C   UNL A   1      32.820  25.409  21.436  1.00  0.00     0.222 C 
ATOM      7  H   UNL A   1      32.790  26.238  23.312  1.00  0.00     0.163 HD
BRANCH   6   8
ATOM      8  C   UNL A   1      32.156  24.151  21.952  1.00  0.00     0.133 C 
BRANCH   8   9
ATOM      9  C   UNL A   1      33.087  23.209  22.736  1.00  0.00     0.147 C 
ATOM     10  C   UNL A   1      32.647  22.905  24.186  1.00  0.00     0.152 C 
ATOM     11  O   UNL A   1      34.407  23.797  22.723  1.00  0.00    -0.374 OA
ATOM     12  N   UNL A   1      33.642  22.110  24.914  1.00  0.00    -0.333 N 
ATOM     13  C   UNL A   1      35.368  22.953  23.373  1.00  0.00     0.182 C 
ATOM     14  C   UNL A   1      34.986  22.686  24.830  1.00  0.00     0.148 C 
BRANCH  12  15
ATOM     15  C   UNL A   1      33.431  21.061  25.799  1.00  0.00     0.281 C 
ATOM     16  O   UNL A   1      33.955  21.079  26.921  1.00  0.00    -0.268 OA
BRANCH  15  17
ATOM     17  C   UNL A   1      32.589  19.820  25.416  1.00  0.00     0.275 C 
ATOM     18  C   UNL A   1      32.589  19.421  23.948  1.00  0.00     0.113 C 
ATOM     19  N   UNL A   1      32.927  18.646  26.242  1.00  0.00    -0.334 N 
ATOM     20  C   UNL A   1      33.226  18.048  23.902  1.00  0.00     0.175 C 
ATOM     21  C   UNL A   1      33.131  17.521  25.336  1.00  0.00     0.293 C 
ATOM     22  H   UNL A   1      32.163  18.440  26.886  1.00  0.00     0.347 HD
ATOM     23  H   UNL A   1      33.767  18.822  26.794  1.00  0.00     0.347 HD
BRANCH  20  24
ATOM     24  O   UNL A   1      32.589  17.197  22.961  1.00  0.00    -0.387 OA
ATOM     25  H   UNL A   1      33.259  16.682  22.486  1.00  0.00     0.211 HD
ENDBRANCH  20  24
ENDBRANCH  15  17
ENDBRANCH  12  15
ENDBRANCH   8   9
ENDBRANCH   6   8
ENDBRANCH   3   4
ENDBRANCH   2   3
ENDBRANCH   1   2
BRANCH   1  26
ATOM     26  C   UNL A   1      33.611  29.022  25.687  1.00  0.00     0.002 C 
BRANCH  26  27
ATOM     27  C   UNL A   1      32.485  30.041  25.594  1.00  0.00     0.021 C 
BRANCH  27  28
ATOM     28  C   UNL A   1      31.987  30.575  26.926  1.00  0.00     0.116 C 
BRANCH  28  29
ATOM     29  N   UNL A   1      31.907  32.029  26.971  1.00  0.00    -0.352 N 
ATOM     30  C   UNL A   1      32.812  32.936  27.478  1.00  0.00     0.251 C 
ATOM     31  H   UNL A   1      31.091  32.420  26.585  1.00  0.00     0.163 HD
ATOM     32  O   UNL A   1      32.520  34.128  27.529  1.00  0.00    -0.269 OA
BRANCH  30  33
ATOM     33  C   UNL A   1      34.113  32.459  28.000  1.00  0.00     0.039 A 
ATOM     34  C   UNL A   1      35.209  33.328  28.008  1.00  0.00     0.014 A 
ATOM     35  C   UNL A   1      34.238  31.175  28.531  1.00  0.00     0.014 A 
ATOM     36  C   UNL A   1      36.398  32.939  28.635  1.00  0.00     0.010 A 
ATOM     37  C   UNL A   1      35.382  30.831  29.241  1.00  0.00     0.010 A 
ATOM     38  C   UNL A   1      36.478  31.707  29.303  1.00  0.00    -0.014 A 
BRANCH  38  39
ATOM     39  C   UNL A   1      37.691  31.280  30.052  1.00  0.00     0.031 A 
ATOM     40  C   UNL A   1      38.635  30.292  29.420  1.00  0.00     0.074 A 
ATOM     41  C   UNL A   1      37.884  31.684  31.325  1.00  0.00     0.049 A 
ATOM     42  N   UNL A   1      39.627  29.630  29.956  1.00  0.00    -0.248 NA
ATOM     43  C   UNL A   1      38.396  29.968  28.003  1.00  0.00     0.031 C 
ATOM     44  C   UNL A   1      37.019  32.606  32.066  1.00  0.00     0.029 A 
ATOM     45  N   UNL A   1      38.860  31.353  32.233  1.00  0.00    -0.354 N 
ATOM     46  C   UNL A   1      40.095  28.776  28.961  1.00  0.00     0.074 A 
ATOM     47  C   UNL A   1      39.249  28.974  27.805  1.00  0.00     0.031 C 
ATOM     48  C   UNL A   1      37.513  32.778  33.303  1.00  0.00     0.029 A 
ATOM     49  C   UNL A   1      38.697  31.940  33.467  1.00  0.00     0.049 A 
ATOM     50  H   UNL A   1      39.608  30.748  32.020  1.00  0.00     0.167 HD
ATOM     51  C   UNL A   1      41.145  27.920  29.004  1.00  0.00     0.034 A 
ATOM     52  C   UNL A   1      39.407  31.803  34.605  1.00  0.00     0.034 A 
ATOM     53  C   UNL A   1      42.020  27.785  30.140  1.00  0.00     0.049 A 
ATOM     54  C   UNL A   1      40.595  30.870  34.613  1.00  0.00     0.074 A 
ATOM     55  C   UNL A   1      43.164  27.017  30.259  1.00  0.00     0.029 A 
ATOM     56  N   UNL A   1      41.855  28.445  31.350  1.00  0.00    -0.354 N 
ATOM     57  N   UNL A   1      41.049  30.103  33.647  1.00  0.00    -0.248 NA
ATOM     58  C   UNL A   1      41.372  30.791  35.858  1.00  0.00     0.031 C 
ATOM     59  C   UNL A   1      43.663  27.173  31.557  1.00  0.00     0.029 A 
ATOM     60  C   UNL A   1      42.867  28.088  32.226  1.00  0.00     0.049 A 
ATOM     61  H   UNL A   1      41.127  29.074  31.556  1.00  0.00     0.167 HD
ATOM     62  C   UNL A   1      42.189  29.488  34.158  1.00  0.00     0.074 A 
ATOM     63  C   UNL A   1      42.356  29.974  35.511  1.00  0.00     0.031 C 
ATOM     64  C   UNL A   1      43.026  28.602  33.563  1.00  0.00     0.034 A 
BRANCH  51  65
ATOM     65  C   UNL A   1      41.393  27.056  27.793  1.00  0.00     0.023 A 
ATOM     66  C   UNL A   1      41.037  25.696  27.767  1.00  0.00     0.031 A 
ATOM     67  C   UNL A   1      42.003  27.600  26.649  1.00  0.00     0.131 A 
ATOM     68  C   UNL A   1      41.357  24.912  26.648  1.00  0.00     0.055 A 
ATOM     69  C   UNL A   1      42.247  26.832  25.509  1.00  0.00     0.041 A 
ATOM     70  F   UNL A   1      42.382  28.888  26.623  1.00  0.00    -0.206 F 
ATOM     71  C   UNL A   1      41.935  25.476  25.508  1.00  0.00     0.022 A 
BRANCH  68  72
ATOM     72  S   UNL A   1      41.113  23.119  26.751  1.00  0.00     0.124 S 
ATOM     73  O   UNL A   1      41.939  22.647  25.643  1.00  0.00    -0.237 OA
ATOM     74  O   UNL A   1      41.602  22.808  28.090  1.00  0.00    -0.237 OA
ATOM     75  O   UNL A   1      39.673  22.957  26.560  1.00  0.00    -0.744 OA
ENDBRANCH  68  72
ENDBRANCH  51  65
BRANCH  52  76
ATOM     76  C   UNL A   1      39.026  32.544  35.843  1.00  0.00     0.023 A 
ATOM     77  C   UNL A   1      39.474  33.857  36.060  1.00  0.00     0.031 A 
ATOM     78  C   UNL A   1      38.273  31.930  36.859  1.00  0.00     0.131 A 
ATOM     79  C   UNL A   1      39.225  34.490  37.288  1.00  0.00     0.055 A 
ATOM     80  C   UNL A   1      37.976  32.586  38.057  1.00  0.00     0.041 A 
ATOM     81  F   UNL A   1      37.813  30.679  36.703  1.00  0.00    -0.206 F 
ATOM     82  C   UNL A   1      38.469  33.868  38.283  1.00  0.00     0.022 A 
BRANCH  79  83
ATOM     83  S   UNL A   1      40.005  36.096  37.609  1.00  0.00     0.124 S 
ATOM     84  O   UNL A   1      41.376  35.703  37.921  1.00  0.00    -0.237 OA
ATOM     85  O   UNL A   1      39.809  36.786  36.339  1.00  0.00    -0.237 OA
ATOM     86  O   UNL A   1      39.238  36.628  38.733  1.00  0.00    -0.744 OA
ENDBRANCH  79  83
ENDBRANCH  52  76
BRANCH  64  87
ATOM     87  C   UNL A   1      44.239  28.169  34.345  1.00  0.00     0.023 A 
ATOM     88  C   UNL A   1      45.448  28.882  34.294  1.00  0.00     0.031 A 
ATOM     89  C   UNL A   1      44.172  27.026  35.160  1.00  0.00     0.131 A 
ATOM     90  C   UNL A   1      46.559  28.419  35.014  1.00  0.00     0.055 A 
ATOM     91  C   UNL A   1      45.266  26.598  35.914  1.00  0.00     0.041 A 
ATOM     92  F   UNL A   1      43.039  26.310  35.242  1.00  0.00    -0.206 F 
ATOM     93  C   UNL A   1      46.471  27.291  35.836  1.00  0.00     0.022 A 
BRANCH  90  94
ATOM     94  S   UNL A   1      48.144  29.276  34.817  1.00  0.00     0.124 S 
ATOM     95  O   UNL A   1      48.672  28.662  33.603  1.00  0.00    -0.237 OA
ATOM     96  O   UNL A   1      47.734  30.671  34.699  1.00  0.00    -0.237 OA
ATOM     97  O   UNL A   1      48.868  28.946  36.043  1.00  0.00    -0.744 OA
ENDBRANCH  90  94
ENDBRANCH  64  87
ENDBRANCH  38  39
ENDBRANCH  30  33
ENDBRANCH  28  29
ENDBRANCH  27  28
ENDBRANCH  26  27
ENDBRANCH   1  26
TORSDOF 20
ENDMDL
MODEL 2
REMARK VINA RESULT:     -11.3      2.348      2.811
REMARK SMILES O=C(C[C@@H]1CN(C(=O)[C@H]2C[C@H](O)C[NH2+]2)CCO1)NCCCCCCNC(=O)c1ccc(-c2c3nc(c(-c4cc(S(=O)(=O)[O-])ccc4F)c4ccc([nH]4)c(-c4cc(S(=O)(=O)[O-])ccc4F)c4nc(c(-c5cc(S(=O)(=O)[O-])ccc5F)c5ccc2[nH]5)C=C4)C=C3)cc1
REMARK SMILES IDX 21 1 20 2 19 3 18 4 1 5 2 6 3 8 4 9 5 10 17 11 6 12 16 13
REMARK SMILES IDX 15 14 7 15 8 16 9 17 10 18 14 19 11 20 13 21 12 24 22 26
REMARK SMILES IDX 23 27 24 28 25 29 26 30 27 32 28 33 29 34 90 35 30 36 89 37
REMARK SMILES IDX 31 38 32 39 33 40 83 41 34 42 88 43 82 44 84 45 35 46 87 47
REMARK SMILES IDX 81 48 80 49 36 51 68 52 48 53 67 54 49 55 52 56 66 57 85 58
REMARK SMILES IDX 50 59 51 60 65 62 86 63 53 64 37 65 38 66 46 67 39 68 45 69
REMARK SMILES IDX 47 70 44 71 40 72 41 73 42 74 43 75 69 76 70 77 78 78 71 79
REMARK SMILES IDX 77 80 79 81 76 82 72 83 73 84 74 85 75 86 54 87 55 88 63 89
REMARK SMILES IDX 56 90 62 91 64 92 61 93 57 94 58 95 59 96 60 97
REMARK H PARENT 18 7 14 22 14 23 12 25 25 31 84 50 52 61
REMARK Flexibility Score: inf
ROOT
ATOM      1  C   UNL A   1      33.323  29.435  26.687  1.00  0.00     0.002 C 
ENDROOT
BRANCH   1   2
ATOM      2  C   UNL A   1      33.707  27.953  26.773  1.00  0.00     0.021 C 
BRANCH   2   3
ATOM      3  C   UNL A   1      33.274  27.082  25.589  1.00  0.00     0.116 C 
BRANCH   3   4
ATOM      4  N   UNL A   1      33.155  25.668  25.908  1.00  0.00    -0.356 N 
ATOM      5  O   UNL A   1      31.028  25.880  26.732  1.00  0.00    -0.275 OA
ATOM      6  C   UNL A   1      32.006  25.179  26.489  1.00  0.00     0.222 C 
ATOM      7  H   UNL A   1      33.900  25.057  25.709  1.00  0.00     0.163 HD
BRANCH   6   8
ATOM      8  C   UNL A   1      31.997  23.692  26.768  1.00  0.00     0.133 C 
BRANCH   8   9
ATOM      9  C   UNL A   1      31.735  22.808  25.536  1.00  0.00     0.147 C 
ATOM     10  C   UNL A   1      32.752  21.666  25.316  1.00  0.00     0.152 C 
ATOM     11  O   UNL A   1      31.695  23.678  24.381  1.00  0.00    -0.374 OA
ATOM     12  N   UNL A   1      32.518  20.948  24.058  1.00  0.00    -0.333 N 
ATOM     13  C   UNL A   1      31.384  22.952  23.183  1.00  0.00     0.182 C 
ATOM     14  C   UNL A   1      32.412  21.852  22.911  1.00  0.00     0.148 C 
BRANCH  12  15
ATOM     15  C   UNL A   1      32.599  19.584  23.813  1.00  0.00     0.281 C 
ATOM     16  O   UNL A   1      32.153  19.113  22.758  1.00  0.00    -0.268 OA
BRANCH  15  17
ATOM     17  C   UNL A   1      33.194  18.598  24.848  1.00  0.00     0.275 C 
ATOM     18  C   UNL A   1      32.486  17.260  25.001  1.00  0.00     0.113 C 
ATOM     19  N   UNL A   1      34.634  18.366  24.628  1.00  0.00    -0.334 N 
ATOM     20  C   UNL A   1      33.496  16.216  24.571  1.00  0.00     0.175 C 
ATOM     21  C   UNL A   1      34.851  16.924  24.647  1.00  0.00     0.293 C 
ATOM     22  H   UNL A   1      35.177  18.810  25.370  1.00  0.00     0.347 HD
ATOM     23  H   UNL A   1      34.932  18.765  23.737  1.00  0.00     0.347 HD
BRANCH  20  24
ATOM     24  O   UNL A   1      33.437  15.054  25.384  1.00  0.00    -0.387 OA
ATOM     25  H   UNL A   1      32.511  14.806  25.528  1.00  0.00     0.211 HD
ENDBRANCH  20  24
ENDBRANCH  15  17
ENDBRANCH  12  15
ENDBRANCH   8   9
ENDBRANCH   6   8
ENDBRANCH   3   4
ENDBRANCH   2   3
ENDBRANCH   1   2
BRANCH   1  26
ATOM     26  C   UNL A   1      31.842  29.735  26.899  1.00  0.00     0.002 C 
BRANCH  26  27
ATOM     27  C   UNL A   1      31.387  31.174  26.709  1.00  0.00     0.021 C 
BRANCH  27  28
ATOM     28  C   UNL A   1      32.505  32.185  26.527  1.00  0.00     0.116 C 
BRANCH  28  29
ATOM     29  N   UNL A   1      32.248  33.457  27.192  1.00  0.00    -0.352 N 
ATOM     30  C   UNL A   1      32.964  34.076  28.192  1.00  0.00     0.251 C 
ATOM     31  H   UNL A   1      31.449  33.942  26.882  1.00  0.00     0.163 HD
ATOM     32  O   UNL A   1      32.529  35.102  28.710  1.00  0.00    -0.269 OA
BRANCH  30  33
ATOM     33  C   UNL A   1      34.232  33.475  28.666  1.00  0.00     0.039 A 
ATOM     34  C   UNL A   1      35.393  34.254  28.690  1.00  0.00     0.014 A 
ATOM     35  C   UNL A   1      34.263  32.163  29.138  1.00  0.00     0.014 A 
ATOM     36  C   UNL A   1      36.558  33.744  29.276  1.00  0.00     0.010 A 
ATOM     37  C   UNL A   1      35.387  31.698  29.810  1.00  0.00     0.010 A 
ATOM     38  C   UNL A   1      36.550  32.481  29.887  1.00  0.00    -0.014 A 
BRANCH  38  39
ATOM     39  C   UNL A   1      37.737  31.927  30.593  1.00  0.00     0.031 A 
ATOM     40  C   UNL A   1      38.581  30.886  29.905  1.00  0.00     0.074 A 
ATOM     41  C   UNL A   1      37.990  32.267  31.874  1.00  0.00     0.049 A 
ATOM     42  N   UNL A   1      39.524  30.124  30.394  1.00  0.00    -0.248 NA
ATOM     43  C   UNL A   1      38.287  30.636  28.484  1.00  0.00     0.031 C 
ATOM     44  C   UNL A   1      37.222  33.230  32.666  1.00  0.00     0.029 A 
ATOM     45  N   UNL A   1      38.953  31.821  32.747  1.00  0.00    -0.354 N 
ATOM     46  C   UNL A   1      39.897  29.271  29.360  1.00  0.00     0.074 A 
ATOM     47  C   UNL A   1      39.048  29.582  28.231  1.00  0.00     0.031 C 
ATOM     48  C   UNL A   1      37.753  33.315  33.897  1.00  0.00     0.029 A 
ATOM     49  C   UNL A   1      38.865  32.375  34.005  1.00  0.00     0.049 A 
ATOM     50  H   UNL A   1      39.642  31.164  32.496  1.00  0.00     0.167 HD
ATOM     51  C   UNL A   1      40.872  28.329  29.348  1.00  0.00     0.034 A 
ATOM     52  C   UNL A   1      39.584  32.136  35.120  1.00  0.00     0.034 A 
ATOM     53  C   UNL A   1      41.755  28.079  30.458  1.00  0.00     0.049 A 
ATOM     54  C   UNL A   1      40.689  31.108  35.068  1.00  0.00     0.074 A 
ATOM     55  C   UNL A   1      42.832  27.213  30.524  1.00  0.00     0.029 A 
ATOM     56  N   UNL A   1      41.671  28.706  31.694  1.00  0.00    -0.354 N 
ATOM     57  N   UNL A   1      41.056  30.341  34.066  1.00  0.00    -0.248 NA
ATOM     58  C   UNL A   1      41.481  30.917  36.290  1.00  0.00     0.031 C 
ATOM     59  C   UNL A   1      43.369  27.279  31.814  1.00  0.00     0.029 A 
ATOM     60  C   UNL A   1      42.667  28.233  32.533  1.00  0.00     0.049 A 
ATOM     61  H   UNL A   1      41.003  29.386  31.938  1.00  0.00     0.167 HD
ATOM     62  C   UNL A   1      42.149  29.613  34.528  1.00  0.00     0.074 A 
ATOM     63  C   UNL A   1      42.384  30.034  35.893  1.00  0.00     0.031 C 
ATOM     64  C   UNL A   1      42.896  28.683  33.884  1.00  0.00     0.034 A 
BRANCH  51  65
ATOM     65  C   UNL A   1      41.021  27.491  28.103  1.00  0.00     0.023 A 
ATOM     66  C   UNL A   1      40.608  26.148  28.058  1.00  0.00     0.031 A 
ATOM     67  C   UNL A   1      41.592  28.044  26.943  1.00  0.00     0.131 A 
ATOM     68  C   UNL A   1      40.837  25.386  26.903  1.00  0.00     0.055 A 
ATOM     69  C   UNL A   1      41.745  27.302  25.771  1.00  0.00     0.041 A 
ATOM     70  F   UNL A   1      42.022  29.317  26.933  1.00  0.00    -0.206 F 
ATOM     71  C   UNL A   1      41.377  25.960  25.750  1.00  0.00     0.022 A 
BRANCH  68  72
ATOM     72  S   UNL A   1      40.525  23.601  26.970  1.00  0.00     0.124 S 
ATOM     73  O   UNL A   1      41.496  23.098  26.002  1.00  0.00    -0.237 OA
ATOM     74  O   UNL A   1      40.795  23.283  28.368  1.00  0.00    -0.237 OA
ATOM     75  O   UNL A   1      39.127  23.482  26.562  1.00  0.00    -0.744 OA
ENDBRANCH  68  72
ENDBRANCH  51  65
BRANCH  52  76
ATOM     76  C   UNL A   1      39.292  32.862  36.392  1.00  0.00     0.023 A 
ATOM     77  C   UNL A   1      38.479  32.281  37.379  1.00  0.00     0.031 A 
ATOM     78  C   UNL A   1      39.757  34.170  36.608  1.00  0.00     0.131 A 
ATOM     79  C   UNL A   1      38.101  33.028  38.506  1.00  0.00     0.055 A 
ATOM     80  C   UNL A   1      39.426  34.890  37.760  1.00  0.00     0.041 A 
ATOM     81  F   UNL A   1      40.541  34.772  35.701  1.00  0.00    -0.206 F 
ATOM     82  C   UNL A   1      38.578  34.325  38.708  1.00  0.00     0.022 A 
BRANCH  79  83
ATOM     83  S   UNL A   1      36.879  32.321  39.644  1.00  0.00     0.124 S 
ATOM     84  O   UNL A   1      35.646  32.450  38.875  1.00  0.00    -0.237 OA
ATOM     85  O   UNL A   1      37.384  30.963  39.822  1.00  0.00    -0.237 OA
ATOM     86  O   UNL A   1      36.974  33.181  40.822  1.00  0.00    -0.744 OA
ENDBRANCH  79  83
ENDBRANCH  52  76
BRANCH  64  87
ATOM     87  C   UNL A   1      44.083  28.121  34.621  1.00  0.00     0.023 A 
ATOM     88  C   UNL A   1      43.973  26.997  35.456  1.00  0.00     0.031 A 
ATOM     89  C   UNL A   1      45.346  28.719  34.471  1.00  0.00     0.131 A 
ATOM     90  C   UNL A   1      45.101  26.531  36.147  1.00  0.00     0.055 A 
ATOM     91  C   UNL A   1      46.476  28.220  35.121  1.00  0.00     0.041 A 
ATOM     92  F   UNL A   1      45.503  29.795  33.683  1.00  0.00    -0.206 F 
ATOM     93  C   UNL A   1      46.354  27.126  35.973  1.00  0.00     0.022 A 
BRANCH  90  94
ATOM     94  S   UNL A   1      44.900  25.170  37.328  1.00  0.00     0.124 S 
ATOM     95  O   UNL A   1      45.169  25.831  38.601  1.00  0.00    -0.237 OA
ATOM     96  O   UNL A   1      43.517  24.762  37.103  1.00  0.00    -0.237 OA
ATOM     97  O   UNL A   1      45.908  24.199  36.909  1.00  0.00    -0.744 OA
ENDBRANCH  90  94
ENDBRANCH  64  87
ENDBRANCH  38  39
ENDBRANCH  30  33
ENDBRANCH  28  29
ENDBRANCH  27  28
ENDBRANCH  26  27
ENDBRANCH   1  26
TORSDOF 20
ENDMDL
MODEL 3
REMARK VINA RESULT:     -11.3      2.365      8.922
REMARK SMILES O=C(C[C@@H]1CN(C(=O)[C@H]2C[C@H](O)C[NH2+]2)CCO1)NCCCCCCNC(=O)c1ccc(-c2c3nc(c(-c4cc(S(=O)(=O)[O-])ccc4F)c4ccc([nH]4)c(-c4cc(S(=O)(=O)[O-])ccc4F)c4nc(c(-c5cc(S(=O)(=O)[O-])ccc5F)c5ccc2[nH]5)C=C4)C=C3)cc1
REMARK SMILES IDX 21 1 20 2 19 3 18 4 1 5 2 6 3 8 4 9 5 10 17 11 6 12 16 13
REMARK SMILES IDX 15 14 7 15 8 16 9 17 10 18 14 19 11 20 13 21 12 24 22 26
REMARK SMILES IDX 23 27 24 28 25 29 26 30 27 32 28 33 29 34 90 35 30 36 89 37
REMARK SMILES IDX 31 38 32 39 33 40 83 41 34 42 88 43 82 44 84 45 35 46 87 47
REMARK SMILES IDX 81 48 80 49 36 51 68 52 48 53 67 54 49 55 52 56 66 57 85 58
REMARK SMILES IDX 50 59 51 60 65 62 86 63 53 64 37 65 38 66 46 67 39 68 45 69
REMARK SMILES IDX 47 70 44 71 40 72 41 73 42 74 43 75 69 76 70 77 78 78 71 79
REMARK SMILES IDX 77 80 79 81 76 82 72 83 73 84 74 85 75 86 54 87 55 88 63 89
REMARK SMILES IDX 56 90 62 91 64 92 61 93 57 94 58 95 59 96 60 97
REMARK H PARENT 18 7 14 22 14 23 12 25 25 31 84 50 52 61
REMARK Flexibility Score: inf
ROOT
ATOM      1  C   UNL A   1      33.672  27.335  26.131  1.00  0.00     0.002 C 
ENDROOT
BRANCH   1   2
ATOM      2  C   UNL A   1      34.058  25.853  26.049  1.00  0.00     0.021 C 
BRANCH   2   3
ATOM      3  C   UNL A   1      34.357  25.318  24.646  1.00  0.00     0.116 C 
BRANCH   3   4
ATOM      4  N   UNL A   1      33.543  25.917  23.600  1.00  0.00    -0.356 N 
ATOM      5  O   UNL A   1      33.983  24.247  22.094  1.00  0.00    -0.275 OA
ATOM      6  C   UNL A   1      33.439  25.314  22.366  1.00  0.00     0.222 C 
ATOM      7  H   UNL A   1      33.064  26.759  23.774  1.00  0.00     0.163 HD
BRANCH   6   8
ATOM      8  C   UNL A   1      32.561  26.027  21.362  1.00  0.00     0.133 C 
BRANCH   8   9
ATOM      9  C   UNL A   1      31.146  26.359  21.868  1.00  0.00     0.147 C 
ATOM     10  C   UNL A   1      30.921  27.832  22.280  1.00  0.00     0.152 C 
ATOM     11  O   UNL A   1      30.866  25.477  22.979  1.00  0.00    -0.374 OA
ATOM     12  N   UNL A   1      29.597  28.048  22.871  1.00  0.00    -0.333 N 
ATOM     13  C   UNL A   1      29.533  25.662  23.478  1.00  0.00     0.182 C 
ATOM     14  C   UNL A   1      29.305  27.099  23.949  1.00  0.00     0.148 C 
BRANCH  12  15
ATOM     15  C   UNL A   1      28.732  29.118  22.687  1.00  0.00     0.281 C 
ATOM     16  O   UNL A   1      27.565  29.053  23.097  1.00  0.00    -0.268 OA
BRANCH  15  17
ATOM     17  C   UNL A   1      29.161  30.401  21.933  1.00  0.00     0.275 C 
ATOM     18  C   UNL A   1      28.198  30.927  20.880  1.00  0.00     0.113 C 
ATOM     19  N   UNL A   1      29.519  31.493  22.858  1.00  0.00    -0.334 N 
ATOM     20  C   UNL A   1      27.760  32.290  21.376  1.00  0.00     0.175 C 
ATOM     21  C   UNL A   1      28.815  32.690  22.410  1.00  0.00     0.293 C 
ATOM     22  H   UNL A   1      30.526  31.653  22.837  1.00  0.00     0.347 HD
ATOM     23  H   UNL A   1      29.256  31.256  23.815  1.00  0.00     0.347 HD
BRANCH  20  24
ATOM     24  O   UNL A   1      27.644  33.228  20.318  1.00  0.00    -0.387 OA
ATOM     25  H   UNL A   1      27.508  34.115  20.686  1.00  0.00     0.211 HD
ENDBRANCH  20  24
ENDBRANCH  15  17
ENDBRANCH  12  15
ENDBRANCH   8   9
ENDBRANCH   6   8
ENDBRANCH   3   4
ENDBRANCH   2   3
ENDBRANCH   1   2
BRANCH   1  26
ATOM     26  C   UNL A   1      32.311  27.617  26.759  1.00  0.00     0.002 C 
BRANCH  26  27
ATOM     27  C   UNL A   1      31.717  29.002  26.547  1.00  0.00     0.021 C 
BRANCH  27  28
ATOM     28  C   UNL A   1      32.657  30.018  25.923  1.00  0.00     0.116 C 
BRANCH  28  29
ATOM     29  N   UNL A   1      32.458  31.373  26.421  1.00  0.00    -0.352 N 
ATOM     30  C   UNL A   1      33.225  32.097  27.306  1.00  0.00     0.251 C 
ATOM     31  H   UNL A   1      31.662  31.838  26.075  1.00  0.00     0.163 HD
ATOM     32  O   UNL A   1      32.836  33.195  27.697  1.00  0.00    -0.269 OA
BRANCH  30  33
ATOM     33  C   UNL A   1      34.492  31.526  27.815  1.00  0.00     0.039 A 
ATOM     34  C   UNL A   1      35.595  32.364  28.006  1.00  0.00     0.014 A 
ATOM     35  C   UNL A   1      34.577  30.175  28.157  1.00  0.00     0.014 A 
ATOM     36  C   UNL A   1      36.747  31.866  28.626  1.00  0.00     0.010 A 
ATOM     37  C   UNL A   1      35.678  29.710  28.864  1.00  0.00     0.010 A 
ATOM     38  C   UNL A   1      36.779  30.548  29.108  1.00  0.00    -0.014 A 
BRANCH  38  39
ATOM     39  C   UNL A   1      37.947  29.994  29.845  1.00  0.00     0.031 A 
ATOM     40  C   UNL A   1      38.205  30.448  31.259  1.00  0.00     0.074 A 
ATOM     41  C   UNL A   1      38.828  29.185  29.221  1.00  0.00     0.049 A 
ATOM     42  N   UNL A   1      39.258  30.263  32.011  1.00  0.00    -0.248 NA
ATOM     43  C   UNL A   1      37.153  31.262  31.890  1.00  0.00     0.031 C 
ATOM     44  C   UNL A   1      38.714  28.708  27.840  1.00  0.00     0.029 A 
ATOM     45  N   UNL A   1      40.009  28.638  29.658  1.00  0.00    -0.354 N 
ATOM     46  C   UNL A   1      39.019  30.980  33.180  1.00  0.00     0.074 A 
ATOM     47  C   UNL A   1      37.741  31.637  33.016  1.00  0.00     0.031 C 
ATOM     48  C   UNL A   1      39.770  27.929  27.553  1.00  0.00     0.029 A 
ATOM     49  C   UNL A   1      40.665  27.891  28.705  1.00  0.00     0.049 A 
ATOM     50  H   UNL A   1      40.356  28.770  30.571  1.00  0.00     0.167 HD
ATOM     51  C   UNL A   1      39.787  31.067  34.294  1.00  0.00     0.034 A 
ATOM     52  C   UNL A   1      41.859  27.267  28.749  1.00  0.00     0.034 A 
ATOM     53  C   UNL A   1      41.025  30.351  34.468  1.00  0.00     0.049 A 
ATOM     54  C   UNL A   1      42.677  27.348  30.016  1.00  0.00     0.074 A 
ATOM     55  C   UNL A   1      41.837  30.294  35.586  1.00  0.00     0.029 A 
ATOM     56  N   UNL A   1      41.624  29.555  33.500  1.00  0.00    -0.354 N 
ATOM     57  N   UNL A   1      42.413  27.996  31.129  1.00  0.00    -0.248 NA
ATOM     58  C   UNL A   1      43.947  26.609  30.039  1.00  0.00     0.031 C 
ATOM     59  C   UNL A   1      42.951  29.506  35.279  1.00  0.00     0.029 A 
ATOM     60  C   UNL A   1      42.802  29.019  33.991  1.00  0.00     0.049 A 
ATOM     61  H   UNL A   1      41.264  29.396  32.598  1.00  0.00     0.167 HD
ATOM     62  C   UNL A   1      43.464  27.703  31.995  1.00  0.00     0.074 A 
ATOM     63  C   UNL A   1      44.361  26.819  31.280  1.00  0.00     0.031 C 
ATOM     64  C   UNL A   1      43.670  28.122  33.268  1.00  0.00     0.034 A 
BRANCH  51  65
ATOM     65  C   UNL A   1      39.317  31.977  35.400  1.00  0.00     0.023 A 
ATOM     66  C   UNL A   1      39.722  33.321  35.478  1.00  0.00     0.031 A 
ATOM     67  C   UNL A   1      38.454  31.490  36.397  1.00  0.00     0.131 A 
ATOM     68  C   UNL A   1      39.321  34.109  36.567  1.00  0.00     0.055 A 
ATOM     69  C   UNL A   1      37.995  32.302  37.436  1.00  0.00     0.041 A 
ATOM     70  F   UNL A   1      38.049  30.209  36.385  1.00  0.00    -0.206 F 
ATOM     71  C   UNL A   1      38.439  33.618  37.532  1.00  0.00     0.022 A 
BRANCH  68  72
ATOM     72  S   UNL A   1      40.064  35.750  36.766  1.00  0.00     0.124 S 
ATOM     73  O   UNL A   1      39.452  36.200  38.013  1.00  0.00    -0.237 OA
ATOM     74  O   UNL A   1      41.490  35.449  36.828  1.00  0.00    -0.237 OA
ATOM     75  O   UNL A   1      39.630  36.470  35.570  1.00  0.00    -0.744 OA
ENDBRANCH  68  72
ENDBRANCH  51  65
BRANCH  52  76
ATOM     76  C   UNL A   1      42.378  26.516  27.567  1.00  0.00     0.023 A 
ATOM     77  C   UNL A   1      42.030  25.171  27.363  1.00  0.00     0.031 A 
ATOM     78  C   UNL A   1      43.283  27.106  26.668  1.00  0.00     0.131 A 
ATOM     79  C   UNL A   1      42.634  24.440  26.328  1.00  0.00     0.055 A 
ATOM     80  C   UNL A   1      43.837  26.390  25.603  1.00  0.00     0.041 A 
ATOM     81  F   UNL A   1      43.645  28.390  26.813  1.00  0.00    -0.206 F 
ATOM     82  C   UNL A   1      43.527  25.044  25.440  1.00  0.00     0.022 A 
BRANCH  79  83
ATOM     83  S   UNL A   1      42.325  22.655  26.233  1.00  0.00     0.124 S 
ATOM     84  O   UNL A   1      43.074  22.286  25.036  1.00  0.00    -0.237 OA
ATOM     85  O   UNL A   1      42.873  22.187  27.502  1.00  0.00    -0.237 OA
ATOM     86  O   UNL A   1      40.871  22.568  26.111  1.00  0.00    -0.744 OA
ENDBRANCH  79  83
ENDBRANCH  52  76
BRANCH  64  87
ATOM     87  C   UNL A   1      44.867  27.565  33.992  1.00  0.00     0.023 A 
ATOM     88  C   UNL A   1      46.099  28.239  34.016  1.00  0.00     0.031 A 
ATOM     89  C   UNL A   1      44.763  26.341  34.676  1.00  0.00     0.131 A 
ATOM     90  C   UNL A   1      47.194  27.663  34.676  1.00  0.00     0.055 A 
ATOM     91  C   UNL A   1      45.842  25.797  35.374  1.00  0.00     0.041 A 
ATOM     92  F   UNL A   1      43.606  25.659  34.683  1.00  0.00    -0.206 F 
ATOM     93  C   UNL A   1      47.069  26.454  35.368  1.00  0.00     0.022 A 
BRANCH  90  94
ATOM     94  S   UNL A   1      48.807  28.483  34.570  1.00  0.00     0.124 S 
ATOM     95  O   UNL A   1      49.012  28.929  35.944  1.00  0.00    -0.237 OA
ATOM     96  O   UNL A   1      49.678  27.404  34.114  1.00  0.00    -0.237 OA
ATOM     97  O   UNL A   1      48.587  29.551  33.598  1.00  0.00    -0.744 OA
ENDBRANCH  90  94
ENDBRANCH  64  87
ENDBRANCH  38  39
ENDBRANCH  30  33
ENDBRANCH  28  29
ENDBRANCH  27  28
ENDBRANCH  26  27
ENDBRANCH   1  26
TORSDOF 20
ENDMDL
