MODEL 1
REMARK VINA RESULT:     -10.5      0.000      0.000
REMARK SMILES CC(C)[C@H](NC(=O)OCc1ccccc1)C(=O)NCC(=O)NCCCCCCNC(=O)c1ccc(-c2c3nc(c(-c4cc(S(=O)(=O)[O-])ccc4F)c4ccc([nH]4)c(-c4cc(S(=O)(=O)[O-])ccc4F)c4nc(c(-c5cc(S(=O)(=O)[O-])ccc5F)c5ccc2[nH]5)C=C4)C=C3)cc1
REMARK SMILES IDX 24 1 23 2 22 3 20 4 21 5 19 7 18 8 16 9 17 10 4 12 2 13 1 14
REMARK SMILES IDX 3 15 5 16 6 17 7 19 8 20 9 21 10 22 11 23 15 24 12 25 14 26
REMARK SMILES IDX 13 27 25 28 26 29 27 30 28 31 29 32 30 33 31 35 32 36 33 37
REMARK SMILES IDX 94 38 34 39 93 40 35 41 36 42 37 43 87 44 38 45 92 46 86 47
REMARK SMILES IDX 88 48 39 49 91 50 85 51 84 52 40 54 72 55 52 56 71 57 53 58
REMARK SMILES IDX 56 59 70 60 89 61 54 62 55 63 69 65 90 66 57 67 41 68 42 69
REMARK SMILES IDX 50 70 43 71 49 72 51 73 48 74 44 75 45 76 46 77 47 78 73 79
REMARK SMILES IDX 74 80 82 81 75 82 81 83 83 84 80 85 76 86 77 87 78 88 79 89
REMARK SMILES IDX 58 90 59 91 67 92 60 93 66 94 68 95 65 96 61 97 62 98 63 99
REMARK SMILES IDX 64 100
REMARK H PARENT 22 6 18 11 5 18 29 34 88 53 56 64
REMARK Flexibility Score: inf
ROOT
ATOM      1  C   UNL A   1      34.777  31.161  28.294  1.00  0.00     0.021 C 
ENDROOT
BRANCH   1   2
ATOM      2  C   UNL A   1      33.621  30.643  27.445  1.00  0.00     0.116 C 
BRANCH   2   3
ATOM      3  N   UNL A   1      34.079  30.010  26.223  1.00  0.00    -0.355 N 
ATOM      4  C   UNL A   1      33.710  28.854  25.608  1.00  0.00     0.239 C 
ATOM      5  O   UNL A   1      34.165  28.654  24.476  1.00  0.00    -0.273 OA
ATOM      6  H   UNL A   1      34.787  30.507  25.754  1.00  0.00     0.163 HD
BRANCH   4   7
ATOM      7  C   UNL A   1      32.635  27.913  26.171  1.00  0.00     0.216 C 
BRANCH   7   8
ATOM      8  N   UNL A   1      33.042  26.557  26.509  1.00  0.00    -0.345 N 
ATOM      9  C   UNL A   1      33.052  25.388  25.806  1.00  0.00     0.243 C 
ATOM     10  O   UNL A   1      33.678  24.454  26.317  1.00  0.00    -0.273 OA
ATOM     11  H   UNL A   1      33.377  26.466  27.430  1.00  0.00     0.164 HD
BRANCH   9  12
ATOM     12  C   UNL A   1      32.453  25.245  24.384  1.00  0.00     0.177 C 
BRANCH  12  13
ATOM     13  C   UNL A   1      31.951  23.804  24.072  1.00  0.00     0.015 C 
ATOM     14  C   UNL A   1      30.606  23.719  23.345  1.00  0.00     0.010 C 
ATOM     15  C   UNL A   1      33.004  23.032  23.265  1.00  0.00     0.010 C 
ENDBRANCH  12  13
BRANCH  12  16
ATOM     16  N   UNL A   1      33.342  25.756  23.343  1.00  0.00    -0.309 N 
ATOM     17  C   UNL A   1      32.995  26.460  22.231  1.00  0.00     0.408 C 
ATOM     18  H   UNL A   1      34.302  25.570  23.460  1.00  0.00     0.167 HD
ATOM     19  O   UNL A   1      33.843  26.746  21.401  1.00  0.00    -0.225 OA
BRANCH  17  20
ATOM     20  O   UNL A   1      31.686  26.791  22.185  1.00  0.00    -0.445 OA
BRANCH  20  21
ATOM     21  C   UNL A   1      31.374  28.126  22.611  1.00  0.00     0.270 C 
BRANCH  21  22
ATOM     22  C   UNL A   1      29.902  28.417  22.816  1.00  0.00    -0.011 A 
ATOM     23  C   UNL A   1      29.108  27.451  23.461  1.00  0.00     0.007 A 
ATOM     24  C   UNL A   1      29.272  29.564  22.315  1.00  0.00     0.007 A 
ATOM     25  C   UNL A   1      27.731  27.634  23.607  1.00  0.00     0.000 A 
ATOM     26  C   UNL A   1      27.894  29.746  22.459  1.00  0.00     0.000 A 
ATOM     27  C   UNL A   1      27.124  28.781  23.104  1.00  0.00     0.000 A 
ENDBRANCH  21  22
ENDBRANCH  20  21
ENDBRANCH  17  20
ENDBRANCH  12  16
ENDBRANCH   9  12
ENDBRANCH   7   8
ENDBRANCH   4   7
ENDBRANCH   2   3
ENDBRANCH   1   2
BRANCH   1  28
ATOM     28  C   UNL A   1      34.571  32.560  28.881  1.00  0.00     0.002 C 
BRANCH  28  29
ATOM     29  C   UNL A   1      33.911  33.582  27.951  1.00  0.00     0.002 C 
BRANCH  29  30
ATOM     30  C   UNL A   1      32.942  34.564  28.616  1.00  0.00     0.021 C 
BRANCH  30  31
ATOM     31  C   UNL A   1      33.588  35.632  29.490  1.00  0.00     0.116 C 
BRANCH  31  32
ATOM     32  N   UNL A   1      32.689  36.147  30.508  1.00  0.00    -0.352 N 
ATOM     33  C   UNL A   1      32.697  35.906  31.862  1.00  0.00     0.251 C 
ATOM     34  H   UNL A   1      31.981  36.750  30.186  1.00  0.00     0.163 HD
ATOM     35  O   UNL A   1      31.782  36.319  32.566  1.00  0.00    -0.269 OA
BRANCH  33  36
ATOM     36  C   UNL A   1      33.800  35.117  32.449  1.00  0.00     0.039 A 
ATOM     37  C   UNL A   1      33.542  33.822  32.905  1.00  0.00     0.014 A 
ATOM     38  C   UNL A   1      35.092  35.648  32.524  1.00  0.00     0.014 A 
ATOM     39  C   UNL A   1      34.592  33.032  33.379  1.00  0.00     0.010 A 
ATOM     40  C   UNL A   1      36.145  34.840  32.942  1.00  0.00     0.010 A 
ATOM     41  C   UNL A   1      35.907  33.523  33.371  1.00  0.00    -0.014 A 
BRANCH  41  42
ATOM     42  C   UNL A   1      37.057  32.705  33.834  1.00  0.00     0.031 A 
ATOM     43  C   UNL A   1      37.759  33.084  35.110  1.00  0.00     0.074 A 
ATOM     44  C   UNL A   1      37.521  31.693  33.076  1.00  0.00     0.049 A 
ATOM     45  N   UNL A   1      38.896  32.654  35.590  1.00  0.00    -0.248 NA
ATOM     46  C   UNL A   1      37.102  34.108  35.936  1.00  0.00     0.031 C 
ATOM     47  C   UNL A   1      36.928  31.236  31.817  1.00  0.00     0.029 A 
ATOM     48  N   UNL A   1      38.618  30.882  33.239  1.00  0.00    -0.354 N 
ATOM     49  C   UNL A   1      39.102  33.368  36.766  1.00  0.00     0.074 A 
ATOM     50  C   UNL A   1      37.995  34.292  36.896  1.00  0.00     0.031 C 
ATOM     51  C   UNL A   1      37.669  30.230  31.321  1.00  0.00     0.029 A 
ATOM     52  C   UNL A   1      38.817  30.006  32.195  1.00  0.00     0.049 A 
ATOM     53  H   UNL A   1      39.204  30.922  34.027  1.00  0.00     0.167 HD
ATOM     54  C   UNL A   1      40.112  33.251  37.663  1.00  0.00     0.034 A 
ATOM     55  C   UNL A   1      39.828  29.145  31.956  1.00  0.00     0.034 A 
ATOM     56  C   UNL A   1      41.201  32.317  37.524  1.00  0.00     0.049 A 
ATOM     57  C   UNL A   1      40.960  29.055  32.952  1.00  0.00     0.074 A 
ATOM     58  C   UNL A   1      42.280  32.115  38.367  1.00  0.00     0.029 A 
ATOM     59  N   UNL A   1      41.344  31.419  36.475  1.00  0.00    -0.354 N 
ATOM     60  N   UNL A   1      41.144  29.743  34.055  1.00  0.00    -0.248 NA
ATOM     61  C   UNL A   1      42.015  28.068  32.679  1.00  0.00     0.031 C 
ATOM     62  C   UNL A   1      43.095  31.125  37.809  1.00  0.00     0.029 A 
ATOM     63  C   UNL A   1      42.493  30.665  36.650  1.00  0.00     0.049 A 
ATOM     64  H   UNL A   1      40.720  31.330  35.718  1.00  0.00     0.167 HD
ATOM     65  C   UNL A   1      42.310  29.240  34.627  1.00  0.00     0.074 A 
ATOM     66  C   UNL A   1      42.785  28.190  33.750  1.00  0.00     0.031 C 
ATOM     67  C   UNL A   1      42.931  29.605  35.775  1.00  0.00     0.034 A 
BRANCH  54  68
ATOM     68  C   UNL A   1      40.087  34.172  38.857  1.00  0.00     0.023 A 
ATOM     69  C   UNL A   1      39.504  33.776  40.072  1.00  0.00     0.031 A 
ATOM     70  C   UNL A   1      40.628  35.466  38.775  1.00  0.00     0.131 A 
ATOM     71  C   UNL A   1      39.412  34.688  41.134  1.00  0.00     0.055 A 
ATOM     72  C   UNL A   1      40.606  36.342  39.862  1.00  0.00     0.041 A 
ATOM     73  F   UNL A   1      41.181  35.906  37.633  1.00  0.00    -0.206 F 
ATOM     74  C   UNL A   1      39.982  35.959  41.046  1.00  0.00     0.022 A 
BRANCH  71  75
ATOM     75  S   UNL A   1      38.426  34.229  42.585  1.00  0.00     0.124 S 
ATOM     76  O   UNL A   1      37.807  32.984  42.136  1.00  0.00    -0.237 OA
ATOM     77  O   UNL A   1      39.437  34.101  43.628  1.00  0.00    -0.237 OA
ATOM     78  O   UNL A   1      37.506  35.354  42.743  1.00  0.00    -0.744 OA
ENDBRANCH  71  75
ENDBRANCH  54  68
BRANCH  55  79
ATOM     79  C   UNL A   1      39.849  28.319  30.713  1.00  0.00     0.023 A 
ATOM     80  C   UNL A   1      40.617  28.706  29.603  1.00  0.00     0.031 A 
ATOM     81  C   UNL A   1      39.047  27.171  30.590  1.00  0.00     0.131 A 
ATOM     82  C   UNL A   1      40.519  27.992  28.400  1.00  0.00     0.055 A 
ATOM     83  C   UNL A   1      39.000  26.427  29.409  1.00  0.00     0.041 A 
ATOM     84  F   UNL A   1      38.294  26.753  31.620  1.00  0.00    -0.206 F 
ATOM     85  C   UNL A   1      39.724  26.848  28.298  1.00  0.00     0.022 A 
BRANCH  82  86
ATOM     86  S   UNL A   1      41.352  28.652  26.930  1.00  0.00     0.124 S 
ATOM     87  O   UNL A   1      42.252  29.639  27.517  1.00  0.00    -0.237 OA
ATOM     88  O   UNL A   1      41.980  27.458  26.378  1.00  0.00    -0.237 OA
ATOM     89  O   UNL A   1      40.255  29.202  26.136  1.00  0.00    -0.744 OA
ENDBRANCH  82  86
ENDBRANCH  55  79
BRANCH  67  90
ATOM     90  C   UNL A   1      44.138  28.805  36.193  1.00  0.00     0.023 A 
ATOM     91  C   UNL A   1      44.048  27.745  37.109  1.00  0.00     0.031 A 
ATOM     92  C   UNL A   1      45.396  29.106  35.641  1.00  0.00     0.131 A 
ATOM     93  C   UNL A   1      45.207  27.044  37.477  1.00  0.00     0.055 A 
ATOM     94  C   UNL A   1      46.537  28.376  35.975  1.00  0.00     0.041 A 
ATOM     95  F   UNL A   1      45.533  30.108  34.758  1.00  0.00    -0.206 F 
ATOM     96  C   UNL A   1      46.447  27.343  36.904  1.00  0.00     0.022 A 
BRANCH  93  97
ATOM     97  S   UNL A   1      45.085  25.762  38.753  1.00  0.00     0.124 S 
ATOM     98  O   UNL A   1      44.196  26.386  39.727  1.00  0.00    -0.237 OA
ATOM     99  O   UNL A   1      44.528  24.635  38.013  1.00  0.00    -0.237 OA
ATOM    100  O   UNL A   1      46.467  25.585  39.198  1.00  0.00    -0.744 OA
ENDBRANCH  93  97
ENDBRANCH  67  90
ENDBRANCH  41  42
ENDBRANCH  33  36
ENDBRANCH  31  32
ENDBRANCH  30  31
ENDBRANCH  29  30
ENDBRANCH  28  29
ENDBRANCH   1  28
TORSDOF 23
ENDMDL
MODEL 2
REMARK VINA RESULT:     -10.3      3.304      8.697
REMARK SMILES CC(C)[C@H](NC(=O)OCc1ccccc1)C(=O)NCC(=O)NCCCCCCNC(=O)c1ccc(-c2c3nc(c(-c4cc(S(=O)(=O)[O-])ccc4F)c4ccc([nH]4)c(-c4cc(S(=O)(=O)[O-])ccc4F)c4nc(c(-c5cc(S(=O)(=O)[O-])ccc5F)c5ccc2[nH]5)C=C4)C=C3)cc1
REMARK SMILES IDX 24 1 23 2 22 3 20 4 21 5 19 7 18 8 16 9 17 10 4 12 2 13 1 14
REMARK SMILES IDX 3 15 5 16 6 17 7 19 8 20 9 21 10 22 11 23 15 24 12 25 14 26
REMARK SMILES IDX 13 27 25 28 26 29 27 30 28 31 29 32 30 33 31 35 32 36 33 37
REMARK SMILES IDX 94 38 34 39 93 40 35 41 36 42 37 43 87 44 38 45 92 46 86 47
REMARK SMILES IDX 88 48 39 49 91 50 85 51 84 52 40 54 72 55 52 56 71 57 53 58
REMARK SMILES IDX 56 59 70 60 89 61 54 62 55 63 69 65 90 66 57 67 41 68 42 69
REMARK SMILES IDX 50 70 43 71 49 72 51 73 48 74 44 75 45 76 46 77 47 78 73 79
REMARK SMILES IDX 74 80 82 81 75 82 81 83 83 84 80 85 76 86 77 87 78 88 79 89
REMARK SMILES IDX 58 90 59 91 67 92 60 93 66 94 68 95 65 96 61 97 62 98 63 99
REMARK SMILES IDX 64 100
REMARK H PARENT 22 6 18 11 5 18 29 34 88 53 56 64
REMARK Flexibility Score: inf
ROOT
ATOM      1  C   UNL A   1      29.628  26.497  24.515  1.00  0.00     0.021 C 
ENDROOT
BRANCH   1   2
ATOM      2  C   UNL A   1      30.463  26.002  25.691  1.00  0.00     0.116 C 
BRANCH   2   3
ATOM      3  N   UNL A   1      29.798  24.947  26.431  1.00  0.00    -0.355 N 
ATOM      4  C   UNL A   1      30.140  23.652  26.671  1.00  0.00     0.239 C 
ATOM      5  O   UNL A   1      29.447  23.032  27.485  1.00  0.00    -0.273 OA
ATOM      6  H   UNL A   1      28.941  25.217  26.833  1.00  0.00     0.163 HD
BRANCH   4   7
ATOM      7  C   UNL A   1      31.427  23.013  26.127  1.00  0.00     0.216 C 
BRANCH   7   8
ATOM      8  N   UNL A   1      32.334  22.409  27.091  1.00  0.00    -0.345 N 
ATOM      9  C   UNL A   1      33.373  21.534  26.967  1.00  0.00     0.243 C 
ATOM     10  O   UNL A   1      34.087  21.394  27.965  1.00  0.00    -0.273 OA
ATOM     11  H   UNL A   1      32.163  22.687  28.019  1.00  0.00     0.164 HD
BRANCH   9  12
ATOM     12  C   UNL A   1      33.754  20.849  25.629  1.00  0.00     0.177 C 
BRANCH  12  13
ATOM     13  C   UNL A   1      32.670  19.854  25.119  1.00  0.00     0.015 C 
ATOM     14  C   UNL A   1      32.678  19.590  23.610  1.00  0.00     0.010 C 
ATOM     15  C   UNL A   1      32.778  18.515  25.860  1.00  0.00     0.010 C 
ENDBRANCH  12  13
BRANCH  12  16
ATOM     16  N   UNL A   1      35.084  20.244  25.664  1.00  0.00    -0.309 N 
ATOM     17  C   UNL A   1      36.155  20.556  24.885  1.00  0.00     0.408 C 
ATOM     18  H   UNL A   1      35.220  19.530  26.328  1.00  0.00     0.167 HD
ATOM     19  O   UNL A   1      37.182  19.902  24.969  1.00  0.00    -0.225 OA
BRANCH  17  20
ATOM     20  O   UNL A   1      35.948  21.622  24.080  1.00  0.00    -0.445 OA
BRANCH  20  21
ATOM     21  C   UNL A   1      35.770  22.877  24.755  1.00  0.00     0.270 C 
BRANCH  21  22
ATOM     22  C   UNL A   1      34.847  23.860  24.068  1.00  0.00    -0.011 A 
ATOM     23  C   UNL A   1      34.675  25.134  24.639  1.00  0.00     0.007 A 
ATOM     24  C   UNL A   1      34.083  23.532  22.940  1.00  0.00     0.007 A 
ATOM     25  C   UNL A   1      33.777  26.052  24.090  1.00  0.00     0.000 A 
ATOM     26  C   UNL A   1      33.182  24.450  22.392  1.00  0.00     0.000 A 
ATOM     27  C   UNL A   1      33.029  25.709  22.968  1.00  0.00     0.000 A 
ENDBRANCH  21  22
ENDBRANCH  20  21
ENDBRANCH  17  20
ENDBRANCH  12  16
ENDBRANCH   9  12
ENDBRANCH   7   8
ENDBRANCH   4   7
ENDBRANCH   2   3
ENDBRANCH   1   2
BRANCH   1  28
ATOM     28  C   UNL A   1      30.283  27.597  23.675  1.00  0.00     0.002 C 
BRANCH  28  29
ATOM     29  C   UNL A   1      30.779  28.821  24.451  1.00  0.00     0.002 C 
BRANCH  29  30
ATOM     30  C   UNL A   1      32.290  29.064  24.422  1.00  0.00     0.021 C 
BRANCH  30  31
ATOM     31  C   UNL A   1      32.879  29.686  25.683  1.00  0.00     0.116 C 
BRANCH  31  32
ATOM     32  N   UNL A   1      32.301  30.981  25.995  1.00  0.00    -0.352 N 
ATOM     33  C   UNL A   1      32.672  31.875  26.971  1.00  0.00     0.251 C 
ATOM     34  H   UNL A   1      31.542  31.257  25.430  1.00  0.00     0.163 HD
ATOM     35  O   UNL A   1      31.990  32.872  27.185  1.00  0.00    -0.269 OA
BRANCH  33  36
ATOM     36  C   UNL A   1      33.879  31.601  27.779  1.00  0.00     0.039 A 
ATOM     37  C   UNL A   1      34.131  30.294  28.203  1.00  0.00     0.014 A 
ATOM     38  C   UNL A   1      34.771  32.631  28.095  1.00  0.00     0.014 A 
ATOM     39  C   UNL A   1      35.313  30.004  28.890  1.00  0.00     0.010 A 
ATOM     40  C   UNL A   1      35.973  32.330  28.728  1.00  0.00     0.010 A 
ATOM     41  C   UNL A   1      36.257  31.014  29.129  1.00  0.00    -0.014 A 
BRANCH  41  42
ATOM     42  C   UNL A   1      37.541  30.742  29.826  1.00  0.00     0.031 A 
ATOM     43  C   UNL A   1      38.513  29.768  29.217  1.00  0.00     0.074 A 
ATOM     44  C   UNL A   1      37.791  31.290  31.031  1.00  0.00     0.049 A 
ATOM     45  N   UNL A   1      39.580  29.224  29.740  1.00  0.00    -0.248 NA
ATOM     46  C   UNL A   1      38.221  29.330  27.844  1.00  0.00     0.031 C 
ATOM     47  C   UNL A   1      36.923  32.243  31.725  1.00  0.00     0.029 A 
ATOM     48  N   UNL A   1      38.838  31.103  31.900  1.00  0.00    -0.354 N 
ATOM     49  C   UNL A   1      40.078  28.362  28.768  1.00  0.00     0.074 A 
ATOM     50  C   UNL A   1      39.166  28.423  27.645  1.00  0.00     0.031 C 
ATOM     51  C   UNL A   1      37.470  32.553  32.913  1.00  0.00     0.029 A 
ATOM     52  C   UNL A   1      38.698  31.783  33.089  1.00  0.00     0.049 A 
ATOM     53  H   UNL A   1      39.615  30.537  31.692  1.00  0.00     0.167 HD
ATOM     54  C   UNL A   1      41.202  27.604  28.803  1.00  0.00     0.034 A 
ATOM     55  C   UNL A   1      39.457  31.762  34.205  1.00  0.00     0.034 A 
ATOM     56  C   UNL A   1      42.106  27.564  29.925  1.00  0.00     0.049 A 
ATOM     57  C   UNL A   1      40.686  30.885  34.233  1.00  0.00     0.074 A 
ATOM     58  C   UNL A   1      43.270  26.831  30.072  1.00  0.00     0.029 A 
ATOM     59  N   UNL A   1      41.951  28.300  31.093  1.00  0.00    -0.354 N 
ATOM     60  N   UNL A   1      41.139  30.069  33.309  1.00  0.00    -0.248 NA
ATOM     61  C   UNL A   1      41.512  30.930  35.449  1.00  0.00     0.031 C 
ATOM     62  C   UNL A   1      43.796  27.091  31.342  1.00  0.00     0.029 A 
ATOM     63  C   UNL A   1      42.995  28.034  31.962  1.00  0.00     0.049 A 
ATOM     64  H   UNL A   1      41.208  28.919  31.275  1.00  0.00     0.167 HD
ATOM     65  C   UNL A   1      42.324  29.542  33.816  1.00  0.00     0.074 A 
ATOM     66  C   UNL A   1      42.518  30.131  35.124  1.00  0.00     0.031 C 
ATOM     67  C   UNL A   1      43.180  28.655  33.251  1.00  0.00     0.034 A 
BRANCH  54  68
ATOM     68  C   UNL A   1      41.496  26.747  27.597  1.00  0.00     0.023 A 
ATOM     69  C   UNL A   1      41.161  25.383  27.572  1.00  0.00     0.031 A 
ATOM     70  C   UNL A   1      42.138  27.290  26.472  1.00  0.00     0.131 A 
ATOM     71  C   UNL A   1      41.531  24.592  26.474  1.00  0.00     0.055 A 
ATOM     72  C   UNL A   1      42.433  26.514  25.349  1.00  0.00     0.041 A 
ATOM     73  F   UNL A   1      42.500  28.583  26.448  1.00  0.00    -0.206 F 
ATOM     74  C   UNL A   1      42.142  25.153  25.352  1.00  0.00     0.022 A 
BRANCH  71  75
ATOM     75  S   UNL A   1      41.316  22.795  26.592  1.00  0.00     0.124 S 
ATOM     76  O   UNL A   1      42.333  22.316  25.659  1.00  0.00    -0.237 OA
ATOM     77  O   UNL A   1      41.571  22.537  28.004  1.00  0.00    -0.237 OA
ATOM     78  O   UNL A   1      39.935  22.588  26.159  1.00  0.00    -0.744 OA
ENDBRANCH  71  75
ENDBRANCH  54  68
BRANCH  55  79
ATOM     79  C   UNL A   1      39.072  32.562  35.403  1.00  0.00     0.023 A 
ATOM     80  C   UNL A   1      39.539  33.876  35.574  1.00  0.00     0.031 A 
ATOM     81  C   UNL A   1      38.291  32.004  36.431  1.00  0.00     0.131 A 
ATOM     82  C   UNL A   1      39.278  34.563  36.769  1.00  0.00     0.055 A 
ATOM     83  C   UNL A   1      37.981  32.714  37.592  1.00  0.00     0.041 A 
ATOM     84  F   UNL A   1      37.816  30.753  36.320  1.00  0.00    -0.206 F 
ATOM     85  C   UNL A   1      38.493  33.995  37.775  1.00  0.00     0.022 A 
BRANCH  82  86
ATOM     86  S   UNL A   1      40.083  36.166  37.040  1.00  0.00     0.124 S 
ATOM     87  O   UNL A   1      39.313  36.700  38.159  1.00  0.00    -0.237 OA
ATOM     88  O   UNL A   1      41.454  35.768  37.335  1.00  0.00    -0.237 OA
ATOM     89  O   UNL A   1      39.896  36.859  35.766  1.00  0.00    -0.744 OA
ENDBRANCH  82  86
ENDBRANCH  55  79
BRANCH  67  90
ATOM     90  C   UNL A   1      44.446  28.340  34.006  1.00  0.00     0.023 A 
ATOM     91  C   UNL A   1      44.574  27.186  34.796  1.00  0.00     0.031 A 
ATOM     92  C   UNL A   1      45.548  29.208  33.908  1.00  0.00     0.131 A 
ATOM     93  C   UNL A   1      45.769  26.950  35.493  1.00  0.00     0.055 A 
ATOM     94  C   UNL A   1      46.750  28.944  34.565  1.00  0.00     0.041 A 
ATOM     95  F   UNL A   1      45.476  30.322  33.162  1.00  0.00    -0.206 F 
ATOM     96  C   UNL A   1      46.863  27.813  35.369  1.00  0.00     0.022 A 
BRANCH  93  97
ATOM     97  S   UNL A   1      45.867  25.520  36.603  1.00  0.00     0.124 S 
ATOM     98  O   UNL A   1      45.134  24.503  35.853  1.00  0.00    -0.237 OA
ATOM     99  O   UNL A   1      47.305  25.310  36.720  1.00  0.00    -0.237 OA
ATOM    100  O   UNL A   1      45.209  25.985  37.822  1.00  0.00    -0.744 OA
ENDBRANCH  93  97
ENDBRANCH  67  90
ENDBRANCH  41  42
ENDBRANCH  33  36
ENDBRANCH  31  32
ENDBRANCH  30  31
ENDBRANCH  29  30
ENDBRANCH  28  29
ENDBRANCH   1  28
TORSDOF 23
ENDMDL
MODEL 3
REMARK VINA RESULT:     -10.0      3.308      9.225
REMARK SMILES CC(C)[C@H](NC(=O)OCc1ccccc1)C(=O)NCC(=O)NCCCCCCNC(=O)c1ccc(-c2c3nc(c(-c4cc(S(=O)(=O)[O-])ccc4F)c4ccc([nH]4)c(-c4cc(S(=O)(=O)[O-])ccc4F)c4nc(c(-c5cc(S(=O)(=O)[O-])ccc5F)c5ccc2[nH]5)C=C4)C=C3)cc1
REMARK SMILES IDX 24 1 23 2 22 3 20 4 21 5 19 7 18 8 16 9 17 10 4 12 2 13 1 14
REMARK SMILES IDX 3 15 5 16 6 17 7 19 8 20 9 21 10 22 11 23 15 24 12 25 14 26
REMARK SMILES IDX 13 27 25 28 26 29 27 30 28 31 29 32 30 33 31 35 32 36 33 37
REMARK SMILES IDX 94 38 34 39 93 40 35 41 36 42 37 43 87 44 38 45 92 46 86 47
REMARK SMILES IDX 88 48 39 49 91 50 85 51 84 52 40 54 72 55 52 56 71 57 53 58
REMARK SMILES IDX 56 59 70 60 89 61 54 62 55 63 69 65 90 66 57 67 41 68 42 69
REMARK SMILES IDX 50 70 43 71 49 72 51 73 48 74 44 75 45 76 46 77 47 78 73 79
REMARK SMILES IDX 74 80 82 81 75 82 81 83 83 84 80 85 76 86 77 87 78 88 79 89
REMARK SMILES IDX 58 90 59 91 67 92 60 93 66 94 68 95 65 96 61 97 62 98 63 99
REMARK SMILES IDX 64 100
REMARK H PARENT 22 6 18 11 5 18 29 34 88 53 56 64
REMARK Flexibility Score: inf
ROOT
ATOM      1  C   UNL A   1      30.123  26.915  24.150  1.00  0.00     0.021 C 
ENDROOT
BRANCH   1   2
ATOM      2  C   UNL A   1      30.604  26.813  25.594  1.00  0.00     0.116 C 
BRANCH   2   3
ATOM      3  N   UNL A   1      30.179  25.579  26.228  1.00  0.00    -0.355 N 
ATOM      4  C   UNL A   1      30.859  24.448  26.559  1.00  0.00     0.239 C 
ATOM      5  O   UNL A   1      30.259  23.617  27.250  1.00  0.00    -0.273 OA
ATOM      6  H   UNL A   1      29.223  25.556  26.460  1.00  0.00     0.163 HD
BRANCH   4   7
ATOM      7  C   UNL A   1      32.357  24.260  26.275  1.00  0.00     0.216 C 
BRANCH   7   8
ATOM      8  N   UNL A   1      33.019  23.123  26.896  1.00  0.00    -0.345 N 
ATOM      9  C   UNL A   1      33.824  22.136  26.407  1.00  0.00     0.243 C 
ATOM     10  O   UNL A   1      34.409  21.446  27.249  1.00  0.00    -0.273 OA
ATOM     11  H   UNL A   1      32.852  23.051  27.863  1.00  0.00     0.164 HD
BRANCH   9  12
ATOM     12  C   UNL A   1      34.127  21.954  24.898  1.00  0.00     0.177 C 
BRANCH  12  13
ATOM     13  C   UNL A   1      35.403  22.716  24.432  1.00  0.00     0.015 C 
ATOM     14  C   UNL A   1      35.690  24.029  25.166  1.00  0.00     0.010 C 
ATOM     15  C   UNL A   1      36.636  21.809  24.531  1.00  0.00     0.010 C 
ENDBRANCH  12  13
BRANCH  12  16
ATOM     16  N   UNL A   1      32.972  22.245  24.052  1.00  0.00    -0.309 N 
ATOM     17  C   UNL A   1      32.390  21.423  23.136  1.00  0.00     0.408 C 
ATOM     18  H   UNL A   1      32.569  23.137  24.156  1.00  0.00     0.167 HD
ATOM     19  O   UNL A   1      31.479  21.837  22.437  1.00  0.00    -0.225 OA
BRANCH  17  20
ATOM     20  O   UNL A   1      32.905  20.174  23.123  1.00  0.00    -0.445 OA
BRANCH  20  21
ATOM     21  C   UNL A   1      32.181  19.202  23.895  1.00  0.00     0.270 C 
BRANCH  21  22
ATOM     22  C   UNL A   1      32.985  18.001  24.347  1.00  0.00    -0.011 A 
ATOM     23  C   UNL A   1      32.347  17.019  25.126  1.00  0.00     0.007 A 
ATOM     24  C   UNL A   1      34.358  17.864  24.105  1.00  0.00     0.007 A 
ATOM     25  C   UNL A   1      33.059  15.930  25.634  1.00  0.00     0.000 A 
ATOM     26  C   UNL A   1      35.072  16.777  24.616  1.00  0.00     0.000 A 
ATOM     27  C   UNL A   1      34.422  15.811  25.381  1.00  0.00     0.000 A 
ENDBRANCH  21  22
ENDBRANCH  20  21
ENDBRANCH  17  20
ENDBRANCH  12  16
ENDBRANCH   9  12
ENDBRANCH   7   8
ENDBRANCH   4   7
ENDBRANCH   2   3
ENDBRANCH   1   2
BRANCH   1  28
ATOM     28  C   UNL A   1      31.197  27.327  23.140  1.00  0.00     0.002 C 
BRANCH  28  29
ATOM     29  C   UNL A   1      32.081  28.507  23.552  1.00  0.00     0.002 C 
BRANCH  29  30
ATOM     30  C   UNL A   1      33.469  28.146  24.089  1.00  0.00     0.021 C 
BRANCH  30  31
ATOM     31  C   UNL A   1      33.801  28.699  25.471  1.00  0.00     0.116 C 
BRANCH  31  32
ATOM     32  N   UNL A   1      33.070  29.914  25.783  1.00  0.00    -0.352 N 
ATOM     33  C   UNL A   1      33.309  30.828  26.781  1.00  0.00     0.251 C 
ATOM     34  H   UNL A   1      32.300  30.110  25.200  1.00  0.00     0.163 HD
ATOM     35  O   UNL A   1      32.513  31.737  26.988  1.00  0.00    -0.269 OA
BRANCH  33  36
ATOM     36  C   UNL A   1      34.517  30.681  27.620  1.00  0.00     0.039 A 
ATOM     37  C   UNL A   1      34.674  29.525  28.389  1.00  0.00     0.014 A 
ATOM     38  C   UNL A   1      35.503  31.673  27.626  1.00  0.00     0.014 A 
ATOM     39  C   UNL A   1      35.851  29.331  29.116  1.00  0.00     0.010 A 
ATOM     40  C   UNL A   1      36.698  31.452  28.305  1.00  0.00     0.010 A 
ATOM     41  C   UNL A   1      36.885  30.278  29.054  1.00  0.00    -0.014 A 
BRANCH  41  42
ATOM     42  C   UNL A   1      38.166  30.095  29.785  1.00  0.00     0.031 A 
ATOM     43  C   UNL A   1      39.186  29.131  29.244  1.00  0.00     0.074 A 
ATOM     44  C   UNL A   1      38.373  30.716  30.962  1.00  0.00     0.049 A 
ATOM     45  N   UNL A   1      40.264  28.658  29.812  1.00  0.00    -0.248 NA
ATOM     46  C   UNL A   1      38.937  28.609  27.892  1.00  0.00     0.031 C 
ATOM     47  C   UNL A   1      37.455  31.668  31.591  1.00  0.00     0.029 A 
ATOM     48  N   UNL A   1      39.410  30.617  31.857  1.00  0.00    -0.354 N 
ATOM     49  C   UNL A   1      40.813  27.767  28.897  1.00  0.00     0.074 A 
ATOM     50  C   UNL A   1      39.920  27.732  27.757  1.00  0.00     0.031 C 
ATOM     51  C   UNL A   1      37.968  32.062  32.769  1.00  0.00     0.029 A 
ATOM     52  C   UNL A   1      39.221  31.353  33.005  1.00  0.00     0.049 A 
ATOM     53  H   UNL A   1      40.212  30.073  31.692  1.00  0.00     0.167 HD
ATOM     54  C   UNL A   1      41.965  27.057  28.989  1.00  0.00     0.034 A 
ATOM     55  C   UNL A   1      39.960  31.421  34.133  1.00  0.00     0.034 A 
ATOM     56  C   UNL A   1      42.850  27.113  30.126  1.00  0.00     0.049 A 
ATOM     57  C   UNL A   1      41.222  30.596  34.228  1.00  0.00     0.074 A 
ATOM     58  C   UNL A   1      44.039  26.435  30.331  1.00  0.00     0.029 A 
ATOM     59  N   UNL A   1      42.644  27.902  31.250  1.00  0.00    -0.354 N 
ATOM     60  N   UNL A   1      41.724  29.752  33.356  1.00  0.00    -0.248 NA
ATOM     61  C   UNL A   1      42.024  30.738  35.452  1.00  0.00     0.031 C 
ATOM     62  C   UNL A   1      44.531  26.783  31.593  1.00  0.00     0.029 A 
ATOM     63  C   UNL A   1      43.682  27.725  32.149  1.00  0.00     0.049 A 
ATOM     64  H   UNL A   1      41.874  28.500  31.387  1.00  0.00     0.167 HD
ATOM     65  C   UNL A   1      42.919  29.300  33.909  1.00  0.00     0.074 A 
ATOM     66  C   UNL A   1      43.065  29.964  35.187  1.00  0.00     0.031 C 
ATOM     67  C   UNL A   1      43.820  28.420  33.406  1.00  0.00     0.034 A 
BRANCH  54  68
ATOM     68  C   UNL A   1      42.314  26.151  27.836  1.00  0.00     0.023 A 
ATOM     69  C   UNL A   1      41.775  24.857  27.735  1.00  0.00     0.031 A 
ATOM     70  C   UNL A   1      43.212  26.571  26.841  1.00  0.00     0.131 A 
ATOM     71  C   UNL A   1      42.191  24.004  26.702  1.00  0.00     0.055 A 
ATOM     72  C   UNL A   1      43.561  25.745  25.770  1.00  0.00     0.041 A 
ATOM     73  F   UNL A   1      43.774  27.789  26.896  1.00  0.00    -0.206 F 
ATOM     74  C   UNL A   1      43.061  24.448  25.705  1.00  0.00     0.022 A 
BRANCH  71  75
ATOM     75  S   UNL A   1      41.676  22.267  26.755  1.00  0.00     0.124 S 
ATOM     76  O   UNL A   1      40.240  22.394  26.992  1.00  0.00    -0.237 OA
ATOM     77  O   UNL A   1      42.066  21.779  25.438  1.00  0.00    -0.237 OA
ATOM     78  O   UNL A   1      42.440  21.718  27.875  1.00  0.00    -0.744 OA
ENDBRANCH  71  75
ENDBRANCH  54  68
BRANCH  55  79
ATOM     79  C   UNL A   1      39.523  32.267  35.281  1.00  0.00     0.023 A 
ATOM     80  C   UNL A   1      38.835  31.706  36.369  1.00  0.00     0.031 A 
ATOM     81  C   UNL A   1      39.722  33.659  35.276  1.00  0.00     0.131 A 
ATOM     82  C   UNL A   1      38.315  32.537  37.373  1.00  0.00     0.055 A 
ATOM     83  C   UNL A   1      39.257  34.475  36.308  1.00  0.00     0.041 A 
ATOM     84  F   UNL A   1      40.376  34.248  34.262  1.00  0.00    -0.206 F 
ATOM     85  C   UNL A   1      38.531  33.917  37.356  1.00  0.00     0.022 A 
BRANCH  82  86
ATOM     86  S   UNL A   1      37.245  31.801  38.640  1.00  0.00     0.124 S 
ATOM     87  O   UNL A   1      37.029  30.461  38.104  1.00  0.00    -0.237 OA
ATOM     88  O   UNL A   1      38.083  31.890  39.830  1.00  0.00    -0.237 OA
ATOM     89  O   UNL A   1      36.070  32.670  38.639  1.00  0.00    -0.744 OA
ENDBRANCH  82  86
ENDBRANCH  55  79
BRANCH  67  90
ATOM     90  C   UNL A   1      45.083  28.196  34.197  1.00  0.00     0.023 A 
ATOM     91  C   UNL A   1      45.175  27.204  35.188  1.00  0.00     0.031 A 
ATOM     92  C   UNL A   1      46.218  28.982  33.931  1.00  0.00     0.131 A 
ATOM     93  C   UNL A   1      46.371  27.050  35.907  1.00  0.00     0.055 A 
ATOM     94  C   UNL A   1      47.418  28.793  34.616  1.00  0.00     0.041 A 
ATOM     95  F   UNL A   1      46.180  29.940  32.991  1.00  0.00    -0.206 F 
ATOM     96  C   UNL A   1      47.497  27.827  35.616  1.00  0.00     0.022 A 
BRANCH  93  97
ATOM     97  S   UNL A   1      46.426  25.849  37.263  1.00  0.00     0.124 S 
ATOM     98  O   UNL A   1      45.024  25.461  37.382  1.00  0.00    -0.237 OA
ATOM     99  O   UNL A   1      47.327  24.827  36.741  1.00  0.00    -0.237 OA
ATOM    100  O   UNL A   1      46.954  26.621  38.386  1.00  0.00    -0.744 OA
ENDBRANCH  93  97
ENDBRANCH  67  90
ENDBRANCH  41  42
ENDBRANCH  33  36
ENDBRANCH  31  32
ENDBRANCH  30  31
ENDBRANCH  29  30
ENDBRANCH  28  29
ENDBRANCH   1  28
TORSDOF 23
ENDMDL
