MODEL 1
REMARK VINA RESULT:     -11.9      0.000      0.000
REMARK SMILES O=C(NCCCCCCNC(=O)c1cc(F)ccc1NS(=O)(=O)c1ccc(Cl)s1)c1ccc(-c2c3nc(c(-c4cc(S(=O)(=O)[O-])ccc4F)c4ccc([nH]4)c(-c4cc(S(=O)(=O)[O-])ccc4F)c4nc(c(-c5cc(S(=O)(=O)[O-])ccc5F)c5ccc2[nH]5)C=C4)C=C3)cc1
REMARK SMILES IDX 6 1 5 2 4 3 3 4 1 5 2 6 30 8 31 9 92 10 32 11 91 12 33 13
REMARK SMILES IDX 34 14 35 15 85 16 36 17 90 18 84 19 86 20 37 21 89 22 83 23
REMARK SMILES IDX 82 24 38 26 70 27 50 28 69 29 51 30 54 31 68 32 87 33 52 34
REMARK SMILES IDX 53 35 67 37 88 38 55 39 39 40 40 41 48 42 41 43 47 44 49 45
REMARK SMILES IDX 46 46 42 47 43 48 44 49 45 50 71 51 72 52 80 53 73 54 79 55
REMARK SMILES IDX 81 56 78 57 74 58 75 59 76 60 77 61 56 62 57 63 65 64 58 65
REMARK SMILES IDX 64 66 66 67 63 68 59 69 60 70 61 71 62 72 7 73 8 74 9 75
REMARK SMILES IDX 10 76 11 77 12 79 13 80 14 81 19 82 15 83 18 84 16 85 17 86
REMARK SMILES IDX 20 87 21 89 22 90 23 91 24 92 25 93 29 94 26 95 27 96 28 97
REMARK H PARENT 3 7 86 25 54 36 10 78 20 88
REMARK Flexibility Score: inf
ROOT
ATOM      1  C   UNL A   1      31.524  30.740  26.157  1.00  0.00     0.002 C 
ENDROOT
BRANCH   1   2
ATOM      2  C   UNL A   1      31.450  32.223  26.531  1.00  0.00     0.021 C 
BRANCH   2   3
ATOM      3  C   UNL A   1      32.657  32.764  27.293  1.00  0.00     0.116 C 
BRANCH   3   4
ATOM      4  N   UNL A   1      32.459  34.130  27.744  1.00  0.00    -0.352 N 
ATOM      5  O   UNL A   1      32.695  35.922  29.084  1.00  0.00    -0.269 OA
ATOM      6  C   UNL A   1      33.110  34.819  28.736  1.00  0.00     0.251 C 
ATOM      7  H   UNL A   1      31.758  34.633  27.270  1.00  0.00     0.163 HD
BRANCH   6   8
ATOM      8  C   UNL A   1      34.295  34.230  29.398  1.00  0.00     0.039 A 
ATOM      9  C   UNL A   1      34.159  33.383  30.502  1.00  0.00     0.014 A 
ATOM     10  C   UNL A   1      35.561  34.503  28.874  1.00  0.00     0.014 A 
ATOM     11  C   UNL A   1      35.294  32.878  31.134  1.00  0.00     0.010 A 
ATOM     12  C   UNL A   1      36.696  33.960  29.481  1.00  0.00     0.010 A 
ATOM     13  C   UNL A   1      36.572  33.152  30.622  1.00  0.00    -0.014 A 
BRANCH  13  14
ATOM     14  C   UNL A   1      37.778  32.553  31.247  1.00  0.00     0.031 A 
ATOM     15  C   UNL A   1      38.470  31.382  30.608  1.00  0.00     0.074 A 
ATOM     16  C   UNL A   1      38.247  33.069  32.400  1.00  0.00     0.049 A 
ATOM     17  N   UNL A   1      39.450  30.652  31.070  1.00  0.00    -0.248 NA
ATOM     18  C   UNL A   1      37.998  30.982  29.272  1.00  0.00     0.031 C 
ATOM     19  C   UNL A   1      37.684  34.229  33.097  1.00  0.00     0.029 A 
ATOM     20  N   UNL A   1      39.302  32.689  33.188  1.00  0.00    -0.354 N 
ATOM     21  C   UNL A   1      39.710  29.698  30.095  1.00  0.00     0.074 A 
ATOM     22  C   UNL A   1      38.774  29.936  29.015  1.00  0.00     0.031 C 
ATOM     23  C   UNL A   1      38.412  34.476  34.196  1.00  0.00     0.029 A 
ATOM     24  C   UNL A   1      39.450  33.459  34.318  1.00  0.00     0.049 A 
ATOM     25  H   UNL A   1      39.898  31.937  32.967  1.00  0.00     0.167 HD
ATOM     26  C   UNL A   1      40.643  28.714  30.101  1.00  0.00     0.034 A 
ATOM     27  C   UNL A   1      40.302  33.339  35.353  1.00  0.00     0.034 A 
ATOM     28  C   UNL A   1      41.568  28.481  31.183  1.00  0.00     0.049 A 
ATOM     29  C   UNL A   1      41.280  32.196  35.366  1.00  0.00     0.074 A 
ATOM     30  C   UNL A   1      42.528  27.490  31.299  1.00  0.00     0.029 A 
ATOM     31  N   UNL A   1      41.654  29.251  32.334  1.00  0.00    -0.354 N 
ATOM     32  N   UNL A   1      41.457  31.253  34.471  1.00  0.00    -0.248 NA
ATOM     33  C   UNL A   1      42.162  32.095  36.536  1.00  0.00     0.031 C 
ATOM     34  C   UNL A   1      43.167  27.637  32.535  1.00  0.00     0.029 A 
ATOM     35  C   UNL A   1      42.642  28.752  33.167  1.00  0.00     0.049 A 
ATOM     36  H   UNL A   1      41.093  30.037  32.529  1.00  0.00     0.167 HD
ATOM     37  C   UNL A   1      42.474  30.447  34.970  1.00  0.00     0.074 A 
ATOM     38  C   UNL A   1      42.885  31.026  36.233  1.00  0.00     0.031 C 
ATOM     39  C   UNL A   1      43.019  29.327  34.434  1.00  0.00     0.034 A 
BRANCH  26  40
ATOM     40  C   UNL A   1      40.685  27.787  28.918  1.00  0.00     0.023 A 
ATOM     41  C   UNL A   1      41.625  27.955  27.887  1.00  0.00     0.031 A 
ATOM     42  C   UNL A   1      39.791  26.706  28.835  1.00  0.00     0.131 A 
ATOM     43  C   UNL A   1      41.629  27.068  26.800  1.00  0.00     0.055 A 
ATOM     44  C   UNL A   1      39.834  25.797  27.777  1.00  0.00     0.041 A 
ATOM     45  F   UNL A   1      38.863  26.514  29.787  1.00  0.00    -0.206 F 
ATOM     46  C   UNL A   1      40.755  25.978  26.749  1.00  0.00     0.022 A 
BRANCH  43  47
ATOM     47  S   UNL A   1      42.767  27.377  25.421  1.00  0.00     0.124 S 
ATOM     48  O   UNL A   1      44.011  27.671  26.129  1.00  0.00    -0.237 OA
ATOM     49  O   UNL A   1      42.735  26.115  24.689  1.00  0.00    -0.237 OA
ATOM     50  O   UNL A   1      42.164  28.513  24.728  1.00  0.00    -0.744 OA
ENDBRANCH  43  47
ENDBRANCH  26  40
BRANCH  27  51
ATOM     51  C   UNL A   1      40.235  34.289  36.495  1.00  0.00     0.023 A 
ATOM     52  C   UNL A   1      39.683  33.900  37.724  1.00  0.00     0.031 A 
ATOM     53  C   UNL A   1      40.694  35.611  36.360  1.00  0.00     0.131 A 
ATOM     54  C   UNL A   1      39.573  34.835  38.764  1.00  0.00     0.055 A 
ATOM     55  C   UNL A   1      40.620  36.525  37.411  1.00  0.00     0.041 A 
ATOM     56  F   UNL A   1      41.235  36.027  35.204  1.00  0.00    -0.206 F 
ATOM     57  C   UNL A   1      40.047  36.141  38.619  1.00  0.00     0.022 A 
BRANCH  54  58
ATOM     58  S   UNL A   1      38.753  34.330  40.300  1.00  0.00     0.124 S 
ATOM     59  O   UNL A   1      39.806  33.571  40.965  1.00  0.00    -0.237 OA
ATOM     60  O   UNL A   1      38.412  35.615  40.900  1.00  0.00    -0.237 OA
ATOM     61  O   UNL A   1      37.614  33.542  39.834  1.00  0.00    -0.744 OA
ENDBRANCH  54  58
ENDBRANCH  27  51
BRANCH  39  62
ATOM     62  C   UNL A   1      44.130  28.678  35.212  1.00  0.00     0.023 A 
ATOM     63  C   UNL A   1      43.871  27.650  36.134  1.00  0.00     0.031 A 
ATOM     64  C   UNL A   1      45.457  29.106  35.044  1.00  0.00     0.131 A 
ATOM     65  C   UNL A   1      44.923  27.113  36.890  1.00  0.00     0.055 A 
ATOM     66  C   UNL A   1      46.506  28.537  35.766  1.00  0.00     0.041 A 
ATOM     67  F   UNL A   1      45.752  30.086  34.175  1.00  0.00    -0.206 F 
ATOM     68  C   UNL A   1      46.240  27.541  36.703  1.00  0.00     0.022 A 
BRANCH  65  69
ATOM     69  S   UNL A   1      44.539  25.885  38.168  1.00  0.00     0.124 S 
ATOM     70  O   UNL A   1      44.032  26.723  39.250  1.00  0.00    -0.237 OA
ATOM     71  O   UNL A   1      43.555  25.037  37.504  1.00  0.00    -0.237 OA
ATOM     72  O   UNL A   1      45.828  25.247  38.430  1.00  0.00    -0.744 OA
ENDBRANCH  65  69
ENDBRANCH  39  62
ENDBRANCH  13  14
ENDBRANCH   6   8
ENDBRANCH   3   4
ENDBRANCH   2   3
ENDBRANCH   1   2
BRANCH   1  73
ATOM     73  C   UNL A   1      32.510  29.903  26.975  1.00  0.00     0.002 C 
BRANCH  73  74
ATOM     74  C   UNL A   1      31.948  28.601  27.563  1.00  0.00     0.021 C 
BRANCH  74  75
ATOM     75  C   UNL A   1      32.325  27.328  26.803  1.00  0.00     0.116 C 
BRANCH  75  76
ATOM     76  N   UNL A   1      31.309  26.305  26.969  1.00  0.00    -0.352 N 
ATOM     77  C   UNL A   1      30.410  25.829  26.057  1.00  0.00     0.253 C 
ATOM     78  H   UNL A   1      31.260  25.897  27.864  1.00  0.00     0.163 HD
ATOM     79  O   UNL A   1      29.400  25.244  26.443  1.00  0.00    -0.269 OA
BRANCH  77  80
ATOM     80  C   UNL A   1      30.619  25.999  24.603  1.00  0.00     0.066 A 
ATOM     81  C   UNL A   1      30.358  27.245  24.016  1.00  0.00     0.055 A 
ATOM     82  C   UNL A   1      31.219  24.956  23.860  1.00  0.00     0.062 A 
ATOM     83  C   UNL A   1      30.665  27.444  22.679  1.00  0.00     0.124 A 
ATOM     84  C   UNL A   1      31.542  25.207  22.521  1.00  0.00     0.030 A 
ATOM     85  F   UNL A   1      30.396  28.623  22.105  1.00  0.00    -0.207 F 
ATOM     86  C   UNL A   1      31.265  26.443  21.931  1.00  0.00     0.041 A 
BRANCH  82  87
ATOM     87  N   UNL A   1      31.244  23.629  24.437  1.00  0.00    -0.278 N 
ATOM     88  H   UNL A   1      30.433  23.074  24.370  1.00  0.00     0.180 HD
BRANCH  87  89
ATOM     89  S   UNL A   1      32.591  22.986  25.213  1.00  0.00     0.271 S 
ATOM     90  O   UNL A   1      33.760  23.702  24.759  1.00  0.00    -0.200 OA
ATOM     91  O   UNL A   1      32.253  22.879  26.617  1.00  0.00    -0.200 OA
BRANCH  89  92
ATOM     92  C   UNL A   1      32.790  21.299  24.676  1.00  0.00     0.141 A 
ATOM     93  C   UNL A   1      32.154  20.544  23.703  1.00  0.00     0.036 A 
ATOM     94  S   UNL A   1      34.040  20.410  25.441  1.00  0.00    -0.110 S 
ATOM     95  C   UNL A   1      32.786  19.279  23.507  1.00  0.00     0.034 A 
ATOM     96  C   UNL A   1      33.823  19.108  24.386  1.00  0.00     0.094 A 
ATOM     97  Cl  UNL A   1      34.873  17.753  24.483  1.00  0.00    -0.072 Cl
ENDBRANCH  89  92
ENDBRANCH  87  89
ENDBRANCH  82  87
ENDBRANCH  77  80
ENDBRANCH  75  76
ENDBRANCH  74  75
ENDBRANCH  73  74
ENDBRANCH   1  73
TORSDOF 19
ENDMDL
MODEL 2
REMARK VINA RESULT:     -11.7      3.081      8.509
REMARK SMILES O=C(NCCCCCCNC(=O)c1cc(F)ccc1NS(=O)(=O)c1ccc(Cl)s1)c1ccc(-c2c3nc(c(-c4cc(S(=O)(=O)[O-])ccc4F)c4ccc([nH]4)c(-c4cc(S(=O)(=O)[O-])ccc4F)c4nc(c(-c5cc(S(=O)(=O)[O-])ccc5F)c5ccc2[nH]5)C=C4)C=C3)cc1
REMARK SMILES IDX 6 1 5 2 4 3 3 4 1 5 2 6 30 8 31 9 92 10 32 11 91 12 33 13
REMARK SMILES IDX 34 14 35 15 85 16 36 17 90 18 84 19 86 20 37 21 89 22 83 23
REMARK SMILES IDX 82 24 38 26 70 27 50 28 69 29 51 30 54 31 68 32 87 33 52 34
REMARK SMILES IDX 53 35 67 37 88 38 55 39 39 40 40 41 48 42 41 43 47 44 49 45
REMARK SMILES IDX 46 46 42 47 43 48 44 49 45 50 71 51 72 52 80 53 73 54 79 55
REMARK SMILES IDX 81 56 78 57 74 58 75 59 76 60 77 61 56 62 57 63 65 64 58 65
REMARK SMILES IDX 64 66 66 67 63 68 59 69 60 70 61 71 62 72 7 73 8 74 9 75
REMARK SMILES IDX 10 76 11 77 12 79 13 80 14 81 19 82 15 83 18 84 16 85 17 86
REMARK SMILES IDX 20 87 21 89 22 90 23 91 24 92 25 93 29 94 26 95 27 96 28 97
REMARK H PARENT 3 7 86 25 54 36 10 78 20 88
REMARK Flexibility Score: inf
ROOT
ATOM      1  C   UNL A   1      31.612  30.645  26.637  1.00  0.00     0.002 C 
ENDROOT
BRANCH   1   2
ATOM      2  C   UNL A   1      31.427  32.152  26.839  1.00  0.00     0.021 C 
BRANCH   2   3
ATOM      3  C   UNL A   1      32.717  32.965  26.897  1.00  0.00     0.116 C 
BRANCH   3   4
ATOM      4  N   UNL A   1      32.545  34.227  27.595  1.00  0.00    -0.352 N 
ATOM      5  O   UNL A   1      32.790  35.723  29.257  1.00  0.00    -0.269 OA
ATOM      6  C   UNL A   1      33.183  34.693  28.716  1.00  0.00     0.251 C 
ATOM      7  H   UNL A   1      31.874  34.835  27.207  1.00  0.00     0.163 HD
BRANCH   6   8
ATOM      8  C   UNL A   1      34.329  33.948  29.284  1.00  0.00     0.039 A 
ATOM      9  C   UNL A   1      35.646  34.336  29.017  1.00  0.00     0.014 A 
ATOM     10  C   UNL A   1      34.074  32.865  30.129  1.00  0.00     0.014 A 
ATOM     11  C   UNL A   1      36.707  33.590  29.528  1.00  0.00     0.010 A 
ATOM     12  C   UNL A   1      35.138  32.145  30.678  1.00  0.00     0.010 A 
ATOM     13  C   UNL A   1      36.463  32.495  30.372  1.00  0.00    -0.014 A 
BRANCH  13  14
ATOM     14  C   UNL A   1      37.591  31.746  30.980  1.00  0.00     0.031 A 
ATOM     15  C   UNL A   1      38.029  32.031  32.389  1.00  0.00     0.074 A 
ATOM     16  C   UNL A   1      38.225  30.807  30.250  1.00  0.00     0.049 A 
ATOM     17  N   UNL A   1      39.067  31.572  33.037  1.00  0.00    -0.248 NA
ATOM     18  C   UNL A   1      37.186  32.949  33.171  1.00  0.00     0.031 C 
ATOM     19  C   UNL A   1      37.868  30.414  28.885  1.00  0.00     0.029 A 
ATOM     20  N   UNL A   1      39.299  30.010  30.554  1.00  0.00    -0.354 N 
ATOM     21  C   UNL A   1      39.016  32.150  34.299  1.00  0.00     0.074 A 
ATOM     22  C   UNL A   1      37.846  33.005  34.322  1.00  0.00     0.031 C 
ATOM     23  C   UNL A   1      38.695  29.439  28.478  1.00  0.00     0.029 A 
ATOM     24  C   UNL A   1      39.678  29.182  29.524  1.00  0.00     0.049 A 
ATOM     25  H   UNL A   1      39.756  30.029  31.426  1.00  0.00     0.167 HD
ATOM     26  C   UNL A   1      39.867  31.983  35.340  1.00  0.00     0.034 A 
ATOM     27  C   UNL A   1      40.720  28.336  29.420  1.00  0.00     0.034 A 
ATOM     28  C   UNL A   1      41.032  31.135  35.307  1.00  0.00     0.049 A 
ATOM     29  C   UNL A   1      41.688  28.225  30.566  1.00  0.00     0.074 A 
ATOM     30  C   UNL A   1      41.976  30.926  36.299  1.00  0.00     0.029 A 
ATOM     31  N   UNL A   1      41.412  30.350  34.229  1.00  0.00    -0.354 N 
ATOM     32  N   UNL A   1      41.670  28.842  31.724  1.00  0.00    -0.248 NA
ATOM     33  C   UNL A   1      42.824  27.313  30.384  1.00  0.00     0.031 C 
ATOM     34  C   UNL A   1      42.946  30.045  35.806  1.00  0.00     0.029 A 
ATOM     35  C   UNL A   1      42.579  29.664  34.526  1.00  0.00     0.049 A 
ATOM     36  H   UNL A   1      40.923  30.290  33.375  1.00  0.00     0.167 HD
ATOM     37  C   UNL A   1      42.791  28.390  32.409  1.00  0.00     0.074 A 
ATOM     38  C   UNL A   1      43.452  27.433  31.544  1.00  0.00     0.031 C 
ATOM     39  C   UNL A   1      43.237  28.735  33.642  1.00  0.00     0.034 A 
BRANCH  26  40
ATOM     40  C   UNL A   1      39.594  32.767  36.595  1.00  0.00     0.023 A 
ATOM     41  C   UNL A   1      38.717  32.288  37.583  1.00  0.00     0.031 A 
ATOM     42  C   UNL A   1      40.242  33.995  36.817  1.00  0.00     0.131 A 
ATOM     43  C   UNL A   1      38.489  33.051  38.738  1.00  0.00     0.055 A 
ATOM     44  C   UNL A   1      40.050  34.724  37.992  1.00  0.00     0.041 A 
ATOM     45  F   UNL A   1      41.075  34.502  35.895  1.00  0.00    -0.206 F 
ATOM     46  C   UNL A   1      39.166  34.254  38.959  1.00  0.00     0.022 A 
BRANCH  43  47
ATOM     47  S   UNL A   1      37.259  32.475  39.940  1.00  0.00     0.124 S 
ATOM     48  O   UNL A   1      37.946  31.331  40.536  1.00  0.00    -0.237 OA
ATOM     49  O   UNL A   1      37.087  33.636  40.806  1.00  0.00    -0.237 OA
ATOM     50  O   UNL A   1      36.102  32.139  39.113  1.00  0.00    -0.744 OA
ENDBRANCH  43  47
ENDBRANCH  26  40
BRANCH  27  51
ATOM     51  C   UNL A   1      40.943  27.569  28.165  1.00  0.00     0.023 A 
ATOM     52  C   UNL A   1      40.645  26.201  28.095  1.00  0.00     0.031 A 
ATOM     53  C   UNL A   1      41.488  28.191  27.028  1.00  0.00     0.131 A 
ATOM     54  C   UNL A   1      40.924  25.488  26.920  1.00  0.00     0.055 A 
ATOM     55  C   UNL A   1      41.726  27.486  25.849  1.00  0.00     0.041 A 
ATOM     56  F   UNL A   1      41.784  29.501  27.047  1.00  0.00    -0.206 F 
ATOM     57  C   UNL A   1      41.453  26.123  25.794  1.00  0.00     0.022 A 
BRANCH  54  58
ATOM     58  S   UNL A   1      40.632  23.698  26.902  1.00  0.00     0.124 S 
ATOM     59  O   UNL A   1      40.935  23.334  28.281  1.00  0.00    -0.237 OA
ATOM     60  O   UNL A   1      39.228  23.624  26.513  1.00  0.00    -0.237 OA
ATOM     61  O   UNL A   1      41.579  23.209  25.903  1.00  0.00    -0.744 OA
ENDBRANCH  54  58
ENDBRANCH  27  51
BRANCH  39  62
ATOM     62  C   UNL A   1      44.488  28.052  34.124  1.00  0.00     0.023 A 
ATOM     63  C   UNL A   1      44.431  26.842  34.834  1.00  0.00     0.031 A 
ATOM     64  C   UNL A   1      45.746  28.630  33.885  1.00  0.00     0.131 A 
ATOM     65  C   UNL A   1      45.613  26.268  35.325  1.00  0.00     0.055 A 
ATOM     66  C   UNL A   1      46.922  28.032  34.337  1.00  0.00     0.041 A 
ATOM     67  F   UNL A   1      45.849  29.786  33.211  1.00  0.00    -0.206 F 
ATOM     68  C   UNL A   1      46.859  26.849  35.070  1.00  0.00     0.022 A 
BRANCH  65  69
ATOM     69  S   UNL A   1      45.497  24.781  36.355  1.00  0.00     0.124 S 
ATOM     70  O   UNL A   1      46.630  23.993  35.879  1.00  0.00    -0.237 OA
ATOM     71  O   UNL A   1      45.619  25.323  37.704  1.00  0.00    -0.237 OA
ATOM     72  O   UNL A   1      44.181  24.237  36.025  1.00  0.00    -0.744 OA
ENDBRANCH  65  69
ENDBRANCH  39  62
ENDBRANCH  13  14
ENDBRANCH   6   8
ENDBRANCH   3   4
ENDBRANCH   2   3
ENDBRANCH   1   2
BRANCH   1  73
ATOM     73  C   UNL A   1      33.063  30.164  26.566  1.00  0.00     0.002 C 
BRANCH  73  74
ATOM     74  C   UNL A   1      33.347  28.808  27.226  1.00  0.00     0.021 C 
BRANCH  74  75
ATOM     75  C   UNL A   1      34.251  27.870  26.424  1.00  0.00     0.116 C 
BRANCH  75  76
ATOM     76  N   UNL A   1      33.985  27.981  25.002  1.00  0.00    -0.352 N 
ATOM     77  C   UNL A   1      33.234  27.168  24.200  1.00  0.00     0.253 C 
ATOM     78  H   UNL A   1      34.405  28.750  24.551  1.00  0.00     0.163 HD
ATOM     79  O   UNL A   1      33.405  27.187  22.982  1.00  0.00    -0.269 OA
BRANCH  77  80
ATOM     80  C   UNL A   1      32.213  26.257  24.760  1.00  0.00     0.066 A 
ATOM     81  C   UNL A   1      32.580  24.950  25.107  1.00  0.00     0.055 A 
ATOM     82  C   UNL A   1      30.931  26.763  25.078  1.00  0.00     0.062 A 
ATOM     83  C   UNL A   1      31.659  24.132  25.742  1.00  0.00     0.124 A 
ATOM     84  C   UNL A   1      30.040  25.914  25.747  1.00  0.00     0.030 A 
ATOM     85  F   UNL A   1      31.993  22.874  26.054  1.00  0.00    -0.207 F 
ATOM     86  C   UNL A   1      30.399  24.605  26.075  1.00  0.00     0.041 A 
BRANCH  82  87
ATOM     87  N   UNL A   1      30.523  28.021  24.490  1.00  0.00    -0.278 N 
ATOM     88  H   UNL A   1      30.825  28.856  24.916  1.00  0.00     0.180 HD
BRANCH  87  89
ATOM     89  S   UNL A   1      29.560  28.127  23.116  1.00  0.00     0.271 S 
ATOM     90  O   UNL A   1      30.379  27.826  21.964  1.00  0.00    -0.200 OA
ATOM     91  O   UNL A   1      28.341  27.400  23.402  1.00  0.00    -0.200 OA
BRANCH  89  92
ATOM     92  C   UNL A   1      29.035  29.819  22.934  1.00  0.00     0.141 A 
ATOM     93  C   UNL A   1      29.163  30.934  23.749  1.00  0.00     0.036 A 
ATOM     94  S   UNL A   1      28.268  30.214  21.452  1.00  0.00    -0.110 S 
ATOM     95  C   UNL A   1      28.742  32.130  23.094  1.00  0.00     0.034 A 
ATOM     96  C   UNL A   1      28.251  31.857  21.844  1.00  0.00     0.094 A 
ATOM     97  Cl  UNL A   1      27.668  32.997  20.700  1.00  0.00    -0.072 Cl
ENDBRANCH  89  92
ENDBRANCH  87  89
ENDBRANCH  82  87
ENDBRANCH  77  80
ENDBRANCH  75  76
ENDBRANCH  74  75
ENDBRANCH  73  74
ENDBRANCH   1  73
TORSDOF 19
ENDMDL
MODEL 3
REMARK VINA RESULT:     -11.7      5.677     11.222
REMARK SMILES O=C(NCCCCCCNC(=O)c1cc(F)ccc1NS(=O)(=O)c1ccc(Cl)s1)c1ccc(-c2c3nc(c(-c4cc(S(=O)(=O)[O-])ccc4F)c4ccc([nH]4)c(-c4cc(S(=O)(=O)[O-])ccc4F)c4nc(c(-c5cc(S(=O)(=O)[O-])ccc5F)c5ccc2[nH]5)C=C4)C=C3)cc1
REMARK SMILES IDX 6 1 5 2 4 3 3 4 1 5 2 6 30 8 31 9 92 10 32 11 91 12 33 13
REMARK SMILES IDX 34 14 35 15 85 16 36 17 90 18 84 19 86 20 37 21 89 22 83 23
REMARK SMILES IDX 82 24 38 26 70 27 50 28 69 29 51 30 54 31 68 32 87 33 52 34
REMARK SMILES IDX 53 35 67 37 88 38 55 39 39 40 40 41 48 42 41 43 47 44 49 45
REMARK SMILES IDX 46 46 42 47 43 48 44 49 45 50 71 51 72 52 80 53 73 54 79 55
REMARK SMILES IDX 81 56 78 57 74 58 75 59 76 60 77 61 56 62 57 63 65 64 58 65
REMARK SMILES IDX 64 66 66 67 63 68 59 69 60 70 61 71 62 72 7 73 8 74 9 75
REMARK SMILES IDX 10 76 11 77 12 79 13 80 14 81 19 82 15 83 18 84 16 85 17 86
REMARK SMILES IDX 20 87 21 89 22 90 23 91 24 92 25 93 29 94 26 95 27 96 28 97
REMARK H PARENT 3 7 86 25 54 36 10 78 20 88
REMARK Flexibility Score: inf
ROOT
ATOM      1  C   UNL A   1      36.782  20.772  24.950  1.00  0.00     0.002 C 
ENDROOT
BRANCH   1   2
ATOM      2  C   UNL A   1      38.028  19.883  24.908  1.00  0.00     0.021 C 
BRANCH   2   3
ATOM      3  C   UNL A   1      39.164  20.308  25.835  1.00  0.00     0.116 C 
BRANCH   3   4
ATOM      4  N   UNL A   1      40.236  19.329  25.881  1.00  0.00    -0.352 N 
ATOM      5  O   UNL A   1      42.359  18.584  25.915  1.00  0.00    -0.269 OA
ATOM      6  C   UNL A   1      41.581  19.523  26.066  1.00  0.00     0.251 C 
ATOM      7  H   UNL A   1      39.957  18.392  25.762  1.00  0.00     0.163 HD
BRANCH   6   8
ATOM      8  C   UNL A   1      42.097  20.862  26.428  1.00  0.00     0.039 A 
ATOM      9  C   UNL A   1      42.365  21.197  27.759  1.00  0.00     0.014 A 
ATOM     10  C   UNL A   1      42.352  21.783  25.408  1.00  0.00     0.014 A 
ATOM     11  C   UNL A   1      42.808  22.480  28.077  1.00  0.00     0.010 A 
ATOM     12  C   UNL A   1      42.838  23.054  25.724  1.00  0.00     0.010 A 
ATOM     13  C   UNL A   1      43.059  23.416  27.061  1.00  0.00    -0.014 A 
BRANCH  13  14
ATOM     14  C   UNL A   1      43.604  24.757  27.391  1.00  0.00     0.031 A 
ATOM     15  C   UNL A   1      42.709  25.833  27.939  1.00  0.00     0.074 A 
ATOM     16  C   UNL A   1      44.914  25.002  27.191  1.00  0.00     0.049 A 
ATOM     17  N   UNL A   1      42.978  27.093  28.163  1.00  0.00    -0.248 NA
ATOM     18  C   UNL A   1      41.333  25.439  28.283  1.00  0.00     0.031 C 
ATOM     19  C   UNL A   1      45.890  24.027  26.699  1.00  0.00     0.029 A 
ATOM     20  N   UNL A   1      45.650  26.144  27.376  1.00  0.00    -0.354 N 
ATOM     21  C   UNL A   1      41.808  27.650  28.662  1.00  0.00     0.074 A 
ATOM     22  C   UNL A   1      40.820  26.591  28.698  1.00  0.00     0.031 C 
ATOM     23  C   UNL A   1      47.099  24.606  26.642  1.00  0.00     0.029 A 
ATOM     24  C   UNL A   1      46.973  26.007  27.029  1.00  0.00     0.049 A 
ATOM     25  H   UNL A   1      45.268  26.982  27.725  1.00  0.00     0.167 HD
ATOM     26  C   UNL A   1      41.580  28.928  29.051  1.00  0.00     0.034 A 
ATOM     27  C   UNL A   1      47.967  26.915  26.993  1.00  0.00     0.034 A 
ATOM     28  C   UNL A   1      42.567  29.978  29.006  1.00  0.00     0.049 A 
ATOM     29  C   UNL A   1      47.667  28.342  27.364  1.00  0.00     0.074 A 
ATOM     30  C   UNL A   1      42.424  31.313  29.347  1.00  0.00     0.029 A 
ATOM     31  N   UNL A   1      43.883  29.813  28.601  1.00  0.00    -0.354 N 
ATOM     32  N   UNL A   1      46.532  28.870  27.756  1.00  0.00    -0.248 NA
ATOM     33  C   UNL A   1      48.780  29.295  27.273  1.00  0.00     0.031 C 
ATOM     34  C   UNL A   1      43.642  31.961  29.111  1.00  0.00     0.029 A 
ATOM     35  C   UNL A   1      44.559  31.021  28.673  1.00  0.00     0.049 A 
ATOM     36  H   UNL A   1      44.279  28.961  28.304  1.00  0.00     0.167 HD
ATOM     37  C   UNL A   1      46.796  30.218  27.962  1.00  0.00     0.074 A 
ATOM     38  C   UNL A   1      48.201  30.419  27.671  1.00  0.00     0.031 C 
ATOM     39  C   UNL A   1      45.953  31.206  28.354  1.00  0.00     0.034 A 
BRANCH  26  40
ATOM     40  C   UNL A   1      40.194  29.275  29.524  1.00  0.00     0.023 A 
ATOM     41  C   UNL A   1      39.865  29.282  30.890  1.00  0.00     0.031 A 
ATOM     42  C   UNL A   1      39.200  29.631  28.596  1.00  0.00     0.131 A 
ATOM     43  C   UNL A   1      38.561  29.610  31.288  1.00  0.00     0.055 A 
ATOM     44  C   UNL A   1      37.918  30.006  29.003  1.00  0.00     0.041 A 
ATOM     45  F   UNL A   1      39.461  29.623  27.280  1.00  0.00    -0.206 F 
ATOM     46  C   UNL A   1      37.592  29.994  30.356  1.00  0.00     0.022 A 
BRANCH  43  47
ATOM     47  S   UNL A   1      38.124  29.491  33.045  1.00  0.00     0.124 S 
ATOM     48  O   UNL A   1      39.443  29.492  33.674  1.00  0.00    -0.237 OA
ATOM     49  O   UNL A   1      37.317  30.687  33.258  1.00  0.00    -0.237 OA
ATOM     50  O   UNL A   1      37.397  28.227  33.132  1.00  0.00    -0.744 OA
ENDBRANCH  43  47
ENDBRANCH  26  40
BRANCH  27  51
ATOM     51  C   UNL A   1      49.326  26.523  26.533  1.00  0.00     0.023 A 
ATOM     52  C   UNL A   1      49.839  26.995  25.317  1.00  0.00     0.031 A 
ATOM     53  C   UNL A   1      50.116  25.643  27.293  1.00  0.00     0.131 A 
ATOM     54  C   UNL A   1      51.097  26.559  24.877  1.00  0.00     0.055 A 
ATOM     55  C   UNL A   1      51.384  25.244  26.870  1.00  0.00     0.041 A 
ATOM     56  F   UNL A   1      49.669  25.169  28.466  1.00  0.00    -0.206 F 
ATOM     57  C   UNL A   1      51.877  25.696  25.650  1.00  0.00     0.022 A 
BRANCH  54  58
ATOM     58  S   UNL A   1      51.681  27.101  23.248  1.00  0.00     0.124 S 
ATOM     59  O   UNL A   1      52.796  26.190  23.014  1.00  0.00    -0.237 OA
ATOM     60  O   UNL A   1      50.500  26.896  22.417  1.00  0.00    -0.237 OA
ATOM     61  O   UNL A   1      52.050  28.498  23.467  1.00  0.00    -0.744 OA
ENDBRANCH  54  58
ENDBRANCH  27  51
BRANCH  39  62
ATOM     62  C   UNL A   1      46.545  32.579  28.506  1.00  0.00     0.023 A 
ATOM     63  C   UNL A   1      46.639  33.459  27.415  1.00  0.00     0.031 A 
ATOM     64  C   UNL A   1      47.038  33.004  29.752  1.00  0.00     0.131 A 
ATOM     65  C   UNL A   1      47.257  34.707  27.579  1.00  0.00     0.055 A 
ATOM     66  C   UNL A   1      47.612  34.265  29.919  1.00  0.00     0.041 A 
ATOM     67  F   UNL A   1      46.971  32.198  30.823  1.00  0.00    -0.206 F 
ATOM     68  C   UNL A   1      47.732  35.120  28.826  1.00  0.00     0.022 A 
BRANCH  65  69
ATOM     69  S   UNL A   1      47.487  35.763  26.122  1.00  0.00     0.124 S 
ATOM     70  O   UNL A   1      47.844  34.788  25.095  1.00  0.00    -0.237 OA
ATOM     71  O   UNL A   1      46.178  36.389  25.978  1.00  0.00    -0.237 OA
ATOM     72  O   UNL A   1      48.564  36.667  26.521  1.00  0.00    -0.744 OA
ENDBRANCH  65  69
ENDBRANCH  39  62
ENDBRANCH  13  14
ENDBRANCH   6   8
ENDBRANCH   3   4
ENDBRANCH   2   3
ENDBRANCH   1   2
BRANCH   1  73
ATOM     73  C   UNL A   1      36.981  22.207  24.456  1.00  0.00     0.002 C 
BRANCH  73  74
ATOM     74  C   UNL A   1      37.007  23.287  25.546  1.00  0.00     0.021 C 
BRANCH  74  75
ATOM     75  C   UNL A   1      35.687  24.032  25.755  1.00  0.00     0.116 C 
BRANCH  75  76
ATOM     76  N   UNL A   1      35.072  24.367  24.484  1.00  0.00    -0.352 N 
ATOM     77  C   UNL A   1      33.897  25.021  24.242  1.00  0.00     0.253 C 
ATOM     78  H   UNL A   1      35.570  24.082  23.684  1.00  0.00     0.163 HD
ATOM     79  O   UNL A   1      33.346  24.902  23.148  1.00  0.00    -0.269 OA
BRANCH  77  80
ATOM     80  C   UNL A   1      33.261  25.875  25.267  1.00  0.00     0.066 A 
ATOM     81  C   UNL A   1      33.965  26.976  25.772  1.00  0.00     0.055 A 
ATOM     82  C   UNL A   1      31.905  25.659  25.608  1.00  0.00     0.062 A 
ATOM     83  C   UNL A   1      33.330  27.847  26.643  1.00  0.00     0.124 A 
ATOM     84  C   UNL A   1      31.291  26.579  26.467  1.00  0.00     0.030 A 
ATOM     85  F   UNL A   1      34.003  28.888  27.149  1.00  0.00    -0.207 F 
ATOM     86  C   UNL A   1      31.999  27.666  26.985  1.00  0.00     0.041 A 
BRANCH  82  87
ATOM     87  N   UNL A   1      31.302  24.390  25.258  1.00  0.00    -0.278 N 
ATOM     88  H   UNL A   1      30.765  24.338  24.434  1.00  0.00     0.180 HD
BRANCH  87  89
ATOM     89  S   UNL A   1      31.475  23.000  26.189  1.00  0.00     0.271 S 
ATOM     90  O   UNL A   1      32.519  23.232  27.160  1.00  0.00    -0.200 OA
ATOM     91  O   UNL A   1      30.142  22.588  26.577  1.00  0.00    -0.200 OA
BRANCH  89  92
ATOM     92  C   UNL A   1      32.053  21.690  25.129  1.00  0.00     0.141 A 
ATOM     93  C   UNL A   1      32.033  21.519  23.753  1.00  0.00     0.036 A 
ATOM     94  S   UNL A   1      32.850  20.388  25.909  1.00  0.00    -0.110 S 
ATOM     95  C   UNL A   1      32.787  20.379  23.342  1.00  0.00     0.034 A 
ATOM     96  C   UNL A   1      33.282  19.702  24.427  1.00  0.00     0.094 A 
ATOM     97  Cl  UNL A   1      34.267  18.296  24.397  1.00  0.00    -0.072 Cl
ENDBRANCH  89  92
ENDBRANCH  87  89
ENDBRANCH  82  87
ENDBRANCH  77  80
ENDBRANCH  75  76
ENDBRANCH  74  75
ENDBRANCH  73  74
ENDBRANCH   1  73
TORSDOF 19
ENDMDL
