MODEL 1
REMARK VINA RESULT:     -12.7      0.000      0.000
REMARK SMILES Cc1ccccc1OC1(C(=O)NCCCCCCNC(=O)c2ccc(-c3c4nc(c(-c5cc(S(=O)(=O)[O-])ccc5F)c5ccc([nH]5)c(-c5cc(S(=O)(=O)[O-])ccc5F)c5nc(c(-c6cc(S(=O)(=O)[O-])ccc6F)c6ccc3[nH]6)C=C5)C=C4)cc2)CCN(C(=O)[C@H]2CCCCO2)CC1
REMARK SMILES IDX 16 1 15 2 14 3 13 4 12 5 10 6 11 7 9 9 85 10 97 11 86 12
REMARK SMILES IDX 96 13 87 14 88 15 89 16 8 17 7 18 1 19 2 20 3 21 4 22 6 23
REMARK SMILES IDX 5 24 90 25 91 26 95 27 92 28 94 29 93 30 17 31 18 32 19 33
REMARK SMILES IDX 20 34 21 36 22 37 23 38 84 39 24 40 83 41 25 42 26 43 27 44
REMARK SMILES IDX 77 45 28 46 82 47 76 48 78 49 29 50 81 51 75 52 74 53 30 55
REMARK SMILES IDX 62 56 42 57 61 58 43 59 46 60 60 61 79 62 44 63 45 64 59 66
REMARK SMILES IDX 80 67 47 68 31 69 32 70 40 71 33 72 39 73 41 74 38 75 34 76
REMARK SMILES IDX 35 77 36 78 37 79 63 80 64 81 72 82 65 83 71 84 73 85 70 86
REMARK SMILES IDX 66 87 67 88 68 89 69 90 48 91 49 92 57 93 50 94 56 95 58 96
REMARK SMILES IDX 55 97 51 98 52 99 53 100 54 101
REMARK H PARENT 12 8 19 35 78 54 46 65
REMARK Flexibility Score: inf
ROOT
ATOM      1  C   UNL A   1      33.693  27.973  25.025  1.00  0.00     0.002 C 
ENDROOT
BRANCH   1   2
ATOM      2  C   UNL A   1      32.642  26.887  24.735  1.00  0.00     0.002 C 
BRANCH   2   3
ATOM      3  C   UNL A   1      31.879  26.332  25.942  1.00  0.00     0.021 C 
BRANCH   3   4
ATOM      4  C   UNL A   1      32.288  24.925  26.373  1.00  0.00     0.116 C 
BRANCH   4   5
ATOM      5  N   UNL A   1      31.232  23.949  26.236  1.00  0.00    -0.353 N 
ATOM      6  C   UNL A   1      31.246  22.607  25.985  1.00  0.00     0.264 C 
ATOM      7  O   UNL A   1      30.151  22.046  26.126  1.00  0.00    -0.270 OA
ATOM      8  H   UNL A   1      30.328  24.324  26.345  1.00  0.00     0.163 HD
BRANCH   6   9
ATOM      9  C   UNL A   1      32.548  21.808  25.557  1.00  0.00     0.190 C 
ATOM     10  C   UNL A   1      33.059  22.392  24.241  1.00  0.00     0.080 C 
ATOM     11  C   UNL A   1      33.494  21.727  26.760  1.00  0.00     0.080 C 
ATOM     12  C   UNL A   1      34.348  23.196  24.314  1.00  0.00     0.124 C 
ATOM     13  C   UNL A   1      34.842  22.438  26.654  1.00  0.00     0.124 C 
ATOM     14  N   UNL A   1      35.317  22.739  25.310  1.00  0.00    -0.340 N 
ATOM     15  C   UNL A   1      36.674  22.884  24.979  1.00  0.00     0.251 C 
ATOM     16  O   UNL A   1      37.012  23.303  23.868  1.00  0.00    -0.272 OA
BRANCH   9  17
ATOM     17  O   UNL A   1      31.954  20.500  25.297  1.00  0.00    -0.477 OA
BRANCH  17  18
ATOM     18  C   UNL A   1      32.407  19.358  24.715  1.00  0.00     0.123 A 
ATOM     19  C   UNL A   1      32.152  19.719  22.161  1.00  0.00     0.048 C 
ATOM     20  C   UNL A   1      32.535  18.953  23.381  1.00  0.00    -0.009 A 
ATOM     21  C   UNL A   1      32.992  17.642  23.091  1.00  0.00     0.007 A 
ATOM     22  C   UNL A   1      33.329  16.740  24.092  1.00  0.00     0.001 A 
ATOM     23  C   UNL A   1      32.752  18.420  25.711  1.00  0.00     0.047 A 
ATOM     24  C   UNL A   1      33.208  17.133  25.413  1.00  0.00     0.004 A 
ENDBRANCH  17  18
ENDBRANCH   9  17
BRANCH  15  25
ATOM     25  C   UNL A   1      37.749  22.459  26.012  1.00  0.00     0.207 C 
ATOM     26  C   UNL A   1      38.634  21.375  25.378  1.00  0.00     0.042 C 
ATOM     27  O   UNL A   1      38.526  23.609  26.367  1.00  0.00    -0.368 OA
ATOM     28  C   UNL A   1      39.889  21.091  26.193  1.00  0.00     0.006 C 
ATOM     29  C   UNL A   1      39.614  23.329  27.235  1.00  0.00     0.161 C 
ATOM     30  C   UNL A   1      40.595  22.388  26.558  1.00  0.00     0.029 C 
ENDBRANCH  15  25
ENDBRANCH   6   9
ENDBRANCH   4   5
ENDBRANCH   3   4
ENDBRANCH   2   3
ENDBRANCH   1   2
BRANCH   1  31
ATOM     31  C   UNL A   1      33.254  29.104  25.956  1.00  0.00     0.021 C 
BRANCH  31  32
ATOM     32  C   UNL A   1      33.880  29.053  27.344  1.00  0.00     0.116 C 
BRANCH  32  33
ATOM     33  N   UNL A   1      34.308  30.351  27.856  1.00  0.00    -0.352 N 
ATOM     34  C   UNL A   1      35.542  30.717  28.369  1.00  0.00     0.251 C 
ATOM     35  H   UNL A   1      33.628  31.062  27.834  1.00  0.00     0.163 HD
ATOM     36  O   UNL A   1      35.738  31.834  28.821  1.00  0.00    -0.269 OA
BRANCH  34  37
ATOM     37  C   UNL A   1      36.672  29.764  28.243  1.00  0.00     0.039 A 
ATOM     38  C   UNL A   1      36.940  28.938  29.341  1.00  0.00     0.014 A 
ATOM     39  C   UNL A   1      37.576  29.849  27.188  1.00  0.00     0.014 A 
ATOM     40  C   UNL A   1      38.214  28.393  29.491  1.00  0.00     0.010 A 
ATOM     41  C   UNL A   1      38.864  29.388  27.378  1.00  0.00     0.010 A 
ATOM     42  C   UNL A   1      39.201  28.718  28.559  1.00  0.00    -0.014 A 
BRANCH  42  43
ATOM     43  C   UNL A   1      40.624  28.509  28.802  1.00  0.00     0.031 A 
ATOM     44  C   UNL A   1      41.345  27.397  28.153  1.00  0.00     0.074 A 
ATOM     45  C   UNL A   1      41.294  29.366  29.604  1.00  0.00     0.049 A 
ATOM     46  N   UNL A   1      42.451  26.893  28.584  1.00  0.00    -0.248 NA
ATOM     47  C   UNL A   1      40.831  26.727  26.965  1.00  0.00     0.031 C 
ATOM     48  C   UNL A   1      42.737  29.461  29.802  1.00  0.00     0.029 A 
ATOM     49  N   UNL A   1      40.750  30.154  30.617  1.00  0.00    -0.354 N 
ATOM     50  C   UNL A   1      42.916  26.013  27.636  1.00  0.00     0.074 A 
ATOM     51  C   UNL A   1      41.853  25.921  26.661  1.00  0.00     0.031 C 
ATOM     52  C   UNL A   1      42.969  30.009  31.005  1.00  0.00     0.029 A 
ATOM     53  C   UNL A   1      41.687  30.160  31.670  1.00  0.00     0.049 A 
ATOM     54  H   UNL A   1      39.882  30.617  30.600  1.00  0.00     0.167 HD
ATOM     55  C   UNL A   1      44.189  25.531  27.728  1.00  0.00     0.034 A 
ATOM     56  C   UNL A   1      41.351  29.635  32.885  1.00  0.00     0.034 A 
ATOM     57  C   UNL A   1      44.851  25.976  28.951  1.00  0.00     0.049 A 
ATOM     58  C   UNL A   1      42.172  28.422  33.282  1.00  0.00     0.074 A 
ATOM     59  C   UNL A   1      45.727  27.003  29.263  1.00  0.00     0.029 A 
ATOM     60  N   UNL A   1      44.404  25.476  30.159  1.00  0.00    -0.354 N 
ATOM     61  N   UNL A   1      43.089  27.869  32.535  1.00  0.00    -0.248 NA
ATOM     62  C   UNL A   1      41.950  27.685  34.527  1.00  0.00     0.031 C 
ATOM     63  C   UNL A   1      45.741  27.152  30.683  1.00  0.00     0.029 A 
ATOM     64  C   UNL A   1      44.900  26.198  31.227  1.00  0.00     0.049 A 
ATOM     65  H   UNL A   1      43.805  24.699  30.248  1.00  0.00     0.167 HD
ATOM     66  C   UNL A   1      43.527  26.719  33.135  1.00  0.00     0.074 A 
ATOM     67  C   UNL A   1      42.787  26.646  34.382  1.00  0.00     0.031 C 
ATOM     68  C   UNL A   1      44.435  25.873  32.565  1.00  0.00     0.034 A 
BRANCH  55  69
ATOM     69  C   UNL A   1      44.911  24.827  26.606  1.00  0.00     0.023 A 
ATOM     70  C   UNL A   1      44.585  23.487  26.316  1.00  0.00     0.031 A 
ATOM     71  C   UNL A   1      45.932  25.388  25.814  1.00  0.00     0.131 A 
ATOM     72  C   UNL A   1      45.313  22.744  25.368  1.00  0.00     0.055 A 
ATOM     73  C   UNL A   1      46.703  24.632  24.922  1.00  0.00     0.041 A 
ATOM     74  F   UNL A   1      46.189  26.703  25.826  1.00  0.00    -0.206 F 
ATOM     75  C   UNL A   1      46.404  23.297  24.702  1.00  0.00     0.022 A 
BRANCH  72  76
ATOM     76  S   UNL A   1      44.802  21.044  24.998  1.00  0.00     0.124 S 
ATOM     77  O   UNL A   1      43.625  20.880  25.844  1.00  0.00    -0.237 OA
ATOM     78  O   UNL A   1      44.562  21.103  23.560  1.00  0.00    -0.237 OA
ATOM     79  O   UNL A   1      45.963  20.247  25.394  1.00  0.00    -0.744 OA
ENDBRANCH  72  76
ENDBRANCH  55  69
BRANCH  56  80
ATOM     80  C   UNL A   1      39.919  29.874  33.234  1.00  0.00     0.023 A 
ATOM     81  C   UNL A   1      39.538  31.210  33.498  1.00  0.00     0.031 A 
ATOM     82  C   UNL A   1      38.908  28.954  32.927  1.00  0.00     0.131 A 
ATOM     83  C   UNL A   1      38.220  31.626  33.266  1.00  0.00     0.055 A 
ATOM     84  C   UNL A   1      37.576  29.360  32.781  1.00  0.00     0.041 A 
ATOM     85  F   UNL A   1      39.205  27.679  32.634  1.00  0.00    -0.206 F 
ATOM     86  C   UNL A   1      37.236  30.708  32.899  1.00  0.00     0.022 A 
BRANCH  83  87
ATOM     87  S   UNL A   1      37.874  33.408  33.151  1.00  0.00     0.124 S 
ATOM     88  O   UNL A   1      36.847  33.589  34.170  1.00  0.00    -0.237 OA
ATOM     89  O   UNL A   1      39.172  34.013  33.443  1.00  0.00    -0.237 OA
ATOM     90  O   UNL A   1      37.430  33.577  31.770  1.00  0.00    -0.744 OA
ENDBRANCH  83  87
ENDBRANCH  56  80
BRANCH  68  91
ATOM     91  C   UNL A   1      44.924  24.641  33.269  1.00  0.00     0.023 A 
ATOM     92  C   UNL A   1      45.989  24.703  34.181  1.00  0.00     0.031 A 
ATOM     93  C   UNL A   1      44.384  23.365  33.010  1.00  0.00     0.131 A 
ATOM     94  C   UNL A   1      46.421  23.550  34.855  1.00  0.00     0.055 A 
ATOM     95  C   UNL A   1      44.880  22.206  33.613  1.00  0.00     0.041 A 
ATOM     96  F   UNL A   1      43.325  23.202  32.203  1.00  0.00    -0.206 F 
ATOM     97  C   UNL A   1      45.895  22.295  34.554  1.00  0.00     0.022 A 
BRANCH  94  98
ATOM     98  S   UNL A   1      47.605  23.743  36.212  1.00  0.00     0.124 S 
ATOM     99  O   UNL A   1      48.627  24.603  35.625  1.00  0.00    -0.237 OA
ATOM    100  O   UNL A   1      46.772  24.359  37.242  1.00  0.00    -0.237 OA
ATOM    101  O   UNL A   1      48.029  22.374  36.497  1.00  0.00    -0.744 OA
ENDBRANCH  94  98
ENDBRANCH  68  91
ENDBRANCH  42  43
ENDBRANCH  34  37
ENDBRANCH  32  33
ENDBRANCH  31  32
ENDBRANCH   1  31
TORSDOF 19
ENDMDL
MODEL 2
REMARK VINA RESULT:     -12.1      2.983      5.337
REMARK SMILES Cc1ccccc1OC1(C(=O)NCCCCCCNC(=O)c2ccc(-c3c4nc(c(-c5cc(S(=O)(=O)[O-])ccc5F)c5ccc([nH]5)c(-c5cc(S(=O)(=O)[O-])ccc5F)c5nc(c(-c6cc(S(=O)(=O)[O-])ccc6F)c6ccc3[nH]6)C=C5)C=C4)cc2)CCN(C(=O)[C@H]2CCCCO2)CC1
REMARK SMILES IDX 16 1 15 2 14 3 13 4 12 5 10 6 11 7 9 9 85 10 97 11 86 12
REMARK SMILES IDX 96 13 87 14 88 15 89 16 8 17 7 18 1 19 2 20 3 21 4 22 6 23
REMARK SMILES IDX 5 24 90 25 91 26 95 27 92 28 94 29 93 30 17 31 18 32 19 33
REMARK SMILES IDX 20 34 21 36 22 37 23 38 84 39 24 40 83 41 25 42 26 43 27 44
REMARK SMILES IDX 77 45 28 46 82 47 76 48 78 49 29 50 81 51 75 52 74 53 30 55
REMARK SMILES IDX 62 56 42 57 61 58 43 59 46 60 60 61 79 62 44 63 45 64 59 66
REMARK SMILES IDX 80 67 47 68 31 69 32 70 40 71 33 72 39 73 41 74 38 75 34 76
REMARK SMILES IDX 35 77 36 78 37 79 63 80 64 81 72 82 65 83 71 84 73 85 70 86
REMARK SMILES IDX 66 87 67 88 68 89 69 90 48 91 49 92 57 93 50 94 56 95 58 96
REMARK SMILES IDX 55 97 51 98 52 99 53 100 54 101
REMARK H PARENT 12 8 19 35 78 54 46 65
REMARK Flexibility Score: inf
ROOT
ATOM      1  C   UNL A   1      35.686  29.956  27.442  1.00  0.00     0.002 C 
ENDROOT
BRANCH   1   2
ATOM      2  C   UNL A   1      34.706  28.816  27.110  1.00  0.00     0.002 C 
BRANCH   2   3
ATOM      3  C   UNL A   1      33.220  29.186  27.051  1.00  0.00     0.021 C 
BRANCH   3   4
ATOM      4  C   UNL A   1      32.788  29.930  25.791  1.00  0.00     0.116 C 
BRANCH   4   5
ATOM      5  N   UNL A   1      33.609  29.639  24.638  1.00  0.00    -0.353 N 
ATOM      6  C   UNL A   1      33.561  28.648  23.700  1.00  0.00     0.264 C 
ATOM      7  O   UNL A   1      34.316  28.818  22.733  1.00  0.00    -0.270 OA
ATOM      8  H   UNL A   1      34.345  30.279  24.503  1.00  0.00     0.163 HD
BRANCH   6   9
ATOM      9  C   UNL A   1      32.616  27.379  23.812  1.00  0.00     0.190 C 
ATOM     10  C   UNL A   1      32.394  26.818  22.409  1.00  0.00     0.080 C 
ATOM     11  C   UNL A   1      33.157  26.459  24.911  1.00  0.00     0.080 C 
ATOM     12  C   UNL A   1      33.072  25.494  22.095  1.00  0.00     0.124 C 
ATOM     13  C   UNL A   1      33.659  25.076  24.499  1.00  0.00     0.124 C 
ATOM     14  N   UNL A   1      33.184  24.564  23.220  1.00  0.00    -0.340 N 
ATOM     15  C   UNL A   1      33.087  23.197  22.917  1.00  0.00     0.251 C 
ATOM     16  O   UNL A   1      32.840  22.821  21.767  1.00  0.00    -0.272 OA
BRANCH   9  17
ATOM     17  O   UNL A   1      31.389  28.031  24.263  1.00  0.00    -0.477 OA
BRANCH  17  18
ATOM     18  C   UNL A   1      30.228  28.381  23.650  1.00  0.00     0.123 A 
ATOM     19  C   UNL A   1      28.633  26.360  23.957  1.00  0.00     0.048 C 
ATOM     20  C   UNL A   1      29.000  27.726  23.487  1.00  0.00    -0.009 A 
ATOM     21  C   UNL A   1      27.978  28.343  22.722  1.00  0.00     0.007 A 
ATOM     22  C   UNL A   1      28.148  29.588  22.130  1.00  0.00     0.001 A 
ATOM     23  C   UNL A   1      30.374  29.642  23.035  1.00  0.00     0.047 A 
ATOM     24  C   UNL A   1      29.356  30.242  22.289  1.00  0.00     0.004 A 
ENDBRANCH  17  18
ENDBRANCH   9  17
BRANCH  15  25
ATOM     25  C   UNL A   1      33.242  22.161  24.060  1.00  0.00     0.207 C 
ATOM     26  C   UNL A   1      32.333  20.961  23.757  1.00  0.00     0.042 C 
ATOM     27  O   UNL A   1      34.615  21.757  24.131  1.00  0.00    -0.368 OA
ATOM     28  C   UNL A   1      32.617  19.766  24.659  1.00  0.00     0.006 C 
ATOM     29  C   UNL A   1      34.868  20.730  25.078  1.00  0.00     0.161 C 
ATOM     30  C   UNL A   1      34.109  19.470  24.700  1.00  0.00     0.029 C 
ENDBRANCH  15  25
ENDBRANCH   6   9
ENDBRANCH   4   5
ENDBRANCH   3   4
ENDBRANCH   2   3
ENDBRANCH   1   2
BRANCH   1  31
ATOM     31  C   UNL A   1      35.223  30.955  28.503  1.00  0.00     0.021 C 
BRANCH  31  32
ATOM     32  C   UNL A   1      34.941  32.354  27.967  1.00  0.00     0.116 C 
BRANCH  32  33
ATOM     33  N   UNL A   1      34.151  33.191  28.863  1.00  0.00    -0.352 N 
ATOM     34  C   UNL A   1      34.533  33.790  30.053  1.00  0.00     0.251 C 
ATOM     35  H   UNL A   1      33.220  33.351  28.585  1.00  0.00     0.163 HD
ATOM     36  O   UNL A   1      33.739  34.418  30.734  1.00  0.00    -0.269 OA
BRANCH  34  37
ATOM     37  C   UNL A   1      35.969  33.766  30.427  1.00  0.00     0.039 A 
ATOM     38  C   UNL A   1      36.880  34.309  29.513  1.00  0.00     0.014 A 
ATOM     39  C   UNL A   1      36.421  33.027  31.517  1.00  0.00     0.014 A 
ATOM     40  C   UNL A   1      38.213  33.907  29.556  1.00  0.00     0.010 A 
ATOM     41  C   UNL A   1      37.719  32.556  31.508  1.00  0.00     0.010 A 
ATOM     42  C   UNL A   1      38.597  32.943  30.489  1.00  0.00    -0.014 A 
BRANCH  42  43
ATOM     43  C   UNL A   1      39.848  32.197  30.394  1.00  0.00     0.031 A 
ATOM     44  C   UNL A   1      39.888  30.872  29.747  1.00  0.00     0.074 A 
ATOM     45  C   UNL A   1      40.985  32.746  30.875  1.00  0.00     0.049 A 
ATOM     46  N   UNL A   1      40.803  29.986  29.954  1.00  0.00    -0.248 NA
ATOM     47  C   UNL A   1      38.848  30.422  28.832  1.00  0.00     0.031 C 
ATOM     48  C   UNL A   1      42.353  32.270  30.690  1.00  0.00     0.029 A 
ATOM     49  N   UNL A   1      41.085  33.715  31.871  1.00  0.00    -0.354 N 
ATOM     50  C   UNL A   1      40.618  28.965  29.052  1.00  0.00     0.074 A 
ATOM     51  C   UNL A   1      39.367  29.269  28.398  1.00  0.00     0.031 C 
ATOM     52  C   UNL A   1      43.104  32.719  31.708  1.00  0.00     0.029 A 
ATOM     53  C   UNL A   1      42.216  33.384  32.645  1.00  0.00     0.049 A 
ATOM     54  H   UNL A   1      40.483  34.482  32.007  1.00  0.00     0.167 HD
ATOM     55  C   UNL A   1      41.592  28.023  28.889  1.00  0.00     0.034 A 
ATOM     56  C   UNL A   1      42.071  33.072  33.966  1.00  0.00     0.034 A 
ATOM     57  C   UNL A   1      42.691  28.209  29.833  1.00  0.00     0.049 A 
ATOM     58  C   UNL A   1      42.461  31.647  34.311  1.00  0.00     0.074 A 
ATOM     59  C   UNL A   1      43.935  28.817  29.769  1.00  0.00     0.029 A 
ATOM     60  N   UNL A   1      42.455  27.964  31.173  1.00  0.00    -0.354 N 
ATOM     61  N   UNL A   1      42.854  30.754  33.443  1.00  0.00    -0.248 NA
ATOM     62  C   UNL A   1      42.348  31.096  35.662  1.00  0.00     0.031 C 
ATOM     63  C   UNL A   1      44.407  28.992  31.105  1.00  0.00     0.029 A 
ATOM     64  C   UNL A   1      43.465  28.465  31.970  1.00  0.00     0.049 A 
ATOM     65  H   UNL A   1      41.663  27.490  31.517  1.00  0.00     0.167 HD
ATOM     66  C   UNL A   1      42.988  29.544  34.069  1.00  0.00     0.074 A 
ATOM     67  C   UNL A   1      42.662  29.807  35.459  1.00  0.00     0.031 C 
ATOM     68  C   UNL A   1      43.315  28.391  33.414  1.00  0.00     0.034 A 
BRANCH  55  69
ATOM     69  C   UNL A   1      41.651  27.057  27.733  1.00  0.00     0.023 A 
ATOM     70  C   UNL A   1      41.460  25.682  27.978  1.00  0.00     0.031 A 
ATOM     71  C   UNL A   1      41.913  27.403  26.393  1.00  0.00     0.131 A 
ATOM     72  C   UNL A   1      41.629  24.725  26.960  1.00  0.00     0.055 A 
ATOM     73  C   UNL A   1      42.152  26.449  25.395  1.00  0.00     0.041 A 
ATOM     74  F   UNL A   1      41.893  28.677  25.978  1.00  0.00    -0.206 F 
ATOM     75  C   UNL A   1      42.022  25.099  25.678  1.00  0.00     0.022 A 
BRANCH  72  76
ATOM     76  S   UNL A   1      41.309  22.979  27.329  1.00  0.00     0.124 S 
ATOM     77  O   UNL A   1      42.170  22.740  28.482  1.00  0.00    -0.237 OA
ATOM     78  O   UNL A   1      39.872  22.979  27.584  1.00  0.00    -0.237 OA
ATOM     79  O   UNL A   1      41.715  22.293  26.103  1.00  0.00    -0.744 OA
ENDBRANCH  72  76
ENDBRANCH  55  69
BRANCH  56  80
ATOM     80  C   UNL A   1      40.992  33.867  34.626  1.00  0.00     0.023 A 
ATOM     81  C   UNL A   1      39.693  33.310  34.622  1.00  0.00     0.031 A 
ATOM     82  C   UNL A   1      41.266  34.880  35.554  1.00  0.00     0.131 A 
ATOM     83  C   UNL A   1      38.784  33.631  35.639  1.00  0.00     0.055 A 
ATOM     84  C   UNL A   1      40.323  35.258  36.517  1.00  0.00     0.041 A 
ATOM     85  F   UNL A   1      42.488  35.426  35.634  1.00  0.00    -0.206 F 
ATOM     86  C   UNL A   1      39.096  34.597  36.595  1.00  0.00     0.022 A 
BRANCH  83  87
ATOM     87  S   UNL A   1      37.331  32.564  35.880  1.00  0.00     0.124 S 
ATOM     88  O   UNL A   1      37.481  32.149  37.270  1.00  0.00    -0.237 OA
ATOM     89  O   UNL A   1      36.214  33.465  35.604  1.00  0.00    -0.237 OA
ATOM     90  O   UNL A   1      37.515  31.512  34.884  1.00  0.00    -0.744 OA
ENDBRANCH  83  87
ENDBRANCH  56  80
BRANCH  68  91
ATOM     91  C   UNL A   1      43.493  27.089  34.138  1.00  0.00     0.023 A 
ATOM     92  C   UNL A   1      44.767  26.532  34.324  1.00  0.00     0.031 A 
ATOM     93  C   UNL A   1      42.397  26.339  34.612  1.00  0.00     0.131 A 
ATOM     94  C   UNL A   1      44.925  25.327  35.027  1.00  0.00     0.055 A 
ATOM     95  C   UNL A   1      42.552  25.094  35.228  1.00  0.00     0.041 A 
ATOM     96  F   UNL A   1      41.142  26.807  34.540  1.00  0.00    -0.206 F 
ATOM     97  C   UNL A   1      43.824  24.587  35.453  1.00  0.00     0.022 A 
BRANCH  94  98
ATOM     98  S   UNL A   1      46.602  24.806  35.470  1.00  0.00     0.124 S 
ATOM     99  O   UNL A   1      46.406  24.163  36.765  1.00  0.00    -0.237 OA
ATOM    100  O   UNL A   1      46.934  23.914  34.362  1.00  0.00    -0.237 OA
ATOM    101  O   UNL A   1      47.356  26.058  35.502  1.00  0.00    -0.744 OA
ENDBRANCH  94  98
ENDBRANCH  68  91
ENDBRANCH  42  43
ENDBRANCH  34  37
ENDBRANCH  32  33
ENDBRANCH  31  32
ENDBRANCH   1  31
TORSDOF 19
ENDMDL
MODEL 3
REMARK VINA RESULT:     -12.0      1.774      2.046
REMARK SMILES Cc1ccccc1OC1(C(=O)NCCCCCCNC(=O)c2ccc(-c3c4nc(c(-c5cc(S(=O)(=O)[O-])ccc5F)c5ccc([nH]5)c(-c5cc(S(=O)(=O)[O-])ccc5F)c5nc(c(-c6cc(S(=O)(=O)[O-])ccc6F)c6ccc3[nH]6)C=C5)C=C4)cc2)CCN(C(=O)[C@H]2CCCCO2)CC1
REMARK SMILES IDX 16 1 15 2 14 3 13 4 12 5 10 6 11 7 9 9 85 10 97 11 86 12
REMARK SMILES IDX 96 13 87 14 88 15 89 16 8 17 7 18 1 19 2 20 3 21 4 22 6 23
REMARK SMILES IDX 5 24 90 25 91 26 95 27 92 28 94 29 93 30 17 31 18 32 19 33
REMARK SMILES IDX 20 34 21 36 22 37 23 38 84 39 24 40 83 41 25 42 26 43 27 44
REMARK SMILES IDX 77 45 28 46 82 47 76 48 78 49 29 50 81 51 75 52 74 53 30 55
REMARK SMILES IDX 62 56 42 57 61 58 43 59 46 60 60 61 79 62 44 63 45 64 59 66
REMARK SMILES IDX 80 67 47 68 31 69 32 70 40 71 33 72 39 73 41 74 38 75 34 76
REMARK SMILES IDX 35 77 36 78 37 79 63 80 64 81 72 82 65 83 71 84 73 85 70 86
REMARK SMILES IDX 66 87 67 88 68 89 69 90 48 91 49 92 57 93 50 94 56 95 58 96
REMARK SMILES IDX 55 97 51 98 52 99 53 100 54 101
REMARK H PARENT 12 8 19 35 78 54 46 65
REMARK Flexibility Score: inf
ROOT
ATOM      1  C   UNL A   1      32.224  28.554  25.769  1.00  0.00     0.002 C 
ENDROOT
BRANCH   1   2
ATOM      2  C   UNL A   1      31.936  27.097  25.365  1.00  0.00     0.002 C 
BRANCH   2   3
ATOM      3  C   UNL A   1      31.613  26.122  26.502  1.00  0.00     0.021 C 
BRANCH   3   4
ATOM      4  C   UNL A   1      32.174  24.714  26.325  1.00  0.00     0.116 C 
BRANCH   4   5
ATOM      5  N   UNL A   1      31.158  23.709  26.114  1.00  0.00    -0.353 N 
ATOM      6  C   UNL A   1      31.227  22.368  25.861  1.00  0.00     0.264 C 
ATOM      7  O   UNL A   1      30.141  21.776  25.927  1.00  0.00    -0.270 OA
ATOM      8  H   UNL A   1      30.239  24.057  26.162  1.00  0.00     0.163 HD
BRANCH   6   9
ATOM      9  C   UNL A   1      32.577  21.609  25.520  1.00  0.00     0.190 C 
ATOM     10  C   UNL A   1      33.075  22.098  24.162  1.00  0.00     0.080 C 
ATOM     11  C   UNL A   1      33.508  21.691  26.735  1.00  0.00     0.080 C 
ATOM     12  C   UNL A   1      34.316  22.976  24.172  1.00  0.00     0.124 C 
ATOM     13  C   UNL A   1      34.817  22.463  26.577  1.00  0.00     0.124 C 
ATOM     14  N   UNL A   1      35.294  22.667  25.216  1.00  0.00    -0.340 N 
ATOM     15  C   UNL A   1      36.646  22.857  24.886  1.00  0.00     0.251 C 
ATOM     16  O   UNL A   1      36.976  23.192  23.744  1.00  0.00    -0.272 OA
BRANCH   9  17
ATOM     17  O   UNL A   1      32.060  20.250  25.376  1.00  0.00    -0.477 OA
BRANCH  17  18
ATOM     18  C   UNL A   1      32.508  19.133  24.744  1.00  0.00     0.123 A 
ATOM     19  C   UNL A   1      32.154  19.566  22.213  1.00  0.00     0.048 C 
ATOM     20  C   UNL A   1      32.592  18.771  23.394  1.00  0.00    -0.009 A 
ATOM     21  C   UNL A   1      33.058  17.476  23.049  1.00  0.00     0.007 A 
ATOM     22  C   UNL A   1      33.444  16.550  24.009  1.00  0.00     0.001 A 
ATOM     23  C   UNL A   1      32.904  18.172  25.698  1.00  0.00     0.047 A 
ATOM     24  C   UNL A   1      33.367  16.902  25.344  1.00  0.00     0.004 A 
ENDBRANCH  17  18
ENDBRANCH   9  17
BRANCH  15  25
ATOM     25  C   UNL A   1      37.728  22.588  25.964  1.00  0.00     0.207 C 
ATOM     26  C   UNL A   1      38.616  21.430  25.485  1.00  0.00     0.042 C 
ATOM     27  O   UNL A   1      38.498  23.782  26.148  1.00  0.00    -0.368 OA
ATOM     28  C   UNL A   1      39.877  21.272  26.327  1.00  0.00     0.006 C 
ATOM     29  C   UNL A   1      39.592  23.633  27.042  1.00  0.00     0.161 C 
ATOM     30  C   UNL A   1      40.576  22.611  26.501  1.00  0.00     0.029 C 
ENDBRANCH  15  25
ENDBRANCH   6   9
ENDBRANCH   4   5
ENDBRANCH   3   4
ENDBRANCH   2   3
ENDBRANCH   1   2
BRANCH   1  31
ATOM     31  C   UNL A   1      33.048  28.750  27.042  1.00  0.00     0.021 C 
BRANCH  31  32
ATOM     32  C   UNL A   1      34.322  29.563  26.845  1.00  0.00     0.116 C 
BRANCH  32  33
ATOM     33  N   UNL A   1      34.482  30.664  27.789  1.00  0.00    -0.352 N 
ATOM     34  C   UNL A   1      35.493  30.875  28.714  1.00  0.00     0.251 C 
ATOM     35  H   UNL A   1      33.776  31.350  27.767  1.00  0.00     0.163 HD
ATOM     36  O   UNL A   1      35.462  31.818  29.487  1.00  0.00    -0.269 OA
BRANCH  34  37
ATOM     37  C   UNL A   1      36.691  30.001  28.663  1.00  0.00     0.039 A 
ATOM     38  C   UNL A   1      36.859  29.081  29.705  1.00  0.00     0.014 A 
ATOM     39  C   UNL A   1      37.725  30.242  27.762  1.00  0.00     0.014 A 
ATOM     40  C   UNL A   1      38.133  28.593  29.986  1.00  0.00     0.010 A 
ATOM     41  C   UNL A   1      39.003  29.833  28.093  1.00  0.00     0.010 A 
ATOM     42  C   UNL A   1      39.216  29.064  29.242  1.00  0.00    -0.014 A 
BRANCH  42  43
ATOM     43  C   UNL A   1      40.603  28.907  29.668  1.00  0.00     0.031 A 
ATOM     44  C   UNL A   1      41.391  27.731  29.252  1.00  0.00     0.074 A 
ATOM     45  C   UNL A   1      41.178  29.869  30.422  1.00  0.00     0.049 A 
ATOM     46  N   UNL A   1      42.441  27.301  29.865  1.00  0.00    -0.248 NA
ATOM     47  C   UNL A   1      41.014  26.908  28.110  1.00  0.00     0.031 C 
ATOM     48  C   UNL A   1      42.590  30.008  30.768  1.00  0.00     0.029 A 
ATOM     49  N   UNL A   1      40.525  30.772  31.259  1.00  0.00    -0.354 N 
ATOM     50  C   UNL A   1      43.009  26.314  29.096  1.00  0.00     0.074 A 
ATOM     51  C   UNL A   1      42.063  26.084  28.029  1.00  0.00     0.031 C 
ATOM     52  C   UNL A   1      42.685  30.708  31.909  1.00  0.00     0.029 A 
ATOM     53  C   UNL A   1      41.337  30.925  32.401  1.00  0.00     0.049 A 
ATOM     54  H   UNL A   1      39.664  31.217  31.085  1.00  0.00     0.167 HD
ATOM     55  C   UNL A   1      44.263  25.865  29.392  1.00  0.00     0.034 A 
ATOM     56  C   UNL A   1      40.865  30.556  33.628  1.00  0.00     0.034 A 
ATOM     57  C   UNL A   1      44.784  26.472  30.614  1.00  0.00     0.049 A 
ATOM     58  C   UNL A   1      41.634  29.414  34.267  1.00  0.00     0.074 A 
ATOM     59  C   UNL A   1      45.620  27.542  30.888  1.00  0.00     0.029 A 
ATOM     60  N   UNL A   1      44.202  26.124  31.819  1.00  0.00    -0.354 N 
ATOM     61  N   UNL A   1      42.629  28.783  33.705  1.00  0.00    -0.248 NA
ATOM     62  C   UNL A   1      41.273  28.840  35.564  1.00  0.00     0.031 C 
ATOM     63  C   UNL A   1      45.473  27.872  32.270  1.00  0.00     0.029 A 
ATOM     64  C   UNL A   1      44.575  26.984  32.834  1.00  0.00     0.049 A 
ATOM     65  H   UNL A   1      43.596  25.357  31.939  1.00  0.00     0.167 HD
ATOM     66  C   UNL A   1      42.996  27.725  34.493  1.00  0.00     0.074 A 
ATOM     67  C   UNL A   1      42.120  27.802  35.648  1.00  0.00     0.031 C 
ATOM     68  C   UNL A   1      43.962  26.826  34.142  1.00  0.00     0.034 A 
BRANCH  55  69
ATOM     69  C   UNL A   1      45.107  25.034  28.458  1.00  0.00     0.023 A 
ATOM     70  C   UNL A   1      46.378  25.509  28.078  1.00  0.00     0.031 A 
ATOM     71  C   UNL A   1      44.725  23.802  27.891  1.00  0.00     0.131 A 
ATOM     72  C   UNL A   1      47.154  24.838  27.114  1.00  0.00     0.055 A 
ATOM     73  C   UNL A   1      45.462  23.171  26.880  1.00  0.00     0.041 A 
ATOM     74  F   UNL A   1      43.653  23.128  28.330  1.00  0.00    -0.206 F 
ATOM     75  C   UNL A   1      46.680  23.694  26.476  1.00  0.00     0.022 A 
BRANCH  72  76
ATOM     76  S   UNL A   1      48.806  25.469  26.715  1.00  0.00     0.124 S 
ATOM     77  O   UNL A   1      48.768  25.546  25.258  1.00  0.00    -0.237 OA
ATOM     78  O   UNL A   1      48.828  26.741  27.429  1.00  0.00    -0.237 OA
ATOM     79  O   UNL A   1      49.701  24.446  27.256  1.00  0.00    -0.744 OA
ENDBRANCH  72  76
ENDBRANCH  55  69
BRANCH  56  80
ATOM     80  C   UNL A   1      39.402  30.818  33.781  1.00  0.00     0.023 A 
ATOM     81  C   UNL A   1      39.005  32.166  33.932  1.00  0.00     0.031 A 
ATOM     82  C   UNL A   1      38.429  29.889  33.390  1.00  0.00     0.131 A 
ATOM     83  C   UNL A   1      37.732  32.578  33.516  1.00  0.00     0.055 A 
ATOM     84  C   UNL A   1      37.131  30.294  33.057  1.00  0.00     0.041 A 
ATOM     85  F   UNL A   1      38.746  28.601  33.195  1.00  0.00    -0.206 F 
ATOM     86  C   UNL A   1      36.793  31.648  33.069  1.00  0.00     0.022 A 
BRANCH  83  87
ATOM     87  S   UNL A   1      37.423  34.354  33.276  1.00  0.00     0.124 S 
ATOM     88  O   UNL A   1      35.973  34.397  33.127  1.00  0.00    -0.237 OA
ATOM     89  O   UNL A   1      37.954  34.947  34.502  1.00  0.00    -0.237 OA
ATOM     90  O   UNL A   1      38.191  34.671  32.075  1.00  0.00    -0.744 OA
ENDBRANCH  83  87
ENDBRANCH  56  80
BRANCH  68  91
ATOM     91  C   UNL A   1      44.367  25.701  35.048  1.00  0.00     0.023 A 
ATOM     92  C   UNL A   1      45.501  25.805  35.869  1.00  0.00     0.031 A 
ATOM     93  C   UNL A   1      43.671  24.475  35.080  1.00  0.00     0.131 A 
ATOM     94  C   UNL A   1      45.856  24.758  36.734  1.00  0.00     0.055 A 
ATOM     95  C   UNL A   1      44.084  23.401  35.873  1.00  0.00     0.041 A 
ATOM     96  F   UNL A   1      42.541  24.292  34.382  1.00  0.00    -0.206 F 
ATOM     97  C   UNL A   1      45.174  23.543  36.719  1.00  0.00     0.022 A 
BRANCH  94  98
ATOM     98  S   UNL A   1      47.157  25.060  37.956  1.00  0.00     0.124 S 
ATOM     99  O   UNL A   1      47.080  26.503  38.157  1.00  0.00    -0.237 OA
ATOM    100  O   UNL A   1      46.704  24.238  39.076  1.00  0.00    -0.237 OA
ATOM    101  O   UNL A   1      48.370  24.585  37.294  1.00  0.00    -0.744 OA
ENDBRANCH  94  98
ENDBRANCH  68  91
ENDBRANCH  42  43
ENDBRANCH  34  37
ENDBRANCH  32  33
ENDBRANCH  31  32
ENDBRANCH   1  31
TORSDOF 19
ENDMDL
