MODEL 1
REMARK VINA RESULT:     -11.7      0.000      0.000
REMARK SMILES CC(C)CN(C)c1cc2c(cc1Cl)C=C(C(=O)NCCCCCCNC(=O)c1ccc(-c3c4nc(c(-c5cc(S(=O)(=O)[O-])ccc5F)c5ccc([nH]5)c(-c5cc(S(=O)(=O)[O-])ccc5F)c5nc(c(-c6cc(S(=O)(=O)[O-])ccc6F)c6ccc3[nH]6)C=C5)C=C4)cc1)[C@@H](C(F)(F)F)O2
REMARK SMILES IDX 21 1 20 2 19 3 18 4 16 5 17 6 15 8 7 9 8 10 12 11 9 12 11 13
REMARK SMILES IDX 13 14 10 15 96 16 14 17 91 18 5 19 6 20 4 21 2 22 1 23 3 24
REMARK SMILES IDX 92 25 93 26 94 27 95 28 22 29 23 30 24 31 25 32 26 33 27 35
REMARK SMILES IDX 28 36 29 37 90 38 30 39 89 40 31 41 32 42 33 43 83 44 34 45
REMARK SMILES IDX 88 46 82 47 84 48 35 49 87 50 81 51 80 52 36 54 68 55 48 56
REMARK SMILES IDX 67 57 49 58 52 59 66 60 85 61 50 62 51 63 65 65 86 66 53 67
REMARK SMILES IDX 37 68 38 69 46 70 39 71 45 72 47 73 44 74 40 75 41 76 42 77
REMARK SMILES IDX 43 78 69 79 70 80 78 81 71 82 77 83 79 84 76 85 72 86 73 87
REMARK SMILES IDX 74 88 75 89 54 90 55 91 63 92 56 93 62 94 64 95 61 96 57 97
REMARK SMILES IDX 58 98 59 99 60 100
REMARK H PARENT 18 7 25 34 84 53 52 64
REMARK Flexibility Score: inf
ROOT
ATOM      1  C   UNL A   1      31.982  28.806  25.912  1.00  0.00     0.002 C 
ENDROOT
BRANCH   1   2
ATOM      2  C   UNL A   1      31.216  29.595  24.846  1.00  0.00     0.021 C 
BRANCH   2   3
ATOM      3  C   UNL A   1      30.923  28.798  23.577  1.00  0.00     0.116 C 
BRANCH   3   4
ATOM      4  N   UNL A   1      29.695  28.034  23.707  1.00  0.00    -0.352 N 
ATOM      5  C   UNL A   1      29.350  26.738  23.874  1.00  0.00     0.251 C 
ATOM      6  O   UNL A   1      28.136  26.527  23.975  1.00  0.00    -0.270 OA
ATOM      7  H   UNL A   1      28.902  28.615  23.660  1.00  0.00     0.163 HD
BRANCH   5   8
ATOM      8  C   UNL A   1      30.301  25.593  23.936  1.00  0.00     0.067 C 
ATOM      9  C   UNL A   1      33.164  21.731  25.487  1.00  0.00     0.059 A 
ATOM     10  C   UNL A   1      32.488  22.043  24.297  1.00  0.00     0.074 A 
ATOM     11  C   UNL A   1      33.088  22.665  26.546  1.00  0.00     0.065 A 
ATOM     12  C   UNL A   1      31.738  23.210  24.192  1.00  0.00     0.130 A 
ATOM     13  C   UNL A   1      32.259  23.790  26.463  1.00  0.00     0.034 A 
ATOM     14  Cl  UNL A   1      34.018  22.487  27.995  1.00  0.00    -0.082 Cl
ATOM     15  C   UNL A   1      31.567  24.056  25.287  1.00  0.00     0.019 A 
ATOM     16  O   UNL A   1      31.164  23.479  22.979  1.00  0.00    -0.475 OA
ATOM     17  C   UNL A   1      30.646  25.181  25.171  1.00  0.00     0.025 C 
ATOM     18  C   UNL A   1      30.896  24.893  22.745  1.00  0.00     0.314 C 
BRANCH   9  19
ATOM     19  N   UNL A   1      33.854  20.512  25.607  1.00  0.00    -0.373 N 
ATOM     20  C   UNL A   1      35.185  20.495  24.998  1.00  0.00     0.143 C 
BRANCH  19  21
ATOM     21  C   UNL A   1      33.041  19.290  25.429  1.00  0.00     0.119 C 
BRANCH  21  22
ATOM     22  C   UNL A   1      33.444  18.489  24.174  1.00  0.00     0.002 C 
ATOM     23  C   UNL A   1      33.689  17.008  24.481  1.00  0.00     0.009 C 
ATOM     24  C   UNL A   1      32.371  18.594  23.086  1.00  0.00     0.009 C 
ENDBRANCH  21  22
ENDBRANCH  19  21
ENDBRANCH   9  19
BRANCH  18  25
ATOM     25  C   UNL A   1      32.161  25.617  22.233  1.00  0.00     0.429 C 
ATOM     26  F   UNL A   1      33.009  24.744  21.639  1.00  0.00    -0.167 F 
ATOM     27  F   UNL A   1      31.866  26.562  21.306  1.00  0.00    -0.167 F 
ATOM     28  F   UNL A   1      32.846  26.242  23.217  1.00  0.00    -0.167 F 
ENDBRANCH  18  25
ENDBRANCH   5   8
ENDBRANCH   3   4
ENDBRANCH   2   3
ENDBRANCH   1   2
BRANCH   1  29
ATOM     29  C   UNL A   1      32.515  29.635  27.088  1.00  0.00     0.002 C 
BRANCH  29  30
ATOM     30  C   UNL A   1      32.134  31.116  27.077  1.00  0.00     0.021 C 
BRANCH  30  31
ATOM     31  C   UNL A   1      33.308  32.081  27.201  1.00  0.00     0.116 C 
BRANCH  31  32
ATOM     32  N   UNL A   1      32.885  33.433  27.529  1.00  0.00    -0.352 N 
ATOM     33  C   UNL A   1      33.312  34.245  28.553  1.00  0.00     0.251 C 
ATOM     34  H   UNL A   1      32.200  33.820  26.937  1.00  0.00     0.163 HD
ATOM     35  O   UNL A   1      32.733  35.304  28.781  1.00  0.00    -0.269 OA
BRANCH  33  36
ATOM     36  C   UNL A   1      34.444  33.808  29.397  1.00  0.00     0.039 A 
ATOM     37  C   UNL A   1      35.752  34.171  29.067  1.00  0.00     0.014 A 
ATOM     38  C   UNL A   1      34.196  32.986  30.498  1.00  0.00     0.014 A 
ATOM     39  C   UNL A   1      36.818  33.576  29.733  1.00  0.00     0.010 A 
ATOM     40  C   UNL A   1      35.269  32.453  31.217  1.00  0.00     0.010 A 
ATOM     41  C   UNL A   1      36.589  32.701  30.808  1.00  0.00    -0.014 A 
BRANCH  41  42
ATOM     42  C   UNL A   1      37.740  32.047  31.484  1.00  0.00     0.031 A 
ATOM     43  C   UNL A   1      38.500  30.941  30.803  1.00  0.00     0.074 A 
ATOM     44  C   UNL A   1      38.123  32.481  32.701  1.00  0.00     0.049 A 
ATOM     45  N   UNL A   1      39.522  30.252  31.242  1.00  0.00    -0.248 NA
ATOM     46  C   UNL A   1      38.057  30.554  29.452  1.00  0.00     0.031 C 
ATOM     47  C   UNL A   1      37.469  33.557  33.446  1.00  0.00     0.029 A 
ATOM     48  N   UNL A   1      39.155  32.089  33.517  1.00  0.00    -0.354 N 
ATOM     49  C   UNL A   1      39.831  29.341  30.238  1.00  0.00     0.074 A 
ATOM     50  C   UNL A   1      38.869  29.542  29.177  1.00  0.00     0.031 C 
ATOM     51  C   UNL A   1      38.139  33.770  34.586  1.00  0.00     0.029 A 
ATOM     52  C   UNL A   1      39.224  32.799  34.694  1.00  0.00     0.049 A 
ATOM     53  H   UNL A   1      39.784  31.369  33.284  1.00  0.00     0.167 HD
ATOM     54  C   UNL A   1      40.835  28.433  30.202  1.00  0.00     0.034 A 
ATOM     55  C   UNL A   1      40.053  32.673  35.752  1.00  0.00     0.034 A 
ATOM     56  C   UNL A   1      41.799  28.264  31.259  1.00  0.00     0.049 A 
ATOM     57  C   UNL A   1      41.139  31.630  35.702  1.00  0.00     0.074 A 
ATOM     58  C   UNL A   1      42.869  27.388  31.304  1.00  0.00     0.029 A 
ATOM     59  N   UNL A   1      41.821  28.983  32.446  1.00  0.00    -0.354 N 
ATOM     60  N   UNL A   1      41.439  30.802  34.729  1.00  0.00    -0.248 NA
ATOM     61  C   UNL A   1      42.000  31.500  36.885  1.00  0.00     0.031 C 
ATOM     62  C   UNL A   1      43.498  27.532  32.541  1.00  0.00     0.029 A 
ATOM     63  C   UNL A   1      42.871  28.552  33.239  1.00  0.00     0.049 A 
ATOM     64  H   UNL A   1      41.184  29.693  32.688  1.00  0.00     0.167 HD
ATOM     65  C   UNL A   1      42.536  30.070  35.173  1.00  0.00     0.074 A 
ATOM     66  C   UNL A   1      42.862  30.569  36.492  1.00  0.00     0.031 C 
ATOM     67  C   UNL A   1      43.206  29.073  34.544  1.00  0.00     0.034 A 
BRANCH  54  68
ATOM     68  C   UNL A   1      40.973  27.547  28.988  1.00  0.00     0.023 A 
ATOM     69  C   UNL A   1      41.951  27.833  28.016  1.00  0.00     0.031 A 
ATOM     70  C   UNL A   1      40.054  26.517  28.723  1.00  0.00     0.131 A 
ATOM     71  C   UNL A   1      41.962  27.124  26.808  1.00  0.00     0.055 A 
ATOM     72  C   UNL A   1      40.095  25.785  27.534  1.00  0.00     0.041 A 
ATOM     73  F   UNL A   1      39.102  26.205  29.617  1.00  0.00    -0.206 F 
ATOM     74  C   UNL A   1      41.043  26.099  26.565  1.00  0.00     0.022 A 
BRANCH  71  75
ATOM     75  S   UNL A   1      43.119  27.552  25.479  1.00  0.00     0.124 S 
ATOM     76  O   UNL A   1      44.124  28.332  26.197  1.00  0.00    -0.237 OA
ATOM     77  O   UNL A   1      43.560  26.237  25.022  1.00  0.00    -0.237 OA
ATOM     78  O   UNL A   1      42.306  28.309  24.534  1.00  0.00    -0.744 OA
ENDBRANCH  71  75
ENDBRANCH  54  68
BRANCH  55  79
ATOM     79  C   UNL A   1      39.890  33.596  36.914  1.00  0.00     0.023 A 
ATOM     80  C   UNL A   1      40.726  34.718  37.069  1.00  0.00     0.031 A 
ATOM     81  C   UNL A   1      38.980  33.305  37.944  1.00  0.00     0.131 A 
ATOM     82  C   UNL A   1      40.691  35.455  38.259  1.00  0.00     0.055 A 
ATOM     83  C   UNL A   1      38.895  34.091  39.095  1.00  0.00     0.041 A 
ATOM     84  F   UNL A   1      38.169  32.239  37.850  1.00  0.00    -0.206 F 
ATOM     85  C   UNL A   1      39.769  35.159  39.265  1.00  0.00     0.022 A 
BRANCH  82  86
ATOM     86  S   UNL A   1      41.944  36.722  38.601  1.00  0.00     0.124 S 
ATOM     87  O   UNL A   1      42.471  36.996  37.268  1.00  0.00    -0.237 OA
ATOM     88  O   UNL A   1      41.138  37.788  39.193  1.00  0.00    -0.237 OA
ATOM     89  O   UNL A   1      42.863  36.059  39.521  1.00  0.00    -0.744 OA
ENDBRANCH  82  86
ENDBRANCH  55  79
BRANCH  67  90
ATOM     90  C   UNL A   1      44.384  28.435  35.240  1.00  0.00     0.023 A 
ATOM     91  C   UNL A   1      44.165  27.489  36.261  1.00  0.00     0.031 A 
ATOM     92  C   UNL A   1      45.695  28.891  35.026  1.00  0.00     0.131 A 
ATOM     93  C   UNL A   1      45.232  27.070  37.064  1.00  0.00     0.055 A 
ATOM     94  C   UNL A   1      46.765  28.431  35.797  1.00  0.00     0.041 A 
ATOM     95  F   UNL A   1      45.954  29.801  34.073  1.00  0.00    -0.206 F 
ATOM     96  C   UNL A   1      46.532  27.531  36.833  1.00  0.00     0.022 A 
BRANCH  93  97
ATOM     97  S   UNL A   1      44.956  25.994  38.498  1.00  0.00     0.124 S 
ATOM     98  O   UNL A   1      43.595  26.356  38.889  1.00  0.00    -0.237 OA
ATOM     99  O   UNL A   1      45.104  24.662  37.917  1.00  0.00    -0.237 OA
ATOM    100  O   UNL A   1      45.997  26.387  39.441  1.00  0.00    -0.744 OA
ENDBRANCH  93  97
ENDBRANCH  67  90
ENDBRANCH  41  42
ENDBRANCH  33  36
ENDBRANCH  31  32
ENDBRANCH  30  31
ENDBRANCH  29  30
ENDBRANCH   1  29
TORSDOF 20
ENDMDL
MODEL 2
REMARK VINA RESULT:     -11.4      1.943      7.514
REMARK SMILES CC(C)CN(C)c1cc2c(cc1Cl)C=C(C(=O)NCCCCCCNC(=O)c1ccc(-c3c4nc(c(-c5cc(S(=O)(=O)[O-])ccc5F)c5ccc([nH]5)c(-c5cc(S(=O)(=O)[O-])ccc5F)c5nc(c(-c6cc(S(=O)(=O)[O-])ccc6F)c6ccc3[nH]6)C=C5)C=C4)cc1)[C@@H](C(F)(F)F)O2
REMARK SMILES IDX 21 1 20 2 19 3 18 4 16 5 17 6 15 8 7 9 8 10 12 11 9 12 11 13
REMARK SMILES IDX 13 14 10 15 96 16 14 17 91 18 5 19 6 20 4 21 2 22 1 23 3 24
REMARK SMILES IDX 92 25 93 26 94 27 95 28 22 29 23 30 24 31 25 32 26 33 27 35
REMARK SMILES IDX 28 36 29 37 90 38 30 39 89 40 31 41 32 42 33 43 83 44 34 45
REMARK SMILES IDX 88 46 82 47 84 48 35 49 87 50 81 51 80 52 36 54 68 55 48 56
REMARK SMILES IDX 67 57 49 58 52 59 66 60 85 61 50 62 51 63 65 65 86 66 53 67
REMARK SMILES IDX 37 68 38 69 46 70 39 71 45 72 47 73 44 74 40 75 41 76 42 77
REMARK SMILES IDX 43 78 69 79 70 80 78 81 71 82 77 83 79 84 76 85 72 86 73 87
REMARK SMILES IDX 74 88 75 89 54 90 55 91 63 92 56 93 62 94 64 95 61 96 57 97
REMARK SMILES IDX 58 98 59 99 60 100
REMARK H PARENT 18 7 25 34 84 53 52 64
REMARK Flexibility Score: inf
ROOT
ATOM      1  C   UNL A   1      32.567  28.916  25.762  1.00  0.00     0.002 C 
ENDROOT
BRANCH   1   2
ATOM      2  C   UNL A   1      31.935  29.514  24.501  1.00  0.00     0.021 C 
BRANCH   2   3
ATOM      3  C   UNL A   1      31.566  28.478  23.442  1.00  0.00     0.116 C 
BRANCH   3   4
ATOM      4  N   UNL A   1      30.300  27.836  23.751  1.00  0.00    -0.352 N 
ATOM      5  C   UNL A   1      29.863  26.582  24.001  1.00  0.00     0.251 C 
ATOM      6  O   UNL A   1      28.658  26.489  24.264  1.00  0.00    -0.270 OA
ATOM      7  H   UNL A   1      29.565  28.489  23.790  1.00  0.00     0.163 HD
BRANCH   5   8
ATOM      8  C   UNL A   1      30.705  25.353  23.975  1.00  0.00     0.067 C 
ATOM      9  C   UNL A   1      33.322  21.226  25.256  1.00  0.00     0.059 A 
ATOM     10  C   UNL A   1      32.575  21.612  24.131  1.00  0.00     0.074 A 
ATOM     11  C   UNL A   1      33.426  22.151  26.320  1.00  0.00     0.065 A 
ATOM     12  C   UNL A   1      31.931  22.845  24.096  1.00  0.00     0.130 A 
ATOM     13  C   UNL A   1      32.701  23.349  26.314  1.00  0.00     0.034 A 
ATOM     14  Cl  UNL A   1      34.459  21.873  27.680  1.00  0.00    -0.082 Cl
ATOM     15  C   UNL A   1      31.936  23.691  25.205  1.00  0.00     0.019 A 
ATOM     16  O   UNL A   1      31.280  23.179  22.940  1.00  0.00    -0.475 OA
ATOM     17  C   UNL A   1      31.117  24.897  25.173  1.00  0.00     0.025 C 
ATOM     18  C   UNL A   1      31.125  24.615  22.735  1.00  0.00     0.314 C 
BRANCH   9  19
ATOM     19  N   UNL A   1      33.903  19.947  25.311  1.00  0.00    -0.373 N 
ATOM     20  C   UNL A   1      35.335  19.908  25.011  1.00  0.00     0.143 C 
BRANCH  19  21
ATOM     21  C   UNL A   1      33.090  18.845  24.754  1.00  0.00     0.119 C 
BRANCH  21  22
ATOM     22  C   UNL A   1      33.927  17.581  24.467  1.00  0.00     0.002 C 
ATOM     23  C   UNL A   1      33.671  16.468  25.488  1.00  0.00     0.009 C 
ATOM     24  C   UNL A   1      33.638  17.037  23.064  1.00  0.00     0.009 C 
ENDBRANCH  21  22
ENDBRANCH  19  21
ENDBRANCH   9  19
BRANCH  18  25
ATOM     25  C   UNL A   1      32.402  25.223  22.115  1.00  0.00     0.429 C 
ATOM     26  F   UNL A   1      33.091  24.290  21.416  1.00  0.00    -0.167 F 
ATOM     27  F   UNL A   1      32.117  26.225  21.245  1.00  0.00    -0.167 F 
ATOM     28  F   UNL A   1      33.242  25.742  23.039  1.00  0.00    -0.167 F 
ENDBRANCH  18  25
ENDBRANCH   5   8
ENDBRANCH   3   4
ENDBRANCH   2   3
ENDBRANCH   1   2
BRANCH   1  29
ATOM     29  C   UNL A   1      32.243  29.646  27.071  1.00  0.00     0.002 C 
BRANCH  29  30
ATOM     30  C   UNL A   1      31.886  31.127  26.929  1.00  0.00     0.021 C 
BRANCH  30  31
ATOM     31  C   UNL A   1      33.070  32.083  27.022  1.00  0.00     0.116 C 
BRANCH  31  32
ATOM     32  N   UNL A   1      32.678  33.415  27.455  1.00  0.00    -0.352 N 
ATOM     33  C   UNL A   1      33.196  34.177  28.475  1.00  0.00     0.251 C 
ATOM     34  H   UNL A   1      31.941  33.827  26.947  1.00  0.00     0.163 HD
ATOM     35  O   UNL A   1      32.639  35.220  28.808  1.00  0.00    -0.269 OA
BRANCH  33  36
ATOM     36  C   UNL A   1      34.400  33.705  29.189  1.00  0.00     0.039 A 
ATOM     37  C   UNL A   1      35.674  33.994  28.693  1.00  0.00     0.014 A 
ATOM     38  C   UNL A   1      34.250  32.922  30.336  1.00  0.00     0.014 A 
ATOM     39  C   UNL A   1      36.784  33.364  29.243  1.00  0.00     0.010 A 
ATOM     40  C   UNL A   1      35.377  32.355  30.936  1.00  0.00     0.010 A 
ATOM     41  C   UNL A   1      36.648  32.527  30.363  1.00  0.00    -0.014 A 
BRANCH  41  42
ATOM     42  C   UNL A   1      37.841  31.833  30.915  1.00  0.00     0.031 A 
ATOM     43  C   UNL A   1      38.321  32.131  32.311  1.00  0.00     0.074 A 
ATOM     44  C   UNL A   1      38.467  30.903  30.169  1.00  0.00     0.049 A 
ATOM     45  N   UNL A   1      39.344  31.629  32.954  1.00  0.00    -0.248 NA
ATOM     46  C   UNL A   1      37.557  33.122  33.088  1.00  0.00     0.031 C 
ATOM     47  C   UNL A   1      38.077  30.523  28.812  1.00  0.00     0.029 A 
ATOM     48  N   UNL A   1      39.546  30.099  30.443  1.00  0.00    -0.354 N 
ATOM     49  C   UNL A   1      39.360  32.253  34.197  1.00  0.00     0.074 A 
ATOM     50  C   UNL A   1      38.263  33.195  34.209  1.00  0.00     0.031 C 
ATOM     51  C   UNL A   1      38.873  29.532  28.388  1.00  0.00     0.029 A 
ATOM     52  C   UNL A   1      39.879  29.255  29.409  1.00  0.00     0.049 A 
ATOM     53  H   UNL A   1      40.035  30.125  31.297  1.00  0.00     0.167 HD
ATOM     54  C   UNL A   1      40.204  32.045  35.235  1.00  0.00     0.034 A 
ATOM     55  C   UNL A   1      40.890  28.370  29.284  1.00  0.00     0.034 A 
ATOM     56  C   UNL A   1      41.278  31.085  35.213  1.00  0.00     0.049 A 
ATOM     57  C   UNL A   1      41.837  28.184  30.440  1.00  0.00     0.074 A 
ATOM     58  C   UNL A   1      42.172  30.784  36.225  1.00  0.00     0.029 A 
ATOM     59  N   UNL A   1      41.600  30.267  34.139  1.00  0.00    -0.354 N 
ATOM     60  N   UNL A   1      41.816  28.757  31.621  1.00  0.00    -0.248 NA
ATOM     61  C   UNL A   1      42.946  27.238  30.256  1.00  0.00     0.031 C 
ATOM     62  C   UNL A   1      43.071  29.833  35.743  1.00  0.00     0.029 A 
ATOM     63  C   UNL A   1      42.694  29.481  34.456  1.00  0.00     0.049 A 
ATOM     64  H   UNL A   1      41.121  30.250  33.279  1.00  0.00     0.167 HD
ATOM     65  C   UNL A   1      42.890  28.223  32.327  1.00  0.00     0.074 A 
ATOM     66  C   UNL A   1      43.527  27.265  31.449  1.00  0.00     0.031 C 
ATOM     67  C   UNL A   1      43.309  28.507  33.585  1.00  0.00     0.034 A 
BRANCH  54  68
ATOM     68  C   UNL A   1      40.018  32.850  36.498  1.00  0.00     0.023 A 
ATOM     69  C   UNL A   1      39.128  32.402  37.493  1.00  0.00     0.031 A 
ATOM     70  C   UNL A   1      40.604  34.119  36.654  1.00  0.00     0.131 A 
ATOM     71  C   UNL A   1      38.818  33.232  38.577  1.00  0.00     0.055 A 
ATOM     72  C   UNL A   1      40.324  34.925  37.759  1.00  0.00     0.041 A 
ATOM     73  F   UNL A   1      41.460  34.592  35.733  1.00  0.00    -0.206 F 
ATOM     74  C   UNL A   1      39.416  34.489  38.718  1.00  0.00     0.022 A 
BRANCH  71  75
ATOM     75  S   UNL A   1      37.577  32.747  39.807  1.00  0.00     0.124 S 
ATOM     76  O   UNL A   1      38.166  31.530  40.362  1.00  0.00    -0.237 OA
ATOM     77  O   UNL A   1      37.567  33.900  40.703  1.00  0.00    -0.237 OA
ATOM     78  O   UNL A   1      36.364  32.546  39.023  1.00  0.00    -0.744 OA
ENDBRANCH  71  75
ENDBRANCH  54  68
BRANCH  55  79
ATOM     79  C   UNL A   1      41.009  27.579  28.023  1.00  0.00     0.023 A 
ATOM     80  C   UNL A   1      40.667  26.214  27.991  1.00  0.00     0.031 A 
ATOM     81  C   UNL A   1      41.578  28.144  26.870  1.00  0.00     0.131 A 
ATOM     82  C   UNL A   1      40.970  25.445  26.861  1.00  0.00     0.055 A 
ATOM     83  C   UNL A   1      41.807  27.389  25.717  1.00  0.00     0.041 A 
ATOM     84  F   UNL A   1      41.934  29.438  26.854  1.00  0.00    -0.206 F 
ATOM     85  C   UNL A   1      41.522  26.027  25.718  1.00  0.00     0.022 A 
BRANCH  82  86
ATOM     86  S   UNL A   1      40.803  23.639  26.897  1.00  0.00     0.124 S 
ATOM     87  O   UNL A   1      39.400  23.456  26.539  1.00  0.00    -0.237 OA
ATOM     88  O   UNL A   1      41.772  23.228  25.883  1.00  0.00    -0.237 OA
ATOM     89  O   UNL A   1      41.157  23.286  28.268  1.00  0.00    -0.744 OA
ENDBRANCH  82  86
ENDBRANCH  55  79
BRANCH  67  90
ATOM     90  C   UNL A   1      44.511  27.776  34.134  1.00  0.00     0.023 A 
ATOM     91  C   UNL A   1      44.336  26.554  34.813  1.00  0.00     0.031 A 
ATOM     92  C   UNL A   1      45.785  28.368  34.146  1.00  0.00     0.131 A 
ATOM     93  C   UNL A   1      45.403  25.991  35.521  1.00  0.00     0.055 A 
ATOM     94  C   UNL A   1      46.860  27.776  34.812  1.00  0.00     0.041 A 
ATOM     95  F   UNL A   1      45.999  29.538  33.523  1.00  0.00    -0.206 F 
ATOM     96  C   UNL A   1      46.666  26.592  35.518  1.00  0.00     0.022 A 
BRANCH  93  97
ATOM     97  S   UNL A   1      45.167  24.517  36.552  1.00  0.00     0.124 S 
ATOM     98  O   UNL A   1      46.150  23.594  35.988  1.00  0.00    -0.237 OA
ATOM     99  O   UNL A   1      45.480  25.022  37.887  1.00  0.00    -0.237 OA
ATOM    100  O   UNL A   1      43.773  24.150  36.330  1.00  0.00    -0.744 OA
ENDBRANCH  93  97
ENDBRANCH  67  90
ENDBRANCH  41  42
ENDBRANCH  33  36
ENDBRANCH  31  32
ENDBRANCH  30  31
ENDBRANCH  29  30
ENDBRANCH   1  29
TORSDOF 20
ENDMDL
MODEL 3
REMARK VINA RESULT:     -11.3      1.783      7.542
REMARK SMILES CC(C)CN(C)c1cc2c(cc1Cl)C=C(C(=O)NCCCCCCNC(=O)c1ccc(-c3c4nc(c(-c5cc(S(=O)(=O)[O-])ccc5F)c5ccc([nH]5)c(-c5cc(S(=O)(=O)[O-])ccc5F)c5nc(c(-c6cc(S(=O)(=O)[O-])ccc6F)c6ccc3[nH]6)C=C5)C=C4)cc1)[C@@H](C(F)(F)F)O2
REMARK SMILES IDX 21 1 20 2 19 3 18 4 16 5 17 6 15 8 7 9 8 10 12 11 9 12 11 13
REMARK SMILES IDX 13 14 10 15 96 16 14 17 91 18 5 19 6 20 4 21 2 22 1 23 3 24
REMARK SMILES IDX 92 25 93 26 94 27 95 28 22 29 23 30 24 31 25 32 26 33 27 35
REMARK SMILES IDX 28 36 29 37 90 38 30 39 89 40 31 41 32 42 33 43 83 44 34 45
REMARK SMILES IDX 88 46 82 47 84 48 35 49 87 50 81 51 80 52 36 54 68 55 48 56
REMARK SMILES IDX 67 57 49 58 52 59 66 60 85 61 50 62 51 63 65 65 86 66 53 67
REMARK SMILES IDX 37 68 38 69 46 70 39 71 45 72 47 73 44 74 40 75 41 76 42 77
REMARK SMILES IDX 43 78 69 79 70 80 78 81 71 82 77 83 79 84 76 85 72 86 73 87
REMARK SMILES IDX 74 88 75 89 54 90 55 91 63 92 56 93 62 94 64 95 61 96 57 97
REMARK SMILES IDX 58 98 59 99 60 100
REMARK H PARENT 18 7 25 34 84 53 52 64
REMARK Flexibility Score: inf
ROOT
ATOM      1  C   UNL A   1      32.347  29.857  27.208  1.00  0.00     0.002 C 
ENDROOT
BRANCH   1   2
ATOM      2  C   UNL A   1      31.660  28.549  27.613  1.00  0.00     0.021 C 
BRANCH   2   3
ATOM      3  C   UNL A   1      32.207  27.314  26.901  1.00  0.00     0.116 C 
BRANCH   3   4
ATOM      4  N   UNL A   1      32.986  27.682  25.732  1.00  0.00    -0.352 N 
ATOM      5  C   UNL A   1      33.434  27.073  24.612  1.00  0.00     0.251 C 
ATOM      6  O   UNL A   1      34.058  27.803  23.832  1.00  0.00    -0.270 OA
ATOM      7  H   UNL A   1      33.261  28.627  25.764  1.00  0.00     0.163 HD
BRANCH   5   8
ATOM      8  C   UNL A   1      33.238  25.637  24.273  1.00  0.00     0.067 C 
ATOM      9  C   UNL A   1      33.401  20.587  24.226  1.00  0.00     0.059 A 
ATOM     10  C   UNL A   1      32.436  21.547  23.882  1.00  0.00     0.074 A 
ATOM     11  C   UNL A   1      34.650  21.056  24.693  1.00  0.00     0.065 A 
ATOM     12  C   UNL A   1      32.697  22.905  24.042  1.00  0.00     0.130 A 
ATOM     13  C   UNL A   1      34.871  22.417  24.936  1.00  0.00     0.034 A 
ATOM     14  Cl  UNL A   1      35.983  19.987  24.978  1.00  0.00    -0.082 Cl
ATOM     15  C   UNL A   1      33.884  23.345  24.625  1.00  0.00     0.019 A 
ATOM     16  O   UNL A   1      31.733  23.781  23.621  1.00  0.00    -0.475 OA
ATOM     17  C   UNL A   1      34.042  24.766  24.913  1.00  0.00     0.025 C 
ATOM     18  C   UNL A   1      32.239  25.107  23.282  1.00  0.00     0.314 C 
BRANCH   9  19
ATOM     19  N   UNL A   1      33.097  19.218  24.133  1.00  0.00    -0.373 N 
ATOM     20  C   UNL A   1      32.174  18.863  23.054  1.00  0.00     0.143 C 
BRANCH  19  21
ATOM     21  C   UNL A   1      32.900  18.513  25.418  1.00  0.00     0.119 C 
BRANCH  21  22
ATOM     22  C   UNL A   1      33.564  17.120  25.435  1.00  0.00     0.002 C 
ATOM     23  C   UNL A   1      32.537  15.984  25.471  1.00  0.00     0.009 C 
ATOM     24  C   UNL A   1      34.468  16.926  24.214  1.00  0.00     0.009 C 
ENDBRANCH  21  22
ENDBRANCH  19  21
ENDBRANCH   9  19
BRANCH  18  25
ATOM     25  C   UNL A   1      32.798  25.131  21.842  1.00  0.00     0.429 C 
ATOM     26  F   UNL A   1      32.894  23.877  21.340  1.00  0.00    -0.167 F 
ATOM     27  F   UNL A   1      31.995  25.825  20.997  1.00  0.00    -0.167 F 
ATOM     28  F   UNL A   1      34.023  25.696  21.761  1.00  0.00    -0.167 F 
ENDBRANCH  18  25
ENDBRANCH   5   8
ENDBRANCH   3   4
ENDBRANCH   2   3
ENDBRANCH   1   2
BRANCH   1  29
ATOM     29  C   UNL A   1      31.609  30.688  26.151  1.00  0.00     0.002 C 
BRANCH  29  30
ATOM     30  C   UNL A   1      31.405  32.164  26.498  1.00  0.00     0.021 C 
BRANCH  30  31
ATOM     31  C   UNL A   1      32.502  32.776  27.364  1.00  0.00     0.116 C 
BRANCH  31  32
ATOM     32  N   UNL A   1      32.276  34.186  27.634  1.00  0.00    -0.352 N 
ATOM     33  C   UNL A   1      32.927  35.008  28.524  1.00  0.00     0.251 C 
ATOM     34  H   UNL A   1      31.560  34.611  27.108  1.00  0.00     0.163 HD
ATOM     35  O   UNL A   1      32.502  36.140  28.739  1.00  0.00    -0.269 OA
BRANCH  33  36
ATOM     36  C   UNL A   1      34.113  34.499  29.243  1.00  0.00     0.039 A 
ATOM     37  C   UNL A   1      35.375  34.546  28.646  1.00  0.00     0.014 A 
ATOM     38  C   UNL A   1      33.949  33.921  30.504  1.00  0.00     0.014 A 
ATOM     39  C   UNL A   1      36.438  33.868  29.233  1.00  0.00     0.010 A 
ATOM     40  C   UNL A   1      35.039  33.311  31.130  1.00  0.00     0.010 A 
ATOM     41  C   UNL A   1      36.280  33.232  30.475  1.00  0.00    -0.014 A 
BRANCH  41  42
ATOM     42  C   UNL A   1      37.416  32.482  31.070  1.00  0.00     0.031 A 
ATOM     43  C   UNL A   1      37.830  32.725  32.498  1.00  0.00     0.074 A 
ATOM     44  C   UNL A   1      38.051  31.551  30.332  1.00  0.00     0.049 A 
ATOM     45  N   UNL A   1      38.799  32.171  33.179  1.00  0.00    -0.248 NA
ATOM     46  C   UNL A   1      37.059  33.721  33.261  1.00  0.00     0.031 C 
ATOM     47  C   UNL A   1      37.722  31.222  28.945  1.00  0.00     0.029 A 
ATOM     48  N   UNL A   1      39.085  30.703  30.640  1.00  0.00    -0.354 N 
ATOM     49  C   UNL A   1      38.769  32.761  34.438  1.00  0.00     0.074 A 
ATOM     50  C   UNL A   1      37.705  33.740  34.419  1.00  0.00     0.031 C 
ATOM     51  C   UNL A   1      38.506  30.215  28.537  1.00  0.00     0.029 A 
ATOM     52  C   UNL A   1      39.445  29.875  29.601  1.00  0.00     0.049 A 
ATOM     53  H   UNL A   1      39.528  30.688  31.519  1.00  0.00     0.167 HD
ATOM     54  C   UNL A   1      39.549  32.496  35.514  1.00  0.00     0.034 A 
ATOM     55  C   UNL A   1      40.431  28.959  29.505  1.00  0.00     0.034 A 
ATOM     56  C   UNL A   1      40.588  31.499  35.521  1.00  0.00     0.049 A 
ATOM     57  C   UNL A   1      41.308  28.709  30.704  1.00  0.00     0.074 A 
ATOM     58  C   UNL A   1      41.416  31.140  36.570  1.00  0.00     0.029 A 
ATOM     59  N   UNL A   1      40.941  30.700  34.443  1.00  0.00    -0.354 N 
ATOM     60  N   UNL A   1      41.242  29.250  31.899  1.00  0.00    -0.248 NA
ATOM     61  C   UNL A   1      42.392  27.729  30.553  1.00  0.00     0.031 C 
ATOM     62  C   UNL A   1      42.308  30.171  36.110  1.00  0.00     0.029 A 
ATOM     63  C   UNL A   1      41.989  29.867  34.796  1.00  0.00     0.049 A 
ATOM     64  H   UNL A   1      40.509  30.722  33.559  1.00  0.00     0.167 HD
ATOM     65  C   UNL A   1      42.257  28.660  32.645  1.00  0.00     0.074 A 
ATOM     66  C   UNL A   1      42.909  27.704  31.775  1.00  0.00     0.031 C 
ATOM     67  C   UNL A   1      42.617  28.896  33.931  1.00  0.00     0.034 A 
BRANCH  54  68
ATOM     68  C   UNL A   1      39.321  33.272  36.788  1.00  0.00     0.023 A 
ATOM     69  C   UNL A   1      40.014  34.477  37.010  1.00  0.00     0.031 A 
ATOM     70  C   UNL A   1      38.539  32.753  37.835  1.00  0.00     0.131 A 
ATOM     71  C   UNL A   1      39.944  35.103  38.261  1.00  0.00     0.055 A 
ATOM     72  C   UNL A   1      38.439  33.403  39.067  1.00  0.00     0.041 A 
ATOM     73  F   UNL A   1      37.859  31.607  37.674  1.00  0.00    -0.206 F 
ATOM     74  C   UNL A   1      39.156  34.575  39.288  1.00  0.00     0.022 A 
BRANCH  71  75
ATOM     75  S   UNL A   1      40.926  36.583  38.628  1.00  0.00     0.124 S 
ATOM     76  O   UNL A   1      41.667  36.766  37.381  1.00  0.00    -0.237 OA
ATOM     77  O   UNL A   1      39.891  37.580  38.890  1.00  0.00    -0.237 OA
ATOM     78  O   UNL A   1      41.733  36.193  39.777  1.00  0.00    -0.744 OA
ENDBRANCH  71  75
ENDBRANCH  54  68
BRANCH  55  79
ATOM     79  C   UNL A   1      40.592  28.198  28.231  1.00  0.00     0.023 A 
ATOM     80  C   UNL A   1      40.035  26.914  28.080  1.00  0.00     0.031 A 
ATOM     81  C   UNL A   1      41.402  28.692  27.194  1.00  0.00     0.131 A 
ATOM     82  C   UNL A   1      40.361  26.139  26.960  1.00  0.00     0.055 A 
ATOM     83  C   UNL A   1      41.660  27.944  26.043  1.00  0.00     0.041 A 
ATOM     84  F   UNL A   1      41.966  29.905  27.295  1.00  0.00    -0.206 F 
ATOM     85  C   UNL A   1      41.156  26.652  25.933  1.00  0.00     0.022 A 
BRANCH  82  86
ATOM     86  S   UNL A   1      39.892  24.388  26.877  1.00  0.00     0.124 S 
ATOM     87  O   UNL A   1      38.644  24.444  26.123  1.00  0.00    -0.237 OA
ATOM     88  O   UNL A   1      41.032  23.807  26.169  1.00  0.00    -0.237 OA
ATOM     89  O   UNL A   1      39.769  23.996  28.277  1.00  0.00    -0.744 OA
ENDBRANCH  82  86
ENDBRANCH  55  79
BRANCH  67  90
ATOM     90  C   UNL A   1      43.762  28.108  34.522  1.00  0.00     0.023 A 
ATOM     91  C   UNL A   1      43.503  26.901  35.201  1.00  0.00     0.031 A 
ATOM     92  C   UNL A   1      45.063  28.635  34.573  1.00  0.00     0.131 A 
ATOM     93  C   UNL A   1      44.518  26.289  35.946  1.00  0.00     0.055 A 
ATOM     94  C   UNL A   1      46.085  27.994  35.276  1.00  0.00     0.041 A 
ATOM     95  F   UNL A   1      45.357  29.789  33.952  1.00  0.00    -0.206 F 
ATOM     96  C   UNL A   1      45.809  26.825  35.981  1.00  0.00     0.022 A 
BRANCH  93  97
ATOM     97  S   UNL A   1      44.174  24.836  36.976  1.00  0.00     0.124 S 
ATOM     98  O   UNL A   1      44.064  23.776  35.975  1.00  0.00    -0.237 OA
ATOM     99  O   UNL A   1      45.362  24.772  37.823  1.00  0.00    -0.237 OA
ATOM    100  O   UNL A   1      42.931  25.174  37.660  1.00  0.00    -0.744 OA
ENDBRANCH  93  97
ENDBRANCH  67  90
ENDBRANCH  41  42
ENDBRANCH  33  36
ENDBRANCH  31  32
ENDBRANCH  30  31
ENDBRANCH  29  30
ENDBRANCH   1  29
TORSDOF 20
ENDMDL
