MODEL 1
REMARK VINA RESULT:     -11.5      0.000      0.000
REMARK SMILES C[NH+]1CC[NH+]([C@]2(C(=O)NCCCCCCNC(=O)c3ccc(-c4c5nc(c(-c6cc(S(=O)(=O)[O-])ccc6F)c6ccc([nH]6)c(-c6cc(S(=O)(=O)[O-])ccc6F)c6nc(c(-c7cc(S(=O)(=O)[O-])ccc7F)c7ccc4[nH]7)C=C6)C=C5)cc3)CCCC2(C)C)CC1
REMARK SMILES IDX 13 1 12 2 11 3 10 4 9 5 7 6 8 7 6 9 82 10 85 11 83 12 84 13
REMARK SMILES IDX 86 14 87 15 5 16 1 17 2 18 3 19 89 20 4 22 88 23 14 25 15 26
REMARK SMILES IDX 16 27 17 28 18 30 19 31 20 32 81 33 21 34 80 35 22 36 23 37
REMARK SMILES IDX 24 38 74 39 25 40 79 41 73 42 75 43 26 44 78 45 72 46 71 47
REMARK SMILES IDX 27 49 59 50 39 51 58 52 40 53 43 54 57 55 76 56 41 57 42 58
REMARK SMILES IDX 56 60 77 61 44 62 28 63 29 64 37 65 30 66 36 67 38 68 35 69
REMARK SMILES IDX 31 70 32 71 33 72 34 73 60 74 61 75 69 76 62 77 68 78 70 79
REMARK SMILES IDX 67 80 63 81 64 82 65 83 66 84 45 85 46 86 54 87 47 88 53 89
REMARK SMILES IDX 55 90 52 91 48 92 49 93 50 94 51 95
REMARK H PARENT 9 8 2 21 5 24 16 29 75 48 43 59
REMARK Flexibility Score: inf
ROOT
ATOM      1  C   UNL A   1      31.058  27.900  24.533  1.00  0.00     0.002 C 
ENDROOT
BRANCH   1   2
ATOM      2  C   UNL A   1      30.290  26.582  24.689  1.00  0.00     0.002 C 
BRANCH   2   3
ATOM      3  C   UNL A   1      30.273  25.976  26.092  1.00  0.00     0.021 C 
BRANCH   3   4
ATOM      4  C   UNL A   1      30.577  24.477  26.166  1.00  0.00     0.116 C 
BRANCH   4   5
ATOM      5  N   UNL A   1      30.581  23.844  24.861  1.00  0.00    -0.351 N 
ATOM      6  C   UNL A   1      31.474  23.317  23.991  1.00  0.00     0.281 C 
ATOM      7  O   UNL A   1      30.910  23.036  22.913  1.00  0.00    -0.268 OA
ATOM      8  H   UNL A   1      29.666  23.778  24.504  1.00  0.00     0.163 HD
BRANCH   6   9
ATOM      9  C   UNL A   1      33.088  23.043  24.140  1.00  0.00     0.182 C 
ATOM     10  C   UNL A   1      33.560  23.177  22.653  1.00  0.00     0.080 C 
ATOM     11  C   UNL A   1      33.970  24.193  24.801  1.00  0.00     0.029 C 
ATOM     12  C   UNL A   1      33.761  24.686  22.425  1.00  0.00     0.008 C 
ATOM     13  C   UNL A   1      33.686  25.350  23.809  1.00  0.00     0.014 C 
ATOM     14  C   UNL A   1      33.666  24.383  26.296  1.00  0.00     0.018 C 
ATOM     15  C   UNL A   1      35.538  24.086  24.741  1.00  0.00     0.018 C 
BRANCH   9  16
ATOM     16  N   UNL A   1      33.258  21.648  24.739  1.00  0.00    -0.313 N 
ATOM     17  C   UNL A   1      34.106  17.335  24.650  1.00  0.00     0.333 C 
ATOM     18  N   UNL A   1      33.885  18.731  24.288  1.00  0.00    -0.328 N 
ATOM     19  C   UNL A   1      34.825  19.604  24.995  1.00  0.00     0.324 C 
ATOM     20  C   UNL A   1      32.529  19.174  24.643  1.00  0.00     0.324 C 
ATOM     21  H   UNL A   1      34.019  18.792  23.279  1.00  0.00     0.348 HD
ATOM     22  C   UNL A   1      34.621  21.091  24.627  1.00  0.00     0.325 C 
ATOM     23  C   UNL A   1      32.278  20.650  24.232  1.00  0.00     0.325 C 
ATOM     24  H   UNL A   1      33.070  21.812  25.727  1.00  0.00     0.349 HD
ENDBRANCH   9  16
ENDBRANCH   6   9
ENDBRANCH   4   5
ENDBRANCH   3   4
ENDBRANCH   2   3
ENDBRANCH   1   2
BRANCH   1  25
ATOM     25  C   UNL A   1      32.088  28.229  25.620  1.00  0.00     0.021 C 
BRANCH  25  26
ATOM     26  C   UNL A   1      33.076  29.349  25.298  1.00  0.00     0.116 C 
BRANCH  26  27
ATOM     27  N   UNL A   1      32.653  30.631  25.824  1.00  0.00    -0.352 N 
ATOM     28  C   UNL A   1      33.114  31.355  26.892  1.00  0.00     0.251 C 
ATOM     29  H   UNL A   1      31.910  31.052  25.332  1.00  0.00     0.163 HD
ATOM     30  O   UNL A   1      32.480  32.344  27.250  1.00  0.00    -0.269 OA
BRANCH  28  31
ATOM     31  C   UNL A   1      34.338  30.956  27.627  1.00  0.00     0.039 A 
ATOM     32  C   UNL A   1      35.333  31.919  27.814  1.00  0.00     0.014 A 
ATOM     33  C   UNL A   1      34.550  29.647  28.071  1.00  0.00     0.014 A 
ATOM     34  C   UNL A   1      36.518  31.584  28.472  1.00  0.00     0.010 A 
ATOM     35  C   UNL A   1      35.707  29.328  28.787  1.00  0.00     0.010 A 
ATOM     36  C   UNL A   1      36.709  30.290  28.983  1.00  0.00    -0.014 A 
BRANCH  36  37
ATOM     37  C   UNL A   1      37.958  29.956  29.716  1.00  0.00     0.031 A 
ATOM     38  C   UNL A   1      38.203  30.490  31.101  1.00  0.00     0.074 A 
ATOM     39  C   UNL A   1      38.877  29.169  29.122  1.00  0.00     0.049 A 
ATOM     40  N   UNL A   1      39.203  30.256  31.913  1.00  0.00    -0.248 NA
ATOM     41  C   UNL A   1      37.205  31.429  31.634  1.00  0.00     0.031 C 
ATOM     42  C   UNL A   1      38.778  28.641  27.759  1.00  0.00     0.029 A 
ATOM     43  N   UNL A   1      40.066  28.667  29.586  1.00  0.00    -0.354 N 
ATOM     44  C   UNL A   1      38.959  31.020  33.050  1.00  0.00     0.074 A 
ATOM     45  C   UNL A   1      37.747  31.771  32.793  1.00  0.00     0.031 C 
ATOM     46  C   UNL A   1      39.843  27.862  27.511  1.00  0.00     0.029 A 
ATOM     47  C   UNL A   1      40.710  27.853  28.684  1.00  0.00     0.049 A 
ATOM     48  H   UNL A   1      40.425  28.872  30.480  1.00  0.00     0.167 HD
ATOM     49  C   UNL A   1      39.665  31.073  34.208  1.00  0.00     0.034 A 
ATOM     50  C   UNL A   1      41.865  27.167  28.794  1.00  0.00     0.034 A 
ATOM     51  C   UNL A   1      40.870  30.311  34.448  1.00  0.00     0.049 A 
ATOM     52  C   UNL A   1      42.617  27.215  30.098  1.00  0.00     0.074 A 
ATOM     53  C   UNL A   1      41.640  30.250  35.597  1.00  0.00     0.029 A 
ATOM     54  N   UNL A   1      41.485  29.482  33.518  1.00  0.00    -0.354 N 
ATOM     55  N   UNL A   1      42.335  27.890  31.189  1.00  0.00    -0.248 NA
ATOM     56  C   UNL A   1      43.824  26.388  30.192  1.00  0.00     0.031 C 
ATOM     57  C   UNL A   1      42.749  29.433  35.343  1.00  0.00     0.029 A 
ATOM     58  C   UNL A   1      42.635  28.925  34.059  1.00  0.00     0.049 A 
ATOM     59  H   UNL A   1      41.153  29.313  32.606  1.00  0.00     0.167 HD
ATOM     60  C   UNL A   1      43.322  27.547  32.110  1.00  0.00     0.074 A 
ATOM     61  C   UNL A   1      44.185  26.586  31.451  1.00  0.00     0.031 C 
ATOM     62  C   UNL A   1      43.500  27.984  33.383  1.00  0.00     0.034 A 
BRANCH  49  63
ATOM     63  C   UNL A   1      39.161  32.005  35.287  1.00  0.00     0.023 A 
ATOM     64  C   UNL A   1      39.614  33.334  35.386  1.00  0.00     0.031 A 
ATOM     65  C   UNL A   1      38.240  31.553  36.248  1.00  0.00     0.131 A 
ATOM     66  C   UNL A   1      39.207  34.136  36.464  1.00  0.00     0.055 A 
ATOM     67  C   UNL A   1      37.775  32.383  37.272  1.00  0.00     0.041 A 
ATOM     68  F   UNL A   1      37.785  30.291  36.219  1.00  0.00    -0.206 F 
ATOM     69  C   UNL A   1      38.272  33.678  37.394  1.00  0.00     0.022 A 
BRANCH  66  70
ATOM     70  S   UNL A   1      40.029  35.733  36.715  1.00  0.00     0.124 S 
ATOM     71  O   UNL A   1      39.653  36.452  35.499  1.00  0.00    -0.237 OA
ATOM     72  O   UNL A   1      39.425  36.209  37.953  1.00  0.00    -0.237 OA
ATOM     73  O   UNL A   1      41.444  35.379  36.807  1.00  0.00    -0.744 OA
ENDBRANCH  66  70
ENDBRANCH  49  63
BRANCH  50  74
ATOM     74  C   UNL A   1      42.372  26.359  27.648  1.00  0.00     0.023 A 
ATOM     75  C   UNL A   1      41.956  25.033  27.455  1.00  0.00     0.031 A 
ATOM     76  C   UNL A   1      43.306  26.897  26.745  1.00  0.00     0.131 A 
ATOM     77  C   UNL A   1      42.507  24.272  26.411  1.00  0.00     0.055 A 
ATOM     78  C   UNL A   1      43.814  26.153  25.680  1.00  0.00     0.041 A 
ATOM     79  F   UNL A   1      43.726  28.166  26.879  1.00  0.00    -0.206 F 
ATOM     80  C   UNL A   1      43.425  24.828  25.516  1.00  0.00     0.022 A 
BRANCH  77  81
ATOM     81  S   UNL A   1      42.061  22.519  26.284  1.00  0.00     0.124 S 
ATOM     82  O   UNL A   1      40.605  22.578  26.326  1.00  0.00    -0.237 OA
ATOM     83  O   UNL A   1      42.652  22.150  25.001  1.00  0.00    -0.237 OA
ATOM     84  O   UNL A   1      42.697  21.921  27.455  1.00  0.00    -0.744 OA
ENDBRANCH  77  81
ENDBRANCH  50  74
BRANCH  62  85
ATOM     85  C   UNL A   1      44.661  27.393  34.145  1.00  0.00     0.023 A 
ATOM     86  C   UNL A   1      44.517  26.235  34.928  1.00  0.00     0.031 A 
ATOM     87  C   UNL A   1      45.917  28.027  34.129  1.00  0.00     0.131 A 
ATOM     88  C   UNL A   1      45.583  25.790  35.725  1.00  0.00     0.055 A 
ATOM     89  C   UNL A   1      46.994  27.541  34.872  1.00  0.00     0.041 A 
ATOM     90  F   UNL A   1      46.113  29.137  33.401  1.00  0.00    -0.206 F 
ATOM     91  C   UNL A   1      46.824  26.429  35.691  1.00  0.00     0.022 A 
BRANCH  88  92
ATOM     92  S   UNL A   1      45.283  24.446  36.905  1.00  0.00     0.124 S 
ATOM     93  O   UNL A   1      44.885  23.350  36.026  1.00  0.00    -0.237 OA
ATOM     94  O   UNL A   1      46.584  24.304  37.552  1.00  0.00    -0.237 OA
ATOM     95  O   UNL A   1      44.220  24.971  37.760  1.00  0.00    -0.744 OA
ENDBRANCH  88  92
ENDBRANCH  62  85
ENDBRANCH  36  37
ENDBRANCH  28  31
ENDBRANCH  26  27
ENDBRANCH  25  26
ENDBRANCH   1  25
TORSDOF 17
ENDMDL
MODEL 2
REMARK VINA RESULT:     -11.3      1.966      2.345
REMARK SMILES C[NH+]1CC[NH+]([C@]2(C(=O)NCCCCCCNC(=O)c3ccc(-c4c5nc(c(-c6cc(S(=O)(=O)[O-])ccc6F)c6ccc([nH]6)c(-c6cc(S(=O)(=O)[O-])ccc6F)c6nc(c(-c7cc(S(=O)(=O)[O-])ccc7F)c7ccc4[nH]7)C=C6)C=C5)cc3)CCCC2(C)C)CC1
REMARK SMILES IDX 13 1 12 2 11 3 10 4 9 5 7 6 8 7 6 9 82 10 85 11 83 12 84 13
REMARK SMILES IDX 86 14 87 15 5 16 1 17 2 18 3 19 89 20 4 22 88 23 14 25 15 26
REMARK SMILES IDX 16 27 17 28 18 30 19 31 20 32 81 33 21 34 80 35 22 36 23 37
REMARK SMILES IDX 24 38 74 39 25 40 79 41 73 42 75 43 26 44 78 45 72 46 71 47
REMARK SMILES IDX 27 49 59 50 39 51 58 52 40 53 43 54 57 55 76 56 41 57 42 58
REMARK SMILES IDX 56 60 77 61 44 62 28 63 29 64 37 65 30 66 36 67 38 68 35 69
REMARK SMILES IDX 31 70 32 71 33 72 34 73 60 74 61 75 69 76 62 77 68 78 70 79
REMARK SMILES IDX 67 80 63 81 64 82 65 83 66 84 45 85 46 86 54 87 47 88 53 89
REMARK SMILES IDX 55 90 52 91 48 92 49 93 50 94 51 95
REMARK H PARENT 9 8 2 21 5 24 16 29 75 48 43 59
REMARK Flexibility Score: inf
ROOT
ATOM      1  C   UNL A   1      31.693  27.377  26.059  1.00  0.00     0.002 C 
ENDROOT
BRANCH   1   2
ATOM      2  C   UNL A   1      30.613  26.338  25.736  1.00  0.00     0.002 C 
BRANCH   2   3
ATOM      3  C   UNL A   1      30.651  25.743  24.329  1.00  0.00     0.021 C 
BRANCH   3   4
ATOM      4  C   UNL A   1      30.626  24.214  24.258  1.00  0.00     0.116 C 
BRANCH   4   5
ATOM      5  N   UNL A   1      31.631  23.681  23.358  1.00  0.00    -0.351 N 
ATOM      6  C   UNL A   1      32.833  23.063  23.431  1.00  0.00     0.281 C 
ATOM      7  O   UNL A   1      33.335  22.962  22.292  1.00  0.00    -0.268 OA
ATOM      8  H   UNL A   1      31.359  23.805  22.420  1.00  0.00     0.163 HD
BRANCH   6   9
ATOM      9  C   UNL A   1      33.673  22.494  24.725  1.00  0.00     0.182 C 
ATOM     10  C   UNL A   1      35.140  22.878  24.331  1.00  0.00     0.080 C 
ATOM     11  C   UNL A   1      33.550  23.300  26.093  1.00  0.00     0.029 C 
ATOM     12  C   UNL A   1      35.308  24.343  24.770  1.00  0.00     0.008 C 
ATOM     13  C   UNL A   1      34.086  24.682  25.638  1.00  0.00     0.014 C 
ATOM     14  C   UNL A   1      32.146  23.197  26.712  1.00  0.00     0.018 C 
ATOM     15  C   UNL A   1      34.517  22.946  27.281  1.00  0.00     0.018 C 
BRANCH   9  16
ATOM     16  N   UNL A   1      33.410  20.992  24.812  1.00  0.00    -0.313 N 
ATOM     17  C   UNL A   1      33.442  16.837  23.376  1.00  0.00     0.333 C 
ATOM     18  N   UNL A   1      33.592  18.283  23.495  1.00  0.00    -0.328 N 
ATOM     19  C   UNL A   1      34.441  18.624  24.639  1.00  0.00     0.324 C 
ATOM     20  C   UNL A   1      32.296  18.945  23.702  1.00  0.00     0.324 C 
ATOM     21  H   UNL A   1      34.011  18.602  22.622  1.00  0.00     0.348 HD
ATOM     22  C   UNL A   1      34.624  20.151  24.787  1.00  0.00     0.325 C 
ATOM     23  C   UNL A   1      32.445  20.488  23.798  1.00  0.00     0.325 C 
ATOM     24  H   UNL A   1      32.988  20.900  25.735  1.00  0.00     0.349 HD
ENDBRANCH   9  16
ENDBRANCH   6   9
ENDBRANCH   4   5
ENDBRANCH   3   4
ENDBRANCH   2   3
ENDBRANCH   1   2
BRANCH   1  25
ATOM     25  C   UNL A   1      32.251  28.179  24.876  1.00  0.00     0.021 C 
BRANCH  25  26
ATOM     26  C   UNL A   1      33.330  29.208  25.208  1.00  0.00     0.116 C 
BRANCH  26  27
ATOM     27  N   UNL A   1      32.784  30.423  25.777  1.00  0.00    -0.352 N 
ATOM     28  C   UNL A   1      33.192  31.169  26.852  1.00  0.00     0.251 C 
ATOM     29  H   UNL A   1      31.986  30.770  25.315  1.00  0.00     0.163 HD
ATOM     30  O   UNL A   1      32.463  32.073  27.250  1.00  0.00    -0.269 OA
BRANCH  28  31
ATOM     31  C   UNL A   1      34.472  30.891  27.545  1.00  0.00     0.039 A 
ATOM     32  C   UNL A   1      34.671  29.609  28.065  1.00  0.00     0.014 A 
ATOM     33  C   UNL A   1      35.442  31.878  27.749  1.00  0.00     0.014 A 
ATOM     34  C   UNL A   1      35.846  29.307  28.755  1.00  0.00     0.010 A 
ATOM     35  C   UNL A   1      36.646  31.558  28.382  1.00  0.00     0.010 A 
ATOM     36  C   UNL A   1      36.855  30.273  28.903  1.00  0.00    -0.014 A 
BRANCH  36  37
ATOM     37  C   UNL A   1      38.119  29.927  29.605  1.00  0.00     0.031 A 
ATOM     38  C   UNL A   1      38.406  30.468  30.980  1.00  0.00     0.074 A 
ATOM     39  C   UNL A   1      39.012  29.125  28.994  1.00  0.00     0.049 A 
ATOM     40  N   UNL A   1      39.424  30.227  31.767  1.00  0.00    -0.248 NA
ATOM     41  C   UNL A   1      37.435  31.423  31.531  1.00  0.00     0.031 C 
ATOM     42  C   UNL A   1      38.871  28.589  27.637  1.00  0.00     0.029 A 
ATOM     43  N   UNL A   1      40.206  28.611  29.430  1.00  0.00    -0.354 N 
ATOM     44  C   UNL A   1      39.219  31.001  32.905  1.00  0.00     0.074 A 
ATOM     45  C   UNL A   1      38.011  31.767  32.673  1.00  0.00     0.031 C 
ATOM     46  C   UNL A   1      39.919  27.793  27.368  1.00  0.00     0.029 A 
ATOM     47  C   UNL A   1      40.816  27.782  28.518  1.00  0.00     0.049 A 
ATOM     48  H   UNL A   1      40.591  28.817  30.313  1.00  0.00     0.167 HD
ATOM     49  C   UNL A   1      39.956  31.053  34.044  1.00  0.00     0.034 A 
ATOM     50  C   UNL A   1      41.964  27.081  28.603  1.00  0.00     0.034 A 
ATOM     51  C   UNL A   1      41.156  30.278  34.257  1.00  0.00     0.049 A 
ATOM     52  C   UNL A   1      42.750  27.129  29.887  1.00  0.00     0.074 A 
ATOM     53  C   UNL A   1      41.955  30.215  35.387  1.00  0.00     0.029 A 
ATOM     54  N   UNL A   1      41.736  29.434  33.319  1.00  0.00    -0.354 N 
ATOM     55  N   UNL A   1      42.505  27.815  30.980  1.00  0.00    -0.248 NA
ATOM     56  C   UNL A   1      43.949  26.287  29.956  1.00  0.00     0.031 C 
ATOM     57  C   UNL A   1      43.047  29.381  35.110  1.00  0.00     0.029 A 
ATOM     58  C   UNL A   1      42.892  28.865  33.833  1.00  0.00     0.049 A 
ATOM     59  H   UNL A   1      41.378  29.263  32.417  1.00  0.00     0.167 HD
ATOM     60  C   UNL A   1      43.511  27.466  31.878  1.00  0.00     0.074 A 
ATOM     61  C   UNL A   1      44.344  26.489  31.204  1.00  0.00     0.031 C 
ATOM     62  C   UNL A   1      43.727  27.909  33.142  1.00  0.00     0.034 A 
BRANCH  49  63
ATOM     63  C   UNL A   1      39.492  31.999  35.128  1.00  0.00     0.023 A 
ATOM     64  C   UNL A   1      38.853  31.533  36.292  1.00  0.00     0.031 A 
ATOM     65  C   UNL A   1      39.662  33.387  34.986  1.00  0.00     0.131 A 
ATOM     66  C   UNL A   1      38.339  32.447  37.226  1.00  0.00     0.055 A 
ATOM     67  C   UNL A   1      39.221  34.288  35.959  1.00  0.00     0.041 A 
ATOM     68  F   UNL A   1      40.247  33.896  33.890  1.00  0.00    -0.206 F 
ATOM     69  C   UNL A   1      38.540  33.820  37.079  1.00  0.00     0.022 A 
BRANCH  66  70
ATOM     70  S   UNL A   1      37.278  31.822  38.557  1.00  0.00     0.124 S 
ATOM     71  O   UNL A   1      37.041  30.446  38.124  1.00  0.00    -0.237 OA
ATOM     72  O   UNL A   1      38.119  31.985  39.736  1.00  0.00    -0.237 OA
ATOM     73  O   UNL A   1      36.107  32.694  38.500  1.00  0.00    -0.744 OA
ENDBRANCH  66  70
ENDBRANCH  49  63
BRANCH  50  74
ATOM     74  C   UNL A   1      42.431  26.259  27.451  1.00  0.00     0.023 A 
ATOM     75  C   UNL A   1      42.056  24.913  27.321  1.00  0.00     0.031 A 
ATOM     76  C   UNL A   1      43.286  26.805  26.476  1.00  0.00     0.131 A 
ATOM     77  C   UNL A   1      42.571  24.143  26.266  1.00  0.00     0.055 A 
ATOM     78  C   UNL A   1      43.757  26.048  25.402  1.00  0.00     0.041 A 
ATOM     79  F   UNL A   1      43.664  28.091  26.549  1.00  0.00    -0.206 F 
ATOM     80  C   UNL A   1      43.410  24.705  25.300  1.00  0.00     0.022 A 
BRANCH  77  81
ATOM     81  S   UNL A   1      42.187  22.371  26.215  1.00  0.00     0.124 S 
ATOM     82  O   UNL A   1      40.732  22.384  26.127  1.00  0.00    -0.237 OA
ATOM     83  O   UNL A   1      42.900  21.942  25.015  1.00  0.00    -0.237 OA
ATOM     84  O   UNL A   1      42.733  21.869  27.473  1.00  0.00    -0.744 OA
ENDBRANCH  77  81
ENDBRANCH  50  74
BRANCH  62  85
ATOM     85  C   UNL A   1      44.901  27.308  33.879  1.00  0.00     0.023 A 
ATOM     86  C   UNL A   1      46.185  27.877  33.808  1.00  0.00     0.031 A 
ATOM     87  C   UNL A   1      44.743  26.122  34.617  1.00  0.00     0.131 A 
ATOM     88  C   UNL A   1      47.275  27.218  34.397  1.00  0.00     0.055 A 
ATOM     89  C   UNL A   1      45.820  25.508  35.258  1.00  0.00     0.041 A 
ATOM     90  F   UNL A   1      43.541  25.534  34.718  1.00  0.00    -0.206 F 
ATOM     91  C   UNL A   1      47.099  26.045  35.132  1.00  0.00     0.022 A 
BRANCH  88  92
ATOM     92  S   UNL A   1      48.946  27.848  34.076  1.00  0.00     0.124 S 
ATOM     93  O   UNL A   1      48.703  29.274  33.884  1.00  0.00    -0.237 OA
ATOM     94  O   UNL A   1      49.656  27.480  35.297  1.00  0.00    -0.237 OA
ATOM     95  O   UNL A   1      49.360  27.123  32.876  1.00  0.00    -0.744 OA
ENDBRANCH  88  92
ENDBRANCH  62  85
ENDBRANCH  36  37
ENDBRANCH  28  31
ENDBRANCH  26  27
ENDBRANCH  25  26
ENDBRANCH   1  25
TORSDOF 17
ENDMDL
MODEL 3
REMARK VINA RESULT:     -11.3      2.515      7.999
REMARK SMILES C[NH+]1CC[NH+]([C@]2(C(=O)NCCCCCCNC(=O)c3ccc(-c4c5nc(c(-c6cc(S(=O)(=O)[O-])ccc6F)c6ccc([nH]6)c(-c6cc(S(=O)(=O)[O-])ccc6F)c6nc(c(-c7cc(S(=O)(=O)[O-])ccc7F)c7ccc4[nH]7)C=C6)C=C5)cc3)CCCC2(C)C)CC1
REMARK SMILES IDX 13 1 12 2 11 3 10 4 9 5 7 6 8 7 6 9 82 10 85 11 83 12 84 13
REMARK SMILES IDX 86 14 87 15 5 16 1 17 2 18 3 19 89 20 4 22 88 23 14 25 15 26
REMARK SMILES IDX 16 27 17 28 18 30 19 31 20 32 81 33 21 34 80 35 22 36 23 37
REMARK SMILES IDX 24 38 74 39 25 40 79 41 73 42 75 43 26 44 78 45 72 46 71 47
REMARK SMILES IDX 27 49 59 50 39 51 58 52 40 53 43 54 57 55 76 56 41 57 42 58
REMARK SMILES IDX 56 60 77 61 44 62 28 63 29 64 37 65 30 66 36 67 38 68 35 69
REMARK SMILES IDX 31 70 32 71 33 72 34 73 60 74 61 75 69 76 62 77 68 78 70 79
REMARK SMILES IDX 67 80 63 81 64 82 65 83 66 84 45 85 46 86 54 87 47 88 53 89
REMARK SMILES IDX 55 90 52 91 48 92 49 93 50 94 51 95
REMARK H PARENT 9 8 2 21 5 24 16 29 75 48 43 59
REMARK Flexibility Score: inf
ROOT
ATOM      1  C   UNL A   1      31.276  31.208  25.908  1.00  0.00     0.002 C 
ENDROOT
BRANCH   1   2
ATOM      2  C   UNL A   1      32.249  30.043  26.122  1.00  0.00     0.002 C 
BRANCH   2   3
ATOM      3  C   UNL A   1      31.907  29.080  27.258  1.00  0.00     0.021 C 
BRANCH   3   4
ATOM      4  C   UNL A   1      32.448  27.657  27.102  1.00  0.00     0.116 C 
BRANCH   4   5
ATOM      5  N   UNL A   1      31.393  26.666  27.006  1.00  0.00    -0.351 N 
ATOM      6  C   UNL A   1      30.829  25.872  26.066  1.00  0.00     0.281 C 
ATOM      7  O   UNL A   1      29.816  25.307  26.531  1.00  0.00    -0.268 OA
ATOM      8  H   UNL A   1      30.959  26.533  27.880  1.00  0.00     0.163 HD
BRANCH   6   9
ATOM      9  C   UNL A   1      31.249  25.592  24.502  1.00  0.00     0.182 C 
ATOM     10  C   UNL A   1      29.843  25.503  23.818  1.00  0.00     0.080 C 
ATOM     11  C   UNL A   1      31.865  26.808  23.677  1.00  0.00     0.029 C 
ATOM     12  C   UNL A   1      29.439  26.960  23.528  1.00  0.00     0.008 C 
ATOM     13  C   UNL A   1      30.691  27.817  23.773  1.00  0.00     0.014 C 
ATOM     14  C   UNL A   1      33.258  27.216  24.184  1.00  0.00     0.018 C 
ATOM     15  C   UNL A   1      32.051  26.664  22.123  1.00  0.00     0.018 C 
BRANCH   9  16
ATOM     16  N   UNL A   1      32.053  24.294  24.473  1.00  0.00    -0.313 N 
ATOM     17  C   UNL A   1      32.773  20.018  25.202  1.00  0.00     0.333 C 
ATOM     18  N   UNL A   1      32.189  21.354  25.139  1.00  0.00    -0.328 N 
ATOM     19  C   UNL A   1      32.083  21.809  23.751  1.00  0.00     0.324 C 
ATOM     20  C   UNL A   1      33.011  22.338  25.857  1.00  0.00     0.324 C 
ATOM     21  H   UNL A   1      31.268  21.287  25.572  1.00  0.00     0.348 HD
ATOM     22  C   UNL A   1      31.461  23.220  23.651  1.00  0.00     0.325 C 
ATOM     23  C   UNL A   1      32.380  23.755  25.821  1.00  0.00     0.325 C 
ATOM     24  H   UNL A   1      32.920  24.587  24.023  1.00  0.00     0.349 HD
ENDBRANCH   9  16
ENDBRANCH   6   9
ENDBRANCH   4   5
ENDBRANCH   3   4
ENDBRANCH   2   3
ENDBRANCH   1   2
BRANCH   1  25
ATOM     25  C   UNL A   1      31.401  32.395  26.871  1.00  0.00     0.021 C 
BRANCH  25  26
ATOM     26  C   UNL A   1      32.821  32.820  27.239  1.00  0.00     0.116 C 
BRANCH  26  27
ATOM     27  N   UNL A   1      32.899  34.209  27.641  1.00  0.00    -0.352 N 
ATOM     28  C   UNL A   1      33.636  34.815  28.625  1.00  0.00     0.251 C 
ATOM     29  H   UNL A   1      32.328  34.820  27.121  1.00  0.00     0.163 HD
ATOM     30  O   UNL A   1      33.405  35.992  28.891  1.00  0.00    -0.269 OA
BRANCH  28  31
ATOM     31  C   UNL A   1      34.677  34.077  29.378  1.00  0.00     0.039 A 
ATOM     32  C   UNL A   1      36.015  34.307  29.044  1.00  0.00     0.014 A 
ATOM     33  C   UNL A   1      34.361  33.122  30.350  1.00  0.00     0.014 A 
ATOM     34  C   UNL A   1      37.031  33.612  29.703  1.00  0.00     0.010 A 
ATOM     35  C   UNL A   1      35.380  32.475  31.054  1.00  0.00     0.010 A 
ATOM     36  C   UNL A   1      36.725  32.704  30.729  1.00  0.00    -0.014 A 
BRANCH  36  37
ATOM     37  C   UNL A   1      37.817  31.999  31.449  1.00  0.00     0.031 A 
ATOM     38  C   UNL A   1      38.594  30.898  30.779  1.00  0.00     0.074 A 
ATOM     39  C   UNL A   1      38.105  32.354  32.717  1.00  0.00     0.049 A 
ATOM     40  N   UNL A   1      39.617  30.214  31.228  1.00  0.00    -0.248 NA
ATOM     41  C   UNL A   1      38.148  30.495  29.438  1.00  0.00     0.031 C 
ATOM     42  C   UNL A   1      37.381  33.365  33.492  1.00  0.00     0.029 A 
ATOM     43  N   UNL A   1      39.082  31.917  33.574  1.00  0.00    -0.354 N 
ATOM     44  C   UNL A   1      39.935  29.299  30.230  1.00  0.00     0.074 A 
ATOM     45  C   UNL A   1      38.953  29.476  29.178  1.00  0.00     0.031 C 
ATOM     46  C   UNL A   1      37.962  33.496  34.695  1.00  0.00     0.029 A 
ATOM     47  C   UNL A   1      39.080  32.564  34.788  1.00  0.00     0.049 A 
ATOM     48  H   UNL A   1      39.723  31.206  33.343  1.00  0.00     0.167 HD
ATOM     49  C   UNL A   1      40.961  28.412  30.183  1.00  0.00     0.034 A 
ATOM     50  C   UNL A   1      39.896  32.430  35.852  1.00  0.00     0.034 A 
ATOM     51  C   UNL A   1      41.932  28.254  31.241  1.00  0.00     0.049 A 
ATOM     52  C   UNL A   1      41.047  31.461  35.767  1.00  0.00     0.074 A 
ATOM     53  C   UNL A   1      43.038  27.422  31.281  1.00  0.00     0.029 A 
ATOM     54  N   UNL A   1      41.912  28.939  32.449  1.00  0.00    -0.354 N 
ATOM     55  N   UNL A   1      41.374  30.651  34.786  1.00  0.00    -0.248 NA
ATOM     56  C   UNL A   1      41.950  31.411  36.921  1.00  0.00     0.031 C 
ATOM     57  C   UNL A   1      43.650  27.560  32.534  1.00  0.00     0.029 A 
ATOM     58  C   UNL A   1      42.969  28.532  33.250  1.00  0.00     0.049 A 
ATOM     59  H   UNL A   1      41.242  29.616  32.702  1.00  0.00     0.167 HD
ATOM     60  C   UNL A   1      42.540  30.011  35.198  1.00  0.00     0.074 A 
ATOM     61  C   UNL A   1      42.869  30.553  36.502  1.00  0.00     0.031 C 
ATOM     62  C   UNL A   1      43.273  29.064  34.559  1.00  0.00     0.034 A 
BRANCH  49  63
ATOM     63  C   UNL A   1      41.061  27.531  28.958  1.00  0.00     0.023 A 
ATOM     64  C   UNL A   1      42.048  27.740  27.977  1.00  0.00     0.031 A 
ATOM     65  C   UNL A   1      40.142  26.488  28.751  1.00  0.00     0.131 A 
ATOM     66  C   UNL A   1      42.043  26.972  26.801  1.00  0.00     0.055 A 
ATOM     67  C   UNL A   1      40.193  25.673  27.617  1.00  0.00     0.041 A 
ATOM     68  F   UNL A   1      39.166  26.250  29.641  1.00  0.00    -0.206 F 
ATOM     69  C   UNL A   1      41.138  25.924  26.626  1.00  0.00     0.022 A 
BRANCH  66  70
ATOM     70  S   UNL A   1      43.142  27.458  25.443  1.00  0.00     0.124 S 
ATOM     71  O   UNL A   1      43.590  26.159  24.946  1.00  0.00    -0.237 OA
ATOM     72  O   UNL A   1      42.250  28.206  24.566  1.00  0.00    -0.237 OA
ATOM     73  O   UNL A   1      44.175  28.252  26.106  1.00  0.00    -0.744 OA
ENDBRANCH  66  70
ENDBRANCH  49  63
BRANCH  50  74
ATOM     74  C   UNL A   1      39.671  33.244  37.080  1.00  0.00     0.023 A 
ATOM     75  C   UNL A   1      38.933  32.737  38.161  1.00  0.00     0.031 A 
ATOM     76  C   UNL A   1      40.168  34.556  37.175  1.00  0.00     0.131 A 
ATOM     77  C   UNL A   1      38.673  33.553  39.273  1.00  0.00     0.055 A 
ATOM     78  C   UNL A   1      39.948  35.347  38.304  1.00  0.00     0.041 A 
ATOM     79  F   UNL A   1      40.890  35.083  36.173  1.00  0.00    -0.206 F 
ATOM     80  C   UNL A   1      39.185  34.851  39.357  1.00  0.00     0.022 A 
BRANCH  77  81
ATOM     81  S   UNL A   1      37.591  32.919  40.583  1.00  0.00     0.124 S 
ATOM     82  O   UNL A   1      36.312  32.816  39.889  1.00  0.00    -0.237 OA
ATOM     83  O   UNL A   1      38.238  31.656  40.924  1.00  0.00    -0.237 OA
ATOM     84  O   UNL A   1      37.662  33.951  41.613  1.00  0.00    -0.744 OA
ENDBRANCH  77  81
ENDBRANCH  50  74
BRANCH  62  85
ATOM     85  C   UNL A   1      44.520  28.584  35.263  1.00  0.00     0.023 A 
ATOM     86  C   UNL A   1      44.498  27.476  36.127  1.00  0.00     0.031 A 
ATOM     87  C   UNL A   1      45.734  29.278  35.108  1.00  0.00     0.131 A 
ATOM     88  C   UNL A   1      45.644  27.140  36.864  1.00  0.00     0.055 A 
ATOM     89  C   UNL A   1      46.889  28.897  35.793  1.00  0.00     0.041 A 
ATOM     90  F   UNL A   1      45.813  30.344  34.298  1.00  0.00    -0.206 F 
ATOM     91  C   UNL A   1      46.842  27.835  36.693  1.00  0.00     0.022 A 
BRANCH  88  92
ATOM     92  S   UNL A   1      45.508  25.864  38.147  1.00  0.00     0.124 S 
ATOM     93  O   UNL A   1      45.214  26.658  39.336  1.00  0.00    -0.237 OA
ATOM     94  O   UNL A   1      44.416  25.035  37.647  1.00  0.00    -0.237 OA
ATOM     95  O   UNL A   1      46.824  25.228  38.137  1.00  0.00    -0.744 OA
ENDBRANCH  88  92
ENDBRANCH  62  85
ENDBRANCH  36  37
ENDBRANCH  28  31
ENDBRANCH  26  27
ENDBRANCH  25  26
ENDBRANCH   1  25
TORSDOF 17
ENDMDL
