MODEL 1
REMARK VINA RESULT:     -11.9      0.000      0.000
REMARK SMILES CC1=C[C@H](C)[C@H](CN2C[C@@]34C=C[C@@H](O3)[C@H](C(=O)NCCCCCCNC(=O)c3ccc(-c5c6nc(c(-c7cc(S(=O)(=O)[O-])ccc7F)c7ccc([nH]7)c(-c7cc(S(=O)(=O)[O-])ccc7F)c7nc(c(-c8cc(S(=O)(=O)[O-])ccc8F)c8ccc5[nH]8)C=C7)C=C6)cc3)[C@@H]4C2=O)[C@H](C)C1
REMARK SMILES IDX 22 1 21 2 20 3 19 4 18 5 16 6 17 7 15 9 8 10 9 11 92 12
REMARK SMILES IDX 10 13 91 14 93 15 11 16 14 17 12 18 13 19 7 20 6 21 1 22
REMARK SMILES IDX 2 23 3 24 96 25 4 26 94 27 5 28 95 29 23 30 24 31 25 32
REMARK SMILES IDX 26 33 27 35 28 36 29 37 90 38 30 39 89 40 31 41 32 42 33 43
REMARK SMILES IDX 83 44 34 45 88 46 82 47 84 48 35 49 87 50 81 51 80 52 36 54
REMARK SMILES IDX 68 55 48 56 67 57 49 58 52 59 66 60 85 61 50 62 51 63 65 65
REMARK SMILES IDX 86 66 53 67 37 68 38 69 46 70 39 71 45 72 47 73 44 74 40 75
REMARK SMILES IDX 41 76 42 77 43 78 69 79 70 80 78 81 71 82 77 83 79 84 76 85
REMARK SMILES IDX 72 86 73 87 74 88 75 89 54 90 55 91 63 92 56 93 62 94 64 95
REMARK SMILES IDX 61 96 57 97 58 98 59 99 60 100
REMARK H PARENT 18 8 25 34 84 53 52 64
REMARK Flexibility Score: inf
ROOT
ATOM      1  C   UNL A   1      34.878  32.519  27.875  1.00  0.00     0.002 C 
ENDROOT
BRANCH   1   2
ATOM      2  C   UNL A   1      34.925  31.089  28.422  1.00  0.00     0.002 C 
BRANCH   2   3
ATOM      3  C   UNL A   1      35.477  30.034  27.452  1.00  0.00     0.021 C 
BRANCH   3   4
ATOM      4  C   UNL A   1      34.422  29.063  26.924  1.00  0.00     0.116 C 
BRANCH   4   5
ATOM      5  N   UNL A   1      34.229  29.263  25.504  1.00  0.00    -0.356 N 
ATOM      6  C   UNL A   1      33.509  28.631  24.562  1.00  0.00     0.227 C 
ATOM      7  O   UNL A   1      33.732  28.985  23.395  1.00  0.00    -0.275 OA
ATOM      8  H   UNL A   1      34.736  30.029  25.150  1.00  0.00     0.163 HD
BRANCH   6   9
ATOM      9  C   UNL A   1      32.463  27.571  24.794  1.00  0.00     0.127 C 
ATOM     10  N   UNL A   1      32.338  24.628  22.428  1.00  0.00    -0.339 N 
ATOM     11  C   UNL A   1      30.990  24.707  23.047  1.00  0.00     0.160 C 
ATOM     12  C   UNL A   1      33.076  25.824  22.736  1.00  0.00     0.230 C 
ATOM     13  C   UNL A   1      30.958  26.121  23.620  1.00  0.00     0.117 C 
ATOM     14  C   UNL A   1      32.432  26.301  23.983  1.00  0.00     0.132 C 
ATOM     15  O   UNL A   1      34.173  26.150  22.301  1.00  0.00    -0.274 OA
ATOM     16  C   UNL A   1      30.384  27.241  22.796  1.00  0.00     0.009 C 
ATOM     17  O   UNL A   1      30.416  26.482  24.904  1.00  0.00    -0.360 OA
ATOM     18  C   UNL A   1      30.382  28.323  23.587  1.00  0.00     0.004 C 
ATOM     19  C   UNL A   1      30.961  27.882  24.891  1.00  0.00     0.155 C 
BRANCH  10  20
ATOM     20  C   UNL A   1      33.181  23.457  22.582  1.00  0.00     0.124 C 
BRANCH  20  21
ATOM     21  C   UNL A   1      32.943  22.407  23.682  1.00  0.00     0.018 C 
ATOM     22  C   UNL A   1      34.275  18.275  24.837  1.00  0.00     0.039 C 
ATOM     23  C   UNL A   1      33.763  19.641  24.479  1.00  0.00    -0.077 C 
ATOM     24  C   UNL A   1      32.737  19.814  23.636  1.00  0.00    -0.025 C 
ATOM     25  C   UNL A   1      34.433  20.792  25.155  1.00  0.00     0.034 C 
ATOM     26  C   UNL A   1      32.155  21.137  23.218  1.00  0.00     0.014 C 
ATOM     27  C   UNL A   1      34.306  22.147  24.444  1.00  0.00    -0.005 C 
ATOM     28  C   UNL A   1      31.840  21.057  21.718  1.00  0.00     0.012 C 
ATOM     29  C   UNL A   1      35.592  22.409  23.628  1.00  0.00     0.008 C 
ENDBRANCH  20  21
ENDBRANCH  10  20
ENDBRANCH   6   9
ENDBRANCH   4   5
ENDBRANCH   3   4
ENDBRANCH   2   3
ENDBRANCH   1   2
BRANCH   1  30
ATOM     30  C   UNL A   1      33.532  33.229  28.026  1.00  0.00     0.021 C 
BRANCH  30  31
ATOM     31  C   UNL A   1      33.616  34.739  28.231  1.00  0.00     0.116 C 
BRANCH  31  32
ATOM     32  N   UNL A   1      32.978  35.174  29.463  1.00  0.00    -0.352 N 
ATOM     33  C   UNL A   1      33.321  34.886  30.762  1.00  0.00     0.251 C 
ATOM     34  H   UNL A   1      32.192  35.756  29.351  1.00  0.00     0.163 HD
ATOM     35  O   UNL A   1      32.590  35.234  31.683  1.00  0.00    -0.269 OA
BRANCH  33  36
ATOM     36  C   UNL A   1      34.557  34.123  31.034  1.00  0.00     0.039 A 
ATOM     37  C   UNL A   1      35.784  34.666  30.646  1.00  0.00     0.014 A 
ATOM     38  C   UNL A   1      34.506  32.892  31.696  1.00  0.00     0.014 A 
ATOM     39  C   UNL A   1      36.968  34.013  30.991  1.00  0.00     0.010 A 
ATOM     40  C   UNL A   1      35.689  32.268  32.083  1.00  0.00     0.010 A 
ATOM     41  C   UNL A   1      36.930  32.831  31.747  1.00  0.00    -0.014 A 
BRANCH  41  42
ATOM     42  C   UNL A   1      38.178  32.185  32.227  1.00  0.00     0.031 A 
ATOM     43  C   UNL A   1      38.819  31.090  31.425  1.00  0.00     0.074 A 
ATOM     44  C   UNL A   1      38.678  32.531  33.430  1.00  0.00     0.049 A 
ATOM     45  N   UNL A   1      39.842  30.334  31.728  1.00  0.00    -0.248 NA
ATOM     46  C   UNL A   1      38.211  30.790  30.121  1.00  0.00     0.031 C 
ATOM     47  C   UNL A   1      38.117  33.554  34.316  1.00  0.00     0.029 A 
ATOM     48  N   UNL A   1      39.757  32.045  34.125  1.00  0.00    -0.354 N 
ATOM     49  C   UNL A   1      39.997  29.459  30.658  1.00  0.00     0.074 A 
ATOM     50  C   UNL A   1      38.930  29.751  29.722  1.00  0.00     0.031 C 
ATOM     51  C   UNL A   1      38.859  33.621  35.434  1.00  0.00     0.029 A 
ATOM     52  C   UNL A   1      39.919  32.621  35.363  1.00  0.00     0.049 A 
ATOM     53  H   UNL A   1      40.358  31.351  33.771  1.00  0.00     0.167 HD
ATOM     54  C   UNL A   1      40.950  28.513  30.470  1.00  0.00     0.034 A 
ATOM     55  C   UNL A   1      40.807  32.357  36.342  1.00  0.00     0.034 A 
ATOM     56  C   UNL A   1      42.014  28.244  31.407  1.00  0.00     0.049 A 
ATOM     57  C   UNL A   1      41.832  31.276  36.125  1.00  0.00     0.074 A 
ATOM     58  C   UNL A   1      43.078  27.370  31.277  1.00  0.00     0.029 A 
ATOM     59  N   UNL A   1      42.138  28.836  32.658  1.00  0.00    -0.354 N 
ATOM     60  N   UNL A   1      41.999  30.495  35.084  1.00  0.00    -0.248 NA
ATOM     61  C   UNL A   1      42.788  31.044  37.215  1.00  0.00     0.031 C 
ATOM     62  C   UNL A   1      43.811  27.389  32.470  1.00  0.00     0.029 A 
ATOM     63  C   UNL A   1      43.238  28.317  33.323  1.00  0.00     0.049 A 
ATOM     64  H   UNL A   1      41.533  29.524  33.019  1.00  0.00     0.167 HD
ATOM     65  C   UNL A   1      43.088  29.686  35.390  1.00  0.00     0.074 A 
ATOM     66  C   UNL A   1      43.547  30.085  36.704  1.00  0.00     0.031 C 
ATOM     67  C   UNL A   1      43.661  28.703  34.648  1.00  0.00     0.034 A 
BRANCH  54  68
ATOM     68  C   UNL A   1      40.861  27.684  29.213  1.00  0.00     0.023 A 
ATOM     69  C   UNL A   1      41.758  27.865  28.146  1.00  0.00     0.031 A 
ATOM     70  C   UNL A   1      39.850  26.719  29.069  1.00  0.00     0.131 A 
ATOM     71  C   UNL A   1      41.584  27.143  26.955  1.00  0.00     0.055 A 
ATOM     72  C   UNL A   1      39.725  25.952  27.909  1.00  0.00     0.041 A 
ATOM     73  F   UNL A   1      38.955  26.516  30.048  1.00  0.00    -0.206 F 
ATOM     74  C   UNL A   1      40.586  26.172  26.837  1.00  0.00     0.022 A 
BRANCH  71  75
ATOM     75  S   UNL A   1      42.598  27.585  25.518  1.00  0.00     0.124 S 
ATOM     76  O   UNL A   1      42.448  26.401  24.676  1.00  0.00    -0.237 OA
ATOM     77  O   UNL A   1      41.948  28.798  25.036  1.00  0.00    -0.237 OA
ATOM     78  O   UNL A   1      43.932  27.773  26.084  1.00  0.00    -0.744 OA
ENDBRANCH  71  75
ENDBRANCH  54  68
BRANCH  55  79
ATOM     79  C   UNL A   1      40.746  33.099  37.631  1.00  0.00     0.023 A 
ATOM     80  C   UNL A   1      39.909  32.670  38.673  1.00  0.00     0.031 A 
ATOM     81  C   UNL A   1      41.500  34.269  37.825  1.00  0.00     0.131 A 
ATOM     82  C   UNL A   1      39.821  33.426  39.852  1.00  0.00     0.055 A 
ATOM     83  C   UNL A   1      41.440  34.996  39.015  1.00  0.00     0.041 A 
ATOM     84  F   UNL A   1      42.320  34.717  36.860  1.00  0.00    -0.206 F 
ATOM     85  C   UNL A   1      40.588  34.580  40.034  1.00  0.00     0.022 A 
BRANCH  82  86
ATOM     86  S   UNL A   1      38.637  32.911  41.126  1.00  0.00     0.124 S 
ATOM     87  O   UNL A   1      38.318  31.552  40.705  1.00  0.00    -0.237 OA
ATOM     88  O   UNL A   1      39.431  33.036  42.344  1.00  0.00    -0.237 OA
ATOM     89  O   UNL A   1      37.551  33.879  40.991  1.00  0.00    -0.744 OA
ENDBRANCH  82  86
ENDBRANCH  55  79
BRANCH  67  90
ATOM     90  C   UNL A   1      44.855  28.012  35.251  1.00  0.00     0.023 A 
ATOM     91  C   UNL A   1      44.711  26.860  36.043  1.00  0.00     0.031 A 
ATOM     92  C   UNL A   1      46.148  28.524  35.051  1.00  0.00     0.131 A 
ATOM     93  C   UNL A   1      45.839  26.281  36.644  1.00  0.00     0.055 A 
ATOM     94  C   UNL A   1      47.272  27.917  35.611  1.00  0.00     0.041 A 
ATOM     95  F   UNL A   1      46.338  29.626  34.305  1.00  0.00    -0.206 F 
ATOM     96  C   UNL A   1      47.119  26.795  36.422  1.00  0.00     0.022 A 
BRANCH  93  97
ATOM     97  S   UNL A   1      45.603  24.886  37.777  1.00  0.00     0.124 S 
ATOM     98  O   UNL A   1      44.575  25.397  38.679  1.00  0.00    -0.237 OA
ATOM     99  O   UNL A   1      45.186  23.816  36.877  1.00  0.00    -0.237 OA
ATOM    100  O   UNL A   1      46.923  24.706  38.381  1.00  0.00    -0.744 OA
ENDBRANCH  93  97
ENDBRANCH  67  90
ENDBRANCH  41  42
ENDBRANCH  33  36
ENDBRANCH  31  32
ENDBRANCH  30  31
ENDBRANCH   1  30
TORSDOF 18
ENDMDL
MODEL 2
REMARK VINA RESULT:     -11.8      1.616      2.444
REMARK SMILES CC1=C[C@H](C)[C@H](CN2C[C@@]34C=C[C@@H](O3)[C@H](C(=O)NCCCCCCNC(=O)c3ccc(-c5c6nc(c(-c7cc(S(=O)(=O)[O-])ccc7F)c7ccc([nH]7)c(-c7cc(S(=O)(=O)[O-])ccc7F)c7nc(c(-c8cc(S(=O)(=O)[O-])ccc8F)c8ccc5[nH]8)C=C7)C=C6)cc3)[C@@H]4C2=O)[C@H](C)C1
REMARK SMILES IDX 22 1 21 2 20 3 19 4 18 5 16 6 17 7 15 9 8 10 9 11 92 12
REMARK SMILES IDX 10 13 91 14 93 15 11 16 14 17 12 18 13 19 7 20 6 21 1 22
REMARK SMILES IDX 2 23 3 24 96 25 4 26 94 27 5 28 95 29 23 30 24 31 25 32
REMARK SMILES IDX 26 33 27 35 28 36 29 37 90 38 30 39 89 40 31 41 32 42 33 43
REMARK SMILES IDX 83 44 34 45 88 46 82 47 84 48 35 49 87 50 81 51 80 52 36 54
REMARK SMILES IDX 68 55 48 56 67 57 49 58 52 59 66 60 85 61 50 62 51 63 65 65
REMARK SMILES IDX 86 66 53 67 37 68 38 69 46 70 39 71 45 72 47 73 44 74 40 75
REMARK SMILES IDX 41 76 42 77 43 78 69 79 70 80 78 81 71 82 77 83 79 84 76 85
REMARK SMILES IDX 72 86 73 87 74 88 75 89 54 90 55 91 63 92 56 93 62 94 64 95
REMARK SMILES IDX 61 96 57 97 58 98 59 99 60 100
REMARK H PARENT 18 8 25 34 84 53 52 64
REMARK Flexibility Score: inf
ROOT
ATOM      1  C   UNL A   1      32.185  30.317  26.212  1.00  0.00     0.002 C 
ENDROOT
BRANCH   1   2
ATOM      2  C   UNL A   1      32.973  29.466  27.214  1.00  0.00     0.002 C 
BRANCH   2   3
ATOM      3  C   UNL A   1      32.477  28.021  27.376  1.00  0.00     0.021 C 
BRANCH   3   4
ATOM      4  C   UNL A   1      31.626  27.521  26.210  1.00  0.00     0.116 C 
BRANCH   4   5
ATOM      5  N   UNL A   1      30.687  26.522  26.672  1.00  0.00    -0.356 N 
ATOM      6  C   UNL A   1      30.186  25.396  26.138  1.00  0.00     0.227 C 
ATOM      7  O   UNL A   1      29.252  24.878  26.768  1.00  0.00    -0.275 OA
ATOM      8  H   UNL A   1      30.341  26.707  27.574  1.00  0.00     0.163 HD
BRANCH   6   9
ATOM      9  C   UNL A   1      30.661  24.710  24.882  1.00  0.00     0.127 C 
ATOM     10  N   UNL A   1      34.336  23.895  24.564  1.00  0.00    -0.339 N 
ATOM     11  C   UNL A   1      33.807  23.926  23.177  1.00  0.00     0.160 C 
ATOM     12  C   UNL A   1      33.354  24.442  25.462  1.00  0.00     0.230 C 
ATOM     13  C   UNL A   1      32.486  24.675  23.329  1.00  0.00     0.117 C 
ATOM     14  C   UNL A   1      32.080  24.227  24.733  1.00  0.00     0.132 C 
ATOM     15  O   UNL A   1      33.491  24.674  26.656  1.00  0.00    -0.274 OA
ATOM     16  C   UNL A   1      32.452  26.164  23.122  1.00  0.00     0.009 C 
ATOM     17  O   UNL A   1      31.254  24.325  22.672  1.00  0.00    -0.360 OA
ATOM     18  C   UNL A   1      31.163  26.523  23.206  1.00  0.00     0.004 C 
ATOM     19  C   UNL A   1      30.402  25.267  23.474  1.00  0.00     0.155 C 
BRANCH  10  20
ATOM     20  C   UNL A   1      34.929  22.697  25.128  1.00  0.00     0.124 C 
BRANCH  20  21
ATOM     21  C   UNL A   1      35.077  21.392  24.325  1.00  0.00     0.018 C 
ATOM     22  C   UNL A   1      35.214  16.949  24.978  1.00  0.00     0.039 C 
ATOM     23  C   UNL A   1      35.215  18.426  24.703  1.00  0.00    -0.077 C 
ATOM     24  C   UNL A   1      36.332  19.161  24.791  1.00  0.00    -0.025 C 
ATOM     25  C   UNL A   1      33.912  19.017  24.279  1.00  0.00     0.034 C 
ATOM     26  C   UNL A   1      36.433  20.641  24.537  1.00  0.00     0.014 C 
ATOM     27  C   UNL A   1      33.762  20.529  24.504  1.00  0.00    -0.005 C 
ATOM     28  C   UNL A   1      37.367  21.236  25.600  1.00  0.00     0.012 C 
ATOM     29  C   UNL A   1      32.976  20.768  25.814  1.00  0.00     0.008 C 
ENDBRANCH  20  21
ENDBRANCH  10  20
ENDBRANCH   6   9
ENDBRANCH   4   5
ENDBRANCH   3   4
ENDBRANCH   2   3
ENDBRANCH   1   2
BRANCH   1  30
ATOM     30  C   UNL A   1      31.786  31.706  26.713  1.00  0.00     0.021 C 
BRANCH  30  31
ATOM     31  C   UNL A   1      32.900  32.494  27.396  1.00  0.00     0.116 C 
BRANCH  31  32
ATOM     32  N   UNL A   1      32.536  33.879  27.645  1.00  0.00    -0.352 N 
ATOM     33  C   UNL A   1      33.075  34.767  28.543  1.00  0.00     0.251 C 
ATOM     34  H   UNL A   1      31.801  34.230  27.091  1.00  0.00     0.163 HD
ATOM     35  O   UNL A   1      32.556  35.866  28.712  1.00  0.00    -0.269 OA
BRANCH  33  36
ATOM     36  C   UNL A   1      34.262  34.372  29.330  1.00  0.00     0.039 A 
ATOM     37  C   UNL A   1      34.074  33.755  30.570  1.00  0.00     0.014 A 
ATOM     38  C   UNL A   1      35.552  34.582  28.833  1.00  0.00     0.014 A 
ATOM     39  C   UNL A   1      35.178  33.276  31.277  1.00  0.00     0.010 A 
ATOM     40  C   UNL A   1      36.647  34.059  29.516  1.00  0.00     0.010 A 
ATOM     41  C   UNL A   1      36.468  33.389  30.736  1.00  0.00    -0.014 A 
BRANCH  41  42
ATOM     42  C   UNL A   1      37.642  32.781  31.413  1.00  0.00     0.031 A 
ATOM     43  C   UNL A   1      38.347  31.608  30.796  1.00  0.00     0.074 A 
ATOM     44  C   UNL A   1      38.013  33.239  32.626  1.00  0.00     0.049 A 
ATOM     45  N   UNL A   1      39.316  30.877  31.282  1.00  0.00    -0.248 NA
ATOM     46  C   UNL A   1      37.881  31.188  29.467  1.00  0.00     0.031 C 
ATOM     47  C   UNL A   1      37.377  34.348  33.342  1.00  0.00     0.029 A 
ATOM     48  N   UNL A   1      38.999  32.814  33.480  1.00  0.00    -0.354 N 
ATOM     49  C   UNL A   1      39.571  29.901  30.325  1.00  0.00     0.074 A 
ATOM     50  C   UNL A   1      38.620  30.110  29.252  1.00  0.00     0.031 C 
ATOM     51  C   UNL A   1      37.992  34.517  34.524  1.00  0.00     0.029 A 
ATOM     52  C   UNL A   1      39.034  33.506  34.668  1.00  0.00     0.049 A 
ATOM     53  H   UNL A   1      39.622  32.084  33.264  1.00  0.00     0.167 HD
ATOM     54  C   UNL A   1      40.520  28.933  30.337  1.00  0.00     0.034 A 
ATOM     55  C   UNL A   1      39.803  33.330  35.761  1.00  0.00     0.034 A 
ATOM     56  C   UNL A   1      41.469  28.748  31.408  1.00  0.00     0.049 A 
ATOM     57  C   UNL A   1      40.825  32.225  35.765  1.00  0.00     0.074 A 
ATOM     58  C   UNL A   1      42.524  27.856  31.482  1.00  0.00     0.029 A 
ATOM     59  N   UNL A   1      41.466  29.457  32.602  1.00  0.00    -0.354 N 
ATOM     60  N   UNL A   1      41.090  31.345  34.828  1.00  0.00    -0.248 NA
ATOM     61  C   UNL A   1      41.650  32.092  36.972  1.00  0.00     0.031 C 
ATOM     62  C   UNL A   1      43.121  27.984  32.742  1.00  0.00     0.029 A 
ATOM     63  C   UNL A   1      42.475  28.996  33.433  1.00  0.00     0.049 A 
ATOM     64  H   UNL A   1      40.837  30.182  32.826  1.00  0.00     0.167 HD
ATOM     65  C   UNL A   1      42.124  30.560  35.330  1.00  0.00     0.074 A 
ATOM     66  C   UNL A   1      42.442  31.081  36.643  1.00  0.00     0.031 C 
ATOM     67  C   UNL A   1      42.756  29.505  34.754  1.00  0.00     0.034 A 
BRANCH  54  68
ATOM     68  C   UNL A   1      40.555  27.987  29.162  1.00  0.00     0.023 A 
ATOM     69  C   UNL A   1      41.494  28.132  28.126  1.00  0.00     0.031 A 
ATOM     70  C   UNL A   1      39.620  26.942  29.065  1.00  0.00     0.131 A 
ATOM     71  C   UNL A   1      41.433  27.292  27.003  1.00  0.00     0.055 A 
ATOM     72  C   UNL A   1      39.610  26.064  27.979  1.00  0.00     0.041 A 
ATOM     73  F   UNL A   1      38.690  26.767  30.015  1.00  0.00    -0.206 F 
ATOM     74  C   UNL A   1      40.511  26.245  26.933  1.00  0.00     0.022 A 
BRANCH  71  75
ATOM     75  S   UNL A   1      42.490  27.670  25.580  1.00  0.00     0.124 S 
ATOM     76  O   UNL A   1      42.287  26.493  24.739  1.00  0.00    -0.237 OA
ATOM     77  O   UNL A   1      41.917  28.916  25.084  1.00  0.00    -0.237 OA
ATOM     78  O   UNL A   1      43.825  27.787  26.165  1.00  0.00    -0.744 OA
ENDBRANCH  71  75
ENDBRANCH  54  68
BRANCH  55  79
ATOM     79  C   UNL A   1      39.614  34.195  36.958  1.00  0.00     0.023 A 
ATOM     80  C   UNL A   1      39.033  33.688  38.131  1.00  0.00     0.031 A 
ATOM     81  C   UNL A   1      39.982  35.551  36.933  1.00  0.00     0.131 A 
ATOM     82  C   UNL A   1      38.807  34.541  39.221  1.00  0.00     0.055 A 
ATOM     83  C   UNL A   1      39.790  36.387  38.034  1.00  0.00     0.041 A 
ATOM     84  F   UNL A   1      40.546  36.081  35.835  1.00  0.00    -0.206 F 
ATOM     85  C   UNL A   1      39.190  35.885  39.185  1.00  0.00     0.022 A 
BRANCH  82  86
ATOM     86  S   UNL A   1      37.941  33.883  40.673  1.00  0.00     0.124 S 
ATOM     87  O   UNL A   1      37.587  35.105  41.387  1.00  0.00    -0.237 OA
ATOM     88  O   UNL A   1      36.836  33.154  40.061  1.00  0.00    -0.237 OA
ATOM     89  O   UNL A   1      38.951  33.051  41.323  1.00  0.00    -0.744 OA
ENDBRANCH  82  86
ENDBRANCH  55  79
BRANCH  67  90
ATOM     90  C   UNL A   1      43.862  28.866  35.550  1.00  0.00     0.023 A 
ATOM     91  C   UNL A   1      43.631  27.728  36.343  1.00  0.00     0.031 A 
ATOM     92  C   UNL A   1      45.157  29.413  35.534  1.00  0.00     0.131 A 
ATOM     93  C   UNL A   1      44.669  27.199  37.123  1.00  0.00     0.055 A 
ATOM     94  C   UNL A   1      46.198  28.854  36.276  1.00  0.00     0.041 A 
ATOM     95  F   UNL A   1      45.428  30.503  34.796  1.00  0.00    -0.206 F 
ATOM     96  C   UNL A   1      45.954  27.747  37.084  1.00  0.00     0.022 A 
BRANCH  93  97
ATOM     97  S   UNL A   1      44.301  25.824  38.246  1.00  0.00     0.124 S 
ATOM     98  O   UNL A   1      45.435  24.933  38.017  1.00  0.00    -0.237 OA
ATOM     99  O   UNL A   1      44.261  26.483  39.547  1.00  0.00    -0.237 OA
ATOM    100  O   UNL A   1      43.014  25.324  37.767  1.00  0.00    -0.744 OA
ENDBRANCH  93  97
ENDBRANCH  67  90
ENDBRANCH  41  42
ENDBRANCH  33  36
ENDBRANCH  31  32
ENDBRANCH  30  31
ENDBRANCH   1  30
TORSDOF 18
ENDMDL
MODEL 3
REMARK VINA RESULT:     -11.6      0.693      7.502
REMARK SMILES CC1=C[C@H](C)[C@H](CN2C[C@@]34C=C[C@@H](O3)[C@H](C(=O)NCCCCCCNC(=O)c3ccc(-c5c6nc(c(-c7cc(S(=O)(=O)[O-])ccc7F)c7ccc([nH]7)c(-c7cc(S(=O)(=O)[O-])ccc7F)c7nc(c(-c8cc(S(=O)(=O)[O-])ccc8F)c8ccc5[nH]8)C=C7)C=C6)cc3)[C@@H]4C2=O)[C@H](C)C1
REMARK SMILES IDX 22 1 21 2 20 3 19 4 18 5 16 6 17 7 15 9 8 10 9 11 92 12
REMARK SMILES IDX 10 13 91 14 93 15 11 16 14 17 12 18 13 19 7 20 6 21 1 22
REMARK SMILES IDX 2 23 3 24 96 25 4 26 94 27 5 28 95 29 23 30 24 31 25 32
REMARK SMILES IDX 26 33 27 35 28 36 29 37 90 38 30 39 89 40 31 41 32 42 33 43
REMARK SMILES IDX 83 44 34 45 88 46 82 47 84 48 35 49 87 50 81 51 80 52 36 54
REMARK SMILES IDX 68 55 48 56 67 57 49 58 52 59 66 60 85 61 50 62 51 63 65 65
REMARK SMILES IDX 86 66 53 67 37 68 38 69 46 70 39 71 45 72 47 73 44 74 40 75
REMARK SMILES IDX 41 76 42 77 43 78 69 79 70 80 78 81 71 82 77 83 79 84 76 85
REMARK SMILES IDX 72 86 73 87 74 88 75 89 54 90 55 91 63 92 56 93 62 94 64 95
REMARK SMILES IDX 61 96 57 97 58 98 59 99 60 100
REMARK H PARENT 18 8 25 34 84 53 52 64
REMARK Flexibility Score: inf
ROOT
ATOM      1  C   UNL A   1      35.627  32.331  28.449  1.00  0.00     0.002 C 
ENDROOT
BRANCH   1   2
ATOM      2  C   UNL A   1      35.750  30.971  27.754  1.00  0.00     0.002 C 
BRANCH   2   3
ATOM      3  C   UNL A   1      34.417  30.276  27.435  1.00  0.00     0.021 C 
BRANCH   3   4
ATOM      4  C   UNL A   1      34.565  28.994  26.617  1.00  0.00     0.116 C 
BRANCH   4   5
ATOM      5  N   UNL A   1      34.179  29.234  25.243  1.00  0.00    -0.356 N 
ATOM      6  C   UNL A   1      33.361  28.606  24.382  1.00  0.00     0.227 C 
ATOM      7  O   UNL A   1      33.415  29.008  23.210  1.00  0.00    -0.275 OA
ATOM      8  H   UNL A   1      34.607  30.030  24.856  1.00  0.00     0.163 HD
BRANCH   6   9
ATOM      9  C   UNL A   1      32.392  27.499  24.709  1.00  0.00     0.127 C 
ATOM     10  N   UNL A   1      32.278  24.485  22.433  1.00  0.00    -0.339 N 
ATOM     11  C   UNL A   1      30.971  24.511  23.136  1.00  0.00     0.160 C 
ATOM     12  C   UNL A   1      32.968  25.728  22.661  1.00  0.00     0.230 C 
ATOM     13  C   UNL A   1      30.897  25.937  23.674  1.00  0.00     0.117 C 
ATOM     14  C   UNL A   1      32.379  26.206  23.935  1.00  0.00     0.132 C 
ATOM     15  O   UNL A   1      34.015  26.099  22.147  1.00  0.00    -0.274 OA
ATOM     16  C   UNL A   1      30.211  27.000  22.860  1.00  0.00     0.009 C 
ATOM     17  O   UNL A   1      30.420  26.307  24.980  1.00  0.00    -0.360 OA
ATOM     18  C   UNL A   1      30.201  28.104  23.620  1.00  0.00     0.004 C 
ATOM     19  C   UNL A   1      30.885  27.733  24.895  1.00  0.00     0.155 C 
BRANCH  10  20
ATOM     20  C   UNL A   1      33.193  23.366  22.562  1.00  0.00     0.124 C 
BRANCH  20  21
ATOM     21  C   UNL A   1      33.072  22.327  23.691  1.00  0.00     0.018 C 
ATOM     22  C   UNL A   1      34.604  18.249  24.790  1.00  0.00     0.039 C 
ATOM     23  C   UNL A   1      34.028  19.596  24.457  1.00  0.00    -0.077 C 
ATOM     24  C   UNL A   1      32.934  19.729  23.697  1.00  0.00    -0.025 C 
ATOM     25  C   UNL A   1      34.717  20.774  25.062  1.00  0.00     0.034 C 
ATOM     26  C   UNL A   1      32.285  21.030  23.308  1.00  0.00     0.014 C 
ATOM     27  C   UNL A   1      34.498  22.114  24.346  1.00  0.00    -0.005 C 
ATOM     28  C   UNL A   1      31.854  20.919  21.840  1.00  0.00     0.012 C 
ATOM     29  C   UNL A   1      35.707  22.397  23.426  1.00  0.00     0.008 C 
ENDBRANCH  20  21
ENDBRANCH  10  20
ENDBRANCH   6   9
ENDBRANCH   4   5
ENDBRANCH   3   4
ENDBRANCH   2   3
ENDBRANCH   1   2
BRANCH   1  30
ATOM     30  C   UNL A   1      34.372  33.131  28.095  1.00  0.00     0.021 C 
BRANCH  30  31
ATOM     31  C   UNL A   1      34.454  34.627  28.384  1.00  0.00     0.116 C 
BRANCH  31  32
ATOM     32  N   UNL A   1      33.523  35.051  29.416  1.00  0.00    -0.352 N 
ATOM     33  C   UNL A   1      33.565  34.814  30.768  1.00  0.00     0.251 C 
ATOM     34  H   UNL A   1      32.756  35.584  29.103  1.00  0.00     0.163 HD
ATOM     35  O   UNL A   1      32.621  35.138  31.481  1.00  0.00    -0.269 OA
BRANCH  33  36
ATOM     36  C   UNL A   1      34.740  34.130  31.349  1.00  0.00     0.039 A 
ATOM     37  C   UNL A   1      34.542  32.966  32.095  1.00  0.00     0.014 A 
ATOM     38  C   UNL A   1      36.032  34.620  31.131  1.00  0.00     0.014 A 
ATOM     39  C   UNL A   1      35.646  32.248  32.559  1.00  0.00     0.010 A 
ATOM     40  C   UNL A   1      37.131  33.876  31.550  1.00  0.00     0.010 A 
ATOM     41  C   UNL A   1      36.947  32.675  32.255  1.00  0.00    -0.014 A 
BRANCH  41  42
ATOM     42  C   UNL A   1      38.132  31.864  32.633  1.00  0.00     0.031 A 
ATOM     43  C   UNL A   1      38.894  32.179  33.888  1.00  0.00     0.074 A 
ATOM     44  C   UNL A   1      38.565  30.900  31.796  1.00  0.00     0.049 A 
ATOM     45  N   UNL A   1      40.010  31.659  34.329  1.00  0.00    -0.248 NA
ATOM     46  C   UNL A   1      38.340  33.237  34.744  1.00  0.00     0.031 C 
ATOM     47  C   UNL A   1      37.928  30.531  30.530  1.00  0.00     0.029 A 
ATOM     48  N   UNL A   1      39.655  30.070  31.873  1.00  0.00    -0.354 N 
ATOM     49  C   UNL A   1      40.300  32.333  35.510  1.00  0.00     0.074 A 
ATOM     50  C   UNL A   1      39.265  33.331  35.688  1.00  0.00     0.031 C 
ATOM     51  C   UNL A   1      38.637  29.547  29.951  1.00  0.00     0.029 A 
ATOM     52  C   UNL A   1      39.798  29.245  30.782  1.00  0.00     0.049 A 
ATOM     53  H   UNL A   1      40.276  30.066  32.637  1.00  0.00     0.167 HD
ATOM     54  C   UNL A   1      41.326  32.125  36.372  1.00  0.00     0.034 A 
ATOM     55  C   UNL A   1      40.767  28.361  30.474  1.00  0.00     0.034 A 
ATOM     56  C   UNL A   1      42.342  31.118  36.187  1.00  0.00     0.049 A 
ATOM     57  C   UNL A   1      41.916  28.175  31.429  1.00  0.00     0.074 A 
ATOM     58  C   UNL A   1      43.375  30.766  37.039  1.00  0.00     0.029 A 
ATOM     59  N   UNL A   1      42.463  30.310  35.064  1.00  0.00    -0.354 N 
ATOM     60  N   UNL A   1      42.146  28.782  32.569  1.00  0.00    -0.248 NA
ATOM     61  C   UNL A   1      42.932  27.184  31.054  1.00  0.00     0.031 C 
ATOM     62  C   UNL A   1      44.154  29.790  36.406  1.00  0.00     0.029 A 
ATOM     63  C   UNL A   1      43.575  29.490  35.184  1.00  0.00     0.049 A 
ATOM     64  H   UNL A   1      41.849  30.319  34.294  1.00  0.00     0.167 HD
ATOM     65  C   UNL A   1      43.330  28.236  33.055  1.00  0.00     0.074 A 
ATOM     66  C   UNL A   1      43.756  27.242  32.091  1.00  0.00     0.031 C 
ATOM     67  C   UNL A   1      44.003  28.528  34.197  1.00  0.00     0.034 A 
BRANCH  54  68
ATOM     68  C   UNL A   1      41.409  33.029  37.578  1.00  0.00     0.023 A 
ATOM     69  C   UNL A   1      40.751  32.716  38.780  1.00  0.00     0.031 A 
ATOM     70  C   UNL A   1      42.134  34.232  37.514  1.00  0.00     0.131 A 
ATOM     71  C   UNL A   1      40.772  33.629  39.846  1.00  0.00     0.055 A 
ATOM     72  C   UNL A   1      42.210  35.102  38.604  1.00  0.00     0.041 A 
ATOM     73  F   UNL A   1      42.766  34.589  36.386  1.00  0.00    -0.206 F 
ATOM     74  C   UNL A   1      41.515  34.810  39.774  1.00  0.00     0.022 A 
BRANCH  71  75
ATOM     75  S   UNL A   1      39.707  33.311  41.279  1.00  0.00     0.124 S 
ATOM     76  O   UNL A   1      39.215  31.966  40.989  1.00  0.00    -0.237 OA
ATOM     77  O   UNL A   1      40.640  33.423  42.395  1.00  0.00    -0.237 OA
ATOM     78  O   UNL A   1      38.700  34.366  41.199  1.00  0.00    -0.744 OA
ENDBRANCH  71  75
ENDBRANCH  54  68
BRANCH  55  79
ATOM     79  C   UNL A   1      40.717  27.611  29.189  1.00  0.00     0.023 A 
ATOM     80  C   UNL A   1      41.609  27.904  28.146  1.00  0.00     0.031 A 
ATOM     81  C   UNL A   1      39.752  26.611  28.976  1.00  0.00     0.131 A 
ATOM     82  C   UNL A   1      41.496  27.227  26.923  1.00  0.00     0.055 A 
ATOM     83  C   UNL A   1      39.670  25.912  27.770  1.00  0.00     0.041 A 
ATOM     84  F   UNL A   1      38.880  26.290  29.946  1.00  0.00    -0.206 F 
ATOM     85  C   UNL A   1      40.540  26.226  26.731  1.00  0.00     0.022 A 
BRANCH  82  86
ATOM     86  S   UNL A   1      42.583  27.718  25.556  1.00  0.00     0.124 S 
ATOM     87  O   UNL A   1      43.837  27.983  26.252  1.00  0.00    -0.237 OA
ATOM     88  O   UNL A   1      42.558  26.531  24.708  1.00  0.00    -0.237 OA
ATOM     89  O   UNL A   1      41.918  28.894  24.998  1.00  0.00    -0.744 OA
ENDBRANCH  82  86
ENDBRANCH  55  79
BRANCH  67  90
ATOM     90  C   UNL A   1      45.261  27.743  34.458  1.00  0.00     0.023 A 
ATOM     91  C   UNL A   1      45.219  26.469  35.050  1.00  0.00     0.031 A 
ATOM     92  C   UNL A   1      46.517  28.284  34.132  1.00  0.00     0.131 A 
ATOM     93  C   UNL A   1      46.414  25.794  35.339  1.00  0.00     0.055 A 
ATOM     94  C   UNL A   1      47.701  27.588  34.379  1.00  0.00     0.041 A 
ATOM     95  F   UNL A   1      46.611  29.500  33.569  1.00  0.00    -0.206 F 
ATOM     96  C   UNL A   1      47.654  26.341  34.995  1.00  0.00     0.022 A 
BRANCH  93  97
ATOM     97  S   UNL A   1      46.332  24.221  36.236  1.00  0.00     0.124 S 
ATOM     98  O   UNL A   1      47.411  23.460  35.613  1.00  0.00    -0.237 OA
ATOM     99  O   UNL A   1      46.557  24.633  37.617  1.00  0.00    -0.237 OA
ATOM    100  O   UNL A   1      44.984  23.732  35.949  1.00  0.00    -0.744 OA
ENDBRANCH  93  97
ENDBRANCH  67  90
ENDBRANCH  41  42
ENDBRANCH  33  36
ENDBRANCH  31  32
ENDBRANCH  30  31
ENDBRANCH   1  30
TORSDOF 18
ENDMDL
