MODEL 1
REMARK VINA RESULT:     -12.3      0.000      0.000
REMARK SMILES Cc1nn(C)cc1-c1cc(C(=O)NCCCCCCNC(=O)c2ccc(-c3c4nc(c(-c5cc(S(=O)(=O)[O-])ccc5F)c5ccc([nH]5)c(-c5cc(S(=O)(=O)[O-])ccc5F)c5nc(c(-c6cc(S(=O)(=O)[O-])ccc6F)c6ccc3[nH]6)C=C5)C=C4)cc2)n2nc(C)c(Br)c2n1
REMARK SMILES IDX 17 1 16 2 15 3 14 4 13 5 11 6 12 7 10 9 8 10 9 11 93 12
REMARK SMILES IDX 92 13 86 14 90 15 87 16 88 17 91 18 89 19 7 20 1 21 2 22
REMARK SMILES IDX 3 23 4 24 6 25 5 26 18 27 19 28 20 29 21 30 22 32 23 33
REMARK SMILES IDX 24 34 85 35 25 36 84 37 26 38 27 39 28 40 78 41 29 42 83 43
REMARK SMILES IDX 77 44 79 45 30 46 82 47 76 48 75 49 31 51 63 52 43 53 62 54
REMARK SMILES IDX 44 55 47 56 61 57 80 58 45 59 46 60 60 62 81 63 48 64 32 65
REMARK SMILES IDX 33 66 41 67 34 68 40 69 42 70 39 71 35 72 36 73 37 74 38 75
REMARK SMILES IDX 64 76 65 77 73 78 66 79 72 80 74 81 71 82 67 83 68 84 69 85
REMARK SMILES IDX 70 86 49 87 50 88 58 89 51 90 57 91 59 92 56 93 52 94 53 95
REMARK SMILES IDX 54 96 55 97
REMARK H PARENT 13 8 20 31 79 50 47 61
REMARK Flexibility Score: inf
ROOT
ATOM      1  C   UNL A   1      33.557  30.464  26.968  1.00  0.00     0.002 C 
ENDROOT
BRANCH   1   2
ATOM      2  C   UNL A   1      33.727  28.962  27.234  1.00  0.00     0.002 C 
BRANCH   2   3
ATOM      3  C   UNL A   1      33.705  28.082  25.976  1.00  0.00     0.021 C 
BRANCH   3   4
ATOM      4  C   UNL A   1      33.682  26.577  26.280  1.00  0.00     0.116 C 
BRANCH   4   5
ATOM      5  N   UNL A   1      32.330  26.138  26.592  1.00  0.00    -0.351 N 
ATOM      6  C   UNL A   1      31.133  26.153  25.941  1.00  0.00     0.270 C 
ATOM      7  O   UNL A   1      30.174  25.735  26.593  1.00  0.00    -0.268 OA
ATOM      8  H   UNL A   1      32.265  25.732  27.486  1.00  0.00     0.163 HD
BRANCH   6   9
ATOM      9  C   UNL A   1      30.963  26.603  24.523  1.00  0.00     0.134 A 
ATOM     10  C   UNL A   1      30.010  27.943  22.764  1.00  0.00     0.079 A 
ATOM     11  C   UNL A   1      30.018  27.498  24.180  1.00  0.00     0.063 A 
ATOM     12  N   UNL A   1      30.676  27.419  21.786  1.00  0.00    -0.227 NA
ATOM     13  C   UNL A   1      31.505  26.387  22.137  1.00  0.00     0.171 A 
ATOM     14  N   UNL A   1      31.718  26.010  23.482  1.00  0.00    -0.208 N 
ATOM     15  C   UNL A   1      32.253  25.516  21.385  1.00  0.00     0.085 A 
ATOM     16  N   UNL A   1      32.669  25.032  23.551  1.00  0.00    -0.170 NA
ATOM     17  C   UNL A   1      32.922  24.679  22.288  1.00  0.00     0.076 A 
ATOM     18  Br  UNL A   1      32.362  25.425  19.517  1.00  0.00    -0.045 Br
ATOM     19  C   UNL A   1      33.815  23.529  22.004  1.00  0.00     0.070 C 
BRANCH  10  20
ATOM     20  C   UNL A   1      29.180  29.098  22.540  1.00  0.00     0.041 A 
ATOM     21  C   UNL A   1      26.844  28.345  23.483  1.00  0.00     0.069 C 
ATOM     22  C   UNL A   1      27.795  29.274  22.823  1.00  0.00     0.069 A 
ATOM     23  N   UNL A   1      27.355  30.467  22.407  1.00  0.00    -0.178 NA
ATOM     24  N   UNL A   1      28.441  31.051  21.869  1.00  0.00    -0.275 N 
ATOM     25  C   UNL A   1      29.569  30.291  21.967  1.00  0.00     0.119 A 
ATOM     26  C   UNL A   1      28.311  32.343  21.235  1.00  0.00     0.173 C 
ENDBRANCH  10  20
ENDBRANCH   6   9
ENDBRANCH   4   5
ENDBRANCH   3   4
ENDBRANCH   2   3
ENDBRANCH   1   2
BRANCH   1  27
ATOM     27  C   UNL A   1      34.051  31.401  28.086  1.00  0.00     0.021 C 
BRANCH  27  28
ATOM     28  C   UNL A   1      35.052  32.481  27.642  1.00  0.00     0.116 C 
BRANCH  28  29
ATOM     29  N   UNL A   1      35.052  33.580  28.592  1.00  0.00    -0.352 N 
ATOM     30  C   UNL A   1      35.354  33.580  29.926  1.00  0.00     0.251 C 
ATOM     31  H   UNL A   1      34.794  34.455  28.220  1.00  0.00     0.163 HD
ATOM     32  O   UNL A   1      34.745  34.357  30.661  1.00  0.00    -0.269 OA
BRANCH  30  33
ATOM     33  C   UNL A   1      36.426  32.727  30.489  1.00  0.00     0.039 A 
ATOM     34  C   UNL A   1      37.617  32.612  29.763  1.00  0.00     0.014 A 
ATOM     35  C   UNL A   1      36.210  31.901  31.596  1.00  0.00     0.014 A 
ATOM     36  C   UNL A   1      38.588  31.686  30.144  1.00  0.00     0.010 A 
ATOM     37  C   UNL A   1      37.185  30.970  31.975  1.00  0.00     0.010 A 
ATOM     38  C   UNL A   1      38.382  30.855  31.254  1.00  0.00    -0.014 A 
BRANCH  38  39
ATOM     39  C   UNL A   1      39.485  29.957  31.665  1.00  0.00     0.031 A 
ATOM     40  C   UNL A   1      39.519  28.613  31.008  1.00  0.00     0.074 A 
ATOM     41  C   UNL A   1      40.644  30.444  32.161  1.00  0.00     0.049 A 
ATOM     42  N   UNL A   1      40.022  28.414  29.825  1.00  0.00    -0.248 NA
ATOM     43  C   UNL A   1      38.766  27.473  31.528  1.00  0.00     0.031 C 
ATOM     44  C   UNL A   1      41.269  31.682  31.678  1.00  0.00     0.029 A 
ATOM     45  N   UNL A   1      41.605  29.864  32.957  1.00  0.00    -0.354 N 
ATOM     46  C   UNL A   1      39.623  27.154  29.413  1.00  0.00     0.074 A 
ATOM     47  C   UNL A   1      38.848  26.607  30.505  1.00  0.00     0.031 C 
ATOM     48  C   UNL A   1      42.566  31.684  32.050  1.00  0.00     0.029 A 
ATOM     49  C   UNL A   1      42.824  30.540  32.920  1.00  0.00     0.049 A 
ATOM     50  H   UNL A   1      41.448  29.056  33.496  1.00  0.00     0.167 HD
ATOM     51  C   UNL A   1      39.950  26.628  28.201  1.00  0.00     0.034 A 
ATOM     52  C   UNL A   1      44.041  29.952  33.095  1.00  0.00     0.034 A 
ATOM     53  C   UNL A   1      40.825  27.434  27.401  1.00  0.00     0.049 A 
ATOM     54  C   UNL A   1      44.181  29.207  31.786  1.00  0.00     0.074 A 
ATOM     55  C   UNL A   1      40.737  28.300  26.335  1.00  0.00     0.029 A 
ATOM     56  N   UNL A   1      42.161  27.431  27.734  1.00  0.00    -0.354 N 
ATOM     57  N   UNL A   1      44.501  29.732  30.630  1.00  0.00    -0.248 NA
ATOM     58  C   UNL A   1      43.569  27.882  31.703  1.00  0.00     0.031 C 
ATOM     59  C   UNL A   1      41.925  29.098  26.392  1.00  0.00     0.029 A 
ATOM     60  C   UNL A   1      42.643  28.696  27.520  1.00  0.00     0.049 A 
ATOM     61  H   UNL A   1      42.676  26.661  28.065  1.00  0.00     0.167 HD
ATOM     62  C   UNL A   1      43.856  28.942  29.671  1.00  0.00     0.074 A 
ATOM     63  C   UNL A   1      43.317  27.812  30.404  1.00  0.00     0.031 C 
ATOM     64  C   UNL A   1      43.628  29.326  28.381  1.00  0.00     0.034 A 
BRANCH  51  65
ATOM     65  C   UNL A   1      39.658  25.238  27.781  1.00  0.00     0.023 A 
ATOM     66  C   UNL A   1      38.522  24.882  27.039  1.00  0.00     0.031 A 
ATOM     67  C   UNL A   1      40.667  24.277  27.978  1.00  0.00     0.131 A 
ATOM     68  C   UNL A   1      38.439  23.587  26.498  1.00  0.00     0.055 A 
ATOM     69  C   UNL A   1      40.587  23.002  27.428  1.00  0.00     0.041 A 
ATOM     70  F   UNL A   1      41.772  24.595  28.675  1.00  0.00    -0.206 F 
ATOM     71  C   UNL A   1      39.472  22.655  26.676  1.00  0.00     0.022 A 
BRANCH  68  72
ATOM     72  S   UNL A   1      37.017  23.066  25.496  1.00  0.00     0.124 S 
ATOM     73  O   UNL A   1      37.182  23.865  24.281  1.00  0.00    -0.237 OA
ATOM     74  O   UNL A   1      37.272  21.634  25.336  1.00  0.00    -0.237 OA
ATOM     75  O   UNL A   1      35.864  23.405  26.314  1.00  0.00    -0.744 OA
ENDBRANCH  68  72
ENDBRANCH  51  65
BRANCH  52  76
ATOM     76  C   UNL A   1      44.240  29.336  34.452  1.00  0.00     0.023 A 
ATOM     77  C   UNL A   1      43.542  28.234  34.966  1.00  0.00     0.031 A 
ATOM     78  C   UNL A   1      45.181  29.946  35.317  1.00  0.00     0.131 A 
ATOM     79  C   UNL A   1      43.653  27.897  36.328  1.00  0.00     0.055 A 
ATOM     80  C   UNL A   1      45.331  29.572  36.655  1.00  0.00     0.041 A 
ATOM     81  F   UNL A   1      45.967  30.940  34.871  1.00  0.00    -0.206 F 
ATOM     82  C   UNL A   1      44.538  28.561  37.177  1.00  0.00     0.022 A 
BRANCH  79  83
ATOM     83  S   UNL A   1      42.586  26.615  37.047  1.00  0.00     0.124 S 
ATOM     84  O   UNL A   1      43.159  26.436  38.379  1.00  0.00    -0.237 OA
ATOM     85  O   UNL A   1      41.282  27.270  37.003  1.00  0.00    -0.237 OA
ATOM     86  O   UNL A   1      42.757  25.488  36.137  1.00  0.00    -0.744 OA
ENDBRANCH  79  83
ENDBRANCH  52  76
BRANCH  64  87
ATOM     87  C   UNL A   1      44.286  30.589  27.912  1.00  0.00     0.023 A 
ATOM     88  C   UNL A   1      43.802  31.850  28.314  1.00  0.00     0.031 A 
ATOM     89  C   UNL A   1      45.296  30.541  26.940  1.00  0.00     0.131 A 
ATOM     90  C   UNL A   1      44.268  33.010  27.681  1.00  0.00     0.055 A 
ATOM     91  C   UNL A   1      45.801  31.705  26.356  1.00  0.00     0.041 A 
ATOM     92  F   UNL A   1      45.763  29.363  26.494  1.00  0.00    -0.206 F 
ATOM     93  C   UNL A   1      45.274  32.944  26.712  1.00  0.00     0.022 A 
BRANCH  90  94
ATOM     94  S   UNL A   1      43.524  34.627  28.031  1.00  0.00     0.124 S 
ATOM     95  O   UNL A   1      42.978  35.015  26.732  1.00  0.00    -0.237 OA
ATOM     96  O   UNL A   1      42.529  34.286  29.045  1.00  0.00    -0.237 OA
ATOM     97  O   UNL A   1      44.642  35.438  28.499  1.00  0.00    -0.744 OA
ENDBRANCH  90  94
ENDBRANCH  64  87
ENDBRANCH  38  39
ENDBRANCH  30  33
ENDBRANCH  28  29
ENDBRANCH  27  28
ENDBRANCH   1  27
TORSDOF 17
ENDMDL
MODEL 2
REMARK VINA RESULT:     -11.8      2.786      7.973
REMARK SMILES Cc1nn(C)cc1-c1cc(C(=O)NCCCCCCNC(=O)c2ccc(-c3c4nc(c(-c5cc(S(=O)(=O)[O-])ccc5F)c5ccc([nH]5)c(-c5cc(S(=O)(=O)[O-])ccc5F)c5nc(c(-c6cc(S(=O)(=O)[O-])ccc6F)c6ccc3[nH]6)C=C5)C=C4)cc2)n2nc(C)c(Br)c2n1
REMARK SMILES IDX 17 1 16 2 15 3 14 4 13 5 11 6 12 7 10 9 8 10 9 11 93 12
REMARK SMILES IDX 92 13 86 14 90 15 87 16 88 17 91 18 89 19 7 20 1 21 2 22
REMARK SMILES IDX 3 23 4 24 6 25 5 26 18 27 19 28 20 29 21 30 22 32 23 33
REMARK SMILES IDX 24 34 85 35 25 36 84 37 26 38 27 39 28 40 78 41 29 42 83 43
REMARK SMILES IDX 77 44 79 45 30 46 82 47 76 48 75 49 31 51 63 52 43 53 62 54
REMARK SMILES IDX 44 55 47 56 61 57 80 58 45 59 46 60 60 62 81 63 48 64 32 65
REMARK SMILES IDX 33 66 41 67 34 68 40 69 42 70 39 71 35 72 36 73 37 74 38 75
REMARK SMILES IDX 64 76 65 77 73 78 66 79 72 80 74 81 71 82 67 83 68 84 69 85
REMARK SMILES IDX 70 86 49 87 50 88 58 89 51 90 57 91 59 92 56 93 52 94 53 95
REMARK SMILES IDX 54 96 55 97
REMARK H PARENT 13 8 20 31 79 50 47 61
REMARK Flexibility Score: inf
ROOT
ATOM      1  C   UNL A   1      35.815  21.153  25.201  1.00  0.00     0.002 C 
ENDROOT
BRANCH   1   2
ATOM      2  C   UNL A   1      35.319  22.066  26.330  1.00  0.00     0.002 C 
BRANCH   2   3
ATOM      3  C   UNL A   1      34.036  21.588  27.025  1.00  0.00     0.021 C 
BRANCH   3   4
ATOM      4  C   UNL A   1      33.430  22.626  27.979  1.00  0.00     0.116 C 
BRANCH   4   5
ATOM      5  N   UNL A   1      31.975  22.584  27.925  1.00  0.00    -0.351 N 
ATOM      6  C   UNL A   1      31.018  23.159  27.143  1.00  0.00     0.270 C 
ATOM      7  O   UNL A   1      29.856  22.917  27.473  1.00  0.00    -0.268 OA
ATOM      8  H   UNL A   1      31.592  21.998  28.618  1.00  0.00     0.163 HD
BRANCH   6   9
ATOM      9  C   UNL A   1      31.320  23.999  25.941  1.00  0.00     0.134 A 
ATOM     10  C   UNL A   1      31.421  26.054  24.692  1.00  0.00     0.079 A 
ATOM     11  C   UNL A   1      30.982  25.300  25.893  1.00  0.00     0.063 A 
ATOM     12  N   UNL A   1      31.914  25.556  23.604  1.00  0.00    -0.227 NA
ATOM     13  C   UNL A   1      32.086  24.198  23.616  1.00  0.00     0.171 A 
ATOM     14  N   UNL A   1      31.868  23.416  24.773  1.00  0.00    -0.208 N 
ATOM     15  C   UNL A   1      32.448  23.312  22.632  1.00  0.00     0.085 A 
ATOM     16  N   UNL A   1      32.219  22.118  24.535  1.00  0.00    -0.170 NA
ATOM     17  C   UNL A   1      32.482  22.044  23.227  1.00  0.00     0.076 A 
ATOM     18  Br  UNL A   1      32.812  23.690  20.834  1.00  0.00    -0.045 Br
ATOM     19  C   UNL A   1      32.760  20.728  22.600  1.00  0.00     0.070 C 
BRANCH  10  20
ATOM     20  C   UNL A   1      31.285  27.480  24.841  1.00  0.00     0.041 A 
ATOM     21  C   UNL A   1      29.918  28.174  22.705  1.00  0.00     0.069 C 
ATOM     22  C   UNL A   1      30.658  28.416  23.969  1.00  0.00     0.069 A 
ATOM     23  N   UNL A   1      30.795  29.671  24.412  1.00  0.00    -0.178 NA
ATOM     24  N   UNL A   1      31.496  29.545  25.553  1.00  0.00    -0.275 N 
ATOM     25  C   UNL A   1      31.772  28.249  25.877  1.00  0.00     0.119 A 
ATOM     26  C   UNL A   1      31.904  30.731  26.270  1.00  0.00     0.173 C 
ENDBRANCH  10  20
ENDBRANCH   6   9
ENDBRANCH   4   5
ENDBRANCH   3   4
ENDBRANCH   2   3
ENDBRANCH   1   2
BRANCH   1  27
ATOM     27  C   UNL A   1      37.258  21.402  24.725  1.00  0.00     0.021 C 
BRANCH  27  28
ATOM     28  C   UNL A   1      38.093  22.333  25.620  1.00  0.00     0.116 C 
BRANCH  28  29
ATOM     29  N   UNL A   1      39.025  21.552  26.417  1.00  0.00    -0.352 N 
ATOM     30  C   UNL A   1      40.333  21.804  26.725  1.00  0.00     0.251 C 
ATOM     31  H   UNL A   1      38.659  20.717  26.789  1.00  0.00     0.163 HD
ATOM     32  O   UNL A   1      41.098  20.846  26.842  1.00  0.00    -0.269 OA
BRANCH  30  33
ATOM     33  C   UNL A   1      40.830  23.175  26.982  1.00  0.00     0.039 A 
ATOM     34  C   UNL A   1      40.182  23.930  27.967  1.00  0.00     0.014 A 
ATOM     35  C   UNL A   1      41.775  23.787  26.153  1.00  0.00     0.014 A 
ATOM     36  C   UNL A   1      40.481  25.283  28.127  1.00  0.00     0.010 A 
ATOM     37  C   UNL A   1      42.072  25.146  26.315  1.00  0.00     0.010 A 
ATOM     38  C   UNL A   1      41.429  25.905  27.303  1.00  0.00    -0.014 A 
BRANCH  38  39
ATOM     39  C   UNL A   1      41.772  27.318  27.581  1.00  0.00     0.031 A 
ATOM     40  C   UNL A   1      40.618  28.244  27.801  1.00  0.00     0.074 A 
ATOM     41  C   UNL A   1      42.965  27.664  28.112  1.00  0.00     0.049 A 
ATOM     42  N   UNL A   1      39.996  28.346  28.939  1.00  0.00    -0.248 NA
ATOM     43  C   UNL A   1      39.936  28.915  26.695  1.00  0.00     0.031 C 
ATOM     44  C   UNL A   1      43.659  26.857  29.125  1.00  0.00     0.029 A 
ATOM     45  N   UNL A   1      43.662  28.850  28.085  1.00  0.00    -0.354 N 
ATOM     46  C   UNL A   1      38.824  29.046  28.709  1.00  0.00     0.074 A 
ATOM     47  C   UNL A   1      38.832  29.380  27.301  1.00  0.00     0.031 C 
ATOM     48  C   UNL A   1      44.575  27.634  29.741  1.00  0.00     0.029 A 
ATOM     49  C   UNL A   1      44.643  28.930  29.072  1.00  0.00     0.049 A 
ATOM     50  H   UNL A   1      43.485  29.568  27.435  1.00  0.00     0.167 HD
ATOM     51  C   UNL A   1      37.912  29.313  29.683  1.00  0.00     0.034 A 
ATOM     52  C   UNL A   1      45.062  30.088  29.655  1.00  0.00     0.034 A 
ATOM     53  C   UNL A   1      38.289  28.900  31.004  1.00  0.00     0.049 A 
ATOM     54  C   UNL A   1      43.869  30.407  30.528  1.00  0.00     0.074 A 
ATOM     55  C   UNL A   1      38.028  27.864  31.871  1.00  0.00     0.029 A 
ATOM     56  N   UNL A   1      39.197  29.689  31.673  1.00  0.00    -0.354 N 
ATOM     57  N   UNL A   1      43.572  29.836  31.668  1.00  0.00    -0.248 NA
ATOM     58  C   UNL A   1      42.764  31.138  29.908  1.00  0.00     0.031 C 
ATOM     59  C   UNL A   1      39.122  27.854  32.795  1.00  0.00     0.029 A 
ATOM     60  C   UNL A   1      40.007  28.859  32.403  1.00  0.00     0.049 A 
ATOM     61  H   UNL A   1      39.254  30.670  31.633  1.00  0.00     0.167 HD
ATOM     62  C   UNL A   1      42.175  29.878  31.752  1.00  0.00     0.074 A 
ATOM     63  C   UNL A   1      41.748  30.709  30.643  1.00  0.00     0.031 C 
ATOM     64  C   UNL A   1      41.428  29.098  32.587  1.00  0.00     0.034 A 
BRANCH  51  65
ATOM     65  C   UNL A   1      36.717  30.170  29.506  1.00  0.00     0.023 A 
ATOM     66  C   UNL A   1      36.494  31.341  30.245  1.00  0.00     0.031 A 
ATOM     67  C   UNL A   1      35.875  29.887  28.415  1.00  0.00     0.131 A 
ATOM     68  C   UNL A   1      35.454  32.204  29.858  1.00  0.00     0.055 A 
ATOM     69  C   UNL A   1      34.857  30.751  28.027  1.00  0.00     0.041 A 
ATOM     70  F   UNL A   1      36.074  28.777  27.681  1.00  0.00    -0.206 F 
ATOM     71  C   UNL A   1      34.648  31.921  28.745  1.00  0.00     0.022 A 
BRANCH  68  72
ATOM     72  S   UNL A   1      35.128  33.755  30.744  1.00  0.00     0.124 S 
ATOM     73  O   UNL A   1      34.200  33.327  31.792  1.00  0.00    -0.237 OA
ATOM     74  O   UNL A   1      36.466  34.121  31.211  1.00  0.00    -0.237 OA
ATOM     75  O   UNL A   1      34.563  34.631  29.730  1.00  0.00    -0.744 OA
ENDBRANCH  68  72
ENDBRANCH  51  65
BRANCH  52  76
ATOM     76  C   UNL A   1      45.710  31.058  28.707  1.00  0.00     0.023 A 
ATOM     77  C   UNL A   1      45.041  31.980  27.889  1.00  0.00     0.031 A 
ATOM     78  C   UNL A   1      47.120  31.013  28.584  1.00  0.00     0.131 A 
ATOM     79  C   UNL A   1      45.739  32.669  26.880  1.00  0.00     0.055 A 
ATOM     80  C   UNL A   1      47.818  31.743  27.619  1.00  0.00     0.041 A 
ATOM     81  F   UNL A   1      47.847  30.235  29.404  1.00  0.00    -0.206 F 
ATOM     82  C   UNL A   1      47.121  32.553  26.735  1.00  0.00     0.022 A 
BRANCH  79  83
ATOM     83  S   UNL A   1      44.842  33.693  25.677  1.00  0.00     0.124 S 
ATOM     84  O   UNL A   1      43.855  34.372  26.510  1.00  0.00    -0.237 OA
ATOM     85  O   UNL A   1      45.918  34.533  25.159  1.00  0.00    -0.237 OA
ATOM     86  O   UNL A   1      44.301  32.713  24.741  1.00  0.00    -0.744 OA
ENDBRANCH  79  83
ENDBRANCH  52  76
BRANCH  64  87
ATOM     87  C   UNL A   1      42.162  28.292  33.617  1.00  0.00     0.023 A 
ATOM     88  C   UNL A   1      42.930  27.170  33.247  1.00  0.00     0.031 A 
ATOM     89  C   UNL A   1      41.970  28.547  34.982  1.00  0.00     0.131 A 
ATOM     90  C   UNL A   1      43.404  26.294  34.231  1.00  0.00     0.055 A 
ATOM     91  C   UNL A   1      42.497  27.704  35.962  1.00  0.00     0.041 A 
ATOM     92  F   UNL A   1      41.212  29.580  35.387  1.00  0.00    -0.206 F 
ATOM     93  C   UNL A   1      43.202  26.562  35.588  1.00  0.00     0.022 A 
BRANCH  90  94
ATOM     94  S   UNL A   1      44.222  24.738  33.780  1.00  0.00     0.124 S 
ATOM     95  O   UNL A   1      44.227  24.793  32.320  1.00  0.00    -0.237 OA
ATOM     96  O   UNL A   1      45.530  24.893  34.410  1.00  0.00    -0.237 OA
ATOM     97  O   UNL A   1      43.366  23.708  34.357  1.00  0.00    -0.744 OA
ENDBRANCH  90  94
ENDBRANCH  64  87
ENDBRANCH  38  39
ENDBRANCH  30  33
ENDBRANCH  28  29
ENDBRANCH  27  28
ENDBRANCH   1  27
TORSDOF 17
ENDMDL
MODEL 3
REMARK VINA RESULT:     -11.7      3.018      7.872
REMARK SMILES Cc1nn(C)cc1-c1cc(C(=O)NCCCCCCNC(=O)c2ccc(-c3c4nc(c(-c5cc(S(=O)(=O)[O-])ccc5F)c5ccc([nH]5)c(-c5cc(S(=O)(=O)[O-])ccc5F)c5nc(c(-c6cc(S(=O)(=O)[O-])ccc6F)c6ccc3[nH]6)C=C5)C=C4)cc2)n2nc(C)c(Br)c2n1
REMARK SMILES IDX 17 1 16 2 15 3 14 4 13 5 11 6 12 7 10 9 8 10 9 11 93 12
REMARK SMILES IDX 92 13 86 14 90 15 87 16 88 17 91 18 89 19 7 20 1 21 2 22
REMARK SMILES IDX 3 23 4 24 6 25 5 26 18 27 19 28 20 29 21 30 22 32 23 33
REMARK SMILES IDX 24 34 85 35 25 36 84 37 26 38 27 39 28 40 78 41 29 42 83 43
REMARK SMILES IDX 77 44 79 45 30 46 82 47 76 48 75 49 31 51 63 52 43 53 62 54
REMARK SMILES IDX 44 55 47 56 61 57 80 58 45 59 46 60 60 62 81 63 48 64 32 65
REMARK SMILES IDX 33 66 41 67 34 68 40 69 42 70 39 71 35 72 36 73 37 74 38 75
REMARK SMILES IDX 64 76 65 77 73 78 66 79 72 80 74 81 71 82 67 83 68 84 69 85
REMARK SMILES IDX 70 86 49 87 50 88 58 89 51 90 57 91 59 92 56 93 52 94 53 95
REMARK SMILES IDX 54 96 55 97
REMARK H PARENT 13 8 20 31 79 50 47 61
REMARK Flexibility Score: inf
ROOT
ATOM      1  C   UNL A   1      38.380  21.077  25.449  1.00  0.00     0.002 C 
ENDROOT
BRANCH   1   2
ATOM      2  C   UNL A   1      37.116  21.838  25.025  1.00  0.00     0.002 C 
BRANCH   2   3
ATOM      3  C   UNL A   1      35.942  21.728  26.009  1.00  0.00     0.021 C 
BRANCH   3   4
ATOM      4  C   UNL A   1      35.566  23.063  26.667  1.00  0.00     0.116 C 
BRANCH   4   5
ATOM      5  N   UNL A   1      34.296  22.947  27.371  1.00  0.00    -0.351 N 
ATOM      6  C   UNL A   1      32.983  22.965  27.007  1.00  0.00     0.270 C 
ATOM      7  O   UNL A   1      32.179  22.904  27.938  1.00  0.00    -0.268 OA
ATOM      8  H   UNL A   1      34.415  22.825  28.340  1.00  0.00     0.163 HD
BRANCH   6   9
ATOM      9  C   UNL A   1      32.514  23.019  25.585  1.00  0.00     0.134 A 
ATOM     10  C   UNL A   1      31.530  24.069  23.656  1.00  0.00     0.079 A 
ATOM     11  C   UNL A   1      31.856  24.089  25.104  1.00  0.00     0.063 A 
ATOM     12  N   UNL A   1      31.628  23.057  22.855  1.00  0.00    -0.227 NA
ATOM     13  C   UNL A   1      32.141  21.920  23.420  1.00  0.00     0.171 A 
ATOM     14  N   UNL A   1      32.648  21.891  24.739  1.00  0.00    -0.208 N 
ATOM     15  C   UNL A   1      32.273  20.639  22.944  1.00  0.00     0.085 A 
ATOM     16  N   UNL A   1      33.194  20.668  25.006  1.00  0.00    -0.170 NA
ATOM     17  C   UNL A   1      32.889  19.896  23.959  1.00  0.00     0.076 A 
ATOM     18  Br  UNL A   1      31.727  19.981  21.278  1.00  0.00    -0.045 Br
ATOM     19  C   UNL A   1      33.212  18.448  23.987  1.00  0.00     0.070 C 
BRANCH  10  20
ATOM     20  C   UNL A   1      31.098  25.350  23.158  1.00  0.00     0.041 A 
ATOM     21  C   UNL A   1      32.685  25.754  21.101  1.00  0.00     0.069 C 
ATOM     22  C   UNL A   1      31.612  26.105  22.065  1.00  0.00     0.069 A 
ATOM     23  N   UNL A   1      30.996  27.286  21.950  1.00  0.00    -0.178 NA
ATOM     24  N   UNL A   1      30.097  27.290  22.951  1.00  0.00    -0.275 N 
ATOM     25  C   UNL A   1      30.087  26.133  23.673  1.00  0.00     0.119 A 
ATOM     26  C   UNL A   1      29.296  28.471  23.181  1.00  0.00     0.173 C 
ENDBRANCH  10  20
ENDBRANCH   6   9
ENDBRANCH   4   5
ENDBRANCH   3   4
ENDBRANCH   2   3
ENDBRANCH   1   2
BRANCH   1  27
ATOM     27  C   UNL A   1      39.462  21.918  26.152  1.00  0.00     0.021 C 
BRANCH  27  28
ATOM     28  C   UNL A   1      40.324  21.156  27.173  1.00  0.00     0.116 C 
BRANCH  28  29
ATOM     29  N   UNL A   1      41.680  21.014  26.671  1.00  0.00    -0.352 N 
ATOM     30  C   UNL A   1      42.489  21.939  26.071  1.00  0.00     0.251 C 
ATOM     31  H   UNL A   1      42.074  20.118  26.778  1.00  0.00     0.163 HD
ATOM     32  O   UNL A   1      43.274  21.553  25.205  1.00  0.00    -0.269 OA
BRANCH  30  33
ATOM     33  C   UNL A   1      42.492  23.363  26.479  1.00  0.00     0.039 A 
ATOM     34  C   UNL A   1      42.977  24.303  25.562  1.00  0.00     0.014 A 
ATOM     35  C   UNL A   1      42.217  23.757  27.792  1.00  0.00     0.014 A 
ATOM     36  C   UNL A   1      43.176  25.628  25.951  1.00  0.00     0.010 A 
ATOM     37  C   UNL A   1      42.420  25.087  28.180  1.00  0.00     0.010 A 
ATOM     38  C   UNL A   1      42.900  26.034  27.264  1.00  0.00    -0.014 A 
BRANCH  38  39
ATOM     39  C   UNL A   1      43.043  27.470  27.593  1.00  0.00     0.031 A 
ATOM     40  C   UNL A   1      41.794  28.290  27.523  1.00  0.00     0.074 A 
ATOM     41  C   UNL A   1      44.044  27.916  28.384  1.00  0.00     0.049 A 
ATOM     42  N   UNL A   1      40.916  28.330  28.483  1.00  0.00    -0.248 NA
ATOM     43  C   UNL A   1      41.335  28.904  26.279  1.00  0.00     0.031 C 
ATOM     44  C   UNL A   1      44.549  27.168  29.543  1.00  0.00     0.029 A 
ATOM     45  N   UNL A   1      44.622  29.159  28.503  1.00  0.00    -0.354 N 
ATOM     46  C   UNL A   1      39.774  28.925  27.974  1.00  0.00     0.074 A 
ATOM     47  C   UNL A   1      40.083  29.267  26.603  1.00  0.00     0.031 C 
ATOM     48  C   UNL A   1      45.224  28.018  30.345  1.00  0.00     0.029 A 
ATOM     49  C   UNL A   1      45.333  29.320  29.691  1.00  0.00     0.049 A 
ATOM     50  H   UNL A   1      44.540  29.863  27.819  1.00  0.00     0.167 HD
ATOM     51  C   UNL A   1      38.640  29.105  28.704  1.00  0.00     0.034 A 
ATOM     52  C   UNL A   1      45.502  30.506  30.339  1.00  0.00     0.034 A 
ATOM     53  C   UNL A   1      38.732  28.719  30.082  1.00  0.00     0.049 A 
ATOM     54  C   UNL A   1      44.114  30.714  30.903  1.00  0.00     0.074 A 
ATOM     55  C   UNL A   1      38.365  27.659  30.879  1.00  0.00     0.029 A 
ATOM     56  N   UNL A   1      39.385  29.580  30.933  1.00  0.00    -0.354 N 
ATOM     57  N   UNL A   1      43.609  30.112  31.950  1.00  0.00    -0.248 NA
ATOM     58  C   UNL A   1      43.126  31.348  30.031  1.00  0.00     0.031 C 
ATOM     59  C   UNL A   1      39.209  27.740  32.034  1.00  0.00     0.029 A 
ATOM     60  C   UNL A   1      40.070  28.821  31.845  1.00  0.00     0.049 A 
ATOM     61  H   UNL A   1      39.364  30.563  30.893  1.00  0.00     0.167 HD
ATOM     62  C   UNL A   1      42.233  30.031  31.704  1.00  0.00     0.074 A 
ATOM     63  C   UNL A   1      42.008  30.828  30.514  1.00  0.00     0.031 C 
ATOM     64  C   UNL A   1      41.382  29.182  32.353  1.00  0.00     0.034 A 
BRANCH  51  65
ATOM     65  C   UNL A   1      37.450  29.854  28.239  1.00  0.00     0.023 A 
ATOM     66  C   UNL A   1      36.340  29.240  27.640  1.00  0.00     0.031 A 
ATOM     67  C   UNL A   1      37.365  31.214  28.590  1.00  0.00     0.131 A 
ATOM     68  C   UNL A   1      35.172  29.995  27.434  1.00  0.00     0.055 A 
ATOM     69  C   UNL A   1      36.202  31.953  28.398  1.00  0.00     0.041 A 
ATOM     70  F   UNL A   1      38.410  31.825  29.176  1.00  0.00    -0.206 F 
ATOM     71  C   UNL A   1      35.095  31.341  27.824  1.00  0.00     0.022 A 
BRANCH  68  72
ATOM     72  S   UNL A   1      33.684  29.260  26.699  1.00  0.00     0.124 S 
ATOM     73  O   UNL A   1      32.835  30.432  26.475  1.00  0.00    -0.237 OA
ATOM     74  O   UNL A   1      34.221  28.642  25.486  1.00  0.00    -0.237 OA
ATOM     75  O   UNL A   1      33.209  28.331  27.712  1.00  0.00    -0.744 OA
ENDBRANCH  68  72
ENDBRANCH  51  65
BRANCH  52  76
ATOM     76  C   UNL A   1      46.267  31.535  29.554  1.00  0.00     0.023 A 
ATOM     77  C   UNL A   1      45.764  32.302  28.494  1.00  0.00     0.031 A 
ATOM     78  C   UNL A   1      47.634  31.721  29.874  1.00  0.00     0.131 A 
ATOM     79  C   UNL A   1      46.637  33.060  27.691  1.00  0.00     0.055 A 
ATOM     80  C   UNL A   1      48.487  32.521  29.110  1.00  0.00     0.041 A 
ATOM     81  F   UNL A   1      48.170  31.106  30.942  1.00  0.00    -0.206 F 
ATOM     82  C   UNL A   1      47.995  33.171  27.987  1.00  0.00     0.022 A 
BRANCH  79  83
ATOM     83  S   UNL A   1      46.028  33.876  26.187  1.00  0.00     0.124 S 
ATOM     84  O   UNL A   1      45.337  32.791  25.494  1.00  0.00    -0.237 OA
ATOM     85  O   UNL A   1      45.169  34.913  26.751  1.00  0.00    -0.237 OA
ATOM     86  O   UNL A   1      47.250  34.348  25.544  1.00  0.00    -0.744 OA
ENDBRANCH  79  83
ENDBRANCH  52  76
BRANCH  64  87
ATOM     87  C   UNL A   1      41.921  28.439  33.538  1.00  0.00     0.023 A 
ATOM     88  C   UNL A   1      42.769  27.326  33.370  1.00  0.00     0.031 A 
ATOM     89  C   UNL A   1      41.464  28.740  34.828  1.00  0.00     0.131 A 
ATOM     90  C   UNL A   1      43.064  26.502  34.463  1.00  0.00     0.055 A 
ATOM     91  C   UNL A   1      41.812  27.951  35.927  1.00  0.00     0.041 A 
ATOM     92  F   UNL A   1      40.622  29.765  35.036  1.00  0.00    -0.206 F 
ATOM     93  C   UNL A   1      42.599  26.816  35.744  1.00  0.00     0.022 A 
BRANCH  90  94
ATOM     94  S   UNL A   1      43.985  24.955  34.245  1.00  0.00     0.124 S 
ATOM     95  O   UNL A   1      45.051  25.076  35.237  1.00  0.00    -0.237 OA
ATOM     96  O   UNL A   1      42.966  23.953  34.550  1.00  0.00    -0.237 OA
ATOM     97  O   UNL A   1      44.426  24.997  32.855  1.00  0.00    -0.744 OA
ENDBRANCH  90  94
ENDBRANCH  64  87
ENDBRANCH  38  39
ENDBRANCH  30  33
ENDBRANCH  28  29
ENDBRANCH  27  28
ENDBRANCH   1  27
TORSDOF 17
ENDMDL
