MODEL 1
REMARK VINA RESULT:     -11.6      0.000      0.000
REMARK SMILES COc1ccc(CCc2nnc(NC(=O)[C@@H]3[C@@H](C(=O)NCCCCCCNC(=O)c4ccc(-c5c6nc(c(-c7cc(S(=O)(=O)[O-])ccc7F)c7ccc([nH]7)c(-c7cc(S(=O)(=O)[O-])ccc7F)c7nc(c(-c8cc(S(=O)(=O)[O-])ccc8F)c8ccc5[nH]8)C=C7)C=C6)cc4)C3(C)C)s2)cc1
REMARK SMILES IDX 22 1 21 2 20 3 18 4 19 5 17 7 16 8 93 9 94 10 95 11 14 12
REMARK SMILES IDX 13 13 15 15 12 16 9 17 10 18 96 19 11 20 8 21 7 22 6 23 3 24
REMARK SMILES IDX 4 25 98 26 5 27 97 28 2 29 1 30 23 31 24 32 25 33 26 34
REMARK SMILES IDX 27 35 28 36 29 38 30 39 31 40 92 41 32 42 91 43 33 44 34 45
REMARK SMILES IDX 35 46 85 47 36 48 90 49 84 50 86 51 37 52 89 53 83 54 82 55
REMARK SMILES IDX 38 57 70 58 50 59 69 60 51 61 54 62 68 63 87 64 52 65 53 66
REMARK SMILES IDX 67 68 88 69 55 70 39 71 40 72 48 73 41 74 47 75 49 76 46 77
REMARK SMILES IDX 42 78 43 79 44 80 45 81 71 82 72 83 80 84 73 85 79 86 81 87
REMARK SMILES IDX 78 88 74 89 75 90 76 91 77 92 56 93 57 94 65 95 58 96 64 97
REMARK SMILES IDX 66 98 63 99 59 100 60 101 61 102 62 103
REMARK H PARENT 20 6 13 14 27 37 86 56 54 67
REMARK Flexibility Score: inf
ROOT
ATOM      1  C   UNL A   1      35.867  24.025  25.699  1.00  0.00     0.021 C 
ENDROOT
BRANCH   1   2
ATOM      2  C   UNL A   1      34.736  24.872  25.121  1.00  0.00     0.116 C 
BRANCH   2   3
ATOM      3  N   UNL A   1      33.545  24.765  25.937  1.00  0.00    -0.356 N 
ATOM      4  C   UNL A   1      32.477  25.578  26.168  1.00  0.00     0.224 C 
ATOM      5  O   UNL A   1      31.688  25.213  27.042  1.00  0.00    -0.275 OA
ATOM      6  H   UNL A   1      33.496  23.916  26.434  1.00  0.00     0.163 HD
BRANCH   4   7
ATOM      7  C   UNL A   1      32.147  26.830  25.444  1.00  0.00     0.098 C 
ATOM      8  C   UNL A   1      32.905  27.511  24.341  1.00  0.00     0.098 C 
ATOM      9  C   UNL A   1      32.746  28.208  25.703  1.00  0.00    -0.011 C 
ATOM     10  C   UNL A   1      34.009  28.377  26.522  1.00  0.00     0.013 C 
ATOM     11  C   UNL A   1      31.788  29.363  25.868  1.00  0.00     0.013 C 
BRANCH   8  12
ATOM     12  C   UNL A   1      32.165  27.856  23.088  1.00  0.00     0.230 C 
ATOM     13  N   UNL A   1      32.136  26.959  22.046  1.00  0.00    -0.300 N 
ATOM     14  H   UNL A   1      31.794  27.282  21.181  1.00  0.00     0.172 HD
ATOM     15  O   UNL A   1      31.621  28.950  22.951  1.00  0.00    -0.274 OA
BRANCH  13  16
ATOM     16  C   UNL A   1      32.544  25.657  22.113  1.00  0.00     0.212 A 
ATOM     17  C   UNL A   1      32.529  23.303  22.342  1.00  0.00     0.119 A 
ATOM     18  N   UNL A   1      33.651  23.749  21.813  1.00  0.00    -0.142 NA
ATOM     19  S   UNL A   1      31.459  24.561  22.849  1.00  0.00    -0.080 S 
ATOM     20  N   UNL A   1      33.651  25.117  21.673  1.00  0.00    -0.120 NA
BRANCH  17  21
ATOM     21  C   UNL A   1      32.193  21.852  22.474  1.00  0.00     0.074 C 
BRANCH  21  22
ATOM     22  C   UNL A   1      32.327  21.301  23.902  1.00  0.00     0.043 C 
BRANCH  22  23
ATOM     23  C   UNL A   1      32.626  19.821  24.021  1.00  0.00    -0.047 A 
ATOM     24  C   UNL A   1      33.065  17.056  24.234  1.00  0.00     0.118 A 
ATOM     25  C   UNL A   1      32.867  17.631  22.986  1.00  0.00     0.046 A 
ATOM     26  C   UNL A   1      33.080  17.852  25.378  1.00  0.00     0.046 A 
ATOM     27  C   UNL A   1      32.624  19.000  22.883  1.00  0.00     0.007 A 
ATOM     28  C   UNL A   1      32.861  19.231  25.271  1.00  0.00     0.007 A 
BRANCH  24  29
ATOM     29  O   UNL A   1      33.298  15.709  24.265  1.00  0.00    -0.497 OA
ATOM     30  C   UNL A   1      32.911  15.146  25.521  1.00  0.00     0.278 C 
ENDBRANCH  24  29
ENDBRANCH  22  23
ENDBRANCH  21  22
ENDBRANCH  17  21
ENDBRANCH  13  16
ENDBRANCH   8  12
ENDBRANCH   4   7
ENDBRANCH   2   3
ENDBRANCH   1   2
BRANCH   1  31
ATOM     31  C   UNL A   1      35.654  22.515  25.558  1.00  0.00     0.002 C 
BRANCH  31  32
ATOM     32  C   UNL A   1      36.535  21.832  24.507  1.00  0.00     0.002 C 
BRANCH  32  33
ATOM     33  C   UNL A   1      37.580  20.861  25.062  1.00  0.00     0.021 C 
BRANCH  33  34
ATOM     34  C   UNL A   1      38.719  21.521  25.832  1.00  0.00     0.116 C 
BRANCH  34  35
ATOM     35  N   UNL A   1      39.798  20.585  26.107  1.00  0.00    -0.352 N 
ATOM     36  C   UNL A   1      41.111  20.837  26.414  1.00  0.00     0.251 C 
ATOM     37  H   UNL A   1      39.550  19.632  26.067  1.00  0.00     0.163 HD
ATOM     38  O   UNL A   1      41.933  19.926  26.375  1.00  0.00    -0.269 OA
BRANCH  36  39
ATOM     39  C   UNL A   1      41.536  22.208  26.773  1.00  0.00     0.039 A 
ATOM     40  C   UNL A   1      41.854  23.109  25.754  1.00  0.00     0.014 A 
ATOM     41  C   UNL A   1      41.639  22.600  28.110  1.00  0.00     0.014 A 
ATOM     42  C   UNL A   1      42.219  24.419  26.073  1.00  0.00     0.010 A 
ATOM     43  C   UNL A   1      41.934  23.924  28.422  1.00  0.00     0.010 A 
ATOM     44  C   UNL A   1      42.225  24.851  27.409  1.00  0.00    -0.014 A 
BRANCH  44  45
ATOM     45  C   UNL A   1      42.523  26.267  27.767  1.00  0.00     0.031 A 
ATOM     46  C   UNL A   1      43.944  26.765  27.767  1.00  0.00     0.074 A 
ATOM     47  C   UNL A   1      41.528  27.081  28.174  1.00  0.00     0.049 A 
ATOM     48  N   UNL A   1      44.414  27.930  28.136  1.00  0.00    -0.248 NA
ATOM     49  C   UNL A   1      44.972  25.816  27.319  1.00  0.00     0.031 C 
ATOM     50  C   UNL A   1      40.111  26.714  28.256  1.00  0.00     0.029 A 
ATOM     51  N   UNL A   1      41.554  28.379  28.624  1.00  0.00    -0.354 N 
ATOM     52  C   UNL A   1      45.791  27.854  27.960  1.00  0.00     0.074 A 
ATOM     53  C   UNL A   1      46.084  26.499  27.542  1.00  0.00     0.031 C 
ATOM     54  C   UNL A   1      39.411  27.753  28.736  1.00  0.00     0.029 A 
ATOM     55  C   UNL A   1      40.325  28.854  29.020  1.00  0.00     0.049 A 
ATOM     56  H   UNL A   1      42.377  28.919  28.660  1.00  0.00     0.167 HD
ATOM     57  C   UNL A   1      46.724  28.831  28.095  1.00  0.00     0.034 A 
ATOM     58  C   UNL A   1      39.970  30.034  29.564  1.00  0.00     0.034 A 
ATOM     59  C   UNL A   1      46.416  30.177  28.518  1.00  0.00     0.049 A 
ATOM     60  C   UNL A   1      41.023  31.093  29.762  1.00  0.00     0.074 A 
ATOM     61  C   UNL A   1      47.270  31.260  28.639  1.00  0.00     0.029 A 
ATOM     62  N   UNL A   1      45.158  30.622  28.907  1.00  0.00    -0.354 N 
ATOM     63  N   UNL A   1      42.313  31.028  29.526  1.00  0.00    -0.248 NA
ATOM     64  C   UNL A   1      40.568  32.391  30.275  1.00  0.00     0.031 C 
ATOM     65  C   UNL A   1      46.547  32.331  29.176  1.00  0.00     0.029 A 
ATOM     66  C   UNL A   1      45.222  31.950  29.305  1.00  0.00     0.049 A 
ATOM     67  H   UNL A   1      44.340  30.075  28.900  1.00  0.00     0.167 HD
ATOM     68  C   UNL A   1      42.819  32.289  29.828  1.00  0.00     0.074 A 
ATOM     69  C   UNL A   1      41.691  33.094  30.255  1.00  0.00     0.031 C 
ATOM     70  C   UNL A   1      44.096  32.742  29.748  1.00  0.00     0.034 A 
BRANCH  57  71
ATOM     71  C   UNL A   1      48.160  28.463  27.797  1.00  0.00     0.023 A 
ATOM     72  C   UNL A   1      48.683  28.539  26.493  1.00  0.00     0.031 A 
ATOM     73  C   UNL A   1      49.005  27.981  28.812  1.00  0.00     0.131 A 
ATOM     74  C   UNL A   1      49.968  28.045  26.221  1.00  0.00     0.055 A 
ATOM     75  C   UNL A   1      50.319  27.584  28.551  1.00  0.00     0.041 A 
ATOM     76  F   UNL A   1      48.562  27.865  30.074  1.00  0.00    -0.206 F 
ATOM     77  C   UNL A   1      50.801  27.594  27.245  1.00  0.00     0.022 A 
BRANCH  74  78
ATOM     78  S   UNL A   1      50.458  27.830  24.487  1.00  0.00     0.124 S 
ATOM     79  O   UNL A   1      51.251  26.605  24.557  1.00  0.00    -0.237 OA
ATOM     80  O   UNL A   1      49.173  27.722  23.807  1.00  0.00    -0.237 OA
ATOM     81  O   UNL A   1      51.221  29.040  24.195  1.00  0.00    -0.744 OA
ENDBRANCH  74  78
ENDBRANCH  57  71
BRANCH  58  82
ATOM     82  C   UNL A   1      38.554  30.275  29.961  1.00  0.00     0.023 A 
ATOM     83  C   UNL A   1      37.681  31.008  29.141  1.00  0.00     0.031 A 
ATOM     84  C   UNL A   1      38.056  29.781  31.180  1.00  0.00     0.131 A 
ATOM     85  C   UNL A   1      36.367  31.258  29.567  1.00  0.00     0.055 A 
ATOM     86  C   UNL A   1      36.734  29.990  31.577  1.00  0.00     0.041 A 
ATOM     87  F   UNL A   1      38.846  29.065  31.996  1.00  0.00    -0.206 F 
ATOM     88  C   UNL A   1      35.884  30.742  30.772  1.00  0.00     0.022 A 
BRANCH  85  89
ATOM     89  S   UNL A   1      35.311  32.326  28.549  1.00  0.00     0.124 S 
ATOM     90  O   UNL A   1      36.284  33.252  27.982  1.00  0.00    -0.237 OA
ATOM     91  O   UNL A   1      34.718  31.367  27.621  1.00  0.00    -0.237 OA
ATOM     92  O   UNL A   1      34.384  32.908  29.517  1.00  0.00    -0.744 OA
ENDBRANCH  85  89
ENDBRANCH  58  82
BRANCH  70  93
ATOM     93  C   UNL A   1      44.335  34.194  30.091  1.00  0.00     0.023 A 
ATOM     94  C   UNL A   1      44.244  35.211  29.125  1.00  0.00     0.031 A 
ATOM     95  C   UNL A   1      44.668  34.563  31.407  1.00  0.00     0.131 A 
ATOM     96  C   UNL A   1      44.540  36.538  29.476  1.00  0.00     0.055 A 
ATOM     97  C   UNL A   1      44.893  35.893  31.765  1.00  0.00     0.041 A 
ATOM     98  F   UNL A   1      44.775  33.634  32.372  1.00  0.00    -0.206 F 
ATOM     99  C   UNL A   1      44.844  36.888  30.793  1.00  0.00     0.022 A 
BRANCH  96 100
ATOM    100  S   UNL A   1      44.627  37.786  28.163  1.00  0.00     0.124 S 
ATOM    101  O   UNL A   1      45.239  38.913  28.857  1.00  0.00    -0.237 OA
ATOM    102  O   UNL A   1      45.458  37.127  27.160  1.00  0.00    -0.237 OA
ATOM    103  O   UNL A   1      43.229  37.978  27.780  1.00  0.00    -0.744 OA
ENDBRANCH  96 100
ENDBRANCH  70  93
ENDBRANCH  44  45
ENDBRANCH  36  39
ENDBRANCH  34  35
ENDBRANCH  33  34
ENDBRANCH  32  33
ENDBRANCH  31  32
ENDBRANCH   1  31
TORSDOF 22
ENDMDL
MODEL 2
REMARK VINA RESULT:     -11.1      1.919      7.621
REMARK SMILES COc1ccc(CCc2nnc(NC(=O)[C@@H]3[C@@H](C(=O)NCCCCCCNC(=O)c4ccc(-c5c6nc(c(-c7cc(S(=O)(=O)[O-])ccc7F)c7ccc([nH]7)c(-c7cc(S(=O)(=O)[O-])ccc7F)c7nc(c(-c8cc(S(=O)(=O)[O-])ccc8F)c8ccc5[nH]8)C=C7)C=C6)cc4)C3(C)C)s2)cc1
REMARK SMILES IDX 22 1 21 2 20 3 18 4 19 5 17 7 16 8 93 9 94 10 95 11 14 12
REMARK SMILES IDX 13 13 15 15 12 16 9 17 10 18 96 19 11 20 8 21 7 22 6 23 3 24
REMARK SMILES IDX 4 25 98 26 5 27 97 28 2 29 1 30 23 31 24 32 25 33 26 34
REMARK SMILES IDX 27 35 28 36 29 38 30 39 31 40 92 41 32 42 91 43 33 44 34 45
REMARK SMILES IDX 35 46 85 47 36 48 90 49 84 50 86 51 37 52 89 53 83 54 82 55
REMARK SMILES IDX 38 57 70 58 50 59 69 60 51 61 54 62 68 63 87 64 52 65 53 66
REMARK SMILES IDX 67 68 88 69 55 70 39 71 40 72 48 73 41 74 47 75 49 76 46 77
REMARK SMILES IDX 42 78 43 79 44 80 45 81 71 82 72 83 80 84 73 85 79 86 81 87
REMARK SMILES IDX 78 88 74 89 75 90 76 91 77 92 56 93 57 94 65 95 58 96 64 97
REMARK SMILES IDX 66 98 63 99 59 100 60 101 61 102 62 103
REMARK H PARENT 20 6 13 14 27 37 86 56 54 67
REMARK Flexibility Score: inf
ROOT
ATOM      1  C   UNL A   1      33.713  24.835  22.788  1.00  0.00     0.021 C 
ENDROOT
BRANCH   1   2
ATOM      2  C   UNL A   1      32.610  25.076  21.760  1.00  0.00     0.116 C 
BRANCH   2   3
ATOM      3  N   UNL A   1      31.309  25.084  22.394  1.00  0.00    -0.356 N 
ATOM      4  C   UNL A   1      30.635  25.980  23.168  1.00  0.00     0.224 C 
ATOM      5  O   UNL A   1      29.570  25.595  23.653  1.00  0.00    -0.275 OA
ATOM      6  H   UNL A   1      30.797  24.259  22.229  1.00  0.00     0.163 HD
BRANCH   4   7
ATOM      7  C   UNL A   1      31.034  27.382  23.446  1.00  0.00     0.098 C 
ATOM      8  C   UNL A   1      30.478  28.337  24.464  1.00  0.00     0.098 C 
ATOM      9  C   UNL A   1      30.315  28.637  22.963  1.00  0.00    -0.011 C 
ATOM     10  C   UNL A   1      28.904  28.577  22.416  1.00  0.00     0.013 C 
ATOM     11  C   UNL A   1      31.150  29.704  22.299  1.00  0.00     0.013 C 
BRANCH   8  12
ATOM     12  C   UNL A   1      31.437  29.010  25.393  1.00  0.00     0.230 C 
ATOM     13  N   UNL A   1      32.088  28.270  26.352  1.00  0.00    -0.300 N 
ATOM     14  H   UNL A   1      32.572  28.764  27.052  1.00  0.00     0.172 HD
ATOM     15  O   UNL A   1      31.619  30.225  25.349  1.00  0.00    -0.274 OA
BRANCH  13  16
ATOM     16  C   UNL A   1      32.116  26.906  26.413  1.00  0.00     0.212 A 
ATOM     17  C   UNL A   1      32.888  24.671  26.462  1.00  0.00     0.119 A 
ATOM     18  N   UNL A   1      31.638  24.779  26.865  1.00  0.00    -0.142 NA
ATOM     19  S   UNL A   1      33.554  26.154  25.878  1.00  0.00    -0.080 S 
ATOM     20  N   UNL A   1      31.197  26.081  26.844  1.00  0.00    -0.120 NA
BRANCH  17  21
ATOM     21  C   UNL A   1      33.672  23.398  26.521  1.00  0.00     0.074 C 
BRANCH  21  22
ATOM     22  C   UNL A   1      32.825  22.147  26.798  1.00  0.00     0.043 C 
BRANCH  22  23
ATOM     23  C   UNL A   1      32.851  21.074  25.731  1.00  0.00    -0.047 A 
ATOM     24  C   UNL A   1      32.791  19.053  23.782  1.00  0.00     0.118 A 
ATOM     25  C   UNL A   1      32.192  20.280  23.526  1.00  0.00     0.046 A 
ATOM     26  C   UNL A   1      33.449  18.834  24.990  1.00  0.00     0.046 A 
ATOM     27  C   UNL A   1      32.201  21.273  24.503  1.00  0.00     0.007 A 
ATOM     28  C   UNL A   1      33.480  19.842  25.961  1.00  0.00     0.007 A 
BRANCH  24  29
ATOM     29  O   UNL A   1      32.747  18.122  22.781  1.00  0.00    -0.497 OA
ATOM     30  C   UNL A   1      33.485  16.950  23.134  1.00  0.00     0.278 C 
ENDBRANCH  24  29
ENDBRANCH  22  23
ENDBRANCH  21  22
ENDBRANCH  17  21
ENDBRANCH  13  16
ENDBRANCH   8  12
ENDBRANCH   4   7
ENDBRANCH   2   3
ENDBRANCH   1   2
BRANCH   1  31
ATOM     31  C   UNL A   1      34.175  23.378  22.881  1.00  0.00     0.002 C 
BRANCH  31  32
ATOM     32  C   UNL A   1      35.654  23.189  23.230  1.00  0.00     0.002 C 
BRANCH  32  33
ATOM     33  C   UNL A   1      35.978  21.933  24.044  1.00  0.00     0.021 C 
BRANCH  33  34
ATOM     34  C   UNL A   1      36.805  22.182  25.300  1.00  0.00     0.116 C 
BRANCH  34  35
ATOM     35  N   UNL A   1      37.673  21.056  25.606  1.00  0.00    -0.352 N 
ATOM     36  C   UNL A   1      38.971  21.054  26.050  1.00  0.00     0.251 C 
ATOM     37  H   UNL A   1      37.271  20.166  25.477  1.00  0.00     0.163 HD
ATOM     38  O   UNL A   1      39.624  20.014  26.023  1.00  0.00    -0.269 OA
BRANCH  36  39
ATOM     39  C   UNL A   1      39.585  22.306  26.544  1.00  0.00     0.039 A 
ATOM     40  C   UNL A   1      40.601  22.232  27.501  1.00  0.00     0.014 A 
ATOM     41  C   UNL A   1      39.149  23.550  26.082  1.00  0.00     0.014 A 
ATOM     42  C   UNL A   1      41.219  23.402  27.950  1.00  0.00     0.010 A 
ATOM     43  C   UNL A   1      39.813  24.707  26.479  1.00  0.00     0.010 A 
ATOM     44  C   UNL A   1      40.858  24.649  27.415  1.00  0.00    -0.014 A 
BRANCH  44  45
ATOM     45  C   UNL A   1      41.565  25.900  27.812  1.00  0.00     0.031 A 
ATOM     46  C   UNL A   1      40.810  27.012  28.491  1.00  0.00     0.074 A 
ATOM     47  C   UNL A   1      42.862  26.071  27.486  1.00  0.00     0.049 A 
ATOM     48  N   UNL A   1      41.223  28.207  28.828  1.00  0.00    -0.248 NA
ATOM     49  C   UNL A   1      39.398  26.752  28.805  1.00  0.00     0.031 C 
ATOM     50  C   UNL A   1      43.701  25.087  26.796  1.00  0.00     0.029 A 
ATOM     51  N   UNL A   1      43.701  27.144  27.667  1.00  0.00    -0.354 N 
ATOM     52  C   UNL A   1      40.123  28.839  29.398  1.00  0.00     0.074 A 
ATOM     53  C   UNL A   1      39.007  27.927  29.272  1.00  0.00     0.031 C 
ATOM     54  C   UNL A   1      44.923  25.605  26.601  1.00  0.00     0.029 A 
ATOM     55  C   UNL A   1      44.955  26.965  27.130  1.00  0.00     0.049 A 
ATOM     56  H   UNL A   1      43.429  27.966  28.136  1.00  0.00     0.167 HD
ATOM     57  C   UNL A   1      40.056  30.052  30.006  1.00  0.00     0.034 A 
ATOM     58  C   UNL A   1      46.009  27.800  27.056  1.00  0.00     0.034 A 
ATOM     59  C   UNL A   1      41.178  30.953  30.119  1.00  0.00     0.049 A 
ATOM     60  C   UNL A   1      45.906  29.164  27.684  1.00  0.00     0.074 A 
ATOM     61  C   UNL A   1      41.239  32.179  30.757  1.00  0.00     0.029 A 
ATOM     62  N   UNL A   1      42.434  30.734  29.566  1.00  0.00    -0.354 N 
ATOM     63  N   UNL A   1      44.877  29.722  28.280  1.00  0.00    -0.248 NA
ATOM     64  C   UNL A   1      47.111  30.001  27.653  1.00  0.00     0.031 C 
ATOM     65  C   UNL A   1      42.501  32.736  30.522  1.00  0.00     0.029 A 
ATOM     66  C   UNL A   1      43.262  31.820  29.815  1.00  0.00     0.049 A 
ATOM     67  H   UNL A   1      42.699  29.926  29.070  1.00  0.00     0.167 HD
ATOM     68  C   UNL A   1      45.323  30.963  28.727  1.00  0.00     0.074 A 
ATOM     69  C   UNL A   1      46.716  31.065  28.338  1.00  0.00     0.031 C 
ATOM     70  C   UNL A   1      44.646  31.923  29.407  1.00  0.00     0.034 A 
BRANCH  57  71
ATOM     71  C   UNL A   1      38.717  30.467  30.573  1.00  0.00     0.023 A 
ATOM     72  C   UNL A   1      37.799  31.216  29.815  1.00  0.00     0.031 A 
ATOM     73  C   UNL A   1      38.370  30.159  31.900  1.00  0.00     0.131 A 
ATOM     74  C   UNL A   1      36.635  31.719  30.417  1.00  0.00     0.055 A 
ATOM     75  C   UNL A   1      37.162  30.578  32.463  1.00  0.00     0.041 A 
ATOM     76  F   UNL A   1      39.210  29.463  32.684  1.00  0.00    -0.206 F 
ATOM     77  C   UNL A   1      36.295  31.381  31.727  1.00  0.00     0.022 A 
BRANCH  74  78
ATOM     78  S   UNL A   1      35.672  32.967  29.519  1.00  0.00     0.124 S 
ATOM     79  O   UNL A   1      36.480  33.151  28.316  1.00  0.00    -0.237 OA
ATOM     80  O   UNL A   1      34.389  32.302  29.331  1.00  0.00    -0.237 OA
ATOM     81  O   UNL A   1      35.658  34.109  30.430  1.00  0.00    -0.744 OA
ENDBRANCH  74  78
ENDBRANCH  57  71
BRANCH  58  82
ATOM     82  C   UNL A   1      47.253  27.369  26.357  1.00  0.00     0.023 A 
ATOM     83  C   UNL A   1      48.263  26.664  27.032  1.00  0.00     0.031 A 
ATOM     84  C   UNL A   1      47.454  27.667  24.997  1.00  0.00     0.131 A 
ATOM     85  C   UNL A   1      49.442  26.315  26.357  1.00  0.00     0.055 A 
ATOM     86  C   UNL A   1      48.607  27.274  24.317  1.00  0.00     0.041 A 
ATOM     87  F   UNL A   1      46.515  28.329  24.302  1.00  0.00    -0.206 F 
ATOM     88  C   UNL A   1      49.615  26.602  25.001  1.00  0.00     0.022 A 
BRANCH  85  89
ATOM     89  S   UNL A   1      50.782  25.531  27.296  1.00  0.00     0.124 S 
ATOM     90  O   UNL A   1      50.164  24.274  27.702  1.00  0.00    -0.237 OA
ATOM     91  O   UNL A   1      51.838  25.435  26.292  1.00  0.00    -0.237 OA
ATOM     92  O   UNL A   1      51.039  26.480  28.377  1.00  0.00    -0.744 OA
ENDBRANCH  85  89
ENDBRANCH  58  82
BRANCH  70  93
ATOM     93  C   UNL A   1      45.421  33.155  29.813  1.00  0.00     0.023 A 
ATOM     94  C   UNL A   1      45.498  34.291  28.988  1.00  0.00     0.031 A 
ATOM     95  C   UNL A   1      46.101  33.188  31.044  1.00  0.00     0.131 A 
ATOM     96  C   UNL A   1      46.284  35.386  29.377  1.00  0.00     0.055 A 
ATOM     97  C   UNL A   1      46.824  34.307  31.457  1.00  0.00     0.041 A 
ATOM     98  F   UNL A   1      46.068  32.131  31.872  1.00  0.00    -0.206 F 
ATOM     99  C   UNL A   1      46.931  35.411  30.615  1.00  0.00     0.022 A 
BRANCH  96 100
ATOM    100  S   UNL A   1      46.537  36.738  28.195  1.00  0.00     0.124 S 
ATOM    101  O   UNL A   1      46.681  36.016  26.936  1.00  0.00    -0.237 OA
ATOM    102  O   UNL A   1      45.314  37.519  28.346  1.00  0.00    -0.237 OA
ATOM    103  O   UNL A   1      47.753  37.393  28.678  1.00  0.00    -0.744 OA
ENDBRANCH  96 100
ENDBRANCH  70  93
ENDBRANCH  44  45
ENDBRANCH  36  39
ENDBRANCH  34  35
ENDBRANCH  33  34
ENDBRANCH  32  33
ENDBRANCH  31  32
ENDBRANCH   1  31
TORSDOF 22
ENDMDL
MODEL 3
REMARK VINA RESULT:     -11.1      1.911      7.573
REMARK SMILES COc1ccc(CCc2nnc(NC(=O)[C@@H]3[C@@H](C(=O)NCCCCCCNC(=O)c4ccc(-c5c6nc(c(-c7cc(S(=O)(=O)[O-])ccc7F)c7ccc([nH]7)c(-c7cc(S(=O)(=O)[O-])ccc7F)c7nc(c(-c8cc(S(=O)(=O)[O-])ccc8F)c8ccc5[nH]8)C=C7)C=C6)cc4)C3(C)C)s2)cc1
REMARK SMILES IDX 22 1 21 2 20 3 18 4 19 5 17 7 16 8 93 9 94 10 95 11 14 12
REMARK SMILES IDX 13 13 15 15 12 16 9 17 10 18 96 19 11 20 8 21 7 22 6 23 3 24
REMARK SMILES IDX 4 25 98 26 5 27 97 28 2 29 1 30 23 31 24 32 25 33 26 34
REMARK SMILES IDX 27 35 28 36 29 38 30 39 31 40 92 41 32 42 91 43 33 44 34 45
REMARK SMILES IDX 35 46 85 47 36 48 90 49 84 50 86 51 37 52 89 53 83 54 82 55
REMARK SMILES IDX 38 57 70 58 50 59 69 60 51 61 54 62 68 63 87 64 52 65 53 66
REMARK SMILES IDX 67 68 88 69 55 70 39 71 40 72 48 73 41 74 47 75 49 76 46 77
REMARK SMILES IDX 42 78 43 79 44 80 45 81 71 82 72 83 80 84 73 85 79 86 81 87
REMARK SMILES IDX 78 88 74 89 75 90 76 91 77 92 56 93 57 94 65 95 58 96 64 97
REMARK SMILES IDX 66 98 63 99 59 100 60 101 61 102 62 103
REMARK H PARENT 20 6 13 14 27 37 86 56 54 67
REMARK Flexibility Score: inf
ROOT
ATOM      1  C   UNL A   1      35.317  23.984  23.022  1.00  0.00     0.021 C 
ENDROOT
BRANCH   1   2
ATOM      2  C   UNL A   1      34.078  24.233  23.879  1.00  0.00     0.116 C 
BRANCH   2   3
ATOM      3  N   UNL A   1      34.335  25.260  24.868  1.00  0.00    -0.356 N 
ATOM      4  C   UNL A   1      33.649  26.355  25.299  1.00  0.00     0.224 C 
ATOM      5  O   UNL A   1      34.239  27.097  26.087  1.00  0.00    -0.275 OA
ATOM      6  H   UNL A   1      35.195  25.139  25.330  1.00  0.00     0.163 HD
BRANCH   4   7
ATOM      7  C   UNL A   1      32.252  26.716  24.952  1.00  0.00     0.098 C 
ATOM      8  C   UNL A   1      31.261  25.957  24.117  1.00  0.00     0.098 C 
ATOM      9  C   UNL A   1      31.778  27.324  23.637  1.00  0.00    -0.011 C 
ATOM     10  C   UNL A   1      32.654  27.315  22.402  1.00  0.00     0.013 C 
ATOM     11  C   UNL A   1      30.898  28.548  23.715  1.00  0.00     0.013 C 
BRANCH   8  12
ATOM     12  C   UNL A   1      29.912  25.686  24.702  1.00  0.00     0.230 C 
ATOM     13  N   UNL A   1      29.747  24.637  25.575  1.00  0.00    -0.300 N 
ATOM     14  H   UNL A   1      28.825  24.379  25.804  1.00  0.00     0.172 HD
ATOM     15  O   UNL A   1      28.931  26.353  24.377  1.00  0.00    -0.274 OA
BRANCH  13  16
ATOM     16  C   UNL A   1      30.758  23.923  26.152  1.00  0.00     0.212 A 
ATOM     17  C   UNL A   1      32.547  22.409  26.470  1.00  0.00     0.119 A 
ATOM     18  N   UNL A   1      32.454  23.287  27.448  1.00  0.00    -0.142 NA
ATOM     19  S   UNL A   1      31.262  22.517  25.321  1.00  0.00    -0.080 S 
ATOM     20  N   UNL A   1      31.419  24.170  27.254  1.00  0.00    -0.120 NA
BRANCH  17  21
ATOM     21  C   UNL A   1      33.666  21.424  26.343  1.00  0.00     0.074 C 
BRANCH  21  22
ATOM     22  C   UNL A   1      33.733  20.717  24.980  1.00  0.00     0.043 C 
BRANCH  22  23
ATOM     23  C   UNL A   1      33.688  19.204  25.010  1.00  0.00    -0.047 A 
ATOM     24  C   UNL A   1      33.555  16.400  24.960  1.00  0.00     0.118 A 
ATOM     25  C   UNL A   1      34.580  17.056  24.292  1.00  0.00     0.046 A 
ATOM     26  C   UNL A   1      32.610  17.128  25.682  1.00  0.00     0.046 A 
ATOM     27  C   UNL A   1      34.631  18.449  24.296  1.00  0.00     0.007 A 
ATOM     28  C   UNL A   1      32.678  18.526  25.707  1.00  0.00     0.007 A 
BRANCH  24  29
ATOM     29  O   UNL A   1      33.562  15.033  24.916  1.00  0.00    -0.497 OA
ATOM     30  C   UNL A   1      32.526  14.485  25.734  1.00  0.00     0.278 C 
ENDBRANCH  24  29
ENDBRANCH  22  23
ENDBRANCH  21  22
ENDBRANCH  17  21
ENDBRANCH  13  16
ENDBRANCH   8  12
ENDBRANCH   4   7
ENDBRANCH   2   3
ENDBRANCH   1   2
BRANCH   1  31
ATOM     31  C   UNL A   1      35.913  22.582  23.174  1.00  0.00     0.002 C 
BRANCH  31  32
ATOM     32  C   UNL A   1      37.077  22.476  24.163  1.00  0.00     0.002 C 
BRANCH  32  33
ATOM     33  C   UNL A   1      37.400  21.058  24.641  1.00  0.00     0.021 C 
BRANCH  33  34
ATOM     34  C   UNL A   1      38.119  20.985  25.985  1.00  0.00     0.116 C 
BRANCH  34  35
ATOM     35  N   UNL A   1      39.100  19.912  26.015  1.00  0.00    -0.352 N 
ATOM     36  C   UNL A   1      40.468  19.986  26.095  1.00  0.00     0.251 C 
ATOM     37  H   UNL A   1      38.729  19.000  25.972  1.00  0.00     0.163 HD
ATOM     38  O   UNL A   1      41.147  18.990  25.864  1.00  0.00    -0.269 OA
BRANCH  36  39
ATOM     39  C   UNL A   1      41.119  21.268  26.442  1.00  0.00     0.039 A 
ATOM     40  C   UNL A   1      41.537  22.117  25.414  1.00  0.00     0.014 A 
ATOM     41  C   UNL A   1      41.334  21.625  27.775  1.00  0.00     0.014 A 
ATOM     42  C   UNL A   1      42.119  23.349  25.724  1.00  0.00     0.010 A 
ATOM     43  C   UNL A   1      41.849  22.882  28.080  1.00  0.00     0.010 A 
ATOM     44  C   UNL A   1      42.246  23.762  27.060  1.00  0.00    -0.014 A 
BRANCH  44  45
ATOM     45  C   UNL A   1      42.779  25.108  27.411  1.00  0.00     0.031 A 
ATOM     46  C   UNL A   1      41.874  26.143  28.024  1.00  0.00     0.074 A 
ATOM     47  C   UNL A   1      44.052  25.429  27.102  1.00  0.00     0.049 A 
ATOM     48  N   UNL A   1      42.125  27.395  28.314  1.00  0.00    -0.248 NA
ATOM     49  C   UNL A   1      40.499  25.720  28.324  1.00  0.00     0.031 C 
ATOM     50  C   UNL A   1      45.024  24.531  26.474  1.00  0.00     0.029 A 
ATOM     51  N   UNL A   1      44.744  26.607  27.249  1.00  0.00    -0.354 N 
ATOM     52  C   UNL A   1      40.940  27.907  28.834  1.00  0.00     0.074 A 
ATOM     53  C   UNL A   1      39.951  26.854  28.729  1.00  0.00     0.031 C 
ATOM     54  C   UNL A   1      46.176  25.191  26.278  1.00  0.00     0.029 A 
ATOM     55  C   UNL A   1      46.023  26.565  26.744  1.00  0.00     0.049 A 
ATOM     56  H   UNL A   1      44.359  27.407  27.675  1.00  0.00     0.167 HD
ATOM     57  C   UNL A   1      40.706  29.126  29.384  1.00  0.00     0.034 A 
ATOM     58  C   UNL A   1      46.965  27.524  26.650  1.00  0.00     0.034 A 
ATOM     59  C   UNL A   1      41.702  30.166  29.476  1.00  0.00     0.049 A 
ATOM     60  C   UNL A   1      46.675  28.890  27.213  1.00  0.00     0.074 A 
ATOM     61  C   UNL A   1      41.592  31.417  30.058  1.00  0.00     0.029 A 
ATOM     62  N   UNL A   1      42.989  30.085  28.956  1.00  0.00    -0.354 N 
ATOM     63  N   UNL A   1      45.569  29.337  27.764  1.00  0.00    -0.248 NA
ATOM     64  C   UNL A   1      47.765  29.871  27.166  1.00  0.00     0.031 C 
ATOM     65  C   UNL A   1      42.779  32.119  29.820  1.00  0.00     0.029 A 
ATOM     66  C   UNL A   1      43.667  31.277  29.170  1.00  0.00     0.049 A 
ATOM     67  H   UNL A   1      43.365  29.297  28.504  1.00  0.00     0.167 HD
ATOM     68  C   UNL A   1      45.845  30.643  28.161  1.00  0.00     0.074 A 
ATOM     69  C   UNL A   1      47.223  30.904  27.793  1.00  0.00     0.031 C 
ATOM     70  C   UNL A   1      45.036  31.538  28.783  1.00  0.00     0.034 A 
BRANCH  57  71
ATOM     71  C   UNL A   1      39.312  29.392  29.906  1.00  0.00     0.023 A 
ATOM     72  C   UNL A   1      38.377  30.133  29.161  1.00  0.00     0.031 A 
ATOM     73  C   UNL A   1      38.924  28.947  31.183  1.00  0.00     0.131 A 
ATOM     74  C   UNL A   1      37.148  30.495  29.734  1.00  0.00     0.055 A 
ATOM     75  C   UNL A   1      37.660  29.226  31.708  1.00  0.00     0.041 A 
ATOM     76  F   UNL A   1      39.775  28.251  31.953  1.00  0.00    -0.206 F 
ATOM     77  C   UNL A   1      36.771  30.023  30.992  1.00  0.00     0.022 A 
BRANCH  74  78
ATOM     78  S   UNL A   1      36.137  31.741  28.888  1.00  0.00     0.124 S 
ATOM     79  O   UNL A   1      37.073  32.859  28.786  1.00  0.00    -0.237 OA
ATOM     80  O   UNL A   1      35.798  31.076  27.637  1.00  0.00    -0.237 OA
ATOM     81  O   UNL A   1      35.021  31.957  29.806  1.00  0.00    -0.744 OA
ENDBRANCH  74  78
ENDBRANCH  57  71
BRANCH  58  82
ATOM     82  C   UNL A   1      48.270  27.224  25.995  1.00  0.00     0.023 A 
ATOM     83  C   UNL A   1      49.367  26.754  26.734  1.00  0.00     0.031 A 
ATOM     84  C   UNL A   1      48.440  27.417  24.612  1.00  0.00     0.131 A 
ATOM     85  C   UNL A   1      50.595  26.527  26.095  1.00  0.00     0.055 A 
ATOM     86  C   UNL A   1      49.650  27.142  23.972  1.00  0.00     0.041 A 
ATOM     87  F   UNL A   1      47.420  27.854  23.857  1.00  0.00    -0.206 F 
ATOM     88  C   UNL A   1      50.740  26.705  24.717  1.00  0.00     0.022 A 
BRANCH  85  89
ATOM     89  S   UNL A   1      52.027  26.055  27.104  1.00  0.00     0.124 S 
ATOM     90  O   UNL A   1      52.912  27.200  26.917  1.00  0.00    -0.237 OA
ATOM     91  O   UNL A   1      51.429  25.914  28.428  1.00  0.00    -0.237 OA
ATOM     92  O   UNL A   1      52.478  24.809  26.490  1.00  0.00    -0.744 OA
ENDBRANCH  85  89
ENDBRANCH  58  82
BRANCH  70  93
ATOM     93  C   UNL A   1      45.638  32.875  29.146  1.00  0.00     0.023 A 
ATOM     94  C   UNL A   1      45.616  33.966  28.260  1.00  0.00     0.031 A 
ATOM     95  C   UNL A   1      46.253  33.056  30.399  1.00  0.00     0.131 A 
ATOM     96  C   UNL A   1      46.248  35.169  28.615  1.00  0.00     0.055 A 
ATOM     97  C   UNL A   1      46.819  34.276  30.773  1.00  0.00     0.041 A 
ATOM     98  F   UNL A   1      46.310  32.048  31.285  1.00  0.00    -0.206 F 
ATOM     99  C   UNL A   1      46.831  35.337  29.873  1.00  0.00     0.022 A 
BRANCH  96 100
ATOM    100  S   UNL A   1      46.391  36.477  27.366  1.00  0.00     0.124 S 
ATOM    101  O   UNL A   1      45.492  37.498  27.893  1.00  0.00    -0.237 OA
ATOM    102  O   UNL A   1      47.815  36.796  27.411  1.00  0.00    -0.237 OA
ATOM    103  O   UNL A   1      45.940  35.828  26.136  1.00  0.00    -0.744 OA
ENDBRANCH  96 100
ENDBRANCH  70  93
ENDBRANCH  44  45
ENDBRANCH  36  39
ENDBRANCH  34  35
ENDBRANCH  33  34
ENDBRANCH  32  33
ENDBRANCH  31  32
ENDBRANCH   1  31
TORSDOF 22
ENDMDL
