MODEL 1
REMARK VINA RESULT:     -11.3      0.000      0.000
REMARK SMILES CC[C@H]1CCC[C@@H]([C@@H](Cc2ccccc2)C(=O)NCCCCCCNC(=O)c2ccc(-c3c4nc(c(-c5cc(S(=O)(=O)[O-])ccc5F)c5ccc([nH]5)c(-c5cc(S(=O)(=O)[O-])ccc5F)c5nc(c(-c6cc(S(=O)(=O)[O-])ccc6F)c6ccc3[nH]6)C=C5)C=C4)cc2)C1
REMARK SMILES IDX 22 1 21 2 20 3 19 4 18 5 16 6 17 7 8 9 7 10 3 11 4 12 91 13
REMARK SMILES IDX 5 14 6 15 2 16 1 17 9 18 10 19 11 20 15 21 12 22 14 23 13 24
REMARK SMILES IDX 23 25 24 26 25 27 26 28 27 30 28 31 29 32 90 33 30 34 89 35
REMARK SMILES IDX 31 36 32 37 33 38 83 39 34 40 88 41 82 42 84 43 35 44 87 45
REMARK SMILES IDX 81 46 80 47 36 49 68 50 48 51 67 52 49 53 52 54 66 55 85 56
REMARK SMILES IDX 50 57 51 58 65 60 86 61 53 62 37 63 38 64 46 65 39 66 45 67
REMARK SMILES IDX 47 68 44 69 40 70 41 71 42 72 43 73 69 74 70 75 78 76 71 77
REMARK SMILES IDX 77 78 79 79 76 80 72 81 73 82 74 83 75 84 54 85 55 86 63 87
REMARK SMILES IDX 56 88 62 89 64 90 61 91 57 92 58 93 59 94 60 95
REMARK H PARENT 18 8 25 29 84 48 52 59
REMARK Flexibility Score: inf
ROOT
ATOM      1  C   UNL A   1      31.776  29.788  26.793  1.00  0.00     0.002 C 
ENDROOT
BRANCH   1   2
ATOM      2  C   UNL A   1      32.882  28.927  26.173  1.00  0.00     0.002 C 
BRANCH   2   3
ATOM      3  C   UNL A   1      32.402  27.760  25.309  1.00  0.00     0.021 C 
BRANCH   3   4
ATOM      4  C   UNL A   1      33.471  26.715  25.013  1.00  0.00     0.116 C 
BRANCH   4   5
ATOM      5  N   UNL A   1      33.719  26.539  23.604  1.00  0.00    -0.356 N 
ATOM      6  C   UNL A   1      33.647  25.421  22.840  1.00  0.00     0.223 C 
ATOM      7  O   UNL A   1      33.625  25.603  21.616  1.00  0.00    -0.275 OA
ATOM      8  H   UNL A   1      33.981  27.356  23.122  1.00  0.00     0.163 HD
BRANCH   6   9
ATOM      9  C   UNL A   1      33.578  23.992  23.396  1.00  0.00     0.086 C 
BRANCH   9  10
ATOM     10  C   UNL A   1      32.219  23.199  23.422  1.00  0.00     0.002 C 
ATOM     11  C   UNL A   1      31.980  22.325  25.912  1.00  0.00    -0.011 C 
ATOM     12  C   UNL A   1      30.745  23.225  26.077  1.00  0.00     0.003 C 
ATOM     13  C   UNL A   1      32.252  21.992  24.416  1.00  0.00     0.008 C 
ATOM     14  C   UNL A   1      30.759  24.419  25.139  1.00  0.00     0.001 C 
ATOM     15  C   UNL A   1      30.900  23.934  23.703  1.00  0.00     0.004 C 
BRANCH  11  16
ATOM     16  C   UNL A   1      33.247  22.842  26.622  1.00  0.00     0.000 C 
ATOM     17  C   UNL A   1      34.131  21.779  27.256  1.00  0.00     0.004 C 
ENDBRANCH  11  16
ENDBRANCH   9  10
BRANCH   9  18
ATOM     18  C   UNL A   1      34.855  23.156  23.090  1.00  0.00     0.049 C 
BRANCH  18  19
ATOM     19  C   UNL A   1      35.911  23.022  24.155  1.00  0.00    -0.047 A 
ATOM     20  C   UNL A   1      36.135  24.067  25.066  1.00  0.00     0.004 A 
ATOM     21  C   UNL A   1      36.700  21.869  24.243  1.00  0.00     0.004 A 
ATOM     22  C   UNL A   1      37.182  23.993  25.988  1.00  0.00     0.000 A 
ATOM     23  C   UNL A   1      37.740  21.794  25.171  1.00  0.00     0.000 A 
ATOM     24  C   UNL A   1      37.994  22.862  26.030  1.00  0.00     0.000 A 
ENDBRANCH  18  19
ENDBRANCH   9  18
ENDBRANCH   6   9
ENDBRANCH   4   5
ENDBRANCH   3   4
ENDBRANCH   2   3
ENDBRANCH   1   2
BRANCH   1  25
ATOM     25  C   UNL A   1      31.888  31.290  26.530  1.00  0.00     0.021 C 
BRANCH  25  26
ATOM     26  C   UNL A   1      33.050  31.972  27.236  1.00  0.00     0.116 C 
BRANCH  26  27
ATOM     27  N   UNL A   1      32.774  33.374  27.500  1.00  0.00    -0.352 N 
ATOM     28  C   UNL A   1      33.292  34.173  28.485  1.00  0.00     0.251 C 
ATOM     29  H   UNL A   1      32.129  33.804  26.893  1.00  0.00     0.163 HD
ATOM     30  O   UNL A   1      32.787  35.268  28.723  1.00  0.00    -0.269 OA
BRANCH  28  31
ATOM     31  C   UNL A   1      34.451  33.690  29.262  1.00  0.00     0.039 A 
ATOM     32  C   UNL A   1      34.255  32.746  30.271  1.00  0.00     0.014 A 
ATOM     33  C   UNL A   1      35.735  34.157  28.966  1.00  0.00     0.014 A 
ATOM     34  C   UNL A   1      35.357  32.232  30.956  1.00  0.00     0.010 A 
ATOM     35  C   UNL A   1      36.835  33.584  29.591  1.00  0.00     0.010 A 
ATOM     36  C   UNL A   1      36.658  32.627  30.602  1.00  0.00    -0.014 A 
BRANCH  36  37
ATOM     37  C   UNL A   1      37.857  32.106  31.307  1.00  0.00     0.031 A 
ATOM     38  C   UNL A   1      38.654  30.997  30.674  1.00  0.00     0.074 A 
ATOM     39  C   UNL A   1      38.181  32.565  32.531  1.00  0.00     0.049 A 
ATOM     40  N   UNL A   1      39.628  30.284  31.175  1.00  0.00    -0.248 NA
ATOM     41  C   UNL A   1      38.271  30.617  29.305  1.00  0.00     0.031 C 
ATOM     42  C   UNL A   1      37.479  33.630  33.249  1.00  0.00     0.029 A 
ATOM     43  N   UNL A   1      39.175  32.182  33.396  1.00  0.00    -0.354 N 
ATOM     44  C   UNL A   1      39.959  29.357  30.192  1.00  0.00     0.074 A 
ATOM     45  C   UNL A   1      39.035  29.557  29.098  1.00  0.00     0.031 C 
ATOM     46  C   UNL A   1      38.076  33.826  34.436  1.00  0.00     0.029 A 
ATOM     47  C   UNL A   1      39.162  32.864  34.592  1.00  0.00     0.049 A 
ATOM     48  H   UNL A   1      39.836  31.484  33.182  1.00  0.00     0.167 HD
ATOM     49  C   UNL A   1      40.958  28.439  30.194  1.00  0.00     0.034 A 
ATOM     50  C   UNL A   1      39.923  32.712  35.694  1.00  0.00     0.034 A 
ATOM     51  C   UNL A   1      41.876  28.267  31.292  1.00  0.00     0.049 A 
ATOM     52  C   UNL A   1      40.996  31.648  35.697  1.00  0.00     0.074 A 
ATOM     53  C   UNL A   1      42.946  27.395  31.391  1.00  0.00     0.029 A 
ATOM     54  N   UNL A   1      41.830  28.975  32.487  1.00  0.00    -0.354 N 
ATOM     55  N   UNL A   1      41.311  30.789  34.755  1.00  0.00    -0.248 NA
ATOM     56  C   UNL A   1      41.819  31.539  36.909  1.00  0.00     0.031 C 
ATOM     57  C   UNL A   1      43.496  27.522  32.670  1.00  0.00     0.029 A 
ATOM     58  C   UNL A   1      42.833  28.539  33.337  1.00  0.00     0.049 A 
ATOM     59  H   UNL A   1      41.179  29.684  32.697  1.00  0.00     0.167 HD
ATOM     60  C   UNL A   1      42.400  30.072  35.243  1.00  0.00     0.074 A 
ATOM     61  C   UNL A   1      42.685  30.596  36.562  1.00  0.00     0.031 C 
ATOM     62  C   UNL A   1      43.109  29.079  34.649  1.00  0.00     0.034 A 
BRANCH  49  63
ATOM     63  C   UNL A   1      41.078  27.540  28.986  1.00  0.00     0.023 A 
ATOM     64  C   UNL A   1      42.079  27.734  28.017  1.00  0.00     0.031 A 
ATOM     65  C   UNL A   1      40.155  26.500  28.777  1.00  0.00     0.131 A 
ATOM     66  C   UNL A   1      42.079  26.962  26.846  1.00  0.00     0.055 A 
ATOM     67  C   UNL A   1      40.221  25.673  27.654  1.00  0.00     0.041 A 
ATOM     68  F   UNL A   1      39.163  26.280  29.651  1.00  0.00    -0.206 F 
ATOM     69  C   UNL A   1      41.175  25.914  26.670  1.00  0.00     0.022 A 
BRANCH  66  70
ATOM     70  S   UNL A   1      43.167  27.464  25.483  1.00  0.00     0.124 S 
ATOM     71  O   UNL A   1      44.145  28.296  26.179  1.00  0.00    -0.237 OA
ATOM     72  O   UNL A   1      43.657  26.185  24.984  1.00  0.00    -0.237 OA
ATOM     73  O   UNL A   1      42.273  28.188  24.581  1.00  0.00    -0.744 OA
ENDBRANCH  66  70
ENDBRANCH  49  63
BRANCH  50  74
ATOM     74  C   UNL A   1      39.700  33.571  36.893  1.00  0.00     0.023 A 
ATOM     75  C   UNL A   1      40.528  34.673  37.155  1.00  0.00     0.031 A 
ATOM     76  C   UNL A   1      38.682  33.279  37.819  1.00  0.00     0.131 A 
ATOM     77  C   UNL A   1      40.361  35.410  38.339  1.00  0.00     0.055 A 
ATOM     78  C   UNL A   1      38.480  34.052  38.964  1.00  0.00     0.041 A 
ATOM     79  F   UNL A   1      37.858  32.237  37.618  1.00  0.00    -0.206 F 
ATOM     80  C   UNL A   1      39.333  35.117  39.237  1.00  0.00     0.022 A 
BRANCH  77  81
ATOM     81  S   UNL A   1      41.573  36.700  38.735  1.00  0.00     0.124 S 
ATOM     82  O   UNL A   1      40.717  37.755  39.267  1.00  0.00    -0.237 OA
ATOM     83  O   UNL A   1      42.432  36.022  39.701  1.00  0.00    -0.237 OA
ATOM     84  O   UNL A   1      42.195  36.989  37.445  1.00  0.00    -0.744 OA
ENDBRANCH  77  81
ENDBRANCH  50  74
BRANCH  62  85
ATOM     85  C   UNL A   1      44.316  28.547  35.384  1.00  0.00     0.023 A 
ATOM     86  C   UNL A   1      44.218  27.535  36.354  1.00  0.00     0.031 A 
ATOM     87  C   UNL A   1      45.594  29.053  35.081  1.00  0.00     0.131 A 
ATOM     88  C   UNL A   1      45.374  27.090  37.016  1.00  0.00     0.055 A 
ATOM     89  C   UNL A   1      46.745  28.562  35.697  1.00  0.00     0.041 A 
ATOM     90  F   UNL A   1      45.744  30.023  34.165  1.00  0.00    -0.206 F 
ATOM     91  C   UNL A   1      46.637  27.582  36.678  1.00  0.00     0.022 A 
BRANCH  88  92
ATOM     92  S   UNL A   1      45.198  25.909  38.382  1.00  0.00     0.124 S 
ATOM     93  O   UNL A   1      46.566  25.820  38.882  1.00  0.00    -0.237 OA
ATOM     94  O   UNL A   1      44.243  26.582  39.256  1.00  0.00    -0.237 OA
ATOM     95  O   UNL A   1      44.697  24.701  37.729  1.00  0.00    -0.744 OA
ENDBRANCH  88  92
ENDBRANCH  62  85
ENDBRANCH  36  37
ENDBRANCH  28  31
ENDBRANCH  26  27
ENDBRANCH  25  26
ENDBRANCH   1  25
TORSDOF 20
ENDMDL
MODEL 2
REMARK VINA RESULT:     -11.1      4.548      8.354
REMARK SMILES CC[C@H]1CCC[C@@H]([C@@H](Cc2ccccc2)C(=O)NCCCCCCNC(=O)c2ccc(-c3c4nc(c(-c5cc(S(=O)(=O)[O-])ccc5F)c5ccc([nH]5)c(-c5cc(S(=O)(=O)[O-])ccc5F)c5nc(c(-c6cc(S(=O)(=O)[O-])ccc6F)c6ccc3[nH]6)C=C5)C=C4)cc2)C1
REMARK SMILES IDX 22 1 21 2 20 3 19 4 18 5 16 6 17 7 8 9 7 10 3 11 4 12 91 13
REMARK SMILES IDX 5 14 6 15 2 16 1 17 9 18 10 19 11 20 15 21 12 22 14 23 13 24
REMARK SMILES IDX 23 25 24 26 25 27 26 28 27 30 28 31 29 32 90 33 30 34 89 35
REMARK SMILES IDX 31 36 32 37 33 38 83 39 34 40 88 41 82 42 84 43 35 44 87 45
REMARK SMILES IDX 81 46 80 47 36 49 68 50 48 51 67 52 49 53 52 54 66 55 85 56
REMARK SMILES IDX 50 57 51 58 65 60 86 61 53 62 37 63 38 64 46 65 39 66 45 67
REMARK SMILES IDX 47 68 44 69 40 70 41 71 42 72 43 73 69 74 70 75 78 76 71 77
REMARK SMILES IDX 77 78 79 79 76 80 72 81 73 82 74 83 75 84 54 85 55 86 63 87
REMARK SMILES IDX 56 88 62 89 64 90 61 91 57 92 58 93 59 94 60 95
REMARK H PARENT 18 8 25 29 84 48 52 59
REMARK Flexibility Score: inf
ROOT
ATOM      1  C   UNL A   1      34.824  23.435  23.856  1.00  0.00     0.002 C 
ENDROOT
BRANCH   1   2
ATOM      2  C   UNL A   1      33.893  22.219  23.807  1.00  0.00     0.002 C 
BRANCH   2   3
ATOM      3  C   UNL A   1      32.468  22.499  23.327  1.00  0.00     0.021 C 
BRANCH   3   4
ATOM      4  C   UNL A   1      32.112  23.977  23.241  1.00  0.00     0.116 C 
BRANCH   4   5
ATOM      5  N   UNL A   1      31.308  24.435  24.348  1.00  0.00    -0.356 N 
ATOM      6  C   UNL A   1      30.851  25.677  24.637  1.00  0.00     0.223 C 
ATOM      7  O   UNL A   1      29.948  25.738  25.482  1.00  0.00    -0.275 OA
ATOM      8  H   UNL A   1      31.052  23.736  24.992  1.00  0.00     0.163 HD
BRANCH   6   9
ATOM      9  C   UNL A   1      31.368  26.967  23.984  1.00  0.00     0.086 C 
BRANCH   9  10
ATOM     10  C   UNL A   1      32.895  27.344  24.037  1.00  0.00     0.002 C 
ATOM     11  C   UNL A   1      32.994  29.619  25.393  1.00  0.00    -0.011 C 
ATOM     12  C   UNL A   1      33.771  28.889  26.501  1.00  0.00     0.003 C 
ATOM     13  C   UNL A   1      33.127  28.891  24.024  1.00  0.00     0.008 C 
ATOM     14  C   UNL A   1      33.490  27.396  26.529  1.00  0.00     0.001 C 
ATOM     15  C   UNL A   1      33.788  26.799  25.161  1.00  0.00     0.004 C 
BRANCH  11  16
ATOM     16  C   UNL A   1      31.523  29.923  25.738  1.00  0.00     0.000 C 
ATOM     17  C   UNL A   1      31.174  31.392  25.916  1.00  0.00     0.004 C 
ENDBRANCH  11  16
ENDBRANCH   9  10
BRANCH   9  18
ATOM     18  C   UNL A   1      30.617  27.329  22.670  1.00  0.00     0.049 C 
BRANCH  18  19
ATOM     19  C   UNL A   1      29.613  28.452  22.689  1.00  0.00    -0.047 A 
ATOM     20  C   UNL A   1      30.005  29.756  22.346  1.00  0.00     0.004 A 
ATOM     21  C   UNL A   1      28.285  28.223  23.068  1.00  0.00     0.004 A 
ATOM     22  C   UNL A   1      29.108  30.820  22.462  1.00  0.00     0.000 A 
ATOM     23  C   UNL A   1      27.388  29.287  23.176  1.00  0.00     0.000 A 
ATOM     24  C   UNL A   1      27.803  30.587  22.892  1.00  0.00     0.000 A 
ENDBRANCH  18  19
ENDBRANCH   9  18
ENDBRANCH   6   9
ENDBRANCH   4   5
ENDBRANCH   3   4
ENDBRANCH   2   3
ENDBRANCH   1   2
BRANCH   1  25
ATOM     25  C   UNL A   1      36.299  23.122  24.113  1.00  0.00     0.021 C 
BRANCH  25  26
ATOM     26  C   UNL A   1      36.744  23.307  25.555  1.00  0.00     0.116 C 
BRANCH  26  27
ATOM     27  N   UNL A   1      37.779  22.357  25.927  1.00  0.00    -0.352 N 
ATOM     28  C   UNL A   1      39.033  22.612  26.416  1.00  0.00     0.251 C 
ATOM     29  H   UNL A   1      37.548  21.407  25.812  1.00  0.00     0.163 HD
ATOM     30  O   UNL A   1      39.874  21.717  26.462  1.00  0.00    -0.269 OA
BRANCH  28  31
ATOM     31  C   UNL A   1      39.360  23.979  26.867  1.00  0.00     0.039 A 
ATOM     32  C   UNL A   1      39.163  24.327  28.205  1.00  0.00     0.014 A 
ATOM     33  C   UNL A   1      39.889  24.906  25.963  1.00  0.00     0.014 A 
ATOM     34  C   UNL A   1      39.542  25.594  28.649  1.00  0.00     0.010 A 
ATOM     35  C   UNL A   1      40.341  26.135  26.426  1.00  0.00     0.010 A 
ATOM     36  C   UNL A   1      40.159  26.499  27.769  1.00  0.00    -0.014 A 
BRANCH  36  37
ATOM     37  C   UNL A   1      40.574  27.858  28.202  1.00  0.00     0.031 A 
ATOM     38  C   UNL A   1      42.041  28.192  28.257  1.00  0.00     0.074 A 
ATOM     39  C   UNL A   1      39.656  28.752  28.614  1.00  0.00     0.049 A 
ATOM     40  N   UNL A   1      42.635  29.244  28.754  1.00  0.00    -0.248 NA
ATOM     41  C   UNL A   1      42.961  27.180  27.714  1.00  0.00     0.031 C 
ATOM     42  C   UNL A   1      38.207  28.539  28.615  1.00  0.00     0.029 A 
ATOM     43  N   UNL A   1      39.805  30.015  29.129  1.00  0.00    -0.354 N 
ATOM     44  C   UNL A   1      43.998  29.013  28.603  1.00  0.00     0.074 A 
ATOM     45  C   UNL A   1      44.139  27.691  28.033  1.00  0.00     0.031 C 
ATOM     46  C   UNL A   1      37.603  29.641  29.089  1.00  0.00     0.029 A 
ATOM     47  C   UNL A   1      38.617  30.613  29.483  1.00  0.00     0.049 A 
ATOM     48  H   UNL A   1      40.680  30.454  29.236  1.00  0.00     0.167 HD
ATOM     49  C   UNL A   1      45.035  29.838  28.892  1.00  0.00     0.034 A 
ATOM     50  C   UNL A   1      38.377  31.799  30.078  1.00  0.00     0.034 A 
ATOM     51  C   UNL A   1      44.869  31.158  29.448  1.00  0.00     0.049 A 
ATOM     52  C   UNL A   1      39.549  32.680  30.442  1.00  0.00     0.074 A 
ATOM     53  C   UNL A   1      45.842  32.094  29.749  1.00  0.00     0.029 A 
ATOM     54  N   UNL A   1      43.650  31.728  29.794  1.00  0.00    -0.354 N 
ATOM     55  N   UNL A   1      40.833  32.458  30.279  1.00  0.00    -0.248 NA
ATOM     56  C   UNL A   1      39.238  33.975  31.063  1.00  0.00     0.031 C 
ATOM     57  C   UNL A   1      45.221  33.195  30.346  1.00  0.00     0.029 A 
ATOM     58  C   UNL A   1      43.850  32.989  30.332  1.00  0.00     0.049 A 
ATOM     59  H   UNL A   1      42.772  31.298  29.675  1.00  0.00     0.167 HD
ATOM     60  C   UNL A   1      41.478  33.607  30.732  1.00  0.00     0.074 A 
ATOM     61  C   UNL A   1      40.443  34.516  31.178  1.00  0.00     0.031 C 
ATOM     62  C   UNL A   1      42.805  33.888  30.764  1.00  0.00     0.034 A 
BRANCH  49  63
ATOM     63  C   UNL A   1      46.430  29.316  28.640  1.00  0.00     0.023 A 
ATOM     64  C   UNL A   1      46.915  29.102  27.337  1.00  0.00     0.031 A 
ATOM     65  C   UNL A   1      47.274  28.988  29.716  1.00  0.00     0.131 A 
ATOM     66  C   UNL A   1      48.165  28.495  27.146  1.00  0.00     0.055 A 
ATOM     67  C   UNL A   1      48.556  28.473  29.516  1.00  0.00     0.041 A 
ATOM     68  F   UNL A   1      46.861  29.145  30.982  1.00  0.00    -0.206 F 
ATOM     69  C   UNL A   1      49.001  28.205  28.225  1.00  0.00     0.022 A 
BRANCH  66  70
ATOM     70  S   UNL A   1      48.603  27.933  25.478  1.00  0.00     0.124 S 
ATOM     71  O   UNL A   1      48.625  26.483  25.652  1.00  0.00    -0.237 OA
ATOM     72  O   UNL A   1      47.511  28.463  24.669  1.00  0.00    -0.237 OA
ATOM     73  O   UNL A   1      49.909  28.545  25.243  1.00  0.00    -0.744 OA
ENDBRANCH  66  70
ENDBRANCH  49  63
BRANCH  50  74
ATOM     74  C   UNL A   1      36.980  32.224  30.385  1.00  0.00     0.023 A 
ATOM     75  C   UNL A   1      36.178  32.824  29.403  1.00  0.00     0.031 A 
ATOM     76  C   UNL A   1      36.440  32.076  31.675  1.00  0.00     0.131 A 
ATOM     77  C   UNL A   1      34.901  33.304  29.738  1.00  0.00     0.055 A 
ATOM     78  C   UNL A   1      35.147  32.499  31.988  1.00  0.00     0.041 A 
ATOM     79  F   UNL A   1      37.163  31.506  32.654  1.00  0.00    -0.206 F 
ATOM     80  C   UNL A   1      34.374  33.131  31.019  1.00  0.00     0.022 A 
BRANCH  77  81
ATOM     81  S   UNL A   1      33.977  34.247  28.496  1.00  0.00     0.124 S 
ATOM     82  O   UNL A   1      34.888  35.355  28.228  1.00  0.00    -0.237 OA
ATOM     83  O   UNL A   1      33.823  33.269  27.424  1.00  0.00    -0.237 OA
ATOM     84  O   UNL A   1      32.743  34.606  29.191  1.00  0.00    -0.744 OA
ENDBRANCH  77  81
ENDBRANCH  50  74
BRANCH  62  85
ATOM     85  C   UNL A   1      43.215  35.267  31.223  1.00  0.00     0.023 A 
ATOM     86  C   UNL A   1      43.357  35.596  32.581  1.00  0.00     0.031 A 
ATOM     87  C   UNL A   1      43.493  36.264  30.268  1.00  0.00     0.131 A 
ATOM     88  C   UNL A   1      43.726  36.900  32.948  1.00  0.00     0.055 A 
ATOM     89  C   UNL A   1      43.920  37.539  30.637  1.00  0.00     0.041 A 
ATOM     90  F   UNL A   1      43.369  36.005  28.956  1.00  0.00    -0.206 F 
ATOM     91  C   UNL A   1      44.029  37.866  31.985  1.00  0.00     0.022 A 
BRANCH  88  92
ATOM     92  S   UNL A   1      43.734  37.344  34.707  1.00  0.00     0.124 S 
ATOM     93  O   UNL A   1      43.907  38.792  34.653  1.00  0.00    -0.237 OA
ATOM     94  O   UNL A   1      42.428  36.874  35.154  1.00  0.00    -0.237 OA
ATOM     95  O   UNL A   1      44.875  36.603  35.243  1.00  0.00    -0.744 OA
ENDBRANCH  88  92
ENDBRANCH  62  85
ENDBRANCH  36  37
ENDBRANCH  28  31
ENDBRANCH  26  27
ENDBRANCH  25  26
ENDBRANCH   1  25
TORSDOF 20
ENDMDL
MODEL 3
REMARK VINA RESULT:     -11.0      3.224      8.688
REMARK SMILES CC[C@H]1CCC[C@@H]([C@@H](Cc2ccccc2)C(=O)NCCCCCCNC(=O)c2ccc(-c3c4nc(c(-c5cc(S(=O)(=O)[O-])ccc5F)c5ccc([nH]5)c(-c5cc(S(=O)(=O)[O-])ccc5F)c5nc(c(-c6cc(S(=O)(=O)[O-])ccc6F)c6ccc3[nH]6)C=C5)C=C4)cc2)C1
REMARK SMILES IDX 22 1 21 2 20 3 19 4 18 5 16 6 17 7 8 9 7 10 3 11 4 12 91 13
REMARK SMILES IDX 5 14 6 15 2 16 1 17 9 18 10 19 11 20 15 21 12 22 14 23 13 24
REMARK SMILES IDX 23 25 24 26 25 27 26 28 27 30 28 31 29 32 90 33 30 34 89 35
REMARK SMILES IDX 31 36 32 37 33 38 83 39 34 40 88 41 82 42 84 43 35 44 87 45
REMARK SMILES IDX 81 46 80 47 36 49 68 50 48 51 67 52 49 53 52 54 66 55 85 56
REMARK SMILES IDX 50 57 51 58 65 60 86 61 53 62 37 63 38 64 46 65 39 66 45 67
REMARK SMILES IDX 47 68 44 69 40 70 41 71 42 72 43 73 69 74 70 75 78 76 71 77
REMARK SMILES IDX 77 78 79 79 76 80 72 81 73 82 74 83 75 84 54 85 55 86 63 87
REMARK SMILES IDX 56 88 62 89 64 90 61 91 57 92 58 93 59 94 60 95
REMARK H PARENT 18 8 25 29 84 48 52 59
REMARK Flexibility Score: inf
ROOT
ATOM      1  C   UNL A   1      31.322  27.048  26.518  1.00  0.00     0.002 C 
ENDROOT
BRANCH   1   2
ATOM      2  C   UNL A   1      31.164  27.349  25.024  1.00  0.00     0.002 C 
BRANCH   2   3
ATOM      3  C   UNL A   1      30.322  26.346  24.235  1.00  0.00     0.021 C 
BRANCH   3   4
ATOM      4  C   UNL A   1      30.687  24.887  24.481  1.00  0.00     0.116 C 
BRANCH   4   5
ATOM      5  N   UNL A   1      31.498  24.319  23.432  1.00  0.00    -0.356 N 
ATOM      6  C   UNL A   1      32.309  23.234  23.451  1.00  0.00     0.223 C 
ATOM      7  O   UNL A   1      32.657  22.800  22.345  1.00  0.00    -0.275 OA
ATOM      8  H   UNL A   1      31.455  24.793  22.571  1.00  0.00     0.163 HD
BRANCH   6   9
ATOM      9  C   UNL A   1      32.790  22.530  24.728  1.00  0.00     0.086 C 
BRANCH   9  10
ATOM     10  C   UNL A   1      33.355  23.356  25.943  1.00  0.00     0.002 C 
ATOM     11  C   UNL A   1      35.743  22.315  26.429  1.00  0.00    -0.011 C 
ATOM     12  C   UNL A   1      36.376  23.656  26.021  1.00  0.00     0.003 C 
ATOM     13  C   UNL A   1      34.264  22.493  26.878  1.00  0.00     0.008 C 
ATOM     14  C   UNL A   1      35.501  24.454  25.070  1.00  0.00     0.001 C 
ATOM     15  C   UNL A   1      34.129  24.660  25.697  1.00  0.00     0.004 C 
BRANCH  11  16
ATOM     16  C   UNL A   1      35.892  21.193  25.383  1.00  0.00     0.000 C 
ATOM     17  C   UNL A   1      37.094  21.305  24.458  1.00  0.00     0.004 C 
ENDBRANCH  11  16
ENDBRANCH   9  10
BRANCH   9  18
ATOM     18  C   UNL A   1      31.946  21.273  25.086  1.00  0.00     0.049 C 
BRANCH  18  19
ATOM     19  C   UNL A   1      32.374  19.931  24.553  1.00  0.00    -0.047 A 
ATOM     20  C   UNL A   1      32.233  19.634  23.187  1.00  0.00     0.004 A 
ATOM     21  C   UNL A   1      32.894  18.951  25.406  1.00  0.00     0.004 A 
ATOM     22  C   UNL A   1      32.529  18.358  22.704  1.00  0.00     0.000 A 
ATOM     23  C   UNL A   1      33.197  17.678  24.919  1.00  0.00     0.000 A 
ATOM     24  C   UNL A   1      32.996  17.375  23.573  1.00  0.00     0.000 A 
ENDBRANCH  18  19
ENDBRANCH   9  18
ENDBRANCH   6   9
ENDBRANCH   4   5
ENDBRANCH   3   4
ENDBRANCH   2   3
ENDBRANCH   1   2
BRANCH   1  25
ATOM     25  C   UNL A   1      31.974  28.158  27.345  1.00  0.00     0.021 C 
BRANCH  25  26
ATOM     26  C   UNL A   1      33.243  28.737  26.740  1.00  0.00     0.116 C 
BRANCH  26  27
ATOM     27  N   UNL A   1      33.291  30.183  26.869  1.00  0.00    -0.352 N 
ATOM     28  C   UNL A   1      34.200  30.948  27.553  1.00  0.00     0.251 C 
ATOM     29  H   UNL A   1      32.577  30.678  26.405  1.00  0.00     0.163 HD
ATOM     30  O   UNL A   1      33.974  32.138  27.763  1.00  0.00    -0.269 OA
BRANCH  28  31
ATOM     31  C   UNL A   1      35.439  30.315  28.046  1.00  0.00     0.039 A 
ATOM     32  C   UNL A   1      36.592  30.357  27.260  1.00  0.00     0.014 A 
ATOM     33  C   UNL A   1      35.459  29.703  29.303  1.00  0.00     0.014 A 
ATOM     34  C   UNL A   1      37.783  29.826  27.756  1.00  0.00     0.010 A 
ATOM     35  C   UNL A   1      36.663  29.251  29.828  1.00  0.00     0.010 A 
ATOM     36  C   UNL A   1      37.834  29.293  29.055  1.00  0.00    -0.014 A 
BRANCH  36  37
ATOM     37  C   UNL A   1      39.080  28.716  29.619  1.00  0.00     0.031 A 
ATOM     38  C   UNL A   1      39.687  29.341  30.847  1.00  0.00     0.074 A 
ATOM     39  C   UNL A   1      39.703  27.697  28.996  1.00  0.00     0.049 A 
ATOM     40  N   UNL A   1      40.842  29.112  31.411  1.00  0.00    -0.248 NA
ATOM     41  C   UNL A   1      38.895  30.396  31.500  1.00  0.00     0.031 C 
ATOM     42  C   UNL A   1      39.217  27.015  27.794  1.00  0.00     0.029 A 
ATOM     43  N   UNL A   1      40.889  27.067  29.277  1.00  0.00    -0.354 N 
ATOM     44  C   UNL A   1      40.927  30.008  32.472  1.00  0.00     0.074 A 
ATOM     45  C   UNL A   1      39.736  30.828  32.425  1.00  0.00     0.031 C 
ATOM     46  C   UNL A   1      40.088  26.052  27.454  1.00  0.00     0.029 A 
ATOM     47  C   UNL A   1      41.222  26.084  28.372  1.00  0.00     0.049 A 
ATOM     48  H   UNL A   1      41.450  27.295  30.053  1.00  0.00     0.167 HD
ATOM     49  C   UNL A   1      41.899  30.120  33.411  1.00  0.00     0.034 A 
ATOM     50  C   UNL A   1      42.326  25.316  28.282  1.00  0.00     0.034 A 
ATOM     51  C   UNL A   1      43.072  29.283  33.445  1.00  0.00     0.049 A 
ATOM     52  C   UNL A   1      43.422  25.493  29.307  1.00  0.00     0.074 A 
ATOM     53  C   UNL A   1      44.104  29.282  34.367  1.00  0.00     0.029 A 
ATOM     54  N   UNL A   1      43.375  28.300  32.511  1.00  0.00    -0.354 N 
ATOM     55  N   UNL A   1      43.483  26.332  30.315  1.00  0.00    -0.248 NA
ATOM     56  C   UNL A   1      44.594  24.615  29.185  1.00  0.00     0.031 C 
ATOM     57  C   UNL A   1      45.063  28.356  33.949  1.00  0.00     0.029 A 
ATOM     58  C   UNL A   1      44.590  27.709  32.819  1.00  0.00     0.049 A 
ATOM     59  H   UNL A   1      42.808  28.059  31.742  1.00  0.00     0.167 HD
ATOM     60  C   UNL A   1      44.676  26.047  30.975  1.00  0.00     0.074 A 
ATOM     61  C   UNL A   1      45.304  24.963  30.249  1.00  0.00     0.031 C 
ATOM     62  C   UNL A   1      45.199  26.621  32.089  1.00  0.00     0.034 A 
BRANCH  49  63
ATOM     63  C   UNL A   1      41.740  31.206  34.450  1.00  0.00     0.023 A 
ATOM     64  C   UNL A   1      40.733  31.149  35.431  1.00  0.00     0.031 A 
ATOM     65  C   UNL A   1      42.579  32.335  34.436  1.00  0.00     0.131 A 
ATOM     66  C   UNL A   1      40.535  32.236  36.294  1.00  0.00     0.055 A 
ATOM     67  C   UNL A   1      42.436  33.370  35.362  1.00  0.00     0.041 A 
ATOM     68  F   UNL A   1      43.541  32.460  33.510  1.00  0.00    -0.206 F 
ATOM     69  C   UNL A   1      41.397  33.334  36.286  1.00  0.00     0.022 A 
BRANCH  66  70
ATOM     70  S   UNL A   1      39.030  32.268  37.307  1.00  0.00     0.124 S 
ATOM     71  O   UNL A   1      38.384  31.019  36.913  1.00  0.00    -0.237 OA
ATOM     72  O   UNL A   1      39.564  32.311  38.664  1.00  0.00    -0.237 OA
ATOM     73  O   UNL A   1      38.346  33.481  36.865  1.00  0.00    -0.744 OA
ENDBRANCH  66  70
ENDBRANCH  49  63
BRANCH  50  74
ATOM     74  C   UNL A   1      42.468  24.320  27.180  1.00  0.00     0.023 A 
ATOM     75  C   UNL A   1      41.869  23.055  27.271  1.00  0.00     0.031 A 
ATOM     76  C   UNL A   1      43.240  24.601  26.038  1.00  0.00     0.131 A 
ATOM     77  C   UNL A   1      42.095  22.098  26.267  1.00  0.00     0.055 A 
ATOM     78  C   UNL A   1      43.411  23.669  25.013  1.00  0.00     0.041 A 
ATOM     79  F   UNL A   1      43.835  25.798  25.897  1.00  0.00    -0.206 F 
ATOM     80  C   UNL A   1      42.848  22.402  25.132  1.00  0.00     0.022 A 
BRANCH  77  81
ATOM     81  S   UNL A   1      41.468  20.415  26.517  1.00  0.00     0.124 S 
ATOM     82  O   UNL A   1      42.284  19.654  25.578  1.00  0.00    -0.237 OA
ATOM     83  O   UNL A   1      41.745  20.196  27.933  1.00  0.00    -0.237 OA
ATOM     84  O   UNL A   1      40.053  20.525  26.171  1.00  0.00    -0.744 OA
ENDBRANCH  77  81
ENDBRANCH  50  74
BRANCH  62  85
ATOM     85  C   UNL A   1      46.476  26.036  32.642  1.00  0.00     0.023 A 
ATOM     86  C   UNL A   1      46.478  24.978  33.567  1.00  0.00     0.031 A 
ATOM     87  C   UNL A   1      47.717  26.539  32.207  1.00  0.00     0.131 A 
ATOM     88  C   UNL A   1      47.697  24.484  34.057  1.00  0.00     0.055 A 
ATOM     89  C   UNL A   1      48.925  26.001  32.651  1.00  0.00     0.041 A 
ATOM     90  F   UNL A   1      47.773  27.552  31.328  1.00  0.00    -0.206 F 
ATOM     91  C   UNL A   1      48.919  24.974  33.590  1.00  0.00     0.022 A 
BRANCH  88  92
ATOM     92  S   UNL A   1      47.667  23.238  35.376  1.00  0.00     0.124 S 
ATOM     93  O   UNL A   1      46.238  22.984  35.521  1.00  0.00    -0.237 OA
ATOM     94  O   UNL A   1      48.452  22.153  34.799  1.00  0.00    -0.237 OA
ATOM     95  O   UNL A   1      48.293  23.922  36.507  1.00  0.00    -0.744 OA
ENDBRANCH  88  92
ENDBRANCH  62  85
ENDBRANCH  36  37
ENDBRANCH  28  31
ENDBRANCH  26  27
ENDBRANCH  25  26
ENDBRANCH   1  25
TORSDOF 20
ENDMDL
