MODEL 1
REMARK VINA RESULT:     -11.5      0.000      0.000
REMARK SMILES COc1cc(Cl)ccc1S(=O)(=O)Nc1cccc(C(=O)NCCCCCCNC(=O)c2ccc(-c3c4nc(c(-c5cc(S(=O)(=O)[O-])ccc5F)c5ccc([nH]5)c(-c5cc(S(=O)(=O)[O-])ccc5F)c5nc(c(-c6cc(S(=O)(=O)[O-])ccc6F)c6ccc3[nH]6)C=C5)C=C4)cc2)c1
REMARK SMILES IDX 24 1 23 2 22 3 21 4 19 5 20 6 18 8 14 9 15 10 94 11 16 12
REMARK SMILES IDX 17 13 13 14 10 16 11 17 12 18 9 19 3 20 4 21 5 22 8 23 6 24
REMARK SMILES IDX 7 25 2 26 1 27 25 28 26 29 27 30 28 31 29 32 30 34 31 35
REMARK SMILES IDX 32 36 93 37 33 38 92 39 34 40 35 41 36 42 86 43 37 44 91 45
REMARK SMILES IDX 85 46 87 47 38 48 90 49 84 50 83 51 39 53 71 54 51 55 70 56
REMARK SMILES IDX 52 57 55 58 69 59 88 60 53 61 54 62 68 64 89 65 56 66 40 67
REMARK SMILES IDX 41 68 49 69 42 70 48 71 50 72 47 73 43 74 44 75 45 76 46 77
REMARK SMILES IDX 72 78 73 79 81 80 74 81 80 82 82 83 79 84 75 85 76 86 77 87
REMARK SMILES IDX 78 88 57 89 58 90 66 91 59 92 65 93 67 94 64 95 60 96 61 97
REMARK SMILES IDX 62 98 63 99
REMARK H PARENT 21 7 13 15 28 33 87 52 55 63
REMARK Flexibility Score: inf
ROOT
ATOM      1  C   UNL A   1      32.507  29.671  27.180  1.00  0.00     0.002 C 
ENDROOT
BRANCH   1   2
ATOM      2  C   UNL A   1      32.580  28.170  26.877  1.00  0.00     0.021 C 
BRANCH   2   3
ATOM      3  C   UNL A   1      33.868  27.794  26.146  1.00  0.00     0.116 C 
BRANCH   3   4
ATOM      4  N   UNL A   1      33.902  28.428  24.840  1.00  0.00    -0.352 N 
ATOM      5  C   UNL A   1      33.121  28.314  23.718  1.00  0.00     0.251 C 
ATOM      6  O   UNL A   1      33.463  28.965  22.729  1.00  0.00    -0.269 OA
ATOM      7  H   UNL A   1      34.637  29.076  24.739  1.00  0.00     0.163 HD
BRANCH   5   8
ATOM      8  C   UNL A   1      31.843  27.546  23.665  1.00  0.00     0.041 A 
ATOM      9  C   UNL A   1      30.471  25.608  24.130  1.00  0.00     0.050 A 
ATOM     10  C   UNL A   1      29.319  26.359  23.880  1.00  0.00     0.027 A 
ATOM     11  C   UNL A   1      31.725  26.174  23.897  1.00  0.00     0.040 A 
ATOM     12  C   UNL A   1      29.418  27.697  23.509  1.00  0.00     0.003 A 
ATOM     13  C   UNL A   1      30.675  28.295  23.441  1.00  0.00     0.014 A 
BRANCH   9  14
ATOM     14  N   UNL A   1      30.279  24.322  24.701  1.00  0.00    -0.279 N 
ATOM     15  H   UNL A   1      29.629  23.737  24.250  1.00  0.00     0.180 HD
BRANCH  14  16
ATOM     16  S   UNL A   1      31.031  23.695  26.048  1.00  0.00     0.265 S 
ATOM     17  O   UNL A   1      30.233  22.579  26.523  1.00  0.00    -0.201 OA
ATOM     18  O   UNL A   1      31.285  24.836  26.897  1.00  0.00    -0.201 OA
BRANCH  16  19
ATOM     19  C   UNL A   1      32.637  23.009  25.672  1.00  0.00     0.129 A 
ATOM     20  C   UNL A   1      32.934  22.057  24.690  1.00  0.00     0.140 A 
ATOM     21  C   UNL A   1      34.246  21.549  24.624  1.00  0.00     0.068 A 
ATOM     22  C   UNL A   1      35.237  21.988  25.502  1.00  0.00     0.044 A 
ATOM     23  C   UNL A   1      33.659  23.465  26.536  1.00  0.00     0.028 A 
ATOM     24  Cl  UNL A   1      36.818  21.316  25.406  1.00  0.00    -0.084 Cl
ATOM     25  C   UNL A   1      34.955  22.959  26.449  1.00  0.00     0.022 A 
BRANCH  20  26
ATOM     26  O   UNL A   1      31.976  21.676  23.796  1.00  0.00    -0.495 OA
ATOM     27  C   UNL A   1      32.301  21.807  22.411  1.00  0.00     0.278 C 
ENDBRANCH  20  26
ENDBRANCH  16  19
ENDBRANCH  14  16
ENDBRANCH   9  14
ENDBRANCH   5   8
ENDBRANCH   3   4
ENDBRANCH   2   3
ENDBRANCH   1   2
BRANCH   1  28
ATOM     28  C   UNL A   1      31.403  30.410  26.414  1.00  0.00     0.002 C 
BRANCH  28  29
ATOM     29  C   UNL A   1      31.413  31.935  26.568  1.00  0.00     0.021 C 
BRANCH  29  30
ATOM     30  C   UNL A   1      32.761  32.529  26.963  1.00  0.00     0.116 C 
BRANCH  30  31
ATOM     31  N   UNL A   1      32.627  33.883  27.476  1.00  0.00    -0.352 N 
ATOM     32  C   UNL A   1      33.260  34.470  28.544  1.00  0.00     0.251 C 
ATOM     33  H   UNL A   1      31.995  34.460  26.991  1.00  0.00     0.163 HD
ATOM     34  O   UNL A   1      32.877  35.559  28.960  1.00  0.00    -0.269 OA
BRANCH  32  35
ATOM     35  C   UNL A   1      34.386  33.770  29.200  1.00  0.00     0.039 A 
ATOM     36  C   UNL A   1      34.111  32.748  30.113  1.00  0.00     0.014 A 
ATOM     37  C   UNL A   1      35.708  34.126  28.916  1.00  0.00     0.014 A 
ATOM     38  C   UNL A   1      35.164  32.044  30.700  1.00  0.00     0.010 A 
ATOM     39  C   UNL A   1      36.754  33.383  29.457  1.00  0.00     0.010 A 
ATOM     40  C   UNL A   1      36.492  32.337  30.355  1.00  0.00    -0.014 A 
BRANCH  40  41
ATOM     41  C   UNL A   1      37.628  31.578  30.937  1.00  0.00     0.031 A 
ATOM     42  C   UNL A   1      38.104  31.892  32.328  1.00  0.00     0.074 A 
ATOM     43  C   UNL A   1      38.271  30.659  30.192  1.00  0.00     0.049 A 
ATOM     44  N   UNL A   1      39.135  31.422  32.979  1.00  0.00    -0.248 NA
ATOM     45  C   UNL A   1      37.327  32.896  33.070  1.00  0.00     0.031 C 
ATOM     46  C   UNL A   1      37.918  30.286  28.821  1.00  0.00     0.029 A 
ATOM     47  N   UNL A   1      39.362  29.879  30.477  1.00  0.00    -0.354 N 
ATOM     48  C   UNL A   1      39.140  32.079  34.205  1.00  0.00     0.074 A 
ATOM     49  C   UNL A   1      38.046  33.026  34.174  1.00  0.00     0.031 C 
ATOM     50  C   UNL A   1      38.765  29.335  28.393  1.00  0.00     0.029 A 
ATOM     51  C   UNL A   1      39.745  29.063  29.439  1.00  0.00     0.049 A 
ATOM     52  H   UNL A   1      39.827  29.901  31.344  1.00  0.00     0.167 HD
ATOM     53  C   UNL A   1      39.967  31.893  35.265  1.00  0.00     0.034 A 
ATOM     54  C   UNL A   1      40.778  28.203  29.338  1.00  0.00     0.034 A 
ATOM     55  C   UNL A   1      41.053  30.943  35.278  1.00  0.00     0.049 A 
ATOM     56  C   UNL A   1      41.710  28.043  30.510  1.00  0.00     0.074 A 
ATOM     57  C   UNL A   1      41.929  30.643  36.306  1.00  0.00     0.029 A 
ATOM     58  N   UNL A   1      41.417  30.140  34.203  1.00  0.00    -0.354 N 
ATOM     59  N   UNL A   1      41.687  28.650  31.674  1.00  0.00    -0.248 NA
ATOM     60  C   UNL A   1      42.805  27.076  30.356  1.00  0.00     0.031 C 
ATOM     61  C   UNL A   1      42.855  29.704  35.837  1.00  0.00     0.029 A 
ATOM     62  C   UNL A   1      42.519  29.366  34.536  1.00  0.00     0.049 A 
ATOM     63  H   UNL A   1      40.958  30.123  33.332  1.00  0.00     0.167 HD
ATOM     64  C   UNL A   1      42.746  28.115  32.402  1.00  0.00     0.074 A 
ATOM     65  C   UNL A   1      43.382  27.133  31.547  1.00  0.00     0.031 C 
ATOM     66  C   UNL A   1      43.149  28.400  33.666  1.00  0.00     0.034 A 
BRANCH  53  67
ATOM     67  C   UNL A   1      39.734  32.765  36.477  1.00  0.00     0.023 A 
ATOM     68  C   UNL A   1      38.928  32.335  37.547  1.00  0.00     0.031 A 
ATOM     69  C   UNL A   1      40.269  34.064  36.540  1.00  0.00     0.131 A 
ATOM     70  C   UNL A   1      38.602  33.224  38.582  1.00  0.00     0.055 A 
ATOM     71  C   UNL A   1      40.012  34.914  37.619  1.00  0.00     0.041 A 
ATOM     72  F   UNL A   1      41.031  34.539  35.543  1.00  0.00    -0.206 F 
ATOM     73  C   UNL A   1      39.158  34.503  38.638  1.00  0.00     0.022 A 
BRANCH  70  74
ATOM     74  S   UNL A   1      37.305  32.744  39.756  1.00  0.00     0.124 S 
ATOM     75  O   UNL A   1      36.126  32.705  38.893  1.00  0.00    -0.237 OA
ATOM     76  O   UNL A   1      37.782  31.455  40.244  1.00  0.00    -0.237 OA
ATOM     77  O   UNL A   1      37.313  33.825  40.738  1.00  0.00    -0.744 OA
ENDBRANCH  70  74
ENDBRANCH  53  67
BRANCH  54  78
ATOM     78  C   UNL A   1      40.989  27.428  28.085  1.00  0.00     0.023 A 
ATOM     79  C   UNL A   1      40.690  26.058  28.030  1.00  0.00     0.031 A 
ATOM     80  C   UNL A   1      41.515  28.039  26.933  1.00  0.00     0.131 A 
ATOM     81  C   UNL A   1      40.953  25.332  26.857  1.00  0.00     0.055 A 
ATOM     82  C   UNL A   1      41.734  27.322  25.756  1.00  0.00     0.041 A 
ATOM     83  F   UNL A   1      41.808  29.349  26.933  1.00  0.00    -0.206 F 
ATOM     84  C   UNL A   1      41.462  25.958  25.717  1.00  0.00     0.022 A 
BRANCH  81  85
ATOM     85  S   UNL A   1      40.668  23.542  26.863  1.00  0.00     0.124 S 
ATOM     86  O   UNL A   1      39.243  23.466  26.560  1.00  0.00    -0.237 OA
ATOM     87  O   UNL A   1      41.573  23.087  25.813  1.00  0.00    -0.237 OA
ATOM     88  O   UNL A   1      41.040  23.143  28.220  1.00  0.00    -0.744 OA
ENDBRANCH  81  85
ENDBRANCH  54  78
BRANCH  66  89
ATOM     89  C   UNL A   1      44.305  27.599  34.209  1.00  0.00     0.023 A 
ATOM     90  C   UNL A   1      44.108  26.413  34.937  1.00  0.00     0.031 A 
ATOM     91  C   UNL A   1      45.624  28.041  34.003  1.00  0.00     0.131 A 
ATOM     92  C   UNL A   1      45.212  25.733  35.475  1.00  0.00     0.055 A 
ATOM     93  C   UNL A   1      46.721  27.333  34.495  1.00  0.00     0.041 A 
ATOM     94  F   UNL A   1      45.867  29.168  33.316  1.00  0.00    -0.206 F 
ATOM     95  C   UNL A   1      46.518  26.178  35.245  1.00  0.00     0.022 A 
BRANCH  92  96
ATOM     96  S   UNL A   1      44.918  24.298  36.544  1.00  0.00     0.124 S 
ATOM     97  O   UNL A   1      44.255  23.372  35.633  1.00  0.00    -0.237 OA
ATOM     98  O   UNL A   1      46.269  23.931  36.955  1.00  0.00    -0.237 OA
ATOM     99  O   UNL A   1      44.070  24.831  37.610  1.00  0.00    -0.744 OA
ENDBRANCH  92  96
ENDBRANCH  66  89
ENDBRANCH  40  41
ENDBRANCH  32  35
ENDBRANCH  30  31
ENDBRANCH  29  30
ENDBRANCH  28  29
ENDBRANCH   1  28
TORSDOF 20
ENDMDL
MODEL 2
REMARK VINA RESULT:     -11.4      2.209      7.782
REMARK SMILES COc1cc(Cl)ccc1S(=O)(=O)Nc1cccc(C(=O)NCCCCCCNC(=O)c2ccc(-c3c4nc(c(-c5cc(S(=O)(=O)[O-])ccc5F)c5ccc([nH]5)c(-c5cc(S(=O)(=O)[O-])ccc5F)c5nc(c(-c6cc(S(=O)(=O)[O-])ccc6F)c6ccc3[nH]6)C=C5)C=C4)cc2)c1
REMARK SMILES IDX 24 1 23 2 22 3 21 4 19 5 20 6 18 8 14 9 15 10 94 11 16 12
REMARK SMILES IDX 17 13 13 14 10 16 11 17 12 18 9 19 3 20 4 21 5 22 8 23 6 24
REMARK SMILES IDX 7 25 2 26 1 27 25 28 26 29 27 30 28 31 29 32 30 34 31 35
REMARK SMILES IDX 32 36 93 37 33 38 92 39 34 40 35 41 36 42 86 43 37 44 91 45
REMARK SMILES IDX 85 46 87 47 38 48 90 49 84 50 83 51 39 53 71 54 51 55 70 56
REMARK SMILES IDX 52 57 55 58 69 59 88 60 53 61 54 62 68 64 89 65 56 66 40 67
REMARK SMILES IDX 41 68 49 69 42 70 48 71 50 72 47 73 43 74 44 75 45 76 46 77
REMARK SMILES IDX 72 78 73 79 81 80 74 81 80 82 82 83 79 84 75 85 76 86 77 87
REMARK SMILES IDX 78 88 57 89 58 90 66 91 59 92 65 93 67 94 64 95 60 96 61 97
REMARK SMILES IDX 62 98 63 99
REMARK H PARENT 21 7 13 15 28 33 87 52 55 63
REMARK Flexibility Score: inf
ROOT
ATOM      1  C   UNL A   1      32.647  29.771  27.244  1.00  0.00     0.002 C 
ENDROOT
BRANCH   1   2
ATOM      2  C   UNL A   1      32.657  28.259  26.992  1.00  0.00     0.021 C 
BRANCH   2   3
ATOM      3  C   UNL A   1      33.909  27.812  26.238  1.00  0.00     0.116 C 
BRANCH   3   4
ATOM      4  N   UNL A   1      34.017  28.532  24.982  1.00  0.00    -0.352 N 
ATOM      5  C   UNL A   1      33.405  28.395  23.763  1.00  0.00     0.251 C 
ATOM      6  O   UNL A   1      33.775  29.151  22.862  1.00  0.00    -0.269 OA
ATOM      7  H   UNL A   1      34.664  29.274  25.013  1.00  0.00     0.163 HD
BRANCH   5   8
ATOM      8  C   UNL A   1      32.260  27.475  23.503  1.00  0.00     0.041 A 
ATOM      9  C   UNL A   1      31.300  25.296  23.072  1.00  0.00     0.050 A 
ATOM     10  C   UNL A   1      30.037  25.778  23.428  1.00  0.00     0.027 A 
ATOM     11  C   UNL A   1      32.376  26.181  22.991  1.00  0.00     0.040 A 
ATOM     12  C   UNL A   1      29.873  27.107  23.808  1.00  0.00     0.003 A 
ATOM     13  C   UNL A   1      30.988  27.939  23.881  1.00  0.00     0.014 A 
BRANCH   9  14
ATOM     14  N   UNL A   1      31.418  23.891  22.901  1.00  0.00    -0.279 N 
ATOM     15  H   UNL A   1      30.597  23.364  23.036  1.00  0.00     0.180 HD
BRANCH  14  16
ATOM     16  S   UNL A   1      32.789  23.036  22.498  1.00  0.00     0.265 S 
ATOM     17  O   UNL A   1      33.332  23.615  21.282  1.00  0.00    -0.201 OA
ATOM     18  O   UNL A   1      32.387  21.649  22.539  1.00  0.00    -0.201 OA
BRANCH  16  19
ATOM     19  C   UNL A   1      34.078  23.200  23.724  1.00  0.00     0.129 A 
ATOM     20  C   UNL A   1      33.912  23.507  25.079  1.00  0.00     0.140 A 
ATOM     21  C   UNL A   1      35.062  23.711  25.866  1.00  0.00     0.068 A 
ATOM     22  C   UNL A   1      36.341  23.598  25.321  1.00  0.00     0.044 A 
ATOM     23  C   UNL A   1      35.380  23.061  23.192  1.00  0.00     0.028 A 
ATOM     24  Cl  UNL A   1      37.717  23.888  26.311  1.00  0.00    -0.084 Cl
ATOM     25  C   UNL A   1      36.508  23.255  23.989  1.00  0.00     0.022 A 
BRANCH  20  26
ATOM     26  O   UNL A   1      32.659  23.557  25.621  1.00  0.00    -0.495 OA
ATOM     27  C   UNL A   1      32.171  22.357  26.223  1.00  0.00     0.278 C 
ENDBRANCH  20  26
ENDBRANCH  16  19
ENDBRANCH  14  16
ENDBRANCH   9  14
ENDBRANCH   5   8
ENDBRANCH   3   4
ENDBRANCH   2   3
ENDBRANCH   1   2
BRANCH   1  28
ATOM     28  C   UNL A   1      31.611  30.537  26.411  1.00  0.00     0.002 C 
BRANCH  28  29
ATOM     29  C   UNL A   1      31.475  32.025  26.749  1.00  0.00     0.021 C 
BRANCH  29  30
ATOM     30  C   UNL A   1      32.784  32.722  27.109  1.00  0.00     0.116 C 
BRANCH  30  31
ATOM     31  N   UNL A   1      32.559  34.056  27.641  1.00  0.00    -0.352 N 
ATOM     32  C   UNL A   1      33.157  34.673  28.713  1.00  0.00     0.251 C 
ATOM     33  H   UNL A   1      31.885  34.594  27.167  1.00  0.00     0.163 HD
ATOM     34  O   UNL A   1      32.702  35.727  29.145  1.00  0.00    -0.269 OA
BRANCH  32  35
ATOM     35  C   UNL A   1      34.334  34.045  29.352  1.00  0.00     0.039 A 
ATOM     36  C   UNL A   1      35.614  34.401  28.915  1.00  0.00     0.014 A 
ATOM     37  C   UNL A   1      34.174  33.107  30.376  1.00  0.00     0.014 A 
ATOM     38  C   UNL A   1      36.735  33.856  29.544  1.00  0.00     0.010 A 
ATOM     39  C   UNL A   1      35.292  32.612  31.041  1.00  0.00     0.010 A 
ATOM     40  C   UNL A   1      36.582  32.979  30.630  1.00  0.00    -0.014 A 
BRANCH  40  41
ATOM     41  C   UNL A   1      37.758  32.416  31.340  1.00  0.00     0.031 A 
ATOM     42  C   UNL A   1      38.524  31.274  30.730  1.00  0.00     0.074 A 
ATOM     43  C   UNL A   1      38.094  32.884  32.557  1.00  0.00     0.049 A 
ATOM     44  N   UNL A   1      39.510  30.575  31.229  1.00  0.00    -0.248 NA
ATOM     45  C   UNL A   1      38.096  30.845  29.392  1.00  0.00     0.031 C 
ATOM     46  C   UNL A   1      37.411  33.971  33.261  1.00  0.00     0.029 A 
ATOM     47  N   UNL A   1      39.085  32.499  33.422  1.00  0.00    -0.354 N 
ATOM     48  C   UNL A   1      39.815  29.615  30.271  1.00  0.00     0.074 A 
ATOM     49  C   UNL A   1      38.864  29.785  29.193  1.00  0.00     0.031 C 
ATOM     50  C   UNL A   1      38.018  34.178  34.442  1.00  0.00     0.029 A 
ATOM     51  C   UNL A   1      39.100  33.212  34.598  1.00  0.00     0.049 A 
ATOM     52  H   UNL A   1      39.726  31.780  33.221  1.00  0.00     0.167 HD
ATOM     53  C   UNL A   1      40.811  28.692  30.280  1.00  0.00     0.034 A 
ATOM     54  C   UNL A   1      39.890  33.092  35.683  1.00  0.00     0.034 A 
ATOM     55  C   UNL A   1      41.751  28.538  31.363  1.00  0.00     0.049 A 
ATOM     56  C   UNL A   1      40.961  32.033  35.692  1.00  0.00     0.074 A 
ATOM     57  C   UNL A   1      42.821  27.666  31.464  1.00  0.00     0.029 A 
ATOM     58  N   UNL A   1      41.729  29.273  32.543  1.00  0.00    -0.354 N 
ATOM     59  N   UNL A   1      41.258  31.149  34.766  1.00  0.00    -0.248 NA
ATOM     60  C   UNL A   1      41.808  31.960  36.889  1.00  0.00     0.031 C 
ATOM     61  C   UNL A   1      43.409  27.833  32.724  1.00  0.00     0.029 A 
ATOM     62  C   UNL A   1      42.749  28.856  33.385  1.00  0.00     0.049 A 
ATOM     63  H   UNL A   1      41.083  29.986  32.750  1.00  0.00     0.167 HD
ATOM     64  C   UNL A   1      42.347  30.436  35.259  1.00  0.00     0.074 A 
ATOM     65  C   UNL A   1      42.656  30.997  36.559  1.00  0.00     0.031 C 
ATOM     66  C   UNL A   1      43.036  29.417  34.684  1.00  0.00     0.034 A 
BRANCH  53  67
ATOM     67  C   UNL A   1      40.898  27.767  29.088  1.00  0.00     0.023 A 
ATOM     68  C   UNL A   1      41.835  27.980  28.060  1.00  0.00     0.031 A 
ATOM     69  C   UNL A   1      39.997  26.697  28.942  1.00  0.00     0.131 A 
ATOM     70  C   UNL A   1      41.787  27.201  26.894  1.00  0.00     0.055 A 
ATOM     71  C   UNL A   1      40.014  25.869  27.817  1.00  0.00     0.041 A 
ATOM     72  F   UNL A   1      39.068  26.453  29.880  1.00  0.00    -0.206 F 
ATOM     73  C   UNL A   1      40.899  26.131  26.776  1.00  0.00     0.022 A 
BRANCH  70  74
ATOM     74  S   UNL A   1      42.783  27.720  25.469  1.00  0.00     0.124 S 
ATOM     75  O   UNL A   1      42.936  26.461  24.743  1.00  0.00    -0.237 OA
ATOM     76  O   UNL A   1      41.932  28.722  24.838  1.00  0.00    -0.237 OA
ATOM     77  O   UNL A   1      44.009  28.234  26.076  1.00  0.00    -0.744 OA
ENDBRANCH  70  74
ENDBRANCH  53  67
BRANCH  54  78
ATOM     78  C   UNL A   1      39.700  33.993  36.852  1.00  0.00     0.023 A 
ATOM     79  C   UNL A   1      39.139  33.512  38.045  1.00  0.00     0.031 A 
ATOM     80  C   UNL A   1      40.052  35.352  36.787  1.00  0.00     0.131 A 
ATOM     81  C   UNL A   1      38.913  34.391  39.116  1.00  0.00     0.055 A 
ATOM     82  C   UNL A   1      39.865  36.214  37.869  1.00  0.00     0.041 A 
ATOM     83  F   UNL A   1      40.601  35.859  35.671  1.00  0.00    -0.206 F 
ATOM     84  C   UNL A   1      39.283  35.736  39.039  1.00  0.00     0.022 A 
BRANCH  81  85
ATOM     85  S   UNL A   1      38.075  33.760  40.595  1.00  0.00     0.124 S 
ATOM     86  O   UNL A   1      39.070  32.836  41.128  1.00  0.00    -0.237 OA
ATOM     87  O   UNL A   1      37.855  34.980  41.363  1.00  0.00    -0.237 OA
ATOM     88  O   UNL A   1      36.866  33.136  40.060  1.00  0.00    -0.744 OA
ENDBRANCH  81  85
ENDBRANCH  54  78
BRANCH  66  89
ATOM     89  C   UNL A   1      44.222  28.883  35.446  1.00  0.00     0.023 A 
ATOM     90  C   UNL A   1      45.521  29.379  35.239  1.00  0.00     0.031 A 
ATOM     91  C   UNL A   1      44.047  27.852  36.386  1.00  0.00     0.131 A 
ATOM     92  C   UNL A   1      46.603  28.809  35.927  1.00  0.00     0.055 A 
ATOM     93  C   UNL A   1      45.119  27.325  37.106  1.00  0.00     0.041 A 
ATOM     94  F   UNL A   1      42.828  27.342  36.621  1.00  0.00    -0.206 F 
ATOM     95  C   UNL A   1      46.408  27.796  36.871  1.00  0.00     0.022 A 
BRANCH  92  96
ATOM     96  S   UNL A   1      48.284  29.359  35.520  1.00  0.00     0.124 S 
ATOM     97  O   UNL A   1      48.928  29.356  36.829  1.00  0.00    -0.237 OA
ATOM     98  O   UNL A   1      48.731  28.331  34.586  1.00  0.00    -0.237 OA
ATOM     99  O   UNL A   1      48.079  30.683  34.933  1.00  0.00    -0.744 OA
ENDBRANCH  92  96
ENDBRANCH  66  89
ENDBRANCH  40  41
ENDBRANCH  32  35
ENDBRANCH  30  31
ENDBRANCH  29  30
ENDBRANCH  28  29
ENDBRANCH   1  28
TORSDOF 20
ENDMDL
MODEL 3
REMARK VINA RESULT:     -11.4      2.014      7.624
REMARK SMILES COc1cc(Cl)ccc1S(=O)(=O)Nc1cccc(C(=O)NCCCCCCNC(=O)c2ccc(-c3c4nc(c(-c5cc(S(=O)(=O)[O-])ccc5F)c5ccc([nH]5)c(-c5cc(S(=O)(=O)[O-])ccc5F)c5nc(c(-c6cc(S(=O)(=O)[O-])ccc6F)c6ccc3[nH]6)C=C5)C=C4)cc2)c1
REMARK SMILES IDX 24 1 23 2 22 3 21 4 19 5 20 6 18 8 14 9 15 10 94 11 16 12
REMARK SMILES IDX 17 13 13 14 10 16 11 17 12 18 9 19 3 20 4 21 5 22 8 23 6 24
REMARK SMILES IDX 7 25 2 26 1 27 25 28 26 29 27 30 28 31 29 32 30 34 31 35
REMARK SMILES IDX 32 36 93 37 33 38 92 39 34 40 35 41 36 42 86 43 37 44 91 45
REMARK SMILES IDX 85 46 87 47 38 48 90 49 84 50 83 51 39 53 71 54 51 55 70 56
REMARK SMILES IDX 52 57 55 58 69 59 88 60 53 61 54 62 68 64 89 65 56 66 40 67
REMARK SMILES IDX 41 68 49 69 42 70 48 71 50 72 47 73 43 74 44 75 45 76 46 77
REMARK SMILES IDX 72 78 73 79 81 80 74 81 80 82 82 83 79 84 75 85 76 86 77 87
REMARK SMILES IDX 78 88 57 89 58 90 66 91 59 92 65 93 67 94 64 95 60 96 61 97
REMARK SMILES IDX 62 98 63 99
REMARK H PARENT 21 7 13 15 28 33 87 52 55 63
REMARK Flexibility Score: inf
ROOT
ATOM      1  C   UNL A   1      32.578  29.984  27.177  1.00  0.00     0.002 C 
ENDROOT
BRANCH   1   2
ATOM      2  C   UNL A   1      32.483  28.468  26.972  1.00  0.00     0.021 C 
BRANCH   2   3
ATOM      3  C   UNL A   1      33.715  27.908  26.261  1.00  0.00     0.116 C 
BRANCH   3   4
ATOM      4  N   UNL A   1      33.819  28.472  24.927  1.00  0.00    -0.352 N 
ATOM      5  C   UNL A   1      33.096  28.302  23.774  1.00  0.00     0.251 C 
ATOM      6  O   UNL A   1      33.491  28.899  22.771  1.00  0.00    -0.269 OA
ATOM      7  H   UNL A   1      34.562  29.111  24.830  1.00  0.00     0.163 HD
BRANCH   5   8
ATOM      8  C   UNL A   1      31.817  27.537  23.696  1.00  0.00     0.041 A 
ATOM      9  C   UNL A   1      30.460  25.565  24.044  1.00  0.00     0.050 A 
ATOM     10  C   UNL A   1      29.300  26.330  23.886  1.00  0.00     0.027 A 
ATOM     11  C   UNL A   1      31.706  26.151  23.822  1.00  0.00     0.040 A 
ATOM     12  C   UNL A   1      29.388  27.693  23.620  1.00  0.00     0.003 A 
ATOM     13  C   UNL A   1      30.642  28.298  23.564  1.00  0.00     0.014 A 
BRANCH   9  14
ATOM     14  N   UNL A   1      30.284  24.237  24.517  1.00  0.00    -0.279 N 
ATOM     15  H   UNL A   1      29.705  23.654  23.976  1.00  0.00     0.180 HD
BRANCH  14  16
ATOM     16  S   UNL A   1      30.948  23.559  25.885  1.00  0.00     0.265 S 
ATOM     17  O   UNL A   1      30.253  22.310  26.144  1.00  0.00    -0.201 OA
ATOM     18  O   UNL A   1      30.947  24.621  26.865  1.00  0.00    -0.201 OA
BRANCH  16  19
ATOM     19  C   UNL A   1      32.664  23.115  25.661  1.00  0.00     0.129 A 
ATOM     20  C   UNL A   1      33.160  21.891  25.199  1.00  0.00     0.140 A 
ATOM     21  C   UNL A   1      34.553  21.687  25.202  1.00  0.00     0.068 A 
ATOM     22  C   UNL A   1      35.428  22.682  25.640  1.00  0.00     0.044 A 
ATOM     23  C   UNL A   1      33.564  24.123  26.073  1.00  0.00     0.028 A 
ATOM     24  Cl  UNL A   1      37.122  22.379  25.657  1.00  0.00    -0.084 Cl
ATOM     25  C   UNL A   1      34.941  23.909  26.059  1.00  0.00     0.022 A 
BRANCH  20  26
ATOM     26  O   UNL A   1      32.302  20.944  24.716  1.00  0.00    -0.495 OA
ATOM     27  C   UNL A   1      32.271  20.767  23.299  1.00  0.00     0.278 C 
ENDBRANCH  20  26
ENDBRANCH  16  19
ENDBRANCH  14  16
ENDBRANCH   9  14
ENDBRANCH   5   8
ENDBRANCH   3   4
ENDBRANCH   2   3
ENDBRANCH   1   2
BRANCH   1  28
ATOM     28  C   UNL A   1      31.521  30.787  26.408  1.00  0.00     0.002 C 
BRANCH  28  29
ATOM     29  C   UNL A   1      31.465  32.280  26.745  1.00  0.00     0.021 C 
BRANCH  29  30
ATOM     30  C   UNL A   1      32.777  32.872  27.251  1.00  0.00     0.116 C 
BRANCH  30  31
ATOM     31  N   UNL A   1      32.593  34.203  27.807  1.00  0.00    -0.352 N 
ATOM     32  C   UNL A   1      33.212  34.783  28.886  1.00  0.00     0.251 C 
ATOM     33  H   UNL A   1      31.933  34.768  27.344  1.00  0.00     0.163 HD
ATOM     34  O   UNL A   1      32.790  35.842  29.338  1.00  0.00    -0.269 OA
BRANCH  32  35
ATOM     35  C   UNL A   1      34.372  34.111  29.511  1.00  0.00     0.039 A 
ATOM     36  C   UNL A   1      35.662  34.468  29.106  1.00  0.00     0.014 A 
ATOM     37  C   UNL A   1      34.186  33.129  30.488  1.00  0.00     0.014 A 
ATOM     38  C   UNL A   1      36.767  33.879  29.724  1.00  0.00     0.010 A 
ATOM     39  C   UNL A   1      35.288  32.588  31.143  1.00  0.00     0.010 A 
ATOM     40  C   UNL A   1      36.589  32.955  30.766  1.00  0.00    -0.014 A 
BRANCH  40  41
ATOM     41  C   UNL A   1      37.748  32.343  31.464  1.00  0.00     0.031 A 
ATOM     42  C   UNL A   1      38.481  31.194  30.830  1.00  0.00     0.074 A 
ATOM     43  C   UNL A   1      38.095  32.776  32.691  1.00  0.00     0.049 A 
ATOM     44  N   UNL A   1      39.446  30.457  31.314  1.00  0.00    -0.248 NA
ATOM     45  C   UNL A   1      38.042  30.807  29.482  1.00  0.00     0.031 C 
ATOM     46  C   UNL A   1      37.443  33.866  33.419  1.00  0.00     0.029 A 
ATOM     47  N   UNL A   1      39.074  32.343  33.549  1.00  0.00    -0.354 N 
ATOM     48  C   UNL A   1      39.726  29.509  30.335  1.00  0.00     0.074 A 
ATOM     49  C   UNL A   1      38.780  29.730  29.260  1.00  0.00     0.031 C 
ATOM     50  C   UNL A   1      38.054  34.029  34.604  1.00  0.00     0.029 A 
ATOM     51  C   UNL A   1      39.108  33.030  34.739  1.00  0.00     0.049 A 
ATOM     52  H   UNL A   1      39.695  31.611  33.331  1.00  0.00     0.167 HD
ATOM     53  C   UNL A   1      40.694  28.559  30.324  1.00  0.00     0.034 A 
ATOM     54  C   UNL A   1      39.893  32.863  35.822  1.00  0.00     0.034 A 
ATOM     55  C   UNL A   1      41.629  28.355  31.403  1.00  0.00     0.049 A 
ATOM     56  C   UNL A   1      40.934  31.775  35.808  1.00  0.00     0.074 A 
ATOM     57  C   UNL A   1      42.674  27.450  31.486  1.00  0.00     0.029 A 
ATOM     58  N   UNL A   1      41.627  29.064  32.599  1.00  0.00    -0.354 N 
ATOM     59  N   UNL A   1      41.207  30.904  34.864  1.00  0.00    -0.248 NA
ATOM     60  C   UNL A   1      41.777  31.652  37.004  1.00  0.00     0.031 C 
ATOM     61  C   UNL A   1      43.265  27.573  32.749  1.00  0.00     0.029 A 
ATOM     62  C   UNL A   1      42.634  28.599  33.433  1.00  0.00     0.049 A 
ATOM     63  H   UNL A   1      41.001  29.791  32.822  1.00  0.00     0.167 HD
ATOM     64  C   UNL A   1      42.274  30.149  35.341  1.00  0.00     0.074 A 
ATOM     65  C   UNL A   1      42.598  30.672  36.653  1.00  0.00     0.031 C 
ATOM     66  C   UNL A   1      42.935  29.124  34.744  1.00  0.00     0.034 A 
BRANCH  53  67
ATOM     67  C   UNL A   1      40.757  27.658  29.112  1.00  0.00     0.023 A 
ATOM     68  C   UNL A   1      41.706  27.862  28.093  1.00  0.00     0.031 A 
ATOM     69  C   UNL A   1      39.822  26.623  28.939  1.00  0.00     0.131 A 
ATOM     70  C   UNL A   1      41.638  27.112  26.910  1.00  0.00     0.055 A 
ATOM     71  C   UNL A   1      39.816  25.820  27.795  1.00  0.00     0.041 A 
ATOM     72  F   UNL A   1      38.880  26.390  29.866  1.00  0.00    -0.206 F 
ATOM     73  C   UNL A   1      40.714  26.075  26.764  1.00  0.00     0.022 A 
BRANCH  70  74
ATOM     74  S   UNL A   1      42.658  27.628  25.501  1.00  0.00     0.124 S 
ATOM     75  O   UNL A   1      41.904  28.772  24.995  1.00  0.00    -0.237 OA
ATOM     76  O   UNL A   1      43.937  27.933  26.132  1.00  0.00    -0.237 OA
ATOM     77  O   UNL A   1      42.656  26.455  24.629  1.00  0.00    -0.744 OA
ENDBRANCH  70  74
ENDBRANCH  53  67
BRANCH  54  78
ATOM     78  C   UNL A   1      39.728  33.744  37.011  1.00  0.00     0.023 A 
ATOM     79  C   UNL A   1      40.606  34.813  37.240  1.00  0.00     0.031 A 
ATOM     80  C   UNL A   1      38.706  33.514  37.949  1.00  0.00     0.131 A 
ATOM     81  C   UNL A   1      40.470  35.595  38.398  1.00  0.00     0.055 A 
ATOM     82  C   UNL A   1      38.547  34.320  39.077  1.00  0.00     0.041 A 
ATOM     83  F   UNL A   1      37.833  32.508  37.769  1.00  0.00    -0.206 F 
ATOM     84  C   UNL A   1      39.439  35.361  39.311  1.00  0.00     0.022 A 
BRANCH  81  85
ATOM     85  S   UNL A   1      41.697  36.890  38.720  1.00  0.00     0.124 S 
ATOM     86  O   UNL A   1      40.865  37.957  39.269  1.00  0.00    -0.237 OA
ATOM     87  O   UNL A   1      42.597  36.230  39.659  1.00  0.00    -0.237 OA
ATOM     88  O   UNL A   1      42.263  37.157  37.399  1.00  0.00    -0.744 OA
ENDBRANCH  81  85
ENDBRANCH  54  78
BRANCH  66  89
ATOM     89  C   UNL A   1      44.105  28.540  35.494  1.00  0.00     0.023 A 
ATOM     90  C   UNL A   1      43.937  27.537  36.465  1.00  0.00     0.031 A 
ATOM     91  C   UNL A   1      45.406  29.006  35.239  1.00  0.00     0.131 A 
ATOM     92  C   UNL A   1      45.048  27.066  37.180  1.00  0.00     0.055 A 
ATOM     93  C   UNL A   1      46.515  28.497  35.917  1.00  0.00     0.041 A 
ATOM     94  F   UNL A   1      45.621  29.964  34.324  1.00  0.00    -0.206 F 
ATOM     95  C   UNL A   1      46.338  27.529  36.901  1.00  0.00     0.022 A 
BRANCH  92  96
ATOM     96  S   UNL A   1      44.780  25.891  38.536  1.00  0.00     0.124 S 
ATOM     97  O   UNL A   1      43.495  26.330  39.068  1.00  0.00    -0.237 OA
ATOM     98  O   UNL A   1      44.780  24.608  37.842  1.00  0.00    -0.237 OA
ATOM     99  O   UNL A   1      45.925  26.117  39.418  1.00  0.00    -0.744 OA
ENDBRANCH  92  96
ENDBRANCH  66  89
ENDBRANCH  40  41
ENDBRANCH  32  35
ENDBRANCH  30  31
ENDBRANCH  29  30
ENDBRANCH  28  29
ENDBRANCH   1  28
TORSDOF 20
ENDMDL
