MODEL 1
REMARK VINA RESULT:     -12.0      0.000      0.000
REMARK SMILES Cc1c(CC(=O)N[C@@H](C)C(=O)NCCCCCCNC(=O)c2ccc(-c3c4nc(c(-c5cc(S(=O)(=O)[O-])ccc5F)c5ccc([nH]5)c(-c5cc(S(=O)(=O)[O-])ccc5F)c5nc(c(-c6cc(S(=O)(=O)[O-])ccc6F)c6ccc3[nH]6)C=C5)C=C4)cc2)c(=O)oc2cc3oc4c(c3cc12)CCCC4
REMARK SMILES IDX 15 1 14 2 13 3 12 4 10 5 11 6 8 8 9 9 7 10 5 11 6 12 4 14
REMARK SMILES IDX 3 15 1 16 2 17 96 18 85 19 88 20 95 21 86 22 87 23 89 24
REMARK SMILES IDX 94 25 90 26 93 27 91 28 92 29 97 30 100 31 98 32 99 33 16 34
REMARK SMILES IDX 17 35 18 36 19 37 20 38 21 40 22 41 23 42 84 43 24 44 83 45
REMARK SMILES IDX 25 46 26 47 27 48 77 49 28 50 82 51 76 52 78 53 29 54 81 55
REMARK SMILES IDX 75 56 74 57 30 59 62 60 42 61 61 62 43 63 46 64 60 65 79 66
REMARK SMILES IDX 44 67 45 68 59 70 80 71 47 72 31 73 32 74 40 75 33 76 39 77
REMARK SMILES IDX 41 78 38 79 34 80 35 81 36 82 37 83 63 84 64 85 72 86 65 87
REMARK SMILES IDX 71 88 73 89 70 90 66 91 67 92 68 93 69 94 48 95 49 96 57 97
REMARK SMILES IDX 50 98 56 99 58 100 55 101 51 102 52 103 53 104 54 105
REMARK H PARENT 12 7 7 13 19 39 78 58 46 69
REMARK Flexibility Score: inf
ROOT
ATOM      1  C   UNL A   1      43.349  35.817  27.303  1.00  0.00     0.002 C 
ENDROOT
BRANCH   1   2
ATOM      2  C   UNL A   1      42.936  37.227  27.746  1.00  0.00     0.021 C 
BRANCH   2   3
ATOM      3  C   UNL A   1      43.763  38.335  27.102  1.00  0.00     0.116 C 
BRANCH   3   4
ATOM      4  N   UNL A   1      43.814  39.497  27.968  1.00  0.00    -0.354 N 
ATOM      5  C   UNL A   1      43.584  40.814  27.722  1.00  0.00     0.242 C 
ATOM      6  O   UNL A   1      43.816  41.622  28.626  1.00  0.00    -0.273 OA
ATOM      7  H   UNL A   1      44.059  39.297  28.900  1.00  0.00     0.163 HD
BRANCH   5   8
ATOM      8  C   UNL A   1      43.010  41.286  26.380  1.00  0.00     0.168 C 
ATOM      9  C   UNL A   1      41.690  40.587  26.063  1.00  0.00     0.041 C 
BRANCH   8  10
ATOM     10  N   UNL A   1      44.002  41.175  25.308  1.00  0.00    -0.344 N 
ATOM     11  C   UNL A   1      44.369  42.103  24.380  1.00  0.00     0.225 C 
ATOM     12  O   UNL A   1      45.346  41.863  23.667  1.00  0.00    -0.275 OA
ATOM     13  H   UNL A   1      44.467  40.310  25.251  1.00  0.00     0.164 HD
BRANCH  11  14
ATOM     14  C   UNL A   1      43.571  43.392  24.213  1.00  0.00     0.143 C 
BRANCH  14  15
ATOM     15  C   UNL A   1      43.072  43.551  22.796  1.00  0.00     0.051 A 
ATOM     16  C   UNL A   1      45.086  44.856  22.016  1.00  0.00     0.046 C 
ATOM     17  C   UNL A   1      43.796  44.099  21.798  1.00  0.00    -0.029 A 
ATOM     18  C   UNL A   1      43.280  44.020  20.423  1.00  0.00     0.022 A 
ATOM     19  C   UNL A   1      41.708  43.003  22.558  1.00  0.00     0.340 A 
ATOM     20  C   UNL A   1      41.979  43.560  20.206  1.00  0.00     0.142 A 
ATOM     21  C   UNL A   1      44.018  44.508  19.338  1.00  0.00     0.024 A 
ATOM     22  O   UNL A   1      41.017  42.574  23.475  1.00  0.00    -0.246 OA
ATOM     23  O   UNL A   1      41.230  43.010  21.261  1.00  0.00    -0.422 OA
ATOM     24  C   UNL A   1      41.295  43.709  18.995  1.00  0.00     0.095 A 
ATOM     25  C   UNL A   1      43.307  44.856  18.184  1.00  0.00     0.025 A 
ATOM     26  C   UNL A   1      41.966  44.498  18.074  1.00  0.00     0.138 A 
ATOM     27  C   UNL A   1      43.557  45.799  17.162  1.00  0.00     0.001 A 
ATOM     28  O   UNL A   1      41.369  45.206  17.069  1.00  0.00    -0.461 OA
ATOM     29  C   UNL A   1      42.305  46.102  16.670  1.00  0.00     0.108 A 
ATOM     30  C   UNL A   1      44.653  46.794  17.047  1.00  0.00     0.040 C 
ATOM     31  C   UNL A   1      41.900  47.502  16.369  1.00  0.00     0.076 C 
ATOM     32  C   UNL A   1      44.140  48.158  17.563  1.00  0.00     0.005 C 
ATOM     33  C   UNL A   1      42.600  48.373  17.452  1.00  0.00     0.008 C 
ENDBRANCH  14  15
ENDBRANCH  11  14
ENDBRANCH   8  10
ENDBRANCH   5   8
ENDBRANCH   3   4
ENDBRANCH   2   3
ENDBRANCH   1   2
BRANCH   1  34
ATOM     34  C   UNL A   1      42.598  35.275  26.079  1.00  0.00     0.002 C 
BRANCH  34  35
ATOM     35  C   UNL A   1      43.465  34.514  25.075  1.00  0.00     0.021 C 
BRANCH  35  36
ATOM     36  C   UNL A   1      44.927  34.393  25.503  1.00  0.00     0.116 C 
BRANCH  36  37
ATOM     37  N   UNL A   1      45.457  33.053  25.340  1.00  0.00    -0.352 N 
ATOM     38  C   UNL A   1      45.530  32.050  26.287  1.00  0.00     0.251 C 
ATOM     39  H   UNL A   1      45.808  32.832  24.447  1.00  0.00     0.163 HD
ATOM     40  O   UNL A   1      46.045  30.982  26.032  1.00  0.00    -0.269 OA
BRANCH  38  41
ATOM     41  C   UNL A   1      44.980  32.342  27.627  1.00  0.00     0.039 A 
ATOM     42  C   UNL A   1      43.761  31.775  28.014  1.00  0.00     0.014 A 
ATOM     43  C   UNL A   1      45.638  33.265  28.438  1.00  0.00     0.014 A 
ATOM     44  C   UNL A   1      43.138  32.219  29.171  1.00  0.00     0.010 A 
ATOM     45  C   UNL A   1      45.029  33.680  29.620  1.00  0.00     0.010 A 
ATOM     46  C   UNL A   1      43.767  33.179  29.971  1.00  0.00    -0.014 A 
BRANCH  46  47
ATOM     47  C   UNL A   1      43.118  33.543  31.237  1.00  0.00     0.031 A 
ATOM     48  C   UNL A   1      41.638  33.639  31.139  1.00  0.00     0.074 A 
ATOM     49  C   UNL A   1      43.691  33.351  32.441  1.00  0.00     0.049 A 
ATOM     50  N   UNL A   1      40.890  32.578  31.141  1.00  0.00    -0.248 NA
ATOM     51  C   UNL A   1      40.941  34.869  30.771  1.00  0.00     0.031 C 
ATOM     52  C   UNL A   1      44.797  32.420  32.693  1.00  0.00     0.029 A 
ATOM     53  N   UNL A   1      43.288  33.748  33.694  1.00  0.00    -0.354 N 
ATOM     54  C   UNL A   1      39.639  32.968  30.715  1.00  0.00     0.074 A 
ATOM     55  C   UNL A   1      39.708  34.402  30.519  1.00  0.00     0.031 C 
ATOM     56  C   UNL A   1      44.849  32.165  34.017  1.00  0.00     0.029 A 
ATOM     57  C   UNL A   1      43.903  33.031  34.717  1.00  0.00     0.049 A 
ATOM     58  H   UNL A   1      42.634  34.467  33.851  1.00  0.00     0.167 HD
ATOM     59  C   UNL A   1      38.620  32.091  30.526  1.00  0.00     0.034 A 
ATOM     60  C   UNL A   1      43.327  32.707  35.908  1.00  0.00     0.034 A 
ATOM     61  C   UNL A   1      38.916  30.721  30.827  1.00  0.00     0.049 A 
ATOM     62  C   UNL A   1      42.129  31.895  35.475  1.00  0.00     0.074 A 
ATOM     63  C   UNL A   1      39.278  29.582  30.143  1.00  0.00     0.029 A 
ATOM     64  N   UNL A   1      38.945  30.352  32.152  1.00  0.00    -0.354 N 
ATOM     65  N   UNL A   1      42.134  30.636  35.123  1.00  0.00    -0.248 NA
ATOM     66  C   UNL A   1      40.893  32.607  35.150  1.00  0.00     0.031 C 
ATOM     67  C   UNL A   1      39.905  28.730  31.110  1.00  0.00     0.029 A 
ATOM     68  C   UNL A   1      39.952  29.433  32.315  1.00  0.00     0.049 A 
ATOM     69  H   UNL A   1      38.348  30.688  32.858  1.00  0.00     0.167 HD
ATOM     70  C   UNL A   1      41.006  30.464  34.311  1.00  0.00     0.074 A 
ATOM     71  C   UNL A   1      40.266  31.704  34.410  1.00  0.00     0.031 C 
ATOM     72  C   UNL A   1      40.822  29.394  33.479  1.00  0.00     0.034 A 
BRANCH  59  73
ATOM     73  C   UNL A   1      37.240  32.528  30.244  1.00  0.00     0.023 A 
ATOM     74  C   UNL A   1      36.468  33.265  31.151  1.00  0.00     0.031 A 
ATOM     75  C   UNL A   1      36.728  32.271  28.960  1.00  0.00     0.131 A 
ATOM     76  C   UNL A   1      35.213  33.740  30.741  1.00  0.00     0.055 A 
ATOM     77  C   UNL A   1      35.486  32.750  28.558  1.00  0.00     0.041 A 
ATOM     78  F   UNL A   1      37.452  31.564  28.074  1.00  0.00    -0.206 F 
ATOM     79  C   UNL A   1      34.725  33.495  29.450  1.00  0.00     0.022 A 
BRANCH  76  80
ATOM     80  S   UNL A   1      34.162  34.715  31.852  1.00  0.00     0.124 S 
ATOM     81  O   UNL A   1      33.335  35.467  30.913  1.00  0.00    -0.237 OA
ATOM     82  O   UNL A   1      33.465  33.671  32.601  1.00  0.00    -0.237 OA
ATOM     83  O   UNL A   1      35.111  35.506  32.628  1.00  0.00    -0.744 OA
ENDBRANCH  76  80
ENDBRANCH  59  73
BRANCH  60  84
ATOM     84  C   UNL A   1      43.224  33.846  36.884  1.00  0.00     0.023 A 
ATOM     85  C   UNL A   1      42.015  34.327  37.410  1.00  0.00     0.031 A 
ATOM     86  C   UNL A   1      44.399  34.508  37.301  1.00  0.00     0.131 A 
ATOM     87  C   UNL A   1      41.983  35.522  38.146  1.00  0.00     0.055 A 
ATOM     88  C   UNL A   1      44.373  35.659  38.099  1.00  0.00     0.041 A 
ATOM     89  F   UNL A   1      45.608  34.052  36.930  1.00  0.00    -0.206 F 
ATOM     90  C   UNL A   1      43.155  36.191  38.497  1.00  0.00     0.022 A 
BRANCH  87  91
ATOM     91  S   UNL A   1      40.397  36.284  38.589  1.00  0.00     0.124 S 
ATOM     92  O   UNL A   1      39.671  35.168  39.187  1.00  0.00    -0.237 OA
ATOM     93  O   UNL A   1      40.829  37.326  39.515  1.00  0.00    -0.237 OA
ATOM     94  O   UNL A   1      39.879  36.755  37.309  1.00  0.00    -0.744 OA
ENDBRANCH  87  91
ENDBRANCH  60  84
BRANCH  72  95
ATOM     95  C   UNL A   1      41.752  28.232  33.682  1.00  0.00     0.023 A 
ATOM     96  C   UNL A   1      41.425  27.165  34.541  1.00  0.00     0.031 A 
ATOM     97  C   UNL A   1      43.022  28.230  33.083  1.00  0.00     0.131 A 
ATOM     98  C   UNL A   1      42.377  26.178  34.827  1.00  0.00     0.055 A 
ATOM     99  C   UNL A   1      43.948  27.213  33.325  1.00  0.00     0.041 A 
ATOM    100  F   UNL A   1      43.405  29.242  32.286  1.00  0.00    -0.206 F 
ATOM    101  C   UNL A   1      43.633  26.187  34.212  1.00  0.00     0.022 A 
BRANCH  98 102
ATOM    102  S   UNL A   1      42.041  24.881  36.050  1.00  0.00     0.124 S 
ATOM    103  O   UNL A   1      43.054  25.136  37.071  1.00  0.00    -0.237 OA
ATOM    104  O   UNL A   1      40.669  25.190  36.445  1.00  0.00    -0.237 OA
ATOM    105  O   UNL A   1      42.216  23.638  35.306  1.00  0.00    -0.744 OA
ENDBRANCH  98 102
ENDBRANCH  72  95
ENDBRANCH  46  47
ENDBRANCH  38  41
ENDBRANCH  36  37
ENDBRANCH  35  36
ENDBRANCH  34  35
ENDBRANCH   1  34
TORSDOF 19
ENDMDL
MODEL 2
REMARK VINA RESULT:     -12.0      3.157      4.574
REMARK SMILES Cc1c(CC(=O)N[C@@H](C)C(=O)NCCCCCCNC(=O)c2ccc(-c3c4nc(c(-c5cc(S(=O)(=O)[O-])ccc5F)c5ccc([nH]5)c(-c5cc(S(=O)(=O)[O-])ccc5F)c5nc(c(-c6cc(S(=O)(=O)[O-])ccc6F)c6ccc3[nH]6)C=C5)C=C4)cc2)c(=O)oc2cc3oc4c(c3cc12)CCCC4
REMARK SMILES IDX 15 1 14 2 13 3 12 4 10 5 11 6 8 8 9 9 7 10 5 11 6 12 4 14
REMARK SMILES IDX 3 15 1 16 2 17 96 18 85 19 88 20 95 21 86 22 87 23 89 24
REMARK SMILES IDX 94 25 90 26 93 27 91 28 92 29 97 30 100 31 98 32 99 33 16 34
REMARK SMILES IDX 17 35 18 36 19 37 20 38 21 40 22 41 23 42 84 43 24 44 83 45
REMARK SMILES IDX 25 46 26 47 27 48 77 49 28 50 82 51 76 52 78 53 29 54 81 55
REMARK SMILES IDX 75 56 74 57 30 59 62 60 42 61 61 62 43 63 46 64 60 65 79 66
REMARK SMILES IDX 44 67 45 68 59 70 80 71 47 72 31 73 32 74 40 75 33 76 39 77
REMARK SMILES IDX 41 78 38 79 34 80 35 81 36 82 37 83 63 84 64 85 72 86 65 87
REMARK SMILES IDX 71 88 73 89 70 90 66 91 67 92 68 93 69 94 48 95 49 96 57 97
REMARK SMILES IDX 50 98 56 99 58 100 55 101 51 102 52 103 53 104 54 105
REMARK H PARENT 12 7 7 13 19 39 78 58 46 69
REMARK Flexibility Score: inf
ROOT
ATOM      1  C   UNL A   1      45.658  39.086  28.377  1.00  0.00     0.002 C 
ENDROOT
BRANCH   1   2
ATOM      2  C   UNL A   1      44.349  39.436  29.096  1.00  0.00     0.021 C 
BRANCH   2   3
ATOM      3  C   UNL A   1      43.504  40.467  28.355  1.00  0.00     0.116 C 
BRANCH   3   4
ATOM      4  N   UNL A   1      43.870  41.810  28.763  1.00  0.00    -0.354 N 
ATOM      5  C   UNL A   1      44.595  42.774  28.139  1.00  0.00     0.242 C 
ATOM      6  O   UNL A   1      44.861  43.801  28.770  1.00  0.00    -0.273 OA
ATOM      7  H   UNL A   1      43.533  42.068  29.651  1.00  0.00     0.163 HD
BRANCH   5   8
ATOM      8  C   UNL A   1      45.037  42.620  26.678  1.00  0.00     0.168 C 
ATOM      9  C   UNL A   1      46.444  42.033  26.582  1.00  0.00     0.041 C 
BRANCH   8  10
ATOM     10  N   UNL A   1      44.875  43.873  25.937  1.00  0.00    -0.344 N 
ATOM     11  C   UNL A   1      44.517  44.060  24.636  1.00  0.00     0.225 C 
ATOM     12  O   UNL A   1      44.277  45.208  24.254  1.00  0.00    -0.275 OA
ATOM     13  H   UNL A   1      45.051  44.693  26.451  1.00  0.00     0.164 HD
BRANCH  11  14
ATOM     14  C   UNL A   1      44.440  42.879  23.674  1.00  0.00     0.143 C 
BRANCH  14  15
ATOM     15  C   UNL A   1      43.677  43.238  22.421  1.00  0.00     0.051 A 
ATOM     16  C   UNL A   1      45.654  44.313  21.279  1.00  0.00     0.046 C 
ATOM     17  C   UNL A   1      44.244  43.769  21.318  1.00  0.00    -0.029 A 
ATOM     18  C   UNL A   1      43.435  43.893  20.096  1.00  0.00     0.022 A 
ATOM     19  C   UNL A   1      42.224  42.914  22.469  1.00  0.00     0.340 A 
ATOM     20  C   UNL A   1      42.062  43.645  20.156  1.00  0.00     0.142 A 
ATOM     21  C   UNL A   1      43.988  44.371  18.902  1.00  0.00     0.024 A 
ATOM     22  O   UNL A   1      41.690  42.503  23.494  1.00  0.00    -0.246 OA
ATOM     23  O   UNL A   1      41.483  43.110  21.320  1.00  0.00    -0.422 OA
ATOM     24  C   UNL A   1      41.164  44.001  19.144  1.00  0.00     0.095 A 
ATOM     25  C   UNL A   1      43.108  44.923  17.964  1.00  0.00     0.025 A 
ATOM     26  C   UNL A   1      41.735  44.771  18.143  1.00  0.00     0.138 A 
ATOM     27  C   UNL A   1      43.276  45.913  16.969  1.00  0.00     0.001 A 
ATOM     28  O   UNL A   1      41.055  45.646  17.345  1.00  0.00    -0.461 OA
ATOM     29  C   UNL A   1      42.012  46.435  16.796  1.00  0.00     0.108 A 
ATOM     30  C   UNL A   1      44.465  46.749  16.666  1.00  0.00     0.040 C 
ATOM     31  C   UNL A   1      41.779  47.899  16.680  1.00  0.00     0.076 C 
ATOM     32  C   UNL A   1      44.300  48.117  17.365  1.00  0.00     0.005 C 
ATOM     33  C   UNL A   1      42.827  48.557  17.623  1.00  0.00     0.008 C 
ENDBRANCH  14  15
ENDBRANCH  11  14
ENDBRANCH   8  10
ENDBRANCH   5   8
ENDBRANCH   3   4
ENDBRANCH   2   3
ENDBRANCH   1   2
BRANCH   1  34
ATOM     34  C   UNL A   1      46.308  37.767  28.818  1.00  0.00     0.002 C 
BRANCH  34  35
ATOM     35  C   UNL A   1      47.087  37.034  27.724  1.00  0.00     0.021 C 
BRANCH  35  36
ATOM     36  C   UNL A   1      46.304  35.889  27.083  1.00  0.00     0.116 C 
BRANCH  36  37
ATOM     37  N   UNL A   1      45.078  36.326  26.445  1.00  0.00    -0.352 N 
ATOM     38  C   UNL A   1      43.779  36.070  26.839  1.00  0.00     0.251 C 
ATOM     39  H   UNL A   1      45.184  36.872  25.633  1.00  0.00     0.163 HD
ATOM     40  O   UNL A   1      42.835  36.458  26.184  1.00  0.00    -0.269 OA
BRANCH  38  41
ATOM     41  C   UNL A   1      43.589  35.282  28.074  1.00  0.00     0.039 A 
ATOM     42  C   UNL A   1      43.589  33.885  28.013  1.00  0.00     0.014 A 
ATOM     43  C   UNL A   1      43.305  35.953  29.264  1.00  0.00     0.014 A 
ATOM     44  C   UNL A   1      43.191  33.151  29.122  1.00  0.00     0.010 A 
ATOM     45  C   UNL A   1      42.944  35.213  30.387  1.00  0.00     0.010 A 
ATOM     46  C   UNL A   1      42.859  33.815  30.308  1.00  0.00    -0.014 A 
BRANCH  46  47
ATOM     47  C   UNL A   1      42.543  32.994  31.483  1.00  0.00     0.031 A 
ATOM     48  C   UNL A   1      41.144  33.151  31.958  1.00  0.00     0.074 A 
ATOM     49  C   UNL A   1      43.236  31.887  31.817  1.00  0.00     0.049 A 
ATOM     50  N   UNL A   1      40.157  32.554  31.362  1.00  0.00    -0.248 NA
ATOM     51  C   UNL A   1      40.740  34.165  32.927  1.00  0.00     0.031 C 
ATOM     52  C   UNL A   1      44.089  31.133  30.890  1.00  0.00     0.029 A 
ATOM     53  N   UNL A   1      43.161  31.092  32.935  1.00  0.00    -0.354 N 
ATOM     54  C   UNL A   1      38.998  33.145  31.816  1.00  0.00     0.074 A 
ATOM     55  C   UNL A   1      39.404  34.123  32.804  1.00  0.00     0.031 C 
ATOM     56  C   UNL A   1      44.289  29.900  31.401  1.00  0.00     0.029 A 
ATOM     57  C   UNL A   1      43.728  29.833  32.748  1.00  0.00     0.049 A 
ATOM     58  H   UNL A   1      42.751  31.383  33.782  1.00  0.00     0.167 HD
ATOM     59  C   UNL A   1      37.770  32.814  31.342  1.00  0.00     0.034 A 
ATOM     60  C   UNL A   1      43.291  28.679  33.324  1.00  0.00     0.034 A 
ATOM     61  C   UNL A   1      37.745  31.779  30.349  1.00  0.00     0.049 A 
ATOM     62  C   UNL A   1      41.868  28.589  32.822  1.00  0.00     0.074 A 
ATOM     63  C   UNL A   1      37.682  31.685  28.977  1.00  0.00     0.029 A 
ATOM     64  N   UNL A   1      37.894  30.481  30.778  1.00  0.00    -0.354 N 
ATOM     65  N   UNL A   1      41.489  28.158  31.648  1.00  0.00    -0.248 NA
ATOM     66  C   UNL A   1      40.824  29.280  33.578  1.00  0.00     0.031 C 
ATOM     67  C   UNL A   1      38.215  30.396  28.651  1.00  0.00     0.029 A 
ATOM     68  C   UNL A   1      38.640  29.808  29.843  1.00  0.00     0.049 A 
ATOM     69  H   UNL A   1      37.529  30.102  31.610  1.00  0.00     0.167 HD
ATOM     70  C   UNL A   1      40.238  28.743  31.415  1.00  0.00     0.074 A 
ATOM     71  C   UNL A   1      39.872  29.381  32.662  1.00  0.00     0.031 C 
ATOM     72  C   UNL A   1      39.649  28.818  30.183  1.00  0.00     0.034 A 
BRANCH  59  73
ATOM     73  C   UNL A   1      36.524  33.315  31.951  1.00  0.00     0.023 A 
ATOM     74  C   UNL A   1      35.692  34.257  31.333  1.00  0.00     0.031 A 
ATOM     75  C   UNL A   1      36.115  32.734  33.165  1.00  0.00     0.131 A 
ATOM     76  C   UNL A   1      34.467  34.577  31.937  1.00  0.00     0.055 A 
ATOM     77  C   UNL A   1      34.897  33.050  33.755  1.00  0.00     0.041 A 
ATOM     78  F   UNL A   1      36.900  31.828  33.776  1.00  0.00    -0.206 F 
ATOM     79  C   UNL A   1      34.062  33.973  33.135  1.00  0.00     0.022 A 
BRANCH  76  80
ATOM     80  S   UNL A   1      33.327  35.775  31.189  1.00  0.00     0.124 S 
ATOM     81  O   UNL A   1      33.804  37.039  31.741  1.00  0.00    -0.237 OA
ATOM     82  O   UNL A   1      33.580  35.580  29.762  1.00  0.00    -0.237 OA
ATOM     83  O   UNL A   1      32.013  35.342  31.651  1.00  0.00    -0.744 OA
ENDBRANCH  76  80
ENDBRANCH  59  73
BRANCH  60  84
ATOM     84  C   UNL A   1      43.648  28.530  34.777  1.00  0.00     0.023 A 
ATOM     85  C   UNL A   1      44.261  29.531  35.546  1.00  0.00     0.031 A 
ATOM     86  C   UNL A   1      43.382  27.308  35.433  1.00  0.00     0.131 A 
ATOM     87  C   UNL A   1      44.752  29.244  36.830  1.00  0.00     0.055 A 
ATOM     88  C   UNL A   1      43.806  27.046  36.741  1.00  0.00     0.041 A 
ATOM     89  F   UNL A   1      42.706  26.330  34.805  1.00  0.00    -0.206 F 
ATOM     90  C   UNL A   1      44.528  28.008  37.434  1.00  0.00     0.022 A 
BRANCH  87  91
ATOM     91  S   UNL A   1      45.781  30.453  37.708  1.00  0.00     0.124 S 
ATOM     92  O   UNL A   1      46.359  31.225  36.613  1.00  0.00    -0.237 OA
ATOM     93  O   UNL A   1      44.780  31.147  38.513  1.00  0.00    -0.237 OA
ATOM     94  O   UNL A   1      46.720  29.620  38.453  1.00  0.00    -0.744 OA
ENDBRANCH  87  91
ENDBRANCH  60  84
BRANCH  72  95
ATOM     95  C   UNL A   1      40.265  27.973  29.104  1.00  0.00     0.023 A 
ATOM     96  C   UNL A   1      41.263  28.478  28.249  1.00  0.00     0.031 A 
ATOM     97  C   UNL A   1      39.786  26.675  28.864  1.00  0.00     0.131 A 
ATOM     98  C   UNL A   1      41.702  27.717  27.158  1.00  0.00     0.055 A 
ATOM     99  C   UNL A   1      40.268  25.897  27.810  1.00  0.00     0.041 A 
ATOM    100  F   UNL A   1      38.806  26.155  29.622  1.00  0.00    -0.206 F 
ATOM    101  C   UNL A   1      41.221  26.422  26.942  1.00  0.00     0.022 A 
BRANCH  98 102
ATOM    102  S   UNL A   1      42.869  28.402  25.949  1.00  0.00     0.124 S 
ATOM    103  O   UNL A   1      42.336  27.912  24.680  1.00  0.00    -0.237 OA
ATOM    104  O   UNL A   1      42.722  29.839  26.171  1.00  0.00    -0.237 OA
ATOM    105  O   UNL A   1      44.156  27.835  26.337  1.00  0.00    -0.744 OA
ENDBRANCH  98 102
ENDBRANCH  72  95
ENDBRANCH  46  47
ENDBRANCH  38  41
ENDBRANCH  36  37
ENDBRANCH  35  36
ENDBRANCH  34  35
ENDBRANCH   1  34
TORSDOF 19
ENDMDL
MODEL 3
REMARK VINA RESULT:     -11.8      7.440     13.837
REMARK SMILES Cc1c(CC(=O)N[C@@H](C)C(=O)NCCCCCCNC(=O)c2ccc(-c3c4nc(c(-c5cc(S(=O)(=O)[O-])ccc5F)c5ccc([nH]5)c(-c5cc(S(=O)(=O)[O-])ccc5F)c5nc(c(-c6cc(S(=O)(=O)[O-])ccc6F)c6ccc3[nH]6)C=C5)C=C4)cc2)c(=O)oc2cc3oc4c(c3cc12)CCCC4
REMARK SMILES IDX 15 1 14 2 13 3 12 4 10 5 11 6 8 8 9 9 7 10 5 11 6 12 4 14
REMARK SMILES IDX 3 15 1 16 2 17 96 18 85 19 88 20 95 21 86 22 87 23 89 24
REMARK SMILES IDX 94 25 90 26 93 27 91 28 92 29 97 30 100 31 98 32 99 33 16 34
REMARK SMILES IDX 17 35 18 36 19 37 20 38 21 40 22 41 23 42 84 43 24 44 83 45
REMARK SMILES IDX 25 46 26 47 27 48 77 49 28 50 82 51 76 52 78 53 29 54 81 55
REMARK SMILES IDX 75 56 74 57 30 59 62 60 42 61 61 62 43 63 46 64 60 65 79 66
REMARK SMILES IDX 44 67 45 68 59 70 80 71 47 72 31 73 32 74 40 75 33 76 39 77
REMARK SMILES IDX 41 78 38 79 34 80 35 81 36 82 37 83 63 84 64 85 72 86 65 87
REMARK SMILES IDX 71 88 73 89 70 90 66 91 67 92 68 93 69 94 48 95 49 96 57 97
REMARK SMILES IDX 50 98 56 99 58 100 55 101 51 102 52 103 53 104 54 105
REMARK H PARENT 12 7 7 13 19 39 78 58 46 69
REMARK Flexibility Score: inf
ROOT
ATOM      1  C   UNL A   1      37.754  30.571  28.871  1.00  0.00     0.002 C 
ENDROOT
BRANCH   1   2
ATOM      2  C   UNL A   1      36.649  30.593  27.807  1.00  0.00     0.021 C 
BRANCH   2   3
ATOM      3  C   UNL A   1      35.556  29.555  28.042  1.00  0.00     0.116 C 
BRANCH   3   4
ATOM      4  N   UNL A   1      34.253  30.112  27.730  1.00  0.00    -0.354 N 
ATOM      5  C   UNL A   1      33.324  29.763  26.802  1.00  0.00     0.242 C 
ATOM      6  O   UNL A   1      32.336  30.491  26.668  1.00  0.00    -0.273 OA
ATOM      7  H   UNL A   1      33.997  30.880  28.290  1.00  0.00     0.163 HD
BRANCH   5   8
ATOM      8  C   UNL A   1      33.468  28.482  25.972  1.00  0.00     0.168 C 
ATOM      9  C   UNL A   1      33.582  28.794  24.481  1.00  0.00     0.041 C 
BRANCH   8  10
ATOM     10  N   UNL A   1      32.409  27.521  26.288  1.00  0.00    -0.344 N 
ATOM     11  C   UNL A   1      32.470  26.160  26.332  1.00  0.00     0.225 C 
ATOM     12  O   UNL A   1      31.501  25.545  26.783  1.00  0.00    -0.275 OA
ATOM     13  H   UNL A   1      31.531  27.913  26.497  1.00  0.00     0.164 HD
BRANCH  11  14
ATOM     14  C   UNL A   1      33.698  25.420  25.811  1.00  0.00     0.143 C 
BRANCH  14  15
ATOM     15  C   UNL A   1      33.307  24.218  24.985  1.00  0.00     0.051 A 
ATOM     16  C   UNL A   1      33.379  22.606  26.924  1.00  0.00     0.046 C 
ATOM     17  C   UNL A   1      33.055  22.997  25.500  1.00  0.00    -0.029 A 
ATOM     18  C   UNL A   1      32.494  21.960  24.623  1.00  0.00     0.022 A 
ATOM     19  C   UNL A   1      33.168  24.491  23.527  1.00  0.00     0.340 A 
ATOM     20  C   UNL A   1      32.418  22.194  23.248  1.00  0.00     0.142 A 
ATOM     21  C   UNL A   1      32.146  20.697  25.117  1.00  0.00     0.024 A 
ATOM     22  O   UNL A   1      33.469  25.576  23.044  1.00  0.00    -0.246 OA
ATOM     23  O   UNL A   1      32.703  23.467  22.723  1.00  0.00    -0.422 OA
ATOM     24  C   UNL A   1      32.173  21.193  22.302  1.00  0.00     0.095 A 
ATOM     25  C   UNL A   1      32.102  19.640  24.200  1.00  0.00     0.025 A 
ATOM     26  C   UNL A   1      32.173  19.914  22.836  1.00  0.00     0.138 A 
ATOM     27  C   UNL A   1      32.310  18.249  24.341  1.00  0.00     0.001 A 
ATOM     28  O   UNL A   1      32.460  18.775  22.140  1.00  0.00    -0.461 OA
ATOM     29  C   UNL A   1      32.714  17.840  23.088  1.00  0.00     0.108 A 
ATOM     30  C   UNL A   1      32.731  17.478  25.538  1.00  0.00     0.040 C 
ATOM     31  C   UNL A   1      33.846  16.893  22.901  1.00  0.00     0.076 C 
ATOM     32  C   UNL A   1      34.257  17.246  25.466  1.00  0.00     0.005 C 
ATOM     33  C   UNL A   1      34.861  17.240  24.029  1.00  0.00     0.008 C 
ENDBRANCH  14  15
ENDBRANCH  11  14
ENDBRANCH   8  10
ENDBRANCH   5   8
ENDBRANCH   3   4
ENDBRANCH   2   3
ENDBRANCH   1   2
BRANCH   1  34
ATOM     34  C   UNL A   1      38.182  29.171  29.333  1.00  0.00     0.002 C 
BRANCH  34  35
ATOM     35  C   UNL A   1      39.675  28.872  29.186  1.00  0.00     0.021 C 
BRANCH  35  36
ATOM     36  C   UNL A   1      40.287  28.212  30.420  1.00  0.00     0.116 C 
BRANCH  36  37
ATOM     37  N   UNL A   1      41.643  27.746  30.202  1.00  0.00    -0.352 N 
ATOM     38  C   UNL A   1      42.817  28.462  30.336  1.00  0.00     0.251 C 
ATOM     39  H   UNL A   1      41.738  26.806  29.925  1.00  0.00     0.163 HD
ATOM     40  O   UNL A   1      43.891  27.962  30.076  1.00  0.00    -0.269 OA
BRANCH  38  41
ATOM     41  C   UNL A   1      42.707  29.865  30.785  1.00  0.00     0.039 A 
ATOM     42  C   UNL A   1      42.384  30.144  32.117  1.00  0.00     0.014 A 
ATOM     43  C   UNL A   1      42.823  30.885  29.841  1.00  0.00     0.014 A 
ATOM     44  C   UNL A   1      42.062  31.443  32.485  1.00  0.00     0.010 A 
ATOM     45  C   UNL A   1      42.539  32.193  30.222  1.00  0.00     0.010 A 
ATOM     46  C   UNL A   1      42.131  32.468  31.536  1.00  0.00    -0.014 A 
BRANCH  46  47
ATOM     47  C   UNL A   1      41.881  33.840  31.995  1.00  0.00     0.031 A 
ATOM     48  C   UNL A   1      40.438  34.169  32.127  1.00  0.00     0.074 A 
ATOM     49  C   UNL A   1      42.791  34.567  32.672  1.00  0.00     0.049 A 
ATOM     50  N   UNL A   1      39.746  33.774  33.153  1.00  0.00    -0.248 NA
ATOM     51  C   UNL A   1      39.639  34.707  31.031  1.00  0.00     0.031 C 
ATOM     52  C   UNL A   1      43.941  33.999  33.387  1.00  0.00     0.029 A 
ATOM     53  N   UNL A   1      42.773  35.888  33.053  1.00  0.00    -0.354 N 
ATOM     54  C   UNL A   1      38.418  33.943  32.829  1.00  0.00     0.074 A 
ATOM     55  C   UNL A   1      38.397  34.547  31.512  1.00  0.00     0.031 C 
ATOM     56  C   UNL A   1      44.390  34.914  34.271  1.00  0.00     0.029 A 
ATOM     57  C   UNL A   1      43.679  36.174  34.072  1.00  0.00     0.049 A 
ATOM     58  H   UNL A   1      42.181  36.562  32.647  1.00  0.00     0.167 HD
ATOM     59  C   UNL A   1      37.407  33.560  33.650  1.00  0.00     0.034 A 
ATOM     60  C   UNL A   1      43.491  37.095  35.057  1.00  0.00     0.034 A 
ATOM     61  C   UNL A   1      37.806  32.988  34.903  1.00  0.00     0.049 A 
ATOM     62  C   UNL A   1      42.234  36.594  35.730  1.00  0.00     0.074 A 
ATOM     63  C   UNL A   1      37.971  31.732  35.443  1.00  0.00     0.029 A 
ATOM     64  N   UNL A   1      38.236  33.846  35.886  1.00  0.00    -0.354 N 
ATOM     65  N   UNL A   1      42.160  35.626  36.606  1.00  0.00    -0.248 NA
ATOM     66  C   UNL A   1      40.944  37.016  35.185  1.00  0.00     0.031 C 
ATOM     67  C   UNL A   1      38.874  31.897  36.543  1.00  0.00     0.029 A 
ATOM     68  C   UNL A   1      39.264  33.237  36.563  1.00  0.00     0.049 A 
ATOM     69  H   UNL A   1      37.871  34.741  36.073  1.00  0.00     0.167 HD
ATOM     70  C   UNL A   1      40.845  35.150  36.534  1.00  0.00     0.074 A 
ATOM     71  C   UNL A   1      40.143  36.081  35.675  1.00  0.00     0.031 C 
ATOM     72  C   UNL A   1      40.443  33.944  37.038  1.00  0.00     0.034 A 
BRANCH  59  73
ATOM     73  C   UNL A   1      35.997  33.901  33.384  1.00  0.00     0.023 A 
ATOM     74  C   UNL A   1      35.509  35.214  33.399  1.00  0.00     0.031 A 
ATOM     75  C   UNL A   1      35.137  32.857  33.000  1.00  0.00     0.131 A 
ATOM     76  C   UNL A   1      34.182  35.447  33.010  1.00  0.00     0.055 A 
ATOM     77  C   UNL A   1      33.824  33.095  32.610  1.00  0.00     0.041 A 
ATOM     78  F   UNL A   1      35.585  31.589  32.981  1.00  0.00    -0.206 F 
ATOM     79  C   UNL A   1      33.343  34.398  32.608  1.00  0.00     0.022 A 
BRANCH  76  80
ATOM     80  S   UNL A   1      33.482  37.121  32.987  1.00  0.00     0.124 S 
ATOM     81  O   UNL A   1      33.933  37.625  31.693  1.00  0.00    -0.237 OA
ATOM     82  O   UNL A   1      32.049  36.850  33.088  1.00  0.00    -0.237 OA
ATOM     83  O   UNL A   1      34.075  37.764  34.154  1.00  0.00    -0.744 OA
ENDBRANCH  76  80
ENDBRANCH  59  73
BRANCH  60  84
ATOM     84  C   UNL A   1      43.661  38.524  34.620  1.00  0.00     0.023 A 
ATOM     85  C   UNL A   1      43.163  39.046  33.416  1.00  0.00     0.031 A 
ATOM     86  C   UNL A   1      44.382  39.418  35.442  1.00  0.00     0.131 A 
ATOM     87  C   UNL A   1      43.542  40.326  32.984  1.00  0.00     0.055 A 
ATOM     88  C   UNL A   1      44.697  40.722  35.043  1.00  0.00     0.041 A 
ATOM     89  F   UNL A   1      44.807  39.034  36.658  1.00  0.00    -0.206 F 
ATOM     90  C   UNL A   1      44.305  41.170  33.790  1.00  0.00     0.022 A 
BRANCH  87  91
ATOM     91  S   UNL A   1      43.122  40.889  31.311  1.00  0.00     0.124 S 
ATOM     92  O   UNL A   1      43.352  39.690  30.511  1.00  0.00    -0.237 OA
ATOM     93  O   UNL A   1      41.725  41.278  31.482  1.00  0.00    -0.237 OA
ATOM     94  O   UNL A   1      44.056  41.986  31.078  1.00  0.00    -0.744 OA
ENDBRANCH  87  91
ENDBRANCH  60  84
BRANCH  72  95
ATOM     95  C   UNL A   1      41.413  33.253  37.953  1.00  0.00     0.023 A 
ATOM     96  C   UNL A   1      42.378  32.352  37.463  1.00  0.00     0.031 A 
ATOM     97  C   UNL A   1      41.317  33.424  39.344  1.00  0.00     0.131 A 
ATOM     98  C   UNL A   1      43.161  31.610  38.357  1.00  0.00     0.055 A 
ATOM     99  C   UNL A   1      42.140  32.726  40.229  1.00  0.00     0.041 A 
ATOM    100  F   UNL A   1      40.388  34.241  39.870  1.00  0.00    -0.206 F 
ATOM    101  C   UNL A   1      43.059  31.802  39.738  1.00  0.00     0.022 A 
BRANCH  98 102
ATOM    102  S   UNL A   1      44.299  30.328  37.761  1.00  0.00     0.124 S 
ATOM    103  O   UNL A   1      45.248  31.094  36.956  1.00  0.00    -0.237 OA
ATOM    104  O   UNL A   1      44.833  29.796  39.012  1.00  0.00    -0.237 OA
ATOM    105  O   UNL A   1      43.444  29.418  37.005  1.00  0.00    -0.744 OA
ENDBRANCH  98 102
ENDBRANCH  72  95
ENDBRANCH  46  47
ENDBRANCH  38  41
ENDBRANCH  36  37
ENDBRANCH  35  36
ENDBRANCH  34  35
ENDBRANCH   1  34
TORSDOF 19
ENDMDL
