MODEL 1
REMARK VINA RESULT:     -11.4      0.000      0.000
REMARK SMILES C[C@@H](C(=O)NCCCCCCNC(=O)c1ccc(-c2c3nc(c(-c4cc(S(=O)(=O)[O-])ccc4F)c4ccc([nH]4)c(-c4cc(S(=O)(=O)[O-])ccc4F)c4nc(c(-c5cc(S(=O)(=O)[O-])ccc5F)c5ccc2[nH]5)C=C4)C=C3)cc1)c1ccc(OC2CCCC2)cc1F
REMARK SMILES IDX 8 1 7 2 6 3 5 4 3 5 4 6 2 8 1 9 78 10 79 11 89 12 80 13
REMARK SMILES IDX 88 14 90 15 81 16 82 17 83 18 84 19 87 20 85 21 86 22 9 23
REMARK SMILES IDX 10 24 11 25 12 26 13 27 14 29 15 30 16 31 77 32 17 33 76 34
REMARK SMILES IDX 18 35 19 36 20 37 70 38 21 39 75 40 69 41 71 42 22 43 74 44
REMARK SMILES IDX 68 45 67 46 23 48 55 49 35 50 54 51 36 52 39 53 53 54 72 55
REMARK SMILES IDX 37 56 38 57 52 59 73 60 40 61 24 62 25 63 33 64 26 65 32 66
REMARK SMILES IDX 34 67 31 68 27 69 28 70 29 71 30 72 56 73 57 74 65 75 58 76
REMARK SMILES IDX 64 77 66 78 63 79 59 80 60 81 61 82 62 83 41 84 42 85 50 86
REMARK SMILES IDX 43 87 49 88 51 89 48 90 44 91 45 92 46 93 47 94
REMARK H PARENT 5 7 12 28 71 47 39 58
REMARK Flexibility Score: inf
ROOT
ATOM      1  C   UNL A   1      34.487  21.059  25.635  1.00  0.00     0.002 C 
ENDROOT
BRANCH   1   2
ATOM      2  C   UNL A   1      33.009  20.658  25.685  1.00  0.00     0.021 C 
BRANCH   2   3
ATOM      3  C   UNL A   1      32.089  21.595  24.894  1.00  0.00     0.116 C 
BRANCH   3   4
ATOM      4  N   UNL A   1      31.351  22.450  25.801  1.00  0.00    -0.356 N 
ATOM      5  C   UNL A   1      31.584  23.746  26.161  1.00  0.00     0.227 C 
ATOM      6  O   UNL A   1      30.920  24.187  27.101  1.00  0.00    -0.274 OA
ATOM      7  H   UNL A   1      30.563  22.035  26.219  1.00  0.00     0.163 HD
BRANCH   5   8
ATOM      8  C   UNL A   1      32.582  24.605  25.356  1.00  0.00     0.108 C 
ATOM      9  C   UNL A   1      33.933  24.720  26.075  1.00  0.00     0.023 C 
BRANCH   8  10
ATOM     10  C   UNL A   1      31.969  25.955  24.983  1.00  0.00     0.000 A 
ATOM     11  C   UNL A   1      32.373  27.115  25.669  1.00  0.00     0.011 A 
ATOM     12  C   UNL A   1      31.029  26.117  23.963  1.00  0.00     0.130 A 
ATOM     13  C   UNL A   1      31.860  28.372  25.320  1.00  0.00     0.047 A 
ATOM     14  C   UNL A   1      30.493  27.360  23.642  1.00  0.00     0.086 A 
ATOM     15  F   UNL A   1      30.599  25.078  23.234  1.00  0.00    -0.207 F 
ATOM     16  C   UNL A   1      30.923  28.505  24.294  1.00  0.00     0.122 A 
BRANCH  16  17
ATOM     17  O   UNL A   1      30.525  29.783  24.029  1.00  0.00    -0.490 OA
BRANCH  17  18
ATOM     18  C   UNL A   1      29.334  30.065  23.297  1.00  0.00     0.173 C 
ATOM     19  C   UNL A   1      28.495  31.247  23.781  1.00  0.00     0.045 C 
ATOM     20  C   UNL A   1      29.519  30.216  21.786  1.00  0.00     0.045 C 
ATOM     21  C   UNL A   1      27.677  31.646  22.562  1.00  0.00     0.004 C 
ATOM     22  C   UNL A   1      28.524  31.287  21.346  1.00  0.00     0.004 C 
ENDBRANCH  17  18
ENDBRANCH  16  17
ENDBRANCH   8  10
ENDBRANCH   5   8
ENDBRANCH   3   4
ENDBRANCH   2   3
ENDBRANCH   1   2
BRANCH   1  23
ATOM     23  C   UNL A   1      34.933  21.700  24.317  1.00  0.00     0.002 C 
BRANCH  23  24
ATOM     24  C   UNL A   1      36.376  22.213  24.307  1.00  0.00     0.021 C 
BRANCH  24  25
ATOM     25  C   UNL A   1      36.993  22.396  25.691  1.00  0.00     0.116 C 
BRANCH  25  26
ATOM     26  N   UNL A   1      38.031  21.413  25.951  1.00  0.00    -0.352 N 
ATOM     27  C   UNL A   1      39.341  21.604  26.306  1.00  0.00     0.251 C 
ATOM     28  H   UNL A   1      37.754  20.474  25.858  1.00  0.00     0.163 HD
ATOM     29  O   UNL A   1      40.126  20.657  26.249  1.00  0.00    -0.269 OA
BRANCH  27  30
ATOM     30  C   UNL A   1      39.812  22.937  26.739  1.00  0.00     0.039 A 
ATOM     31  C   UNL A   1      40.664  23.025  27.843  1.00  0.00     0.014 A 
ATOM     32  C   UNL A   1      39.396  24.101  26.083  1.00  0.00     0.014 A 
ATOM     33  C   UNL A   1      41.135  24.273  28.258  1.00  0.00     0.010 A 
ATOM     34  C   UNL A   1      39.920  25.337  26.457  1.00  0.00     0.010 A 
ATOM     35  C   UNL A   1      40.789  25.437  27.552  1.00  0.00    -0.014 A 
BRANCH  35  36
ATOM     36  C   UNL A   1      41.326  26.761  27.963  1.00  0.00     0.031 A 
ATOM     37  C   UNL A   1      42.763  27.117  27.688  1.00  0.00     0.074 A 
ATOM     38  C   UNL A   1      40.526  27.630  28.614  1.00  0.00     0.049 A 
ATOM     39  N   UNL A   1      43.420  28.205  27.996  1.00  0.00    -0.248 NA
ATOM     40  C   UNL A   1      43.572  26.103  26.994  1.00  0.00     0.031 C 
ATOM     41  C   UNL A   1      39.130  27.380  28.977  1.00  0.00     0.029 A 
ATOM     42  N   UNL A   1      40.769  28.895  29.087  1.00  0.00    -0.354 N 
ATOM     43  C   UNL A   1      44.716  28.012  27.531  1.00  0.00     0.074 A 
ATOM     44  C   UNL A   1      44.768  26.671  26.987  1.00  0.00     0.031 C 
ATOM     45  C   UNL A   1      38.635  28.464  29.596  1.00  0.00     0.029 A 
ATOM     46  C   UNL A   1      39.685  29.471  29.709  1.00  0.00     0.049 A 
ATOM     47  H   UNL A   1      41.637  29.348  28.990  1.00  0.00     0.167 HD
ATOM     48  C   UNL A   1      45.759  28.881  27.529  1.00  0.00     0.034 A 
ATOM     49  C   UNL A   1      39.555  30.670  30.309  1.00  0.00     0.034 A 
ATOM     50  C   UNL A   1      45.692  30.215  28.076  1.00  0.00     0.049 A 
ATOM     51  C   UNL A   1      40.733  31.612  30.313  1.00  0.00     0.074 A 
ATOM     52  C   UNL A   1      46.680  31.184  28.112  1.00  0.00     0.029 A 
ATOM     53  N   UNL A   1      44.574  30.769  28.688  1.00  0.00    -0.354 N 
ATOM     54  N   UNL A   1      41.940  31.427  29.829  1.00  0.00    -0.248 NA
ATOM     55  C   UNL A   1      40.525  32.931  30.924  1.00  0.00     0.031 C 
ATOM     56  C   UNL A   1      46.179  32.299  28.793  1.00  0.00     0.029 A 
ATOM     57  C   UNL A   1      44.854  32.056  29.119  1.00  0.00     0.049 A 
ATOM     58  H   UNL A   1      43.708  30.313  28.799  1.00  0.00     0.167 HD
ATOM     59  C   UNL A   1      42.625  32.619  30.054  1.00  0.00     0.074 A 
ATOM     60  C   UNL A   1      41.687  33.520  30.691  1.00  0.00     0.031 C 
ATOM     61  C   UNL A   1      43.911  32.940  29.762  1.00  0.00     0.034 A 
BRANCH  48  62
ATOM     62  C   UNL A   1      47.057  28.403  26.923  1.00  0.00     0.023 A 
ATOM     63  C   UNL A   1      47.227  28.315  25.530  1.00  0.00     0.031 A 
ATOM     64  C   UNL A   1      48.131  28.013  27.742  1.00  0.00     0.131 A 
ATOM     65  C   UNL A   1      48.411  27.781  24.999  1.00  0.00     0.055 A 
ATOM     66  C   UNL A   1      49.339  27.558  27.205  1.00  0.00     0.041 A 
ATOM     67  F   UNL A   1      48.023  28.055  29.079  1.00  0.00    -0.206 F 
ATOM     68  C   UNL A   1      49.479  27.426  25.826  1.00  0.00     0.022 A 
BRANCH  65  69
ATOM     69  S   UNL A   1      48.482  27.431  23.221  1.00  0.00     0.124 S 
ATOM     70  O   UNL A   1      47.346  28.205  22.724  1.00  0.00    -0.237 OA
ATOM     71  O   UNL A   1      49.803  27.927  22.854  1.00  0.00    -0.237 OA
ATOM     72  O   UNL A   1      48.318  25.981  23.150  1.00  0.00    -0.744 OA
ENDBRANCH  65  69
ENDBRANCH  48  62
BRANCH  49  73
ATOM     73  C   UNL A   1      38.272  31.054  30.969  1.00  0.00     0.023 A 
ATOM     74  C   UNL A   1      37.250  31.698  30.253  1.00  0.00     0.031 A 
ATOM     75  C   UNL A   1      38.074  30.832  32.343  1.00  0.00     0.131 A 
ATOM     76  C   UNL A   1      36.105  32.152  30.926  1.00  0.00     0.055 A 
ATOM     77  C   UNL A   1      36.907  31.233  32.996  1.00  0.00     0.041 A 
ATOM     78  F   UNL A   1      39.016  30.214  33.075  1.00  0.00    -0.206 F 
ATOM     79  C   UNL A   1      35.921  31.914  32.289  1.00  0.00     0.022 A 
BRANCH  76  80
ATOM     80  S   UNL A   1      34.906  33.160  30.011  1.00  0.00     0.124 S 
ATOM     81  O   UNL A   1      34.071  33.681  31.089  1.00  0.00    -0.237 OA
ATOM     82  O   UNL A   1      35.771  34.127  29.345  1.00  0.00    -0.237 OA
ATOM     83  O   UNL A   1      34.255  32.196  29.128  1.00  0.00    -0.744 OA
ENDBRANCH  76  80
ENDBRANCH  49  73
BRANCH  61  84
ATOM     84  C   UNL A   1      44.354  34.345  30.097  1.00  0.00     0.023 A 
ATOM     85  C   UNL A   1      44.936  34.660  31.338  1.00  0.00     0.031 A 
ATOM     86  C   UNL A   1      44.165  35.386  29.172  1.00  0.00     0.131 A 
ATOM     87  C   UNL A   1      45.242  35.993  31.647  1.00  0.00     0.055 A 
ATOM     88  C   UNL A   1      44.532  36.701  29.461  1.00  0.00     0.041 A 
ATOM     89  F   UNL A   1      43.614  35.143  27.972  1.00  0.00    -0.206 F 
ATOM     90  C   UNL A   1      45.059  37.013  30.710  1.00  0.00     0.022 A 
BRANCH  87  91
ATOM     91  S   UNL A   1      45.785  36.393  33.331  1.00  0.00     0.124 S 
ATOM     92  O   UNL A   1      44.679  37.208  33.821  1.00  0.00    -0.237 OA
ATOM     93  O   UNL A   1      45.921  35.072  33.936  1.00  0.00    -0.237 OA
ATOM     94  O   UNL A   1      47.041  37.111  33.126  1.00  0.00    -0.744 OA
ENDBRANCH  87  91
ENDBRANCH  61  84
ENDBRANCH  35  36
ENDBRANCH  27  30
ENDBRANCH  25  26
ENDBRANCH  24  25
ENDBRANCH  23  24
ENDBRANCH   1  23
TORSDOF 19
ENDMDL
MODEL 2
REMARK VINA RESULT:     -11.2      5.058     10.566
REMARK SMILES C[C@@H](C(=O)NCCCCCCNC(=O)c1ccc(-c2c3nc(c(-c4cc(S(=O)(=O)[O-])ccc4F)c4ccc([nH]4)c(-c4cc(S(=O)(=O)[O-])ccc4F)c4nc(c(-c5cc(S(=O)(=O)[O-])ccc5F)c5ccc2[nH]5)C=C4)C=C3)cc1)c1ccc(OC2CCCC2)cc1F
REMARK SMILES IDX 8 1 7 2 6 3 5 4 3 5 4 6 2 8 1 9 78 10 79 11 89 12 80 13
REMARK SMILES IDX 88 14 90 15 81 16 82 17 83 18 84 19 87 20 85 21 86 22 9 23
REMARK SMILES IDX 10 24 11 25 12 26 13 27 14 29 15 30 16 31 77 32 17 33 76 34
REMARK SMILES IDX 18 35 19 36 20 37 70 38 21 39 75 40 69 41 71 42 22 43 74 44
REMARK SMILES IDX 68 45 67 46 23 48 55 49 35 50 54 51 36 52 39 53 53 54 72 55
REMARK SMILES IDX 37 56 38 57 52 59 73 60 40 61 24 62 25 63 33 64 26 65 32 66
REMARK SMILES IDX 34 67 31 68 27 69 28 70 29 71 30 72 56 73 57 74 65 75 58 76
REMARK SMILES IDX 64 77 66 78 63 79 59 80 60 81 61 82 62 83 41 84 42 85 50 86
REMARK SMILES IDX 43 87 49 88 51 89 48 90 44 91 45 92 46 93 47 94
REMARK H PARENT 5 7 12 28 71 47 39 58
REMARK Flexibility Score: inf
ROOT
ATOM      1  C   UNL A   1      32.272  29.633  26.836  1.00  0.00     0.002 C 
ENDROOT
BRANCH   1   2
ATOM      2  C   UNL A   1      33.465  29.008  26.105  1.00  0.00     0.021 C 
BRANCH   2   3
ATOM      3  C   UNL A   1      33.473  27.476  26.136  1.00  0.00     0.116 C 
BRANCH   3   4
ATOM      4  N   UNL A   1      32.250  26.958  25.556  1.00  0.00    -0.356 N 
ATOM      5  C   UNL A   1      32.076  25.991  24.610  1.00  0.00     0.227 C 
ATOM      6  O   UNL A   1      30.941  25.871  24.144  1.00  0.00    -0.274 OA
ATOM      7  H   UNL A   1      31.422  27.367  25.896  1.00  0.00     0.163 HD
BRANCH   5   8
ATOM      8  C   UNL A   1      33.248  25.063  24.226  1.00  0.00     0.108 C 
ATOM      9  C   UNL A   1      33.752  25.351  22.806  1.00  0.00     0.023 C 
BRANCH   8  10
ATOM     10  C   UNL A   1      32.888  23.596  24.463  1.00  0.00     0.000 A 
ATOM     11  C   UNL A   1      32.633  22.756  23.363  1.00  0.00     0.011 A 
ATOM     12  C   UNL A   1      32.819  23.017  25.732  1.00  0.00     0.130 A 
ATOM     13  C   UNL A   1      32.344  21.397  23.547  1.00  0.00     0.047 A 
ATOM     14  C   UNL A   1      32.495  21.676  25.916  1.00  0.00     0.086 A 
ATOM     15  F   UNL A   1      33.069  23.725  26.841  1.00  0.00    -0.207 F 
ATOM     16  C   UNL A   1      32.283  20.844  24.828  1.00  0.00     0.122 A 
BRANCH  16  17
ATOM     17  O   UNL A   1      32.023  19.506  24.873  1.00  0.00    -0.490 OA
BRANCH  17  18
ATOM     18  C   UNL A   1      33.009  18.561  25.283  1.00  0.00     0.173 C 
ATOM     19  C   UNL A   1      32.517  17.149  25.601  1.00  0.00     0.045 C 
ATOM     20  C   UNL A   1      34.215  18.431  24.350  1.00  0.00     0.045 C 
ATOM     21  C   UNL A   1      33.755  16.279  25.444  1.00  0.00     0.004 C 
ATOM     22  C   UNL A   1      34.623  16.960  24.391  1.00  0.00     0.004 C 
ENDBRANCH  17  18
ENDBRANCH  16  17
ENDBRANCH   8  10
ENDBRANCH   5   8
ENDBRANCH   3   4
ENDBRANCH   2   3
ENDBRANCH   1   2
BRANCH   1  23
ATOM     23  C   UNL A   1      31.452  30.621  25.999  1.00  0.00     0.002 C 
BRANCH  23  24
ATOM     24  C   UNL A   1      31.411  32.050  26.548  1.00  0.00     0.021 C 
BRANCH  24  25
ATOM     25  C   UNL A   1      32.719  32.526  27.174  1.00  0.00     0.116 C 
BRANCH  25  26
ATOM     26  N   UNL A   1      32.602  33.875  27.702  1.00  0.00    -0.352 N 
ATOM     27  C   UNL A   1      33.285  34.469  28.731  1.00  0.00     0.251 C 
ATOM     28  H   UNL A   1      31.935  34.445  27.256  1.00  0.00     0.163 HD
ATOM     29  O   UNL A   1      32.880  35.539  29.186  1.00  0.00    -0.269 OA
BRANCH  27  30
ATOM     30  C   UNL A   1      34.488  33.824  29.302  1.00  0.00     0.039 A 
ATOM     31  C   UNL A   1      34.325  32.863  30.303  1.00  0.00     0.014 A 
ATOM     32  C   UNL A   1      35.772  34.182  28.878  1.00  0.00     0.014 A 
ATOM     33  C   UNL A   1      35.446  32.230  30.844  1.00  0.00     0.010 A 
ATOM     34  C   UNL A   1      36.884  33.502  29.371  1.00  0.00     0.010 A 
ATOM     35  C   UNL A   1      36.733  32.523  30.364  1.00  0.00    -0.014 A 
BRANCH  35  36
ATOM     36  C   UNL A   1      37.924  31.817  30.904  1.00  0.00     0.031 A 
ATOM     37  C   UNL A   1      38.479  32.187  32.255  1.00  0.00     0.074 A 
ATOM     38  C   UNL A   1      38.525  30.863  30.164  1.00  0.00     0.049 A 
ATOM     39  N   UNL A   1      39.524  31.708  32.880  1.00  0.00    -0.248 NA
ATOM     40  C   UNL A   1      37.777  33.253  32.986  1.00  0.00     0.031 C 
ATOM     41  C   UNL A   1      38.107  30.451  28.823  1.00  0.00     0.029 A 
ATOM     42  N   UNL A   1      39.613  30.072  30.429  1.00  0.00    -0.354 N 
ATOM     43  C   UNL A   1      39.603  32.408  34.079  1.00  0.00     0.074 A 
ATOM     44  C   UNL A   1      38.544  33.395  34.057  1.00  0.00     0.031 C 
ATOM     45  C   UNL A   1      38.915  29.468  28.393  1.00  0.00     0.029 A 
ATOM     46  C   UNL A   1      39.932  29.206  29.407  1.00  0.00     0.049 A 
ATOM     47  H   UNL A   1      40.121  30.118  31.272  1.00  0.00     0.167 HD
ATOM     48  C   UNL A   1      40.460  32.227  35.116  1.00  0.00     0.034 A 
ATOM     49  C   UNL A   1      40.932  28.311  29.297  1.00  0.00     0.034 A 
ATOM     50  C   UNL A   1      41.513  31.239  35.123  1.00  0.00     0.049 A 
ATOM     51  C   UNL A   1      41.884  28.140  30.453  1.00  0.00     0.074 A 
ATOM     52  C   UNL A   1      42.425  30.957  36.124  1.00  0.00     0.029 A 
ATOM     53  N   UNL A   1      41.797  30.372  34.075  1.00  0.00    -0.354 N 
ATOM     54  N   UNL A   1      41.918  28.783  31.598  1.00  0.00    -0.248 NA
ATOM     55  C   UNL A   1      42.920  27.109  30.311  1.00  0.00     0.031 C 
ATOM     56  C   UNL A   1      43.294  29.962  35.662  1.00  0.00     0.029 A 
ATOM     57  C   UNL A   1      42.880  29.570  34.400  1.00  0.00     0.049 A 
ATOM     58  H   UNL A   1      41.301  30.333  33.225  1.00  0.00     0.167 HD
ATOM     59  C   UNL A   1      42.961  28.212  32.323  1.00  0.00     0.074 A 
ATOM     60  C   UNL A   1      43.511  27.158  31.495  1.00  0.00     0.031 C 
ATOM     61  C   UNL A   1      43.424  28.529  33.559  1.00  0.00     0.034 A 
BRANCH  48  62
ATOM     62  C   UNL A   1      40.291  33.124  36.318  1.00  0.00     0.023 A 
ATOM     63  C   UNL A   1      39.541  32.719  37.436  1.00  0.00     0.031 A 
ATOM     64  C   UNL A   1      40.869  34.406  36.344  1.00  0.00     0.131 A 
ATOM     65  C   UNL A   1      39.325  33.610  38.499  1.00  0.00     0.055 A 
ATOM     66  C   UNL A   1      40.719  35.259  37.441  1.00  0.00     0.041 A 
ATOM     67  F   UNL A   1      41.580  34.858  35.300  1.00  0.00    -0.206 F 
ATOM     68  C   UNL A   1      39.932  34.868  38.521  1.00  0.00     0.022 A 
BRANCH  65  69
ATOM     69  S   UNL A   1      38.133  33.151  39.786  1.00  0.00     0.124 S 
ATOM     70  O   UNL A   1      36.936  32.879  38.993  1.00  0.00    -0.237 OA
ATOM     71  O   UNL A   1      38.767  31.993  40.405  1.00  0.00    -0.237 OA
ATOM     72  O   UNL A   1      38.059  34.345  40.626  1.00  0.00    -0.744 OA
ENDBRANCH  65  69
ENDBRANCH  48  62
BRANCH  49  73
ATOM     73  C   UNL A   1      41.101  27.512  28.047  1.00  0.00     0.023 A 
ATOM     74  C   UNL A   1      40.786  26.145  28.010  1.00  0.00     0.031 A 
ATOM     75  C   UNL A   1      41.637  28.096  26.886  1.00  0.00     0.131 A 
ATOM     76  C   UNL A   1      41.067  25.394  26.858  1.00  0.00     0.055 A 
ATOM     77  C   UNL A   1      41.859  27.357  25.722  1.00  0.00     0.041 A 
ATOM     78  F   UNL A   1      41.950  29.402  26.863  1.00  0.00    -0.206 F 
ATOM     79  C   UNL A   1      41.589  25.992  25.710  1.00  0.00     0.022 A 
BRANCH  76  80
ATOM     80  S   UNL A   1      40.841  23.595  26.919  1.00  0.00     0.124 S 
ATOM     81  O   UNL A   1      41.215  23.295  28.297  1.00  0.00    -0.237 OA
ATOM     82  O   UNL A   1      39.426  23.458  26.594  1.00  0.00    -0.237 OA
ATOM     83  O   UNL A   1      41.764  23.101  25.900  1.00  0.00    -0.744 OA
ENDBRANCH  76  80
ENDBRANCH  49  73
BRANCH  61  84
ATOM     84  C   UNL A   1      44.558  27.689  34.097  1.00  0.00     0.023 A 
ATOM     85  C   UNL A   1      44.322  26.523  34.847  1.00  0.00     0.031 A 
ATOM     86  C   UNL A   1      45.892  28.078  33.881  1.00  0.00     0.131 A 
ATOM     87  C   UNL A   1      45.401  25.826  35.412  1.00  0.00     0.055 A 
ATOM     88  C   UNL A   1      46.963  27.344  34.392  1.00  0.00     0.041 A 
ATOM     89  F   UNL A   1      46.175  29.183  33.173  1.00  0.00    -0.206 F 
ATOM     90  C   UNL A   1      46.720  26.220  35.176  1.00  0.00     0.022 A 
BRANCH  87  91
ATOM     91  S   UNL A   1      45.051  24.458  36.551  1.00  0.00     0.124 S 
ATOM     92  O   UNL A   1      44.219  25.108  37.559  1.00  0.00    -0.237 OA
ATOM     93  O   UNL A   1      44.372  23.499  35.687  1.00  0.00    -0.237 OA
ATOM     94  O   UNL A   1      46.375  24.047  37.011  1.00  0.00    -0.744 OA
ENDBRANCH  87  91
ENDBRANCH  61  84
ENDBRANCH  35  36
ENDBRANCH  27  30
ENDBRANCH  25  26
ENDBRANCH  24  25
ENDBRANCH  23  24
ENDBRANCH   1  23
TORSDOF 19
ENDMDL
MODEL 3
REMARK VINA RESULT:     -11.2      5.158     10.610
REMARK SMILES C[C@@H](C(=O)NCCCCCCNC(=O)c1ccc(-c2c3nc(c(-c4cc(S(=O)(=O)[O-])ccc4F)c4ccc([nH]4)c(-c4cc(S(=O)(=O)[O-])ccc4F)c4nc(c(-c5cc(S(=O)(=O)[O-])ccc5F)c5ccc2[nH]5)C=C4)C=C3)cc1)c1ccc(OC2CCCC2)cc1F
REMARK SMILES IDX 8 1 7 2 6 3 5 4 3 5 4 6 2 8 1 9 78 10 79 11 89 12 80 13
REMARK SMILES IDX 88 14 90 15 81 16 82 17 83 18 84 19 87 20 85 21 86 22 9 23
REMARK SMILES IDX 10 24 11 25 12 26 13 27 14 29 15 30 16 31 77 32 17 33 76 34
REMARK SMILES IDX 18 35 19 36 20 37 70 38 21 39 75 40 69 41 71 42 22 43 74 44
REMARK SMILES IDX 68 45 67 46 23 48 55 49 35 50 54 51 36 52 39 53 53 54 72 55
REMARK SMILES IDX 37 56 38 57 52 59 73 60 40 61 24 62 25 63 33 64 26 65 32 66
REMARK SMILES IDX 34 67 31 68 27 69 28 70 29 71 30 72 56 73 57 74 65 75 58 76
REMARK SMILES IDX 64 77 66 78 63 79 59 80 60 81 61 82 62 83 41 84 42 85 50 86
REMARK SMILES IDX 43 87 49 88 51 89 48 90 44 91 45 92 46 93 47 94
REMARK H PARENT 5 7 12 28 71 47 39 58
REMARK Flexibility Score: inf
ROOT
ATOM      1  C   UNL A   1      32.680  30.045  26.631  1.00  0.00     0.002 C 
ENDROOT
BRANCH   1   2
ATOM      2  C   UNL A   1      33.384  29.229  25.541  1.00  0.00     0.021 C 
BRANCH   2   3
ATOM      3  C   UNL A   1      33.715  27.793  25.964  1.00  0.00     0.116 C 
BRANCH   3   4
ATOM      4  N   UNL A   1      32.575  27.192  26.626  1.00  0.00    -0.356 N 
ATOM      5  C   UNL A   1      31.632  26.338  26.133  1.00  0.00     0.227 C 
ATOM      6  O   UNL A   1      30.651  26.125  26.848  1.00  0.00    -0.274 OA
ATOM      7  H   UNL A   1      32.465  27.437  27.572  1.00  0.00     0.163 HD
BRANCH   5   8
ATOM      8  C   UNL A   1      31.856  25.634  24.778  1.00  0.00     0.108 C 
ATOM      9  C   UNL A   1      30.644  25.796  23.852  1.00  0.00     0.023 C 
BRANCH   8  10
ATOM     10  C   UNL A   1      32.286  24.180  24.978  1.00  0.00     0.000 A 
ATOM     11  C   UNL A   1      31.311  23.195  25.218  1.00  0.00     0.011 A 
ATOM     12  C   UNL A   1      33.614  23.755  24.911  1.00  0.00     0.130 A 
ATOM     13  C   UNL A   1      31.671  21.848  25.362  1.00  0.00     0.047 A 
ATOM     14  C   UNL A   1      33.974  22.424  25.090  1.00  0.00     0.086 A 
ATOM     15  F   UNL A   1      34.614  24.612  24.661  1.00  0.00    -0.207 F 
ATOM     16  C   UNL A   1      33.007  21.450  25.288  1.00  0.00     0.122 A 
BRANCH  16  17
ATOM     17  O   UNL A   1      33.224  20.109  25.413  1.00  0.00    -0.490 OA
BRANCH  17  18
ATOM     18  C   UNL A   1      33.614  19.303  24.303  1.00  0.00     0.173 C 
ATOM     19  C   UNL A   1      34.248  17.950  24.627  1.00  0.00     0.045 C 
ATOM     20  C   UNL A   1      32.525  19.065  23.256  1.00  0.00     0.045 C 
ATOM     21  C   UNL A   1      34.032  17.127  23.366  1.00  0.00     0.004 C 
ATOM     22  C   UNL A   1      32.746  17.648  22.732  1.00  0.00     0.004 C 
ENDBRANCH  17  18
ENDBRANCH  16  17
ENDBRANCH   8  10
ENDBRANCH   5   8
ENDBRANCH   3   4
ENDBRANCH   2   3
ENDBRANCH   1   2
BRANCH   1  23
ATOM     23  C   UNL A   1      31.438  30.808  26.159  1.00  0.00     0.002 C 
BRANCH  23  24
ATOM     24  C   UNL A   1      31.406  32.289  26.549  1.00  0.00     0.021 C 
BRANCH  24  25
ATOM     25  C   UNL A   1      32.666  32.786  27.251  1.00  0.00     0.116 C 
BRANCH  25  26
ATOM     26  N   UNL A   1      32.522  34.160  27.704  1.00  0.00    -0.352 N 
ATOM     27  C   UNL A   1      33.157  34.809  28.731  1.00  0.00     0.251 C 
ATOM     28  H   UNL A   1      31.874  34.703  27.201  1.00  0.00     0.163 HD
ATOM     29  O   UNL A   1      32.729  35.898  29.112  1.00  0.00    -0.269 OA
BRANCH  27  30
ATOM     30  C   UNL A   1      34.335  34.200  29.386  1.00  0.00     0.039 A 
ATOM     31  C   UNL A   1      34.136  33.360  30.484  1.00  0.00     0.014 A 
ATOM     32  C   UNL A   1      35.634  34.477  28.944  1.00  0.00     0.014 A 
ATOM     33  C   UNL A   1      35.233  32.761  31.107  1.00  0.00     0.010 A 
ATOM     34  C   UNL A   1      36.721  33.826  29.525  1.00  0.00     0.010 A 
ATOM     35  C   UNL A   1      36.533  32.967  30.616  1.00  0.00    -0.014 A 
BRANCH  35  36
ATOM     36  C   UNL A   1      37.698  32.295  31.248  1.00  0.00     0.031 A 
ATOM     37  C   UNL A   1      38.239  32.789  32.564  1.00  0.00     0.074 A 
ATOM     38  C   UNL A   1      38.287  31.256  30.621  1.00  0.00     0.049 A 
ATOM     39  N   UNL A   1      39.263  32.355  33.254  1.00  0.00    -0.248 NA
ATOM     40  C   UNL A   1      37.552  33.940  33.169  1.00  0.00     0.031 C 
ATOM     41  C   UNL A   1      37.881  30.717  29.322  1.00  0.00     0.029 A 
ATOM     42  N   UNL A   1      39.352  30.473  30.986  1.00  0.00    -0.354 N 
ATOM     43  C   UNL A   1      39.340  33.173  34.376  1.00  0.00     0.074 A 
ATOM     44  C   UNL A   1      38.304  34.175  34.233  1.00  0.00     0.031 C 
ATOM     45  C   UNL A   1      38.672  29.678  29.010  1.00  0.00     0.029 A 
ATOM     46  C   UNL A   1      39.666  29.500  30.064  1.00  0.00     0.049 A 
ATOM     47  H   UNL A   1      39.847  30.594  31.829  1.00  0.00     0.167 HD
ATOM     48  C   UNL A   1      40.176  33.081  35.441  1.00  0.00     0.034 A 
ATOM     49  C   UNL A   1      40.646  28.576  30.065  1.00  0.00     0.034 A 
ATOM     50  C   UNL A   1      41.204  32.076  35.568  1.00  0.00     0.049 A 
ATOM     51  C   UNL A   1      41.576  28.504  31.250  1.00  0.00     0.074 A 
ATOM     52  C   UNL A   1      42.094  31.879  36.610  1.00  0.00     0.029 A 
ATOM     53  N   UNL A   1      41.485  31.099  34.621  1.00  0.00    -0.354 N 
ATOM     54  N   UNL A   1      41.606  29.261  32.323  1.00  0.00    -0.248 NA
ATOM     55  C   UNL A   1      42.589  27.442  31.234  1.00  0.00     0.031 C 
ATOM     56  C   UNL A   1      42.946  30.823  36.269  1.00  0.00     0.029 A 
ATOM     57  C   UNL A   1      42.543  30.311  35.046  1.00  0.00     0.049 A 
ATOM     58  H   UNL A   1      41.002  30.984  33.770  1.00  0.00     0.167 HD
ATOM     59  C   UNL A   1      42.624  28.745  33.122  1.00  0.00     0.074 A 
ATOM     60  C   UNL A   1      43.162  27.600  32.417  1.00  0.00     0.031 C 
ATOM     61  C   UNL A   1      43.075  29.178  34.327  1.00  0.00     0.034 A 
BRANCH  48  62
ATOM     62  C   UNL A   1      40.009  34.101  36.541  1.00  0.00     0.023 A 
ATOM     63  C   UNL A   1      39.573  33.730  37.825  1.00  0.00     0.031 A 
ATOM     64  C   UNL A   1      40.271  35.462  36.304  1.00  0.00     0.131 A 
ATOM     65  C   UNL A   1      39.340  34.713  38.800  1.00  0.00     0.055 A 
ATOM     66  C   UNL A   1      40.115  36.427  37.303  1.00  0.00     0.041 A 
ATOM     67  F   UNL A   1      40.671  35.882  35.094  1.00  0.00    -0.206 F 
ATOM     68  C   UNL A   1      39.633  36.056  38.556  1.00  0.00     0.022 A 
BRANCH  65  69
ATOM     69  S   UNL A   1      38.521  34.225  40.343  1.00  0.00     0.124 S 
ATOM     70  O   UNL A   1      39.563  33.433  40.990  1.00  0.00    -0.237 OA
ATOM     71  O   UNL A   1      38.218  35.511  40.960  1.00  0.00    -0.237 OA
ATOM     72  O   UNL A   1      37.360  33.463  39.888  1.00  0.00    -0.744 OA
ENDBRANCH  65  69
ENDBRANCH  48  62
BRANCH  49  73
ATOM     73  C   UNL A   1      40.816  27.649  28.907  1.00  0.00     0.023 A 
ATOM     74  C   UNL A   1      41.830  27.850  27.958  1.00  0.00     0.031 A 
ATOM     75  C   UNL A   1      39.926  26.579  28.704  1.00  0.00     0.131 A 
ATOM     76  C   UNL A   1      41.892  27.033  26.818  1.00  0.00     0.055 A 
ATOM     77  C   UNL A   1      40.029  25.733  27.598  1.00  0.00     0.041 A 
ATOM     78  F   UNL A   1      38.941  26.337  29.584  1.00  0.00    -0.206 F 
ATOM     79  C   UNL A   1      41.007  25.969  26.637  1.00  0.00     0.022 A 
BRANCH  76  80
ATOM     80  S   UNL A   1      43.084  27.452  25.515  1.00  0.00     0.124 S 
ATOM     81  O   UNL A   1      43.452  26.132  25.013  1.00  0.00    -0.237 OA
ATOM     82  O   UNL A   1      42.276  28.276  24.622  1.00  0.00    -0.237 OA
ATOM     83  O   UNL A   1      44.137  28.164  26.234  1.00  0.00    -0.744 OA
ENDBRANCH  76  80
ENDBRANCH  49  73
BRANCH  61  84
ATOM     84  C   UNL A   1      44.180  28.373  34.969  1.00  0.00     0.023 A 
ATOM     85  C   UNL A   1      43.915  27.423  35.971  1.00  0.00     0.031 A 
ATOM     86  C   UNL A   1      45.519  28.583  34.593  1.00  0.00     0.131 A 
ATOM     87  C   UNL A   1      44.978  26.768  36.611  1.00  0.00     0.055 A 
ATOM     88  C   UNL A   1      46.567  27.881  35.189  1.00  0.00     0.041 A 
ATOM     89  F   UNL A   1      45.829  29.478  33.643  1.00  0.00    -0.206 F 
ATOM     90  C   UNL A   1      46.301  26.979  36.215  1.00  0.00     0.022 A 
BRANCH  87  91
ATOM     91  S   UNL A   1      44.614  25.715  38.043  1.00  0.00     0.124 S 
ATOM     92  O   UNL A   1      43.397  26.325  38.567  1.00  0.00    -0.237 OA
ATOM     93  O   UNL A   1      44.456  24.400  37.430  1.00  0.00    -0.237 OA
ATOM     94  O   UNL A   1      45.797  25.865  38.888  1.00  0.00    -0.744 OA
ENDBRANCH  87  91
ENDBRANCH  61  84
ENDBRANCH  35  36
ENDBRANCH  27  30
ENDBRANCH  25  26
ENDBRANCH  24  25
ENDBRANCH  23  24
ENDBRANCH   1  23
TORSDOF 19
ENDMDL
