MODEL 1
REMARK VINA RESULT:     -12.8      0.000      0.000
REMARK SMILES CC1=C([C@H](NC(=O)[C@@H]2[C@H](C)c3cc(F)ccc3N2C)C(=O)NCCCCCCNC(=O)c2ccc(-c3c4nc(c(-c5cc(S(=O)(=O)[O-])ccc5F)c5ccc([nH]5)c(-c5cc(S(=O)(=O)[O-])ccc5F)c5nc(c(-c6cc(S(=O)(=O)[O-])ccc6F)c6ccc3[nH]6)C=C5)C=C4)cc2)[C@@H](C)N=N1
REMARK SMILES IDX 26 1 25 2 24 3 23 4 22 5 20 6 21 7 4 9 3 10 1 11 2 12 98 13
REMARK SMILES IDX 95 14 97 15 96 16 5 17 6 18 7 20 8 21 9 22 18 23 11 24 10 25
REMARK SMILES IDX 17 26 19 27 12 28 16 29 13 30 15 31 14 32 27 33 28 34 29 35
REMARK SMILES IDX 30 36 31 38 32 39 33 40 94 41 34 42 93 43 35 44 36 45 37 46
REMARK SMILES IDX 87 47 38 48 92 49 86 50 88 51 39 52 91 53 85 54 84 55 40 57
REMARK SMILES IDX 72 58 52 59 71 60 53 61 56 62 70 63 89 64 54 65 55 66 69 68
REMARK SMILES IDX 90 69 57 70 41 71 42 72 50 73 43 74 49 75 51 76 48 77 44 78
REMARK SMILES IDX 45 79 46 80 47 81 73 82 74 83 82 84 75 85 81 86 83 87 80 88
REMARK SMILES IDX 76 89 77 90 78 91 79 92 58 93 59 94 67 95 60 96 66 97 68 98
REMARK SMILES IDX 65 99 61 100 62 101 63 102 64 103
REMARK H PARENT 22 8 5 19 29 37 88 56 56 67
REMARK Flexibility Score: inf
ROOT
ATOM      1  C   UNL A   1      37.527  21.335  24.879  1.00  0.00     0.002 C 
ENDROOT
BRANCH   1   2
ATOM      2  C   UNL A   1      36.144  21.769  24.398  1.00  0.00     0.002 C 
BRANCH   2   3
ATOM      3  C   UNL A   1      36.136  23.120  23.668  1.00  0.00     0.021 C 
BRANCH   3   4
ATOM      4  C   UNL A   1      34.771  23.796  23.637  1.00  0.00     0.116 C 
BRANCH   4   5
ATOM      5  N   UNL A   1      34.776  25.226  23.856  1.00  0.00    -0.354 N 
ATOM      6  C   UNL A   1      33.846  26.026  24.438  1.00  0.00     0.247 C 
ATOM      7  O   UNL A   1      34.256  27.089  24.928  1.00  0.00    -0.272 OA
ATOM      8  H   UNL A   1      35.580  25.692  23.533  1.00  0.00     0.163 HD
BRANCH   6   9
ATOM      9  C   UNL A   1      32.325  25.713  24.499  1.00  0.00     0.202 C 
BRANCH   9  10
ATOM     10  C   UNL A   1      31.526  26.739  23.747  1.00  0.00     0.011 C 
ATOM     11  C   UNL A   1      31.901  26.012  21.320  1.00  0.00     0.069 C 
ATOM     12  C   UNL A   1      31.334  26.843  22.422  1.00  0.00     0.064 C 
ATOM     13  N   UNL A   1      30.463  27.850  22.096  1.00  0.00    -0.160 NA
ATOM     14  C   UNL A   1      30.652  27.803  24.340  1.00  0.00     0.156 C 
ATOM     15  N   UNL A   1      30.033  28.415  23.134  1.00  0.00    -0.181 NA
ATOM     16  C   UNL A   1      31.326  28.914  25.135  1.00  0.00     0.040 C 
ENDBRANCH   9  10
BRANCH   9  17
ATOM     17  N   UNL A   1      31.656  25.385  25.767  1.00  0.00    -0.339 N 
ATOM     18  C   UNL A   1      30.825  24.334  26.086  1.00  0.00     0.244 C 
ATOM     19  H   UNL A   1      31.828  26.017  26.503  1.00  0.00     0.164 HD
ATOM     20  O   UNL A   1      29.853  24.591  26.797  1.00  0.00    -0.273 OA
BRANCH  18  21
ATOM     21  C   UNL A   1      31.252  22.912  25.712  1.00  0.00     0.178 C 
ATOM     22  C   UNL A   1      32.366  22.252  26.544  1.00  0.00     0.050 C 
ATOM     23  N   UNL A   1      31.629  22.689  24.282  1.00  0.00    -0.362 N 
ATOM     24  C   UNL A   1      32.685  21.116  25.617  1.00  0.00    -0.016 A 
ATOM     25  C   UNL A   1      33.525  23.156  26.913  1.00  0.00     0.015 C 
ATOM     26  C   UNL A   1      32.219  21.416  24.325  1.00  0.00     0.041 A 
ATOM     27  C   UNL A   1      30.753  23.089  23.202  1.00  0.00     0.144 C 
ATOM     28  C   UNL A   1      33.146  19.858  25.966  1.00  0.00     0.045 A 
ATOM     29  C   UNL A   1      32.266  20.445  23.338  1.00  0.00     0.029 A 
ATOM     30  C   UNL A   1      33.134  18.879  24.983  1.00  0.00     0.123 A 
ATOM     31  C   UNL A   1      32.708  19.159  23.680  1.00  0.00     0.041 A 
ATOM     32  F   UNL A   1      33.495  17.630  25.303  1.00  0.00    -0.207 F 
ENDBRANCH  18  21
ENDBRANCH   9  17
ENDBRANCH   6   9
ENDBRANCH   4   5
ENDBRANCH   3   4
ENDBRANCH   2   3
ENDBRANCH   1   2
BRANCH   1  33
ATOM     33  C   UNL A   1      38.270  22.359  25.737  1.00  0.00     0.021 C 
BRANCH  33  34
ATOM     34  C   UNL A   1      39.465  21.815  26.520  1.00  0.00     0.116 C 
BRANCH  34  35
ATOM     35  N   UNL A   1      40.775  22.190  26.029  1.00  0.00    -0.352 N 
ATOM     36  C   UNL A   1      41.683  23.137  26.431  1.00  0.00     0.251 C 
ATOM     37  H   UNL A   1      41.073  21.662  25.254  1.00  0.00     0.163 HD
ATOM     38  O   UNL A   1      42.815  23.074  25.947  1.00  0.00    -0.269 OA
BRANCH  36  39
ATOM     39  C   UNL A   1      41.321  24.290  27.296  1.00  0.00     0.039 A 
ATOM     40  C   UNL A   1      40.190  25.085  27.116  1.00  0.00     0.014 A 
ATOM     41  C   UNL A   1      42.260  24.653  28.273  1.00  0.00     0.014 A 
ATOM     42  C   UNL A   1      40.132  26.342  27.695  1.00  0.00     0.010 A 
ATOM     43  C   UNL A   1      42.159  25.875  28.925  1.00  0.00     0.010 A 
ATOM     44  C   UNL A   1      41.150  26.758  28.556  1.00  0.00    -0.014 A 
BRANCH  44  45
ATOM     45  C   UNL A   1      41.061  28.114  29.090  1.00  0.00     0.031 A 
ATOM     46  C   UNL A   1      42.013  29.081  28.481  1.00  0.00     0.074 A 
ATOM     47  C   UNL A   1      40.152  28.489  30.010  1.00  0.00     0.049 A 
ATOM     48  N   UNL A   1      43.003  29.694  29.045  1.00  0.00    -0.248 NA
ATOM     49  C   UNL A   1      41.949  29.261  27.025  1.00  0.00     0.031 C 
ATOM     50  C   UNL A   1      38.995  27.723  30.488  1.00  0.00     0.029 A 
ATOM     51  N   UNL A   1      40.003  29.693  30.634  1.00  0.00    -0.354 N 
ATOM     52  C   UNL A   1      43.579  30.488  28.052  1.00  0.00     0.074 A 
ATOM     53  C   UNL A   1      42.997  30.056  26.808  1.00  0.00     0.031 C 
ATOM     54  C   UNL A   1      38.136  28.559  31.111  1.00  0.00     0.029 A 
ATOM     55  C   UNL A   1      38.761  29.865  31.224  1.00  0.00     0.049 A 
ATOM     56  H   UNL A   1      40.712  30.376  30.662  1.00  0.00     0.167 HD
ATOM     57  C   UNL A   1      44.338  31.580  28.355  1.00  0.00     0.034 A 
ATOM     58  C   UNL A   1      38.246  31.018  31.713  1.00  0.00     0.034 A 
ATOM     59  C   UNL A   1      44.661  31.613  29.754  1.00  0.00     0.049 A 
ATOM     60  C   UNL A   1      39.357  31.954  31.985  1.00  0.00     0.074 A 
ATOM     61  C   UNL A   1      45.569  31.002  30.585  1.00  0.00     0.029 A 
ATOM     62  N   UNL A   1      43.709  32.207  30.541  1.00  0.00    -0.354 N 
ATOM     63  N   UNL A   1      40.235  31.781  32.933  1.00  0.00    -0.248 NA
ATOM     64  C   UNL A   1      39.717  32.946  30.978  1.00  0.00     0.031 C 
ATOM     65  C   UNL A   1      44.993  31.047  31.886  1.00  0.00     0.029 A 
ATOM     66  C   UNL A   1      43.761  31.702  31.811  1.00  0.00     0.049 A 
ATOM     67  H   UNL A   1      43.078  32.898  30.237  1.00  0.00     0.167 HD
ATOM     68  C   UNL A   1      41.410  32.279  32.401  1.00  0.00     0.074 A 
ATOM     69  C   UNL A   1      40.996  33.145  31.305  1.00  0.00     0.031 C 
ATOM     70  C   UNL A   1      42.610  31.704  32.697  1.00  0.00     0.034 A 
BRANCH  57  71
ATOM     71  C   UNL A   1      44.450  32.829  27.505  1.00  0.00     0.023 A 
ATOM     72  C   UNL A   1      43.812  34.038  27.829  1.00  0.00     0.031 A 
ATOM     73  C   UNL A   1      45.422  32.906  26.481  1.00  0.00     0.131 A 
ATOM     74  C   UNL A   1      44.141  35.241  27.188  1.00  0.00     0.055 A 
ATOM     75  C   UNL A   1      45.793  34.117  25.881  1.00  0.00     0.041 A 
ATOM     76  F   UNL A   1      46.087  31.815  26.071  1.00  0.00    -0.206 F 
ATOM     77  C   UNL A   1      45.156  35.296  26.239  1.00  0.00     0.022 A 
BRANCH  74  78
ATOM     78  S   UNL A   1      43.258  36.767  27.613  1.00  0.00     0.124 S 
ATOM     79  O   UNL A   1      43.262  36.716  29.076  1.00  0.00    -0.237 OA
ATOM     80  O   UNL A   1      44.126  37.785  27.018  1.00  0.00    -0.237 OA
ATOM     81  O   UNL A   1      41.966  36.606  26.974  1.00  0.00    -0.744 OA
ENDBRANCH  74  78
ENDBRANCH  57  71
BRANCH  58  82
ATOM     82  C   UNL A   1      36.851  31.477  31.569  1.00  0.00     0.023 A 
ATOM     83  C   UNL A   1      36.318  31.653  30.279  1.00  0.00     0.031 A 
ATOM     84  C   UNL A   1      36.144  32.030  32.647  1.00  0.00     0.131 A 
ATOM     85  C   UNL A   1      35.154  32.406  30.089  1.00  0.00     0.055 A 
ATOM     86  C   UNL A   1      34.969  32.766  32.458  1.00  0.00     0.041 A 
ATOM     87  F   UNL A   1      36.617  31.923  33.898  1.00  0.00    -0.206 F 
ATOM     88  C   UNL A   1      34.478  32.971  31.171  1.00  0.00     0.022 A 
BRANCH  85  89
ATOM     89  S   UNL A   1      34.551  32.758  28.414  1.00  0.00     0.124 S 
ATOM     90  O   UNL A   1      35.790  33.058  27.701  1.00  0.00    -0.237 OA
ATOM     91  O   UNL A   1      33.912  31.494  28.059  1.00  0.00    -0.237 OA
ATOM     92  O   UNL A   1      33.654  33.892  28.602  1.00  0.00    -0.744 OA
ENDBRANCH  85  89
ENDBRANCH  58  82
BRANCH  70  93
ATOM     93  C   UNL A   1      42.700  30.831  33.921  1.00  0.00     0.023 A 
ATOM     94  C   UNL A   1      42.393  29.471  33.753  1.00  0.00     0.031 A 
ATOM     95  C   UNL A   1      42.882  31.306  35.231  1.00  0.00     0.131 A 
ATOM     96  C   UNL A   1      42.224  28.645  34.867  1.00  0.00     0.055 A 
ATOM     97  C   UNL A   1      42.790  30.459  36.338  1.00  0.00     0.041 A 
ATOM     98  F   UNL A   1      43.073  32.608  35.484  1.00  0.00    -0.206 F 
ATOM     99  C   UNL A   1      42.440  29.124  36.161  1.00  0.00     0.022 A 
BRANCH  96 100
ATOM    100  S   UNL A   1      41.549  26.977  34.666  1.00  0.00     0.124 S 
ATOM    101  O   UNL A   1      42.688  26.246  34.118  1.00  0.00    -0.237 OA
ATOM    102  O   UNL A   1      41.181  26.627  36.038  1.00  0.00    -0.237 OA
ATOM    103  O   UNL A   1      40.423  27.158  33.755  1.00  0.00    -0.744 OA
ENDBRANCH  96 100
ENDBRANCH  70  93
ENDBRANCH  44  45
ENDBRANCH  36  39
ENDBRANCH  34  35
ENDBRANCH  33  34
ENDBRANCH   1  33
TORSDOF 19
ENDMDL
MODEL 2
REMARK VINA RESULT:     -12.6      3.285      9.071
REMARK SMILES CC1=C([C@H](NC(=O)[C@@H]2[C@H](C)c3cc(F)ccc3N2C)C(=O)NCCCCCCNC(=O)c2ccc(-c3c4nc(c(-c5cc(S(=O)(=O)[O-])ccc5F)c5ccc([nH]5)c(-c5cc(S(=O)(=O)[O-])ccc5F)c5nc(c(-c6cc(S(=O)(=O)[O-])ccc6F)c6ccc3[nH]6)C=C5)C=C4)cc2)[C@@H](C)N=N1
REMARK SMILES IDX 26 1 25 2 24 3 23 4 22 5 20 6 21 7 4 9 3 10 1 11 2 12 98 13
REMARK SMILES IDX 95 14 97 15 96 16 5 17 6 18 7 20 8 21 9 22 18 23 11 24 10 25
REMARK SMILES IDX 17 26 19 27 12 28 16 29 13 30 15 31 14 32 27 33 28 34 29 35
REMARK SMILES IDX 30 36 31 38 32 39 33 40 94 41 34 42 93 43 35 44 36 45 37 46
REMARK SMILES IDX 87 47 38 48 92 49 86 50 88 51 39 52 91 53 85 54 84 55 40 57
REMARK SMILES IDX 72 58 52 59 71 60 53 61 56 62 70 63 89 64 54 65 55 66 69 68
REMARK SMILES IDX 90 69 57 70 41 71 42 72 50 73 43 74 49 75 51 76 48 77 44 78
REMARK SMILES IDX 45 79 46 80 47 81 73 82 74 83 82 84 75 85 81 86 83 87 80 88
REMARK SMILES IDX 76 89 77 90 78 91 79 92 58 93 59 94 67 95 60 96 66 97 68 98
REMARK SMILES IDX 65 99 61 100 62 101 63 102 64 103
REMARK H PARENT 22 8 5 19 29 37 88 56 56 67
REMARK Flexibility Score: inf
ROOT
ATOM      1  C   UNL A   1      33.405  28.937  26.519  1.00  0.00     0.002 C 
ENDROOT
BRANCH   1   2
ATOM      2  C   UNL A   1      31.972  28.541  26.170  1.00  0.00     0.002 C 
BRANCH   2   3
ATOM      3  C   UNL A   1      31.400  27.431  27.064  1.00  0.00     0.021 C 
BRANCH   3   4
ATOM      4  C   UNL A   1      31.520  26.035  26.465  1.00  0.00     0.116 C 
BRANCH   4   5
ATOM      5  N   UNL A   1      32.798  25.384  26.648  1.00  0.00    -0.354 N 
ATOM      6  C   UNL A   1      33.572  24.709  25.759  1.00  0.00     0.247 C 
ATOM      7  O   UNL A   1      34.787  24.662  26.004  1.00  0.00    -0.272 OA
ATOM      8  H   UNL A   1      33.165  25.439  27.559  1.00  0.00     0.163 HD
BRANCH   6   9
ATOM      9  C   UNL A   1      33.036  23.981  24.494  1.00  0.00     0.202 C 
BRANCH   9  10
ATOM     10  C   UNL A   1      32.930  22.500  24.722  1.00  0.00     0.011 C 
ATOM     11  C   UNL A   1      30.722  22.328  26.008  1.00  0.00     0.069 C 
ATOM     12  C   UNL A   1      31.950  21.815  25.333  1.00  0.00     0.064 C 
ATOM     13  N   UNL A   1      32.139  20.459  25.271  1.00  0.00    -0.160 NA
ATOM     14  C   UNL A   1      33.851  21.445  24.187  1.00  0.00     0.156 C 
ATOM     15  N   UNL A   1      33.184  20.189  24.624  1.00  0.00    -0.181 NA
ATOM     16  C   UNL A   1      35.282  21.420  24.709  1.00  0.00     0.040 C 
ENDBRANCH   9  10
BRANCH   9  17
ATOM     17  N   UNL A   1      33.592  24.246  23.159  1.00  0.00    -0.339 N 
ATOM     18  C   UNL A   1      32.964  24.657  22.003  1.00  0.00     0.244 C 
ATOM     19  H   UNL A   1      34.563  24.107  23.078  1.00  0.00     0.164 HD
ATOM     20  O   UNL A   1      33.335  24.130  20.953  1.00  0.00    -0.273 OA
BRANCH  18  21
ATOM     21  C   UNL A   1      32.009  25.852  22.064  1.00  0.00     0.178 C 
ATOM     22  C   UNL A   1      32.620  27.257  22.202  1.00  0.00     0.050 C 
ATOM     23  N   UNL A   1      30.924  25.779  23.089  1.00  0.00    -0.362 N 
ATOM     24  C   UNL A   1      31.375  27.998  22.593  1.00  0.00    -0.016 A 
ATOM     25  C   UNL A   1      33.788  27.367  23.161  1.00  0.00     0.015 C 
ATOM     26  C   UNL A   1      30.420  27.089  23.082  1.00  0.00     0.041 A 
ATOM     27  C   UNL A   1      30.053  24.627  23.185  1.00  0.00     0.144 C 
ATOM     28  C   UNL A   1      31.069  29.320  22.319  1.00  0.00     0.045 A 
ATOM     29  C   UNL A   1      29.135  27.530  23.359  1.00  0.00     0.029 A 
ATOM     30  C   UNL A   1      29.764  29.733  22.546  1.00  0.00     0.123 A 
ATOM     31  C   UNL A   1      28.802  28.860  23.066  1.00  0.00     0.041 A 
ATOM     32  F   UNL A   1      29.410  30.983  22.218  1.00  0.00    -0.207 F 
ENDBRANCH  18  21
ENDBRANCH   9  17
ENDBRANCH   6   9
ENDBRANCH   4   5
ENDBRANCH   3   4
ENDBRANCH   2   3
ENDBRANCH   1   2
BRANCH   1  33
ATOM     33  C   UNL A   1      33.674  30.442  26.561  1.00  0.00     0.021 C 
BRANCH  33  34
ATOM     34  C   UNL A   1      34.024  31.007  27.937  1.00  0.00     0.116 C 
BRANCH  34  35
ATOM     35  N   UNL A   1      34.759  32.255  27.946  1.00  0.00    -0.352 N 
ATOM     36  C   UNL A   1      36.088  32.551  28.119  1.00  0.00     0.251 C 
ATOM     37  H   UNL A   1      34.195  33.048  27.800  1.00  0.00     0.163 HD
ATOM     38  O   UNL A   1      36.449  33.700  27.857  1.00  0.00    -0.269 OA
BRANCH  36  39
ATOM     39  C   UNL A   1      37.055  31.603  28.731  1.00  0.00     0.039 A 
ATOM     40  C   UNL A   1      38.148  31.983  29.508  1.00  0.00     0.014 A 
ATOM     41  C   UNL A   1      36.902  30.251  28.386  1.00  0.00     0.014 A 
ATOM     42  C   UNL A   1      39.197  31.099  29.702  1.00  0.00     0.010 A 
ATOM     43  C   UNL A   1      37.912  29.338  28.657  1.00  0.00     0.010 A 
ATOM     44  C   UNL A   1      39.099  29.791  29.224  1.00  0.00    -0.014 A 
BRANCH  44  45
ATOM     45  C   UNL A   1      40.259  28.923  29.409  1.00  0.00     0.031 A 
ATOM     46  C   UNL A   1      40.562  28.590  30.827  1.00  0.00     0.074 A 
ATOM     47  C   UNL A   1      40.968  28.405  28.387  1.00  0.00     0.049 A 
ATOM     48  N   UNL A   1      41.599  28.923  31.524  1.00  0.00    -0.248 NA
ATOM     49  C   UNL A   1      39.498  27.943  31.607  1.00  0.00     0.031 C 
ATOM     50  C   UNL A   1      40.624  28.426  26.961  1.00  0.00     0.029 A 
ATOM     51  N   UNL A   1      42.098  27.642  28.420  1.00  0.00    -0.354 N 
ATOM     52  C   UNL A   1      41.406  28.364  32.790  1.00  0.00     0.074 A 
ATOM     53  C   UNL A   1      40.036  27.921  32.825  1.00  0.00     0.031 C 
ATOM     54  C   UNL A   1      41.369  27.505  26.311  1.00  0.00     0.029 A 
ATOM     55  C   UNL A   1      42.348  26.965  27.238  1.00  0.00     0.049 A 
ATOM     56  H   UNL A   1      42.681  27.580  29.211  1.00  0.00     0.167 HD
ATOM     57  C   UNL A   1      42.448  28.123  33.635  1.00  0.00     0.034 A 
ATOM     58  C   UNL A   1      43.251  25.975  27.044  1.00  0.00     0.034 A 
ATOM     59  C   UNL A   1      43.651  28.751  33.165  1.00  0.00     0.049 A 
ATOM     60  C   UNL A   1      44.270  26.049  28.112  1.00  0.00     0.074 A 
ATOM     61  C   UNL A   1      44.192  30.015  33.183  1.00  0.00     0.029 A 
ATOM     62  N   UNL A   1      44.367  28.004  32.266  1.00  0.00    -0.354 N 
ATOM     63  N   UNL A   1      45.140  27.013  28.217  1.00  0.00    -0.248 NA
ATOM     64  C   UNL A   1      44.123  25.211  29.297  1.00  0.00     0.031 C 
ATOM     65  C   UNL A   1      45.098  30.062  32.087  1.00  0.00     0.029 A 
ATOM     66  C   UNL A   1      45.098  28.821  31.447  1.00  0.00     0.049 A 
ATOM     67  H   UNL A   1      44.356  27.022  32.215  1.00  0.00     0.167 HD
ATOM     68  C   UNL A   1      45.296  27.181  29.581  1.00  0.00     0.074 A 
ATOM     69  C   UNL A   1      44.814  25.941  30.176  1.00  0.00     0.031 C 
ATOM     70  C   UNL A   1      45.508  28.418  30.113  1.00  0.00     0.034 A 
BRANCH  57  71
ATOM     71  C   UNL A   1      42.508  27.000  34.651  1.00  0.00     0.023 A 
ATOM     72  C   UNL A   1      43.329  25.871  34.500  1.00  0.00     0.031 A 
ATOM     73  C   UNL A   1      41.930  27.170  35.931  1.00  0.00     0.131 A 
ATOM     74  C   UNL A   1      43.571  24.987  35.563  1.00  0.00     0.055 A 
ATOM     75  C   UNL A   1      42.218  26.321  37.008  1.00  0.00     0.041 A 
ATOM     76  F   UNL A   1      41.114  28.202  36.193  1.00  0.00    -0.206 F 
ATOM     77  C   UNL A   1      43.049  25.226  36.829  1.00  0.00     0.022 A 
BRANCH  74  78
ATOM     78  S   UNL A   1      44.605  23.520  35.304  1.00  0.00     0.124 S 
ATOM     79  O   UNL A   1      45.468  23.953  34.204  1.00  0.00    -0.237 OA
ATOM     80  O   UNL A   1      45.263  23.391  36.606  1.00  0.00    -0.237 OA
ATOM     81  O   UNL A   1      43.648  22.476  34.990  1.00  0.00    -0.744 OA
ENDBRANCH  74  78
ENDBRANCH  57  71
BRANCH  58  82
ATOM     82  C   UNL A   1      43.045  24.755  26.239  1.00  0.00     0.023 A 
ATOM     83  C   UNL A   1      41.996  23.880  26.578  1.00  0.00     0.031 A 
ATOM     84  C   UNL A   1      44.026  24.284  25.354  1.00  0.00     0.131 A 
ATOM     85  C   UNL A   1      41.978  22.570  26.088  1.00  0.00     0.055 A 
ATOM     86  C   UNL A   1      43.996  22.980  24.847  1.00  0.00     0.041 A 
ATOM     87  F   UNL A   1      45.068  25.060  25.017  1.00  0.00    -0.206 F 
ATOM     88  C   UNL A   1      42.976  22.110  25.228  1.00  0.00     0.022 A 
BRANCH  85  89
ATOM     89  S   UNL A   1      40.710  21.399  26.643  1.00  0.00     0.124 S 
ATOM     90  O   UNL A   1      40.747  21.575  28.093  1.00  0.00    -0.237 OA
ATOM     91  O   UNL A   1      39.518  21.917  25.977  1.00  0.00    -0.237 OA
ATOM     92  O   UNL A   1      41.196  20.111  26.163  1.00  0.00    -0.744 OA
ENDBRANCH  85  89
ENDBRANCH  58  82
BRANCH  70  93
ATOM     93  C   UNL A   1      46.006  29.510  29.203  1.00  0.00     0.023 A 
ATOM     94  C   UNL A   1      45.032  30.276  28.541  1.00  0.00     0.031 A 
ATOM     95  C   UNL A   1      47.349  29.690  28.830  1.00  0.00     0.131 A 
ATOM     96  C   UNL A   1      45.401  31.144  27.510  1.00  0.00     0.055 A 
ATOM     97  C   UNL A   1      47.721  30.618  27.853  1.00  0.00     0.041 A 
ATOM     98  F   UNL A   1      48.325  28.926  29.336  1.00  0.00    -0.206 F 
ATOM     99  C   UNL A   1      46.743  31.337  27.173  1.00  0.00     0.022 A 
BRANCH  96 100
ATOM    100  S   UNL A   1      44.132  31.908  26.470  1.00  0.00     0.124 S 
ATOM    101  O   UNL A   1      44.901  32.329  25.302  1.00  0.00    -0.237 OA
ATOM    102  O   UNL A   1      43.209  30.797  26.244  1.00  0.00    -0.237 OA
ATOM    103  O   UNL A   1      43.601  32.990  27.294  1.00  0.00    -0.744 OA
ENDBRANCH  96 100
ENDBRANCH  70  93
ENDBRANCH  44  45
ENDBRANCH  36  39
ENDBRANCH  34  35
ENDBRANCH  33  34
ENDBRANCH   1  33
TORSDOF 19
ENDMDL
MODEL 3
REMARK VINA RESULT:     -12.5      3.074      8.443
REMARK SMILES CC1=C([C@H](NC(=O)[C@@H]2[C@H](C)c3cc(F)ccc3N2C)C(=O)NCCCCCCNC(=O)c2ccc(-c3c4nc(c(-c5cc(S(=O)(=O)[O-])ccc5F)c5ccc([nH]5)c(-c5cc(S(=O)(=O)[O-])ccc5F)c5nc(c(-c6cc(S(=O)(=O)[O-])ccc6F)c6ccc3[nH]6)C=C5)C=C4)cc2)[C@@H](C)N=N1
REMARK SMILES IDX 26 1 25 2 24 3 23 4 22 5 20 6 21 7 4 9 3 10 1 11 2 12 98 13
REMARK SMILES IDX 95 14 97 15 96 16 5 17 6 18 7 20 8 21 9 22 18 23 11 24 10 25
REMARK SMILES IDX 17 26 19 27 12 28 16 29 13 30 15 31 14 32 27 33 28 34 29 35
REMARK SMILES IDX 30 36 31 38 32 39 33 40 94 41 34 42 93 43 35 44 36 45 37 46
REMARK SMILES IDX 87 47 38 48 92 49 86 50 88 51 39 52 91 53 85 54 84 55 40 57
REMARK SMILES IDX 72 58 52 59 71 60 53 61 56 62 70 63 89 64 54 65 55 66 69 68
REMARK SMILES IDX 90 69 57 70 41 71 42 72 50 73 43 74 49 75 51 76 48 77 44 78
REMARK SMILES IDX 45 79 46 80 47 81 73 82 74 83 82 84 75 85 81 86 83 87 80 88
REMARK SMILES IDX 76 89 77 90 78 91 79 92 58 93 59 94 67 95 60 96 66 97 68 98
REMARK SMILES IDX 65 99 61 100 62 101 63 102 64 103
REMARK H PARENT 22 8 5 19 29 37 88 56 56 67
REMARK Flexibility Score: inf
ROOT
ATOM      1  C   UNL A   1      32.372  29.613  25.365  1.00  0.00     0.002 C 
ENDROOT
BRANCH   1   2
ATOM      2  C   UNL A   1      31.218  29.542  24.367  1.00  0.00     0.002 C 
BRANCH   2   3
ATOM      3  C   UNL A   1      31.609  28.946  23.007  1.00  0.00     0.021 C 
BRANCH   3   4
ATOM      4  C   UNL A   1      32.962  28.243  23.008  1.00  0.00     0.116 C 
BRANCH   4   5
ATOM      5  N   UNL A   1      33.117  27.185  22.035  1.00  0.00    -0.354 N 
ATOM      6  C   UNL A   1      33.005  25.839  22.180  1.00  0.00     0.247 C 
ATOM      7  O   UNL A   1      32.713  25.193  21.162  1.00  0.00    -0.272 OA
ATOM      8  H   UNL A   1      33.337  27.487  21.125  1.00  0.00     0.163 HD
BRANCH   6   9
ATOM      9  C   UNL A   1      33.246  25.070  23.510  1.00  0.00     0.202 C 
BRANCH   9  10
ATOM     10  C   UNL A   1      32.366  25.595  24.609  1.00  0.00     0.011 C 
ATOM     11  C   UNL A   1      30.057  25.531  23.502  1.00  0.00     0.069 C 
ATOM     12  C   UNL A   1      31.034  25.762  24.607  1.00  0.00     0.064 C 
ATOM     13  N   UNL A   1      30.555  26.172  25.824  1.00  0.00    -0.160 NA
ATOM     14  C   UNL A   1      32.786  25.923  26.010  1.00  0.00     0.156 C 
ATOM     15  N   UNL A   1      31.492  26.265  26.658  1.00  0.00    -0.181 NA
ATOM     16  C   UNL A   1      33.734  27.100  26.210  1.00  0.00     0.040 C 
ENDBRANCH   9  10
BRANCH   9  17
ATOM     17  N   UNL A   1      34.601  24.825  24.024  1.00  0.00    -0.339 N 
ATOM     18  C   UNL A   1      35.052  23.882  24.921  1.00  0.00     0.244 C 
ATOM     19  H   UNL A   1      35.295  25.428  23.672  1.00  0.00     0.164 HD
ATOM     20  O   UNL A   1      35.891  24.255  25.743  1.00  0.00    -0.273 OA
BRANCH  18  21
ATOM     21  C   UNL A   1      34.643  22.419  24.728  1.00  0.00     0.178 C 
ATOM     22  C   UNL A   1      33.401  21.913  25.482  1.00  0.00     0.050 C 
ATOM     23  N   UNL A   1      35.707  21.398  24.970  1.00  0.00    -0.362 N 
ATOM     24  C   UNL A   1      33.623  20.440  25.303  1.00  0.00    -0.016 A 
ATOM     25  C   UNL A   1      33.265  22.396  26.912  1.00  0.00     0.015 C 
ATOM     26  C   UNL A   1      34.973  20.202  24.988  1.00  0.00     0.041 A 
ATOM     27  C   UNL A   1      37.000  21.490  24.325  1.00  0.00     0.144 C 
ATOM     28  C   UNL A   1      32.655  19.454  25.211  1.00  0.00     0.045 A 
ATOM     29  C   UNL A   1      35.376  18.926  24.627  1.00  0.00     0.029 A 
ATOM     30  C   UNL A   1      33.064  18.196  24.793  1.00  0.00     0.123 A 
ATOM     31  C   UNL A   1      34.406  17.922  24.508  1.00  0.00     0.041 A 
ATOM     32  F   UNL A   1      32.144  17.238  24.616  1.00  0.00    -0.207 F 
ENDBRANCH  18  21
ENDBRANCH   9  17
ENDBRANCH   6   9
ENDBRANCH   4   5
ENDBRANCH   3   4
ENDBRANCH   2   3
ENDBRANCH   1   2
BRANCH   1  33
ATOM     33  C   UNL A   1      32.132  30.514  26.577  1.00  0.00     0.021 C 
BRANCH  33  34
ATOM     34  C   UNL A   1      33.302  30.622  27.555  1.00  0.00     0.116 C 
BRANCH  34  35
ATOM     35  N   UNL A   1      33.957  31.913  27.627  1.00  0.00    -0.352 N 
ATOM     36  C   UNL A   1      35.262  32.283  27.837  1.00  0.00     0.251 C 
ATOM     37  H   UNL A   1      33.346  32.673  27.500  1.00  0.00     0.163 HD
ATOM     38  O   UNL A   1      35.553  33.462  27.626  1.00  0.00    -0.269 OA
BRANCH  36  39
ATOM     39  C   UNL A   1      36.275  31.373  28.430  1.00  0.00     0.039 A 
ATOM     40  C   UNL A   1      37.176  31.741  29.428  1.00  0.00     0.014 A 
ATOM     41  C   UNL A   1      36.392  30.105  27.841  1.00  0.00     0.014 A 
ATOM     42  C   UNL A   1      38.317  30.984  29.640  1.00  0.00     0.010 A 
ATOM     43  C   UNL A   1      37.490  29.301  28.116  1.00  0.00     0.010 A 
ATOM     44  C   UNL A   1      38.499  29.791  28.938  1.00  0.00    -0.014 A 
BRANCH  44  45
ATOM     45  C   UNL A   1      39.747  29.067  29.162  1.00  0.00     0.031 A 
ATOM     46  C   UNL A   1      40.037  28.762  30.589  1.00  0.00     0.074 A 
ATOM     47  C   UNL A   1      40.548  28.645  28.165  1.00  0.00     0.049 A 
ATOM     48  N   UNL A   1      41.002  29.211  31.324  1.00  0.00    -0.248 NA
ATOM     49  C   UNL A   1      39.032  27.987  31.328  1.00  0.00     0.031 C 
ATOM     50  C   UNL A   1      40.255  28.635  26.727  1.00  0.00     0.029 A 
ATOM     51  N   UNL A   1      41.760  28.023  28.236  1.00  0.00    -0.354 N 
ATOM     52  C   UNL A   1      40.832  28.624  32.580  1.00  0.00     0.074 A 
ATOM     53  C   UNL A   1      39.525  28.020  32.565  1.00  0.00     0.031 C 
ATOM     54  C   UNL A   1      41.128  27.815  26.102  1.00  0.00     0.029 A 
ATOM     55  C   UNL A   1      42.131  27.389  27.062  1.00  0.00     0.049 A 
ATOM     56  H   UNL A   1      42.318  28.024  29.048  1.00  0.00     0.167 HD
ATOM     57  C   UNL A   1      41.866  28.503  33.462  1.00  0.00     0.034 A 
ATOM     58  C   UNL A   1      43.153  26.516  26.897  1.00  0.00     0.034 A 
ATOM     59  C   UNL A   1      43.000  29.274  33.037  1.00  0.00     0.049 A 
ATOM     60  C   UNL A   1      44.117  26.703  28.001  1.00  0.00     0.074 A 
ATOM     61  C   UNL A   1      43.385  30.593  33.079  1.00  0.00     0.029 A 
ATOM     62  N   UNL A   1      43.831  28.625  32.162  1.00  0.00    -0.354 N 
ATOM     63  N   UNL A   1      44.861  27.764  28.141  1.00  0.00    -0.248 NA
ATOM     64  C   UNL A   1      44.030  25.845  29.178  1.00  0.00     0.031 C 
ATOM     65  C   UNL A   1      44.317  30.757  32.016  1.00  0.00     0.029 A 
ATOM     66  C   UNL A   1      44.488  29.530  31.372  1.00  0.00     0.049 A 
ATOM     67  H   UNL A   1      43.940  27.649  32.108  1.00  0.00     0.167 HD
ATOM     68  C   UNL A   1      44.948  27.939  29.509  1.00  0.00     0.074 A 
ATOM     69  C   UNL A   1      44.597  26.646  30.083  1.00  0.00     0.031 C 
ATOM     70  C   UNL A   1      44.990  29.189  30.053  1.00  0.00     0.034 A 
BRANCH  57  71
ATOM     71  C   UNL A   1      42.023  27.388  34.476  1.00  0.00     0.023 A 
ATOM     72  C   UNL A   1      42.775  26.227  34.230  1.00  0.00     0.031 A 
ATOM     73  C   UNL A   1      41.634  27.591  35.820  1.00  0.00     0.131 A 
ATOM     74  C   UNL A   1      43.128  25.345  35.261  1.00  0.00     0.055 A 
ATOM     75  C   UNL A   1      42.036  26.742  36.859  1.00  0.00     0.041 A 
ATOM     76  F   UNL A   1      40.899  28.656  36.177  1.00  0.00    -0.206 F 
ATOM     77  C   UNL A   1      42.794  25.614  36.583  1.00  0.00     0.022 A 
BRANCH  74  78
ATOM     78  S   UNL A   1      44.063  23.837  34.884  1.00  0.00     0.124 S 
ATOM     79  O   UNL A   1      43.020  22.968  34.335  1.00  0.00    -0.237 OA
ATOM     80  O   UNL A   1      45.043  24.332  33.915  1.00  0.00    -0.237 OA
ATOM     81  O   UNL A   1      44.609  23.441  36.169  1.00  0.00    -0.744 OA
ENDBRANCH  74  78
ENDBRANCH  57  71
BRANCH  58  82
ATOM     82  C   UNL A   1      43.123  25.286  26.081  1.00  0.00     0.023 A 
ATOM     83  C   UNL A   1      42.240  24.250  26.438  1.00  0.00     0.031 A 
ATOM     84  C   UNL A   1      44.141  24.988  25.163  1.00  0.00     0.131 A 
ATOM     85  C   UNL A   1      42.420  22.958  25.930  1.00  0.00     0.055 A 
ATOM     86  C   UNL A   1      44.307  23.701  24.639  1.00  0.00     0.041 A 
ATOM     87  F   UNL A   1      45.033  25.926  24.808  1.00  0.00    -0.206 F 
ATOM     88  C   UNL A   1      43.453  22.674  25.036  1.00  0.00     0.022 A 
BRANCH  85  89
ATOM     89  S   UNL A   1      41.374  21.592  26.504  1.00  0.00     0.124 S 
ATOM     90  O   UNL A   1      41.641  21.588  27.940  1.00  0.00    -0.237 OA
ATOM     91  O   UNL A   1      40.046  22.053  26.112  1.00  0.00    -0.237 OA
ATOM     92  O   UNL A   1      41.886  20.437  25.776  1.00  0.00    -0.744 OA
ENDBRANCH  85  89
ENDBRANCH  58  82
BRANCH  70  93
ATOM     93  C   UNL A   1      45.385  30.339  29.165  1.00  0.00     0.023 A 
ATOM     94  C   UNL A   1      46.732  30.739  29.207  1.00  0.00     0.031 A 
ATOM     95  C   UNL A   1      44.483  31.148  28.454  1.00  0.00     0.131 A 
ATOM     96  C   UNL A   1      47.131  31.932  28.600  1.00  0.00     0.055 A 
ATOM     97  C   UNL A   1      44.902  32.299  27.781  1.00  0.00     0.041 A 
ATOM     98  F   UNL A   1      43.167  30.896  28.452  1.00  0.00    -0.206 F 
ATOM     99  C   UNL A   1      46.229  32.708  27.868  1.00  0.00     0.022 A 
BRANCH  96 100
ATOM    100  S   UNL A   1      48.791  32.590  28.897  1.00  0.00     0.124 S 
ATOM    101  O   UNL A   1      48.516  33.761  29.725  1.00  0.00    -0.237 OA
ATOM    102  O   UNL A   1      49.445  31.476  29.584  1.00  0.00    -0.237 OA
ATOM    103  O   UNL A   1      49.304  32.874  27.560  1.00  0.00    -0.744 OA
ENDBRANCH  96 100
ENDBRANCH  70  93
ENDBRANCH  44  45
ENDBRANCH  36  39
ENDBRANCH  34  35
ENDBRANCH  33  34
ENDBRANCH   1  33
TORSDOF 19
ENDMDL
