MODEL 1
REMARK VINA RESULT:     -12.7      0.000      0.000
REMARK SMILES Cc1c(CC(=O)NCCCCCCNC(=O)c2ccc(-c3c4nc(c(-c5cc(S(=O)(=O)[O-])ccc5F)c5ccc([nH]5)c(-c5cc(S(=O)(=O)[O-])ccc5F)c5nc(c(-c6cc(S(=O)(=O)[O-])ccc6F)c6ccc3[nH]6)C=C5)C=C4)cc2)cc(-c2ccc(S(C)(=O)=O)cc2)n1-c1ccccc1
REMARK SMILES IDX 10 1 9 2 8 3 7 4 5 5 6 6 4 8 3 9 1 10 2 11 92 12 80 13 81 14
REMARK SMILES IDX 93 15 94 16 98 17 95 18 97 19 96 20 82 21 83 22 91 23 84 24
REMARK SMILES IDX 90 25 85 26 86 27 87 28 88 29 89 30 11 31 12 32 13 33 14 34
REMARK SMILES IDX 15 35 16 37 17 38 18 39 79 40 19 41 78 42 20 43 21 44 22 45
REMARK SMILES IDX 72 46 23 47 77 48 71 49 73 50 24 51 76 52 70 53 69 54 25 56
REMARK SMILES IDX 57 57 37 58 56 59 38 60 41 61 55 62 74 63 39 64 40 65 54 67
REMARK SMILES IDX 75 68 42 69 26 70 27 71 35 72 28 73 34 74 36 75 33 76 29 77
REMARK SMILES IDX 30 78 31 79 32 80 58 81 59 82 67 83 60 84 66 85 68 86 65 87
REMARK SMILES IDX 61 88 62 89 63 90 64 91 43 92 44 93 52 94 45 95 51 96 53 97
REMARK SMILES IDX 50 98 46 99 47 100 48 101 49 102
REMARK H PARENT 7 7 14 36 73 55 41 66
REMARK Flexibility Score: inf
ROOT
ATOM      1  C   UNL A   1      32.392  29.341  26.393  1.00  0.00     0.002 C 
ENDROOT
BRANCH   1   2
ATOM      2  C   UNL A   1      32.144  29.312  24.880  1.00  0.00     0.021 C 
BRANCH   2   3
ATOM      3  C   UNL A   1      30.964  28.435  24.461  1.00  0.00     0.116 C 
BRANCH   3   4
ATOM      4  N   UNL A   1      30.560  27.540  25.528  1.00  0.00    -0.356 N 
ATOM      5  C   UNL A   1      30.255  26.210  25.455  1.00  0.00     0.224 C 
ATOM      6  O   UNL A   1      29.902  25.632  26.486  1.00  0.00    -0.275 OA
ATOM      7  H   UNL A   1      30.496  27.945  26.423  1.00  0.00     0.163 HD
BRANCH   5   8
ATOM      8  C   UNL A   1      30.408  25.463  24.138  1.00  0.00     0.137 C 
BRANCH   8   9
ATOM      9  C   UNL A   1      31.496  24.433  24.165  1.00  0.00    -0.017 A 
ATOM     10  C   UNL A   1      33.547  25.947  24.587  1.00  0.00     0.065 C 
ATOM     11  C   UNL A   1      32.851  24.639  24.396  1.00  0.00     0.024 A 
ATOM     12  N   UNL A   1      33.492  23.404  24.362  1.00  0.00    -0.314 N 
ATOM     13  C   UNL A   1      31.321  23.039  23.971  1.00  0.00     0.033 A 
ATOM     14  C   UNL A   1      32.536  22.410  24.154  1.00  0.00     0.053 A 
BRANCH  12  15
ATOM     15  C   UNL A   1      34.887  23.179  24.488  1.00  0.00     0.046 A 
ATOM     16  C   UNL A   1      35.631  22.859  23.346  1.00  0.00     0.026 A 
ATOM     17  C   UNL A   1      35.491  23.210  25.747  1.00  0.00     0.026 A 
ATOM     18  C   UNL A   1      36.987  22.567  23.465  1.00  0.00     0.002 A 
ATOM     19  C   UNL A   1      36.847  22.903  25.858  1.00  0.00     0.002 A 
ATOM     20  C   UNL A   1      37.592  22.584  24.721  1.00  0.00     0.000 A 
ENDBRANCH  12  15
BRANCH  14  21
ATOM     21  C   UNL A   1      32.800  20.966  24.184  1.00  0.00    -0.001 A 
ATOM     22  C   UNL A   1      33.579  20.383  25.197  1.00  0.00     0.011 A 
ATOM     23  C   UNL A   1      32.272  20.151  23.175  1.00  0.00     0.011 A 
ATOM     24  C   UNL A   1      33.856  19.014  25.177  1.00  0.00     0.021 A 
ATOM     25  C   UNL A   1      32.540  18.783  23.154  1.00  0.00     0.021 A 
ATOM     26  C   UNL A   1      33.336  18.224  24.153  1.00  0.00     0.067 A 
BRANCH  26  27
ATOM     27  S   UNL A   1      33.623  16.467  24.155  1.00  0.00     0.175 S 
ATOM     28  C   UNL A   1      35.056  16.290  25.181  1.00  0.00     0.163 C 
ATOM     29  O   UNL A   1      32.467  15.882  24.802  1.00  0.00    -0.224 OA
ATOM     30  O   UNL A   1      33.988  16.106  22.797  1.00  0.00    -0.224 OA
ENDBRANCH  26  27
ENDBRANCH  14  21
ENDBRANCH   8   9
ENDBRANCH   5   8
ENDBRANCH   3   4
ENDBRANCH   2   3
ENDBRANCH   1   2
BRANCH   1  31
ATOM     31  C   UNL A   1      33.868  29.345  26.805  1.00  0.00     0.002 C 
BRANCH  31  32
ATOM     32  C   UNL A   1      34.346  30.590  27.578  1.00  0.00     0.021 C 
BRANCH  32  33
ATOM     33  C   UNL A   1      35.674  30.502  28.372  1.00  0.00     0.116 C 
BRANCH  33  34
ATOM     34  N   UNL A   1      35.567  30.673  29.793  1.00  0.00    -0.352 N 
ATOM     35  C   UNL A   1      36.552  30.503  30.755  1.00  0.00     0.251 C 
ATOM     36  H   UNL A   1      34.682  30.945  30.126  1.00  0.00     0.163 HD
ATOM     37  O   UNL A   1      36.098  30.358  31.897  1.00  0.00    -0.269 OA
BRANCH  35  38
ATOM     38  C   UNL A   1      38.080  30.366  30.514  1.00  0.00     0.039 A 
ATOM     39  C   UNL A   1      38.516  29.080  30.483  1.00  0.00     0.014 A 
ATOM     40  C   UNL A   1      39.193  31.251  30.472  1.00  0.00     0.014 A 
ATOM     41  C   UNL A   1      39.932  28.760  30.392  1.00  0.00     0.010 A 
ATOM     42  C   UNL A   1      40.739  30.846  30.382  1.00  0.00     0.010 A 
ATOM     43  C   UNL A   1      41.234  29.529  30.317  1.00  0.00    -0.014 A 
BRANCH  43  44
ATOM     44  C   UNL A   1      42.835  28.611  30.122  1.00  0.00     0.031 A 
ATOM     45  C   UNL A   1      42.902  29.045  28.709  1.00  0.00     0.074 A 
ATOM     46  C   UNL A   1      43.965  27.504  30.611  1.00  0.00     0.049 A 
ATOM     47  N   UNL A   1      42.101  28.398  27.922  1.00  0.00    -0.248 NA
ATOM     48  C   UNL A   1      43.258  30.327  28.051  1.00  0.00     0.031 C 
ATOM     49  C   UNL A   1      44.340  27.823  32.481  1.00  0.00     0.029 A 
ATOM     50  N   UNL A   1      45.621  26.488  30.081  1.00  0.00    -0.354 N 
ATOM     51  C   UNL A   1      42.594  28.582  26.688  1.00  0.00     0.074 A 
ATOM     52  C   UNL A   1      42.988  29.994  26.766  1.00  0.00     0.031 C 
ATOM     53  C   UNL A   1      45.818  27.253  32.947  1.00  0.00     0.029 A 
ATOM     54  C   UNL A   1      46.837  26.339  31.559  1.00  0.00     0.049 A 
ATOM     55  H   UNL A   1      45.786  26.117  29.184  1.00  0.00     0.167 HD
ATOM     56  C   UNL A   1      43.327  27.429  26.571  1.00  0.00     0.034 A 
ATOM     57  C   UNL A   1      48.355  26.277  31.597  1.00  0.00     0.034 A 
ATOM     58  C   UNL A   1      44.762  27.863  27.015  1.00  0.00     0.049 A 
ATOM     59  C   UNL A   1      48.385  27.797  31.637  1.00  0.00     0.074 A 
ATOM     60  C   UNL A   1      45.589  29.011  26.915  1.00  0.00     0.029 A 
ATOM     61  N   UNL A   1      45.223  27.394  28.193  1.00  0.00    -0.354 N 
ATOM     62  N   UNL A   1      47.648  28.553  32.408  1.00  0.00    -0.248 NA
ATOM     63  C   UNL A   1      48.897  28.521  30.489  1.00  0.00     0.031 C 
ATOM     64  C   UNL A   1      46.008  29.416  28.289  1.00  0.00     0.029 A 
ATOM     65  C   UNL A   1      45.699  28.395  29.183  1.00  0.00     0.049 A 
ATOM     66  H   UNL A   1      45.244  26.430  28.388  1.00  0.00     0.167 HD
ATOM     67  C   UNL A   1      46.812  28.922  31.387  1.00  0.00     0.074 A 
ATOM     68  C   UNL A   1      47.877  29.389  30.456  1.00  0.00     0.031 C 
ATOM     69  C   UNL A   1      45.759  27.970  30.974  1.00  0.00     0.034 A 
BRANCH  56  70
ATOM     70  C   UNL A   1      42.109  26.242  27.162  1.00  0.00     0.023 A 
ATOM     71  C   UNL A   1      42.537  24.892  27.221  1.00  0.00     0.031 A 
ATOM     72  C   UNL A   1      40.672  26.223  26.880  1.00  0.00     0.131 A 
ATOM     73  C   UNL A   1      41.652  23.756  26.968  1.00  0.00     0.055 A 
ATOM     74  C   UNL A   1      39.808  25.123  26.601  1.00  0.00     0.041 A 
ATOM     75  F   UNL A   1      40.005  27.315  26.613  1.00  0.00    -0.206 F 
ATOM     76  C   UNL A   1      40.306  23.861  26.632  1.00  0.00     0.022 A 
BRANCH  73  77
ATOM     77  S   UNL A   1      42.302  22.068  27.058  1.00  0.00     0.124 S 
ATOM     78  O   UNL A   1      43.659  22.285  27.548  1.00  0.00    -0.237 OA
ATOM     79  O   UNL A   1      41.373  21.441  27.994  1.00  0.00    -0.237 OA
ATOM     80  O   UNL A   1      42.208  21.577  25.682  1.00  0.00    -0.744 OA
ENDBRANCH  73  77
ENDBRANCH  56  70
BRANCH  57  81
ATOM     81  C   UNL A   1      49.948  26.170  32.350  1.00  0.00     0.023 A 
ATOM     82  C   UNL A   1      50.319  26.210  33.782  1.00  0.00     0.031 A 
ATOM     83  C   UNL A   1      51.009  25.576  31.592  1.00  0.00     0.131 A 
ATOM     84  C   UNL A   1      51.577  25.610  34.300  1.00  0.00     0.055 A 
ATOM     85  C   UNL A   1      52.117  24.864  32.125  1.00  0.00     0.041 A 
ATOM     86  F   UNL A   1      50.991  25.613  30.254  1.00  0.00    -0.206 F 
ATOM     87  C   UNL A   1      52.398  24.855  33.472  1.00  0.00     0.022 A 
BRANCH  84  88
ATOM     88  S   UNL A   1      52.304  25.774  36.044  1.00  0.00     0.124 S 
ATOM     89  O   UNL A   1      51.797  27.069  36.483  1.00  0.00    -0.237 OA
ATOM     90  O   UNL A   1      51.793  24.601  36.742  1.00  0.00    -0.237 OA
ATOM     91  O   UNL A   1      53.757  25.751  35.833  1.00  0.00    -0.744 OA
ENDBRANCH  84  88
ENDBRANCH  57  81
BRANCH  69  92
ATOM     92  C   UNL A   1      44.833  26.058  31.606  1.00  0.00     0.023 A 
ATOM     93  C   UNL A   1      44.498  25.289  32.907  1.00  0.00     0.031 A 
ATOM     94  C   UNL A   1      44.529  24.759  30.599  1.00  0.00     0.131 A 
ATOM     95  C   UNL A   1      44.180  23.849  33.081  1.00  0.00     0.055 A 
ATOM     96  C   UNL A   1      44.173  23.400  30.794  1.00  0.00     0.041 A 
ATOM     97  F   UNL A   1      44.900  24.830  29.284  1.00  0.00    -0.206 F 
ATOM     98  C   UNL A   1      44.044  22.924  32.053  1.00  0.00     0.022 A 
BRANCH  95  99
ATOM     99  S   UNL A   1      44.032  23.159  34.772  1.00  0.00     0.124 S 
ATOM    100  O   UNL A   1      45.095  23.864  35.475  1.00  0.00    -0.237 OA
ATOM    101  O   UNL A   1      42.665  23.527  35.127  1.00  0.00    -0.237 OA
ATOM    102  O   UNL A   1      44.256  21.723  34.596  1.00  0.00    -0.744 OA
ENDBRANCH  95  99
ENDBRANCH  69  92
ENDBRANCH  43  44
ENDBRANCH  35  38
ENDBRANCH  33  34
ENDBRANCH  32  33
ENDBRANCH  31  32
ENDBRANCH   1  31
TORSDOF 20
ENDMDL
MODEL 2
REMARK VINA RESULT:     -12.5      1.746      2.182
REMARK SMILES Cc1c(CC(=O)NCCCCCCNC(=O)c2ccc(-c3c4nc(c(-c5cc(S(=O)(=O)[O-])ccc5F)c5ccc([nH]5)c(-c5cc(S(=O)(=O)[O-])ccc5F)c5nc(c(-c6cc(S(=O)(=O)[O-])ccc6F)c6ccc3[nH]6)C=C5)C=C4)cc2)cc(-c2ccc(S(C)(=O)=O)cc2)n1-c1ccccc1
REMARK SMILES IDX 10 1 9 2 8 3 7 4 5 5 6 6 4 8 3 9 1 10 2 11 92 12 80 13 81 14
REMARK SMILES IDX 93 15 94 16 98 17 95 18 97 19 96 20 82 21 83 22 91 23 84 24
REMARK SMILES IDX 90 25 85 26 86 27 87 28 88 29 89 30 11 31 12 32 13 33 14 34
REMARK SMILES IDX 15 35 16 37 17 38 18 39 79 40 19 41 78 42 20 43 21 44 22 45
REMARK SMILES IDX 72 46 23 47 77 48 71 49 73 50 24 51 76 52 70 53 69 54 25 56
REMARK SMILES IDX 57 57 37 58 56 59 38 60 41 61 55 62 74 63 39 64 40 65 54 67
REMARK SMILES IDX 75 68 42 69 26 70 27 71 35 72 28 73 34 74 36 75 33 76 29 77
REMARK SMILES IDX 30 78 31 79 32 80 58 81 59 82 67 83 60 84 66 85 68 86 65 87
REMARK SMILES IDX 61 88 62 89 63 90 64 91 43 92 44 93 52 94 45 95 51 96 53 97
REMARK SMILES IDX 50 98 46 99 47 100 48 101 49 102
REMARK H PARENT 7 7 14 36 73 55 41 66
REMARK Flexibility Score: inf
ROOT
ATOM      1  C   UNL A   1      31.741  29.350  25.796  1.00  0.00     0.002 C 
ENDROOT
BRANCH   1   2
ATOM      2  C   UNL A   1      31.398  29.457  24.306  1.00  0.00     0.021 C 
BRANCH   2   3
ATOM      3  C   UNL A   1      30.492  28.336  23.796  1.00  0.00     0.116 C 
BRANCH   3   4
ATOM      4  N   UNL A   1      30.058  27.469  24.875  1.00  0.00    -0.356 N 
ATOM      5  C   UNL A   1      29.792  26.128  24.836  1.00  0.00     0.224 C 
ATOM      6  O   UNL A   1      29.403  25.578  25.869  1.00  0.00    -0.275 OA
ATOM      7  H   UNL A   1      29.939  27.903  25.750  1.00  0.00     0.163 HD
BRANCH   5   8
ATOM      8  C   UNL A   1      30.029  25.340  23.557  1.00  0.00     0.137 C 
BRANCH   8   9
ATOM      9  C   UNL A   1      31.118  24.319  23.685  1.00  0.00    -0.017 A 
ATOM     10  C   UNL A   1      33.166  25.868  23.969  1.00  0.00     0.065 C 
ATOM     11  C   UNL A   1      32.471  24.547  23.900  1.00  0.00     0.024 A 
ATOM     12  N   UNL A   1      33.113  23.315  23.984  1.00  0.00    -0.314 N 
ATOM     13  C   UNL A   1      30.944  22.913  23.621  1.00  0.00     0.033 A 
ATOM     14  C   UNL A   1      32.160  22.305  23.868  1.00  0.00     0.053 A 
BRANCH  12  15
ATOM     15  C   UNL A   1      34.508  23.105  24.137  1.00  0.00     0.046 A 
ATOM     16  C   UNL A   1      35.305  22.970  22.993  1.00  0.00     0.026 A 
ATOM     17  C   UNL A   1      35.062  22.966  25.412  1.00  0.00     0.026 A 
ATOM     18  C   UNL A   1      36.663  22.693  23.127  1.00  0.00     0.002 A 
ATOM     19  C   UNL A   1      36.420  22.676  25.536  1.00  0.00     0.002 A 
ATOM     20  C   UNL A   1      37.217  22.541  24.398  1.00  0.00     0.000 A 
ENDBRANCH  12  15
BRANCH  14  21
ATOM     21  C   UNL A   1      32.425  20.870  24.034  1.00  0.00    -0.001 A 
ATOM     22  C   UNL A   1      32.407  19.989  22.941  1.00  0.00     0.011 A 
ATOM     23  C   UNL A   1      32.694  20.365  25.312  1.00  0.00     0.011 A 
ATOM     24  C   UNL A   1      32.614  18.621  23.130  1.00  0.00     0.021 A 
ATOM     25  C   UNL A   1      32.908  19.002  25.506  1.00  0.00     0.021 A 
ATOM     26  C   UNL A   1      32.861  18.136  24.415  1.00  0.00     0.067 A 
BRANCH  26  27
ATOM     27  S   UNL A   1      33.197  16.406  24.660  1.00  0.00     0.175 S 
ATOM     28  C   UNL A   1      34.817  16.403  25.377  1.00  0.00     0.163 C 
ATOM     29  O   UNL A   1      32.220  15.950  25.627  1.00  0.00    -0.224 OA
ATOM     30  O   UNL A   1      33.283  15.809  23.340  1.00  0.00    -0.224 OA
ENDBRANCH  26  27
ENDBRANCH  14  21
ENDBRANCH   8   9
ENDBRANCH   5   8
ENDBRANCH   3   4
ENDBRANCH   2   3
ENDBRANCH   1   2
BRANCH   1  31
ATOM     31  C   UNL A   1      33.187  28.938  26.097  1.00  0.00     0.002 C 
BRANCH  31  32
ATOM     32  C   UNL A   1      34.039  29.978  26.850  1.00  0.00     0.021 C 
BRANCH  32  33
ATOM     33  C   UNL A   1      35.294  29.489  27.617  1.00  0.00     0.116 C 
BRANCH  33  34
ATOM     34  N   UNL A   1      35.333  29.801  29.017  1.00  0.00    -0.352 N 
ATOM     35  C   UNL A   1      36.414  29.726  29.884  1.00  0.00     0.251 C 
ATOM     36  H   UNL A   1      34.484  30.106  29.412  1.00  0.00     0.163 HD
ATOM     37  O   UNL A   1      36.082  29.696  31.076  1.00  0.00    -0.269 OA
BRANCH  35  38
ATOM     38  C   UNL A   1      37.910  29.564  29.500  1.00  0.00     0.039 A 
ATOM     39  C   UNL A   1      38.393  28.311  29.699  1.00  0.00     0.014 A 
ATOM     40  C   UNL A   1      38.973  30.437  29.135  1.00  0.00     0.014 A 
ATOM     41  C   UNL A   1      39.803  28.002  29.513  1.00  0.00     0.010 A 
ATOM     42  C   UNL A   1      40.515  30.048  28.954  1.00  0.00     0.010 A 
ATOM     43  C   UNL A   1      41.055  28.757  29.118  1.00  0.00    -0.014 A 
BRANCH  43  44
ATOM     44  C   UNL A   1      42.662  27.845  28.941  1.00  0.00     0.031 A 
ATOM     45  C   UNL A   1      42.563  27.977  27.470  1.00  0.00     0.074 A 
ATOM     46  C   UNL A   1      43.879  26.883  29.519  1.00  0.00     0.049 A 
ATOM     47  N   UNL A   1      41.710  27.166  26.927  1.00  0.00    -0.248 NA
ATOM     48  C   UNL A   1      42.797  29.099  26.527  1.00  0.00     0.031 C 
ATOM     49  C   UNL A   1      44.435  27.592  31.230  1.00  0.00     0.029 A 
ATOM     50  N   UNL A   1      45.509  25.807  29.028  1.00  0.00    -0.354 N 
ATOM     51  C   UNL A   1      42.063  27.097  25.634  1.00  0.00     0.074 A 
ATOM     52  C   UNL A   1      42.407  28.500  25.376  1.00  0.00     0.031 C 
ATOM     53  C   UNL A   1      45.975  27.156  31.636  1.00  0.00     0.029 A 
ATOM     54  C   UNL A   1      46.877  25.990  30.362  1.00  0.00     0.049 A 
ATOM     55  H   UNL A   1      45.593  25.260  28.215  1.00  0.00     0.167 HD
ATOM     56  C   UNL A   1      42.824  25.957  25.676  1.00  0.00     0.034 A 
ATOM     57  C   UNL A   1      48.393  25.962  30.243  1.00  0.00     0.034 A 
ATOM     58  C   UNL A   1      44.280  26.498  25.860  1.00  0.00     0.049 A 
ATOM     59  C   UNL A   1      48.368  27.457  29.967  1.00  0.00     0.074 A 
ATOM     60  C   UNL A   1      45.046  27.613  25.436  1.00  0.00     0.029 A 
ATOM     61  N   UNL A   1      44.880  26.292  27.051  1.00  0.00    -0.354 N 
ATOM     62  N   UNL A   1      47.686  28.345  30.643  1.00  0.00    -0.248 NA
ATOM     63  C   UNL A   1      48.727  27.935  28.645  1.00  0.00     0.031 C 
ATOM     64  C   UNL A   1      45.591  28.302  26.642  1.00  0.00     0.029 A 
ATOM     65  C   UNL A   1      45.417  27.486  27.755  1.00  0.00     0.049 A 
ATOM     66  H   UNL A   1      44.959  25.391  27.436  1.00  0.00     0.167 HD
ATOM     67  C   UNL A   1      46.734  28.479  29.667  1.00  0.00     0.074 A 
ATOM     68  C   UNL A   1      47.676  28.760  28.548  1.00  0.00     0.031 C 
ATOM     69  C   UNL A   1      45.681  27.444  29.577  1.00  0.00     0.034 A 
BRANCH  56  70
ATOM     70  C   UNL A   1      41.723  24.899  26.630  1.00  0.00     0.023 A 
ATOM     71  C   UNL A   1      42.029  23.515  26.620  1.00  0.00     0.031 A 
ATOM     72  C   UNL A   1      40.269  25.014  26.761  1.00  0.00     0.131 A 
ATOM     73  C   UNL A   1      41.013  22.466  26.669  1.00  0.00     0.055 A 
ATOM     74  C   UNL A   1      39.267  23.998  26.778  1.00  0.00     0.041 A 
ATOM     75  F   UNL A   1      39.651  26.161  26.648  1.00  0.00    -0.206 F 
ATOM     76  C   UNL A   1      39.641  22.695  26.718  1.00  0.00     0.022 A 
BRANCH  73  77
ATOM     77  S   UNL A   1      41.510  20.725  26.640  1.00  0.00     0.124 S 
ATOM     78  O   UNL A   1      40.266  20.055  26.279  1.00  0.00    -0.237 OA
ATOM     79  O   UNL A   1      42.556  20.731  25.621  1.00  0.00    -0.237 OA
ATOM     80  O   UNL A   1      41.984  20.467  28.001  1.00  0.00    -0.744 OA
ENDBRANCH  73  77
ENDBRANCH  56  70
BRANCH  57  81
ATOM     81  C   UNL A   1      50.059  26.041  30.821  1.00  0.00     0.023 A 
ATOM     82  C   UNL A   1      51.324  26.057  30.054  1.00  0.00     0.031 A 
ATOM     83  C   UNL A   1      50.287  26.552  32.141  1.00  0.00     0.131 A 
ATOM     84  C   UNL A   1      52.584  26.630  30.599  1.00  0.00     0.055 A 
ATOM     85  C   UNL A   1      51.448  27.242  32.578  1.00  0.00     0.041 A 
ATOM     86  F   UNL A   1      49.340  26.448  33.082  1.00  0.00    -0.206 F 
ATOM     87  C   UNL A   1      52.590  27.308  31.812  1.00  0.00     0.022 A 
BRANCH  84  88
ATOM     88  S   UNL A   1      54.322  26.525  29.848  1.00  0.00     0.124 S 
ATOM     89  O   UNL A   1      54.060  26.621  28.417  1.00  0.00    -0.237 OA
ATOM     90  O   UNL A   1      55.030  27.641  30.459  1.00  0.00    -0.237 OA
ATOM     91  O   UNL A   1      54.817  25.207  30.269  1.00  0.00    -0.744 OA
ENDBRANCH  84  88
ENDBRANCH  57  81
BRANCH  69  92
ATOM     92  C   UNL A   1      44.902  25.691  30.687  1.00  0.00     0.023 A 
ATOM     93  C   UNL A   1      44.823  25.161  32.139  1.00  0.00     0.031 A 
ATOM     94  C   UNL A   1      44.422  24.249  29.991  1.00  0.00     0.131 A 
ATOM     95  C   UNL A   1      44.552  23.781  32.613  1.00  0.00     0.055 A 
ATOM     96  C   UNL A   1      44.117  22.953  30.478  1.00  0.00     0.041 A 
ATOM     97  F   UNL A   1      44.538  24.088  28.637  1.00  0.00    -0.206 F 
ATOM     98  C   UNL A   1      44.231  22.700  31.801  1.00  0.00     0.022 A 
BRANCH  95  99
ATOM     99  S   UNL A   1      44.729  23.389  34.394  1.00  0.00     0.124 S 
ATOM    100  O   UNL A   1      44.526  21.946  34.403  1.00  0.00    -0.237 OA
ATOM    101  O   UNL A   1      46.085  23.854  34.669  1.00  0.00    -0.237 OA
ATOM    102  O   UNL A   1      43.670  24.165  35.041  1.00  0.00    -0.744 OA
ENDBRANCH  95  99
ENDBRANCH  69  92
ENDBRANCH  43  44
ENDBRANCH  35  38
ENDBRANCH  33  34
ENDBRANCH  32  33
ENDBRANCH  31  32
ENDBRANCH   1  31
TORSDOF 20
ENDMDL
MODEL 3
REMARK VINA RESULT:     -11.5      3.967      8.768
REMARK SMILES Cc1c(CC(=O)NCCCCCCNC(=O)c2ccc(-c3c4nc(c(-c5cc(S(=O)(=O)[O-])ccc5F)c5ccc([nH]5)c(-c5cc(S(=O)(=O)[O-])ccc5F)c5nc(c(-c6cc(S(=O)(=O)[O-])ccc6F)c6ccc3[nH]6)C=C5)C=C4)cc2)cc(-c2ccc(S(C)(=O)=O)cc2)n1-c1ccccc1
REMARK SMILES IDX 10 1 9 2 8 3 7 4 5 5 6 6 4 8 3 9 1 10 2 11 92 12 80 13 81 14
REMARK SMILES IDX 93 15 94 16 98 17 95 18 97 19 96 20 82 21 83 22 91 23 84 24
REMARK SMILES IDX 90 25 85 26 86 27 87 28 88 29 89 30 11 31 12 32 13 33 14 34
REMARK SMILES IDX 15 35 16 37 17 38 18 39 79 40 19 41 78 42 20 43 21 44 22 45
REMARK SMILES IDX 72 46 23 47 77 48 71 49 73 50 24 51 76 52 70 53 69 54 25 56
REMARK SMILES IDX 57 57 37 58 56 59 38 60 41 61 55 62 74 63 39 64 40 65 54 67
REMARK SMILES IDX 75 68 42 69 26 70 27 71 35 72 28 73 34 74 36 75 33 76 29 77
REMARK SMILES IDX 30 78 31 79 32 80 58 81 59 82 67 83 60 84 66 85 68 86 65 87
REMARK SMILES IDX 61 88 62 89 63 90 64 91 43 92 44 93 52 94 45 95 51 96 53 97
REMARK SMILES IDX 50 98 46 99 47 100 48 101 49 102
REMARK H PARENT 7 7 14 36 73 55 41 66
REMARK Flexibility Score: inf
ROOT
ATOM      1  C   UNL A   1      34.057  23.731  25.069  1.00  0.00     0.002 C 
ENDROOT
BRANCH   1   2
ATOM      2  C   UNL A   1      34.638  25.054  25.581  1.00  0.00     0.021 C 
BRANCH   2   3
ATOM      3  C   UNL A   1      33.892  26.293  25.086  1.00  0.00     0.116 C 
BRANCH   3   4
ATOM      4  N   UNL A   1      33.180  26.952  26.164  1.00  0.00    -0.356 N 
ATOM      5  C   UNL A   1      33.518  28.093  26.837  1.00  0.00     0.224 C 
ATOM      6  O   UNL A   1      32.783  28.475  27.750  1.00  0.00    -0.275 OA
ATOM      7  H   UNL A   1      32.343  26.521  26.450  1.00  0.00     0.163 HD
BRANCH   5   8
ATOM      8  C   UNL A   1      34.744  28.890  26.417  1.00  0.00     0.137 C 
BRANCH   8   9
ATOM      9  C   UNL A   1      35.107  29.972  27.390  1.00  0.00    -0.017 A 
ATOM     10  C   UNL A   1      37.644  29.542  27.624  1.00  0.00     0.065 C 
ATOM     11  C   UNL A   1      36.370  30.276  27.883  1.00  0.00     0.024 A 
ATOM     12  N   UNL A   1      36.253  31.372  28.734  1.00  0.00    -0.314 N 
ATOM     13  C   UNL A   1      34.205  30.898  27.971  1.00  0.00     0.033 A 
ATOM     14  C   UNL A   1      34.922  31.790  28.744  1.00  0.00     0.053 A 
BRANCH  12  15
ATOM     15  C   UNL A   1      37.296  31.961  29.492  1.00  0.00     0.046 A 
ATOM     16  C   UNL A   1      37.665  31.378  30.711  1.00  0.00     0.026 A 
ATOM     17  C   UNL A   1      37.898  33.145  29.058  1.00  0.00     0.026 A 
ATOM     18  C   UNL A   1      38.639  31.985  31.500  1.00  0.00     0.002 A 
ATOM     19  C   UNL A   1      38.865  33.751  29.860  1.00  0.00     0.002 A 
ATOM     20  C   UNL A   1      39.233  33.173  31.076  1.00  0.00     0.000 A 
ENDBRANCH  12  15
BRANCH  14  21
ATOM     21  C   UNL A   1      34.420  32.994  29.420  1.00  0.00    -0.001 A 
ATOM     22  C   UNL A   1      33.842  34.052  28.700  1.00  0.00     0.011 A 
ATOM     23  C   UNL A   1      34.527  33.093  30.812  1.00  0.00     0.011 A 
ATOM     24  C   UNL A   1      33.416  35.206  29.360  1.00  0.00     0.021 A 
ATOM     25  C   UNL A   1      34.097  34.240  31.476  1.00  0.00     0.021 A 
ATOM     26  C   UNL A   1      33.549  35.293  30.746  1.00  0.00     0.067 A 
BRANCH  26  27
ATOM     27  S   UNL A   1      32.945  36.729  31.607  1.00  0.00     0.175 S 
ATOM     28  C   UNL A   1      34.249  37.099  32.747  1.00  0.00     0.163 C 
ATOM     29  O   UNL A   1      32.843  37.772  30.606  1.00  0.00    -0.224 OA
ATOM     30  O   UNL A   1      31.785  36.300  32.365  1.00  0.00    -0.224 OA
ENDBRANCH  26  27
ENDBRANCH  14  21
ENDBRANCH   8   9
ENDBRANCH   5   8
ENDBRANCH   3   4
ENDBRANCH   2   3
ENDBRANCH   1   2
BRANCH   1  31
ATOM     31  C   UNL A   1      34.441  22.496  25.893  1.00  0.00     0.002 C 
BRANCH  31  32
ATOM     32  C   UNL A   1      35.465  21.546  25.241  1.00  0.00     0.021 C 
BRANCH  32  33
ATOM     33  C   UNL A   1      36.923  22.040  25.063  1.00  0.00     0.116 C 
BRANCH  33  34
ATOM     34  N   UNL A   1      37.947  21.155  25.541  1.00  0.00    -0.352 N 
ATOM     35  C   UNL A   1      39.190  21.483  26.061  1.00  0.00     0.251 C 
ATOM     36  H   UNL A   1      37.740  20.194  25.492  1.00  0.00     0.163 HD
ATOM     37  O   UNL A   1      39.990  20.538  26.045  1.00  0.00    -0.269 OA
BRANCH  35  38
ATOM     38  C   UNL A   1      39.671  22.886  26.522  1.00  0.00     0.039 A 
ATOM     39  C   UNL A   1      40.925  22.891  27.043  1.00  0.00     0.014 A 
ATOM     40  C   UNL A   1      39.076  24.167  26.690  1.00  0.00     0.014 A 
ATOM     41  C   UNL A   1      41.495  24.090  27.639  1.00  0.00     0.010 A 
ATOM     42  C   UNL A   1      39.744  25.455  27.365  1.00  0.00     0.010 A 
ATOM     43  C   UNL A   1      41.050  25.515  27.890  1.00  0.00    -0.014 A 
BRANCH  43  44
ATOM     44  C   UNL A   1      42.235  26.729  28.644  1.00  0.00     0.031 A 
ATOM     45  C   UNL A   1      42.430  27.350  27.316  1.00  0.00     0.074 A 
ATOM     46  C   UNL A   1      43.228  27.253  29.860  1.00  0.00     0.049 A 
ATOM     47  N   UNL A   1      43.188  26.664  26.521  1.00  0.00    -0.248 NA
ATOM     48  C   UNL A   1      41.609  28.270  26.489  1.00  0.00     0.031 C 
ATOM     49  C   UNL A   1      42.250  27.127  31.523  1.00  0.00     0.029 A 
ATOM     50  N   UNL A   1      44.646  28.587  30.377  1.00  0.00    -0.354 N 
ATOM     51  C   UNL A   1      43.611  27.537  25.594  1.00  0.00     0.074 A 
ATOM     52  C   UNL A   1      42.382  28.310  25.377  1.00  0.00     0.031 C 
ATOM     53  C   UNL A   1      42.832  28.140  32.690  1.00  0.00     0.029 A 
ATOM     54  C   UNL A   1      44.394  29.190  32.182  1.00  0.00     0.049 A 
ATOM     55  H   UNL A   1      45.371  28.889  29.785  1.00  0.00     0.167 HD
ATOM     56  C   UNL A   1      44.821  27.871  26.144  1.00  0.00     0.034 A 
ATOM     57  C   UNL A   1      44.702  30.527  32.837  1.00  0.00     0.034 A 
ATOM     58  C   UNL A   1      44.504  29.166  26.961  1.00  0.00     0.049 A 
ATOM     59  C   UNL A   1      43.327  31.017  32.410  1.00  0.00     0.074 A 
ATOM     60  C   UNL A   1      43.661  30.300  26.845  1.00  0.00     0.029 A 
ATOM     61  N   UNL A   1      44.529  29.080  28.307  1.00  0.00    -0.354 N 
ATOM     62  N   UNL A   1      42.207  30.358  32.546  1.00  0.00    -0.248 NA
ATOM     63  C   UNL A   1      43.233  32.050  31.396  1.00  0.00     0.031 C 
ATOM     64  C   UNL A   1      42.815  30.391  28.071  1.00  0.00     0.029 A 
ATOM     65  C   UNL A   1      43.313  29.523  29.038  1.00  0.00     0.049 A 
ATOM     66  H   UNL A   1      45.318  28.738  28.785  1.00  0.00     0.167 HD
ATOM     67  C   UNL A   1      42.143  30.027  31.218  1.00  0.00     0.074 A 
ATOM     68  C   UNL A   1      42.288  31.413  30.691  1.00  0.00     0.031 C 
ATOM     69  C   UNL A   1      42.979  28.905  30.740  1.00  0.00     0.034 A 
BRANCH  56  70
ATOM     70  C   UNL A   1      45.432  26.225  26.541  1.00  0.00     0.023 A 
ATOM     71  C   UNL A   1      45.065  25.193  25.641  1.00  0.00     0.031 A 
ATOM     72  C   UNL A   1      45.551  25.614  27.867  1.00  0.00     0.131 A 
ATOM     73  C   UNL A   1      44.808  23.816  26.057  1.00  0.00     0.055 A 
ATOM     74  C   UNL A   1      45.273  24.280  28.288  1.00  0.00     0.041 A 
ATOM     75  F   UNL A   1      45.729  26.330  28.946  1.00  0.00    -0.206 F 
ATOM     76  C   UNL A   1      44.880  23.360  27.371  1.00  0.00     0.022 A 
BRANCH  73  77
ATOM     77  S   UNL A   1      44.333  22.574  24.828  1.00  0.00     0.124 S 
ATOM     78  O   UNL A   1      43.059  23.093  24.343  1.00  0.00    -0.237 OA
ATOM     79  O   UNL A   1      45.452  22.638  23.893  1.00  0.00    -0.237 OA
ATOM     80  O   UNL A   1      44.247  21.330  25.594  1.00  0.00    -0.744 OA
ENDBRANCH  73  77
ENDBRANCH  56  70
BRANCH  57  81
ATOM     81  C   UNL A   1      44.773  31.701  34.153  1.00  0.00     0.023 A 
ATOM     82  C   UNL A   1      44.235  31.610  35.529  1.00  0.00     0.031 A 
ATOM     83  C   UNL A   1      45.789  32.710  34.097  1.00  0.00     0.131 A 
ATOM     84  C   UNL A   1      44.787  32.405  36.658  1.00  0.00     0.055 A 
ATOM     85  C   UNL A   1      46.410  33.330  35.213  1.00  0.00     0.041 A 
ATOM     86  F   UNL A   1      46.280  33.114  32.919  1.00  0.00    -0.206 F 
ATOM     87  C   UNL A   1      45.935  33.169  36.495  1.00  0.00     0.022 A 
BRANCH  84  88
ATOM     88  S   UNL A   1      44.075  32.577  38.408  1.00  0.00     0.124 S 
ATOM     89  O   UNL A   1      45.184  33.166  39.149  1.00  0.00    -0.237 OA
ATOM     90  O   UNL A   1      42.897  33.412  38.220  1.00  0.00    -0.237 OA
ATOM     91  O   UNL A   1      43.766  31.197  38.808  1.00  0.00    -0.744 OA
ENDBRANCH  84  88
ENDBRANCH  57  81
BRANCH  69  92
ATOM     92  C   UNL A   1      44.275  27.282  31.515  1.00  0.00     0.023 A 
ATOM     93  C   UNL A   1      44.166  26.006  32.383  1.00  0.00     0.031 A 
ATOM     94  C   UNL A   1      45.946  27.310  31.526  1.00  0.00     0.131 A 
ATOM     95  C   UNL A   1      45.245  25.247  33.063  1.00  0.00     0.055 A 
ATOM     96  C   UNL A   1      46.959  26.535  32.146  1.00  0.00     0.041 A 
ATOM     97  F   UNL A   1      46.600  28.419  31.062  1.00  0.00    -0.206 F 
ATOM     98  C   UNL A   1      46.604  25.519  32.966  1.00  0.00     0.022 A 
BRANCH  95  99
ATOM     99  S   UNL A   1      44.806  23.886  34.208  1.00  0.00     0.124 S 
ATOM    100  O   UNL A   1      43.435  24.229  34.566  1.00  0.00    -0.237 OA
ATOM    101  O   UNL A   1      44.979  22.712  33.359  1.00  0.00    -0.237 OA
ATOM    102  O   UNL A   1      45.775  24.005  35.299  1.00  0.00    -0.744 OA
ENDBRANCH  95  99
ENDBRANCH  69  92
ENDBRANCH  43  44
ENDBRANCH  35  38
ENDBRANCH  33  34
ENDBRANCH  32  33
ENDBRANCH  31  32
ENDBRANCH   1  31
TORSDOF 20
ENDMDL
