MODEL 1
REMARK VINA RESULT:     -10.9      0.000      0.000
REMARK SMILES C[C@]([NH3+])(C(=O)NCCCCCCNC(=O)c1ccc(-c2c3nc(c(-c4cc(S(=O)(=O)[O-])ccc4F)c4ccc([nH]4)c(-c4cc(S(=O)(=O)[O-])ccc4F)c4nc(c(-c5cc(S(=O)(=O)[O-])ccc5F)c5ccc2[nH]5)C=C4)C=C3)cc1)c1ccc(F)c(Br)c1
REMARK SMILES IDX 10 1 9 2 8 3 7 4 6 5 4 6 5 7 2 9 1 10 79 11 80 12 86 13
REMARK SMILES IDX 81 14 84 15 82 16 85 17 83 18 3 19 11 23 12 24 13 25 14 26
REMARK SMILES IDX 15 28 16 29 17 30 78 31 18 32 77 33 19 34 20 35 21 36 71 37
REMARK SMILES IDX 22 38 76 39 70 40 72 41 23 42 75 43 69 44 68 45 24 47 56 48
REMARK SMILES IDX 36 49 55 50 37 51 40 52 54 53 73 54 38 55 39 56 53 58 74 59
REMARK SMILES IDX 41 60 25 61 26 62 34 63 27 64 33 65 35 66 32 67 28 68 29 69
REMARK SMILES IDX 30 70 31 71 57 72 58 73 66 74 59 75 65 76 67 77 64 78 60 79
REMARK SMILES IDX 61 80 62 81 63 82 42 83 43 84 51 85 44 86 50 87 52 88 49 89
REMARK SMILES IDX 45 90 46 91 47 92 48 93
REMARK H PARENT 6 8 3 20 3 21 3 22 13 27 72 46 40 57
REMARK Flexibility Score: inf
ROOT
ATOM      1  C   UNL A   1      31.386  30.735  25.757  1.00  0.00     0.002 C 
ENDROOT
BRANCH   1   2
ATOM      2  C   UNL A   1      32.300  29.756  26.504  1.00  0.00     0.002 C 
BRANCH   2   3
ATOM      3  C   UNL A   1      31.591  28.535  27.098  1.00  0.00     0.021 C 
BRANCH   3   4
ATOM      4  C   UNL A   1      32.280  27.207  26.795  1.00  0.00     0.116 C 
BRANCH   4   5
ATOM      5  N   UNL A   1      31.338  26.108  26.875  1.00  0.00    -0.350 N 
ATOM      6  C   UNL A   1      30.815  25.270  25.939  1.00  0.00     0.285 C 
ATOM      7  O   UNL A   1      29.922  24.518  26.347  1.00  0.00    -0.267 OA
ATOM      8  H   UNL A   1      31.012  25.935  27.788  1.00  0.00     0.163 HD
BRANCH   6   9
ATOM      9  C   UNL A   1      31.303  25.259  24.437  1.00  0.00     0.196 C 
ATOM     10  C   UNL A   1      30.635  24.104  23.660  1.00  0.00     0.096 C 
BRANCH   9  11
ATOM     11  C   UNL A   1      30.929  26.612  23.776  1.00  0.00     0.023 A 
ATOM     12  C   UNL A   1      31.910  27.476  23.245  1.00  0.00     0.014 A 
ATOM     13  C   UNL A   1      29.587  27.050  23.740  1.00  0.00     0.029 A 
ATOM     14  C   UNL A   1      31.566  28.708  22.683  1.00  0.00     0.041 A 
ATOM     15  C   UNL A   1      29.245  28.278  23.170  1.00  0.00     0.054 A 
ATOM     16  C   UNL A   1      30.235  29.100  22.643  1.00  0.00     0.137 A 
ATOM     17  Br  UNL A   1      27.430  28.808  23.125  1.00  0.00    -0.048 Br
ATOM     18  F   UNL A   1      29.928  30.284  22.094  1.00  0.00    -0.206 F 
ENDBRANCH   9  11
BRANCH   9  19
ATOM     19  N   UNL A   1      32.777  25.069  24.395  1.00  0.00    -0.341 N 
ATOM     20  H   UNL A   1      32.988  24.090  24.200  1.00  0.00     0.345 HD
ATOM     21  H   UNL A   1      33.180  25.331  25.294  1.00  0.00     0.345 HD
ATOM     22  H   UNL A   1      33.174  25.655  23.660  1.00  0.00     0.345 HD
ENDBRANCH   9  19
ENDBRANCH   6   9
ENDBRANCH   4   5
ENDBRANCH   3   4
ENDBRANCH   2   3
ENDBRANCH   1   2
BRANCH   1  23
ATOM     23  C   UNL A   1      31.394  32.165  26.298  1.00  0.00     0.021 C 
BRANCH  23  24
ATOM     24  C   UNL A   1      32.457  32.434  27.358  1.00  0.00     0.116 C 
BRANCH  24  25
ATOM     25  N   UNL A   1      32.596  33.853  27.637  1.00  0.00    -0.352 N 
ATOM     26  C   UNL A   1      33.492  34.488  28.459  1.00  0.00     0.251 C 
ATOM     27  H   UNL A   1      31.958  34.442  27.171  1.00  0.00     0.163 HD
ATOM     28  O   UNL A   1      33.323  35.669  28.751  1.00  0.00    -0.269 OA
BRANCH  26  29
ATOM     29  C   UNL A   1      34.641  33.736  29.009  1.00  0.00     0.039 A 
ATOM     30  C   UNL A   1      35.935  34.203  28.769  1.00  0.00     0.014 A 
ATOM     31  C   UNL A   1      34.439  32.578  29.766  1.00  0.00     0.014 A 
ATOM     32  C   UNL A   1      37.023  33.542  29.341  1.00  0.00     0.010 A 
ATOM     33  C   UNL A   1      35.519  31.967  30.398  1.00  0.00     0.010 A 
ATOM     34  C   UNL A   1      36.823  32.440  30.191  1.00  0.00    -0.014 A 
BRANCH  34  35
ATOM     35  C   UNL A   1      37.966  31.772  30.866  1.00  0.00     0.031 A 
ATOM     36  C   UNL A   1      38.745  30.702  30.151  1.00  0.00     0.074 A 
ATOM     37  C   UNL A   1      38.269  32.093  32.140  1.00  0.00     0.049 A 
ATOM     38  N   UNL A   1      39.726  29.957  30.592  1.00  0.00    -0.248 NA
ATOM     39  C   UNL A   1      38.350  30.415  28.764  1.00  0.00     0.031 C 
ATOM     40  C   UNL A   1      37.568  33.094  32.947  1.00  0.00     0.029 A 
ATOM     41  N   UNL A   1      39.241  31.613  32.981  1.00  0.00    -0.354 N 
ATOM     42  C   UNL A   1      40.063  29.112  29.541  1.00  0.00     0.074 A 
ATOM     43  C   UNL A   1      39.132  29.389  28.468  1.00  0.00     0.031 C 
ATOM     44  C   UNL A   1      38.154  33.177  34.152  1.00  0.00     0.029 A 
ATOM     45  C   UNL A   1      39.235  32.199  34.226  1.00  0.00     0.049 A 
ATOM     46  H   UNL A   1      39.883  30.914  32.718  1.00  0.00     0.167 HD
ATOM     47  C   UNL A   1      41.071  28.207  29.468  1.00  0.00     0.034 A 
ATOM     48  C   UNL A   1      40.004  31.967  35.309  1.00  0.00     0.034 A 
ATOM     49  C   UNL A   1      41.992  27.944  30.549  1.00  0.00     0.049 A 
ATOM     50  C   UNL A   1      41.083  30.917  35.223  1.00  0.00     0.074 A 
ATOM     51  C   UNL A   1      43.068  27.076  30.571  1.00  0.00     0.029 A 
ATOM     52  N   UNL A   1      41.939  28.540  31.804  1.00  0.00    -0.354 N 
ATOM     53  N   UNL A   1      41.411  30.148  34.210  1.00  0.00    -0.248 NA
ATOM     54  C   UNL A   1      41.900  30.708  36.425  1.00  0.00     0.031 C 
ATOM     55  C   UNL A   1      43.617  27.088  31.858  1.00  0.00     0.029 A 
ATOM     56  C   UNL A   1      42.942  28.032  32.615  1.00  0.00     0.049 A 
ATOM     57  H   UNL A   1      41.285  29.223  32.076  1.00  0.00     0.167 HD
ATOM     58  C   UNL A   1      42.497  29.393  34.643  1.00  0.00     0.074 A 
ATOM     59  C   UNL A   1      42.775  29.807  36.003  1.00  0.00     0.031 C 
ATOM     60  C   UNL A   1      43.203  28.445  33.974  1.00  0.00     0.034 A 
BRANCH  47  61
ATOM     61  C   UNL A   1      41.211  27.423  28.184  1.00  0.00     0.023 A 
ATOM     62  C   UNL A   1      40.820  26.077  28.096  1.00  0.00     0.031 A 
ATOM     63  C   UNL A   1      41.765  28.022  27.038  1.00  0.00     0.131 A 
ATOM     64  C   UNL A   1      41.059  25.351  26.919  1.00  0.00     0.055 A 
ATOM     65  C   UNL A   1      41.918  27.319  25.840  1.00  0.00     0.041 A 
ATOM     66  F   UNL A   1      42.180  29.298  27.064  1.00  0.00    -0.206 F 
ATOM     67  C   UNL A   1      41.578  25.971  25.781  1.00  0.00     0.022 A 
BRANCH  64  68
ATOM     68  S   UNL A   1      40.825  23.553  26.949  1.00  0.00     0.124 S 
ATOM     69  O   UNL A   1      39.369  23.445  26.874  1.00  0.00    -0.237 OA
ATOM     70  O   UNL A   1      41.560  23.120  25.767  1.00  0.00    -0.237 OA
ATOM     71  O   UNL A   1      41.406  23.153  28.229  1.00  0.00    -0.744 OA
ENDBRANCH  64  68
ENDBRANCH  47  61
BRANCH  48  72
ATOM     72  C   UNL A   1      39.784  32.731  36.571  1.00  0.00     0.023 A 
ATOM     73  C   UNL A   1      38.829  32.314  37.512  1.00  0.00     0.031 A 
ATOM     74  C   UNL A   1      40.496  33.915  36.837  1.00  0.00     0.131 A 
ATOM     75  C   UNL A   1      38.576  33.098  38.648  1.00  0.00     0.055 A 
ATOM     76  C   UNL A   1      40.283  34.660  37.998  1.00  0.00     0.041 A 
ATOM     77  F   UNL A   1      41.423  34.359  35.974  1.00  0.00    -0.206 F 
ATOM     78  C   UNL A   1      39.307  34.259  38.906  1.00  0.00     0.022 A 
BRANCH  75  79
ATOM     79  S   UNL A   1      37.207  32.627  39.740  1.00  0.00     0.124 S 
ATOM     80  O   UNL A   1      37.604  31.283  40.147  1.00  0.00    -0.237 OA
ATOM     81  O   UNL A   1      37.274  33.656  40.772  1.00  0.00    -0.237 OA
ATOM     82  O   UNL A   1      36.037  32.696  38.867  1.00  0.00    -0.744 OA
ENDBRANCH  75  79
ENDBRANCH  48  72
BRANCH  60  83
ATOM     83  C   UNL A   1      44.382  27.829  34.693  1.00  0.00     0.023 A 
ATOM     84  C   UNL A   1      44.255  26.655  35.456  1.00  0.00     0.031 A 
ATOM     85  C   UNL A   1      45.649  28.432  34.615  1.00  0.00     0.131 A 
ATOM     86  C   UNL A   1      45.362  26.155  36.158  1.00  0.00     0.055 A 
ATOM     87  C   UNL A   1      46.763  27.892  35.260  1.00  0.00     0.041 A 
ATOM     88  F   UNL A   1      45.829  29.557  33.905  1.00  0.00    -0.206 F 
ATOM     89  C   UNL A   1      46.619  26.754  36.049  1.00  0.00     0.022 A 
BRANCH  86  90
ATOM     90  S   UNL A   1      45.115  24.768  37.301  1.00  0.00     0.124 S 
ATOM     91  O   UNL A   1      44.036  25.263  38.150  1.00  0.00    -0.237 OA
ATOM     92  O   UNL A   1      44.766  23.678  36.396  1.00  0.00    -0.237 OA
ATOM     93  O   UNL A   1      46.412  24.632  37.961  1.00  0.00    -0.744 OA
ENDBRANCH  86  90
ENDBRANCH  60  83
ENDBRANCH  34  35
ENDBRANCH  26  29
ENDBRANCH  24  25
ENDBRANCH  23  24
ENDBRANCH   1  23
TORSDOF 18
ENDMDL
MODEL 2
REMARK VINA RESULT:     -10.6      5.519      8.520
REMARK SMILES C[C@]([NH3+])(C(=O)NCCCCCCNC(=O)c1ccc(-c2c3nc(c(-c4cc(S(=O)(=O)[O-])ccc4F)c4ccc([nH]4)c(-c4cc(S(=O)(=O)[O-])ccc4F)c4nc(c(-c5cc(S(=O)(=O)[O-])ccc5F)c5ccc2[nH]5)C=C4)C=C3)cc1)c1ccc(F)c(Br)c1
REMARK SMILES IDX 10 1 9 2 8 3 7 4 6 5 4 6 5 7 2 9 1 10 79 11 80 12 86 13
REMARK SMILES IDX 81 14 84 15 82 16 85 17 83 18 3 19 11 23 12 24 13 25 14 26
REMARK SMILES IDX 15 28 16 29 17 30 78 31 18 32 77 33 19 34 20 35 21 36 71 37
REMARK SMILES IDX 22 38 76 39 70 40 72 41 23 42 75 43 69 44 68 45 24 47 56 48
REMARK SMILES IDX 36 49 55 50 37 51 40 52 54 53 73 54 38 55 39 56 53 58 74 59
REMARK SMILES IDX 41 60 25 61 26 62 34 63 27 64 33 65 35 66 32 67 28 68 29 69
REMARK SMILES IDX 30 70 31 71 57 72 58 73 66 74 59 75 65 76 67 77 64 78 60 79
REMARK SMILES IDX 61 80 62 81 63 82 42 83 43 84 51 85 44 86 50 87 52 88 49 89
REMARK SMILES IDX 45 90 46 91 47 92 48 93
REMARK H PARENT 6 8 3 20 3 21 3 22 13 27 72 46 40 57
REMARK Flexibility Score: inf
ROOT
ATOM      1  C   UNL A   1      36.549  22.963  23.511  1.00  0.00     0.002 C 
ENDROOT
BRANCH   1   2
ATOM      2  C   UNL A   1      35.273  23.773  23.769  1.00  0.00     0.002 C 
BRANCH   2   3
ATOM      3  C   UNL A   1      34.481  23.354  25.012  1.00  0.00     0.021 C 
BRANCH   3   4
ATOM      4  C   UNL A   1      33.057  22.889  24.715  1.00  0.00     0.116 C 
BRANCH   4   5
ATOM      5  N   UNL A   1      32.176  23.191  25.824  1.00  0.00    -0.350 N 
ATOM      6  C   UNL A   1      31.179  24.104  25.990  1.00  0.00     0.285 C 
ATOM      7  O   UNL A   1      30.716  24.174  27.134  1.00  0.00    -0.267 OA
ATOM      8  H   UNL A   1      32.328  22.625  26.614  1.00  0.00     0.163 HD
BRANCH   6   9
ATOM      9  C   UNL A   1      30.655  25.017  24.812  1.00  0.00     0.196 C 
ATOM     10  C   UNL A   1      29.399  25.801  25.253  1.00  0.00     0.096 C 
BRANCH   9  11
ATOM     11  C   UNL A   1      31.774  26.016  24.412  1.00  0.00     0.023 A 
ATOM     12  C   UNL A   1      32.261  26.095  23.091  1.00  0.00     0.014 A 
ATOM     13  C   UNL A   1      32.385  26.839  25.383  1.00  0.00     0.029 A 
ATOM     14  C   UNL A   1      33.293  26.972  22.748  1.00  0.00     0.041 A 
ATOM     15  C   UNL A   1      33.411  27.722  25.035  1.00  0.00     0.054 A 
ATOM     16  C   UNL A   1      33.858  27.785  23.721  1.00  0.00     0.137 A 
ATOM     17  Br  UNL A   1      34.181  28.821  26.368  1.00  0.00    -0.048 Br
ATOM     18  F   UNL A   1      34.843  28.623  23.367  1.00  0.00    -0.206 F 
ENDBRANCH   9  11
BRANCH   9  19
ATOM     19  N   UNL A   1      30.299  24.167  23.646  1.00  0.00    -0.341 N 
ATOM     20  H   UNL A   1      29.599  23.481  23.927  1.00  0.00     0.345 HD
ATOM     21  H   UNL A   1      31.132  23.685  23.309  1.00  0.00     0.345 HD
ATOM     22  H   UNL A   1      29.921  24.753  22.901  1.00  0.00     0.345 HD
ENDBRANCH   9  19
ENDBRANCH   6   9
ENDBRANCH   4   5
ENDBRANCH   3   4
ENDBRANCH   2   3
ENDBRANCH   1   2
BRANCH   1  23
ATOM     23  C   UNL A   1      36.611  21.613  24.228  1.00  0.00     0.021 C 
BRANCH  23  24
ATOM     24  C   UNL A   1      37.134  21.681  25.658  1.00  0.00     0.116 C 
BRANCH  24  25
ATOM     25  N   UNL A   1      38.188  20.710  25.896  1.00  0.00    -0.352 N 
ATOM     26  C   UNL A   1      39.497  20.924  26.247  1.00  0.00     0.251 C 
ATOM     27  H   UNL A   1      37.926  19.766  25.792  1.00  0.00     0.163 HD
ATOM     28  O   UNL A   1      40.304  19.999  26.188  1.00  0.00    -0.269 OA
BRANCH  26  29
ATOM     29  C   UNL A   1      39.931  22.273  26.668  1.00  0.00     0.039 A 
ATOM     30  C   UNL A   1      40.917  22.393  27.649  1.00  0.00     0.014 A 
ATOM     31  C   UNL A   1      39.368  23.416  26.091  1.00  0.00     0.014 A 
ATOM     32  C   UNL A   1      41.385  23.660  28.005  1.00  0.00     0.010 A 
ATOM     33  C   UNL A   1      39.891  24.671  26.391  1.00  0.00     0.010 A 
ATOM     34  C   UNL A   1      40.902  24.808  27.354  1.00  0.00    -0.014 A 
BRANCH  34  35
ATOM     35  C   UNL A   1      41.443  26.156  27.669  1.00  0.00     0.031 A 
ATOM     36  C   UNL A   1      42.838  26.527  27.244  1.00  0.00     0.074 A 
ATOM     37  C   UNL A   1      40.698  27.025  28.380  1.00  0.00     0.049 A 
ATOM     38  N   UNL A   1      43.512  27.623  27.483  1.00  0.00    -0.248 NA
ATOM     39  C   UNL A   1      43.582  25.522  26.470  1.00  0.00     0.031 C 
ATOM     40  C   UNL A   1      39.343  26.768  28.872  1.00  0.00     0.029 A 
ATOM     41  N   UNL A   1      40.972  28.297  28.815  1.00  0.00    -0.354 N 
ATOM     42  C   UNL A   1      44.758  27.438  26.893  1.00  0.00     0.074 A 
ATOM     43  C   UNL A   1      44.768  26.097  26.350  1.00  0.00     0.031 C 
ATOM     44  C   UNL A   1      38.892  27.860  29.510  1.00  0.00     0.029 A 
ATOM     45  C   UNL A   1      39.942  28.874  29.523  1.00  0.00     0.049 A 
ATOM     46  H   UNL A   1      41.825  28.755  28.637  1.00  0.00     0.167 HD
ATOM     47  C   UNL A   1      45.788  28.315  26.792  1.00  0.00     0.034 A 
ATOM     48  C   UNL A   1      39.857  30.076  30.126  1.00  0.00     0.034 A 
ATOM     49  C   UNL A   1      45.761  29.651  27.340  1.00  0.00     0.049 A 
ATOM     50  C   UNL A   1      41.037  31.014  30.048  1.00  0.00     0.074 A 
ATOM     51  C   UNL A   1      46.733  30.632  27.266  1.00  0.00     0.029 A 
ATOM     52  N   UNL A   1      44.709  30.191  28.072  1.00  0.00    -0.354 N 
ATOM     53  N   UNL A   1      42.197  30.837  29.458  1.00  0.00    -0.248 NA
ATOM     54  C   UNL A   1      40.892  32.316  30.711  1.00  0.00     0.031 C 
ATOM     55  C   UNL A   1      46.305  31.733  28.015  1.00  0.00     0.029 A 
ATOM     56  C   UNL A   1      45.026  31.477  28.482  1.00  0.00     0.049 A 
ATOM     57  H   UNL A   1      43.864  29.728  28.270  1.00  0.00     0.167 HD
ATOM     58  C   UNL A   1      42.903  32.021  29.649  1.00  0.00     0.074 A 
ATOM     59  C   UNL A   1      42.035  32.907  30.397  1.00  0.00     0.031 C 
ATOM     60  C   UNL A   1      44.156  32.348  29.238  1.00  0.00     0.034 A 
BRANCH  47  61
ATOM     61  C   UNL A   1      47.035  27.844  26.081  1.00  0.00     0.023 A 
ATOM     62  C   UNL A   1      47.241  28.089  24.713  1.00  0.00     0.031 A 
ATOM     63  C   UNL A   1      48.021  27.119  26.774  1.00  0.00     0.131 A 
ATOM     64  C   UNL A   1      48.362  27.549  24.064  1.00  0.00     0.055 A 
ATOM     65  C   UNL A   1      49.180  26.660  26.142  1.00  0.00     0.041 A 
ATOM     66  F   UNL A   1      47.872  26.831  28.076  1.00  0.00    -0.206 F 
ATOM     67  C   UNL A   1      49.347  26.861  24.774  1.00  0.00     0.022 A 
BRANCH  64  68
ATOM     68  S   UNL A   1      48.433  27.626  22.254  1.00  0.00     0.124 S 
ATOM     69  O   UNL A   1      47.123  28.189  21.932  1.00  0.00    -0.237 OA
ATOM     70  O   UNL A   1      49.578  28.498  22.020  1.00  0.00    -0.237 OA
ATOM     71  O   UNL A   1      48.617  26.231  21.858  1.00  0.00    -0.744 OA
ENDBRANCH  64  68
ENDBRANCH  47  61
BRANCH  48  72
ATOM     72  C   UNL A   1      38.621  30.468  30.864  1.00  0.00     0.023 A 
ATOM     73  C   UNL A   1      37.571  31.134  30.213  1.00  0.00     0.031 A 
ATOM     74  C   UNL A   1      38.488  30.220  32.242  1.00  0.00     0.131 A 
ATOM     75  C   UNL A   1      36.459  31.574  30.948  1.00  0.00     0.055 A 
ATOM     76  C   UNL A   1      37.353  30.605  32.957  1.00  0.00     0.041 A 
ATOM     77  F   UNL A   1      39.460  29.583  32.915  1.00  0.00    -0.206 F 
ATOM     78  C   UNL A   1      36.334  31.299  32.311  1.00  0.00     0.022 A 
BRANCH  75  79
ATOM     79  S   UNL A   1      35.215  32.594  30.110  1.00  0.00     0.124 S 
ATOM     80  O   UNL A   1      34.775  31.705  29.041  1.00  0.00    -0.237 OA
ATOM     81  O   UNL A   1      34.253  32.838  31.180  1.00  0.00    -0.237 OA
ATOM     82  O   UNL A   1      35.973  33.766  29.677  1.00  0.00    -0.744 OA
ENDBRANCH  75  79
ENDBRANCH  48  72
BRANCH  60  83
ATOM     83  C   UNL A   1      44.640  33.745  29.547  1.00  0.00     0.023 A 
ATOM     84  C   UNL A   1      44.452  34.812  28.650  1.00  0.00     0.031 A 
ATOM     85  C   UNL A   1      45.305  34.011  30.757  1.00  0.00     0.131 A 
ATOM     86  C   UNL A   1      44.976  36.078  28.951  1.00  0.00     0.055 A 
ATOM     87  C   UNL A   1      45.764  35.289  31.082  1.00  0.00     0.041 A 
ATOM     88  F   UNL A   1      45.517  33.030  31.650  1.00  0.00    -0.206 F 
ATOM     89  C   UNL A   1      45.612  36.328  30.169  1.00  0.00     0.022 A 
BRANCH  86  90
ATOM     90  S   UNL A   1      44.906  37.374  27.683  1.00  0.00     0.124 S 
ATOM     91  O   UNL A   1      45.208  38.573  28.457  1.00  0.00    -0.237 OA
ATOM     92  O   UNL A   1      45.937  36.945  26.742  1.00  0.00    -0.237 OA
ATOM     93  O   UNL A   1      43.536  37.288  27.179  1.00  0.00    -0.744 OA
ENDBRANCH  86  90
ENDBRANCH  60  83
ENDBRANCH  34  35
ENDBRANCH  26  29
ENDBRANCH  24  25
ENDBRANCH  23  24
ENDBRANCH   1  23
TORSDOF 18
ENDMDL
MODEL 3
REMARK VINA RESULT:     -10.6      2.250      8.016
REMARK SMILES C[C@]([NH3+])(C(=O)NCCCCCCNC(=O)c1ccc(-c2c3nc(c(-c4cc(S(=O)(=O)[O-])ccc4F)c4ccc([nH]4)c(-c4cc(S(=O)(=O)[O-])ccc4F)c4nc(c(-c5cc(S(=O)(=O)[O-])ccc5F)c5ccc2[nH]5)C=C4)C=C3)cc1)c1ccc(F)c(Br)c1
REMARK SMILES IDX 10 1 9 2 8 3 7 4 6 5 4 6 5 7 2 9 1 10 79 11 80 12 86 13
REMARK SMILES IDX 81 14 84 15 82 16 85 17 83 18 3 19 11 23 12 24 13 25 14 26
REMARK SMILES IDX 15 28 16 29 17 30 78 31 18 32 77 33 19 34 20 35 21 36 71 37
REMARK SMILES IDX 22 38 76 39 70 40 72 41 23 42 75 43 69 44 68 45 24 47 56 48
REMARK SMILES IDX 36 49 55 50 37 51 40 52 54 53 73 54 38 55 39 56 53 58 74 59
REMARK SMILES IDX 41 60 25 61 26 62 34 63 27 64 33 65 35 66 32 67 28 68 29 69
REMARK SMILES IDX 30 70 31 71 57 72 58 73 66 74 59 75 65 76 67 77 64 78 60 79
REMARK SMILES IDX 61 80 62 81 63 82 42 83 43 84 51 85 44 86 50 87 52 88 49 89
REMARK SMILES IDX 45 90 46 91 47 92 48 93
REMARK H PARENT 6 8 3 20 3 21 3 22 13 27 72 46 40 57
REMARK Flexibility Score: inf
ROOT
ATOM      1  C   UNL A   1      32.011  30.546  26.600  1.00  0.00     0.002 C 
ENDROOT
BRANCH   1   2
ATOM      2  C   UNL A   1      33.345  29.972  27.090  1.00  0.00     0.002 C 
BRANCH   2   3
ATOM      3  C   UNL A   1      33.640  28.540  26.632  1.00  0.00     0.021 C 
BRANCH   3   4
ATOM      4  C   UNL A   1      33.511  28.329  25.125  1.00  0.00     0.116 C 
BRANCH   4   5
ATOM      5  N   UNL A   1      33.761  26.946  24.776  1.00  0.00    -0.350 N 
ATOM      6  C   UNL A   1      33.403  26.184  23.706  1.00  0.00     0.285 C 
ATOM      7  O   UNL A   1      33.682  24.982  23.799  1.00  0.00    -0.267 OA
ATOM      8  H   UNL A   1      34.296  26.461  25.445  1.00  0.00     0.163 HD
BRANCH   6   9
ATOM      9  C   UNL A   1      32.675  26.783  22.438  1.00  0.00     0.196 C 
ATOM     10  C   UNL A   1      32.718  25.780  21.265  1.00  0.00     0.096 C 
BRANCH   9  11
ATOM     11  C   UNL A   1      31.198  27.089  22.803  1.00  0.00     0.023 A 
ATOM     12  C   UNL A   1      30.411  26.177  23.537  1.00  0.00     0.014 A 
ATOM     13  C   UNL A   1      30.575  28.274  22.354  1.00  0.00     0.029 A 
ATOM     14  C   UNL A   1      29.072  26.446  23.831  1.00  0.00     0.041 A 
ATOM     15  C   UNL A   1      29.238  28.544  22.658  1.00  0.00     0.054 A 
ATOM     16  C   UNL A   1      28.494  27.630  23.395  1.00  0.00     0.137 A 
ATOM     17  Br  UNL A   1      28.457  30.157  22.054  1.00  0.00    -0.048 Br
ATOM     18  F   UNL A   1      27.209  27.869  23.694  1.00  0.00    -0.206 F 
ENDBRANCH   9  11
BRANCH   9  19
ATOM     19  N   UNL A   1      33.359  28.034  22.019  1.00  0.00    -0.341 N 
ATOM     20  H   UNL A   1      32.909  28.403  21.180  1.00  0.00     0.345 HD
ATOM     21  H   UNL A   1      34.339  27.836  21.819  1.00  0.00     0.345 HD
ATOM     22  H   UNL A   1      33.297  28.723  22.768  1.00  0.00     0.345 HD
ENDBRANCH   9  19
ENDBRANCH   6   9
ENDBRANCH   4   5
ENDBRANCH   3   4
ENDBRANCH   2   3
ENDBRANCH   1   2
BRANCH   1  23
ATOM     23  C   UNL A   1      31.807  32.035  26.881  1.00  0.00     0.021 C 
BRANCH  23  24
ATOM     24  C   UNL A   1      33.076  32.783  27.274  1.00  0.00     0.116 C 
BRANCH  24  25
ATOM     25  N   UNL A   1      32.784  34.099  27.817  1.00  0.00    -0.352 N 
ATOM     26  C   UNL A   1      33.292  34.703  28.939  1.00  0.00     0.251 C 
ATOM     27  H   UNL A   1      32.129  34.631  27.309  1.00  0.00     0.163 HD
ATOM     28  O   UNL A   1      32.767  35.725  29.373  1.00  0.00    -0.269 OA
BRANCH  26  29
ATOM     29  C   UNL A   1      34.453  34.103  29.632  1.00  0.00     0.039 A 
ATOM     30  C   UNL A   1      34.236  33.326  30.771  1.00  0.00     0.014 A 
ATOM     31  C   UNL A   1      35.751  34.303  29.152  1.00  0.00     0.014 A 
ATOM     32  C   UNL A   1      35.317  32.698  31.393  1.00  0.00     0.010 A 
ATOM     33  C   UNL A   1      36.815  33.612  29.726  1.00  0.00     0.010 A 
ATOM     34  C   UNL A   1      36.611  32.805  30.855  1.00  0.00    -0.014 A 
BRANCH  34  35
ATOM     35  C   UNL A   1      37.759  32.082  31.462  1.00  0.00     0.031 A 
ATOM     36  C   UNL A   1      38.294  32.505  32.802  1.00  0.00     0.074 A 
ATOM     37  C   UNL A   1      38.349  31.078  30.784  1.00  0.00     0.049 A 
ATOM     38  N   UNL A   1      39.327  32.048  33.464  1.00  0.00    -0.248 NA
ATOM     39  C   UNL A   1      37.590  33.608  33.476  1.00  0.00     0.031 C 
ATOM     40  C   UNL A   1      37.938  30.596  29.463  1.00  0.00     0.029 A 
ATOM     41  N   UNL A   1      39.421  30.284  31.106  1.00  0.00    -0.354 N 
ATOM     42  C   UNL A   1      39.398  32.807  34.627  1.00  0.00     0.074 A 
ATOM     43  C   UNL A   1      38.349  33.800  34.543  1.00  0.00     0.031 C 
ATOM     44  C   UNL A   1      38.725  29.569  29.105  1.00  0.00     0.029 A 
ATOM     45  C   UNL A   1      39.731  29.353  30.141  1.00  0.00     0.049 A 
ATOM     46  H   UNL A   1      39.922  30.371  31.949  1.00  0.00     0.167 HD
ATOM     47  C   UNL A   1      40.244  32.671  35.679  1.00  0.00     0.034 A 
ATOM     48  C   UNL A   1      40.720  28.439  30.089  1.00  0.00     0.034 A 
ATOM     49  C   UNL A   1      41.286  31.673  35.746  1.00  0.00     0.049 A 
ATOM     50  C   UNL A   1      41.683  28.343  31.246  1.00  0.00     0.074 A 
ATOM     51  C   UNL A   1      42.175  31.425  36.776  1.00  0.00     0.029 A 
ATOM     52  N   UNL A   1      41.584  30.764  34.738  1.00  0.00    -0.354 N 
ATOM     53  N   UNL A   1      41.718  29.047  32.354  1.00  0.00    -0.248 NA
ATOM     54  C   UNL A   1      42.736  27.325  31.146  1.00  0.00     0.031 C 
ATOM     55  C   UNL A   1      43.058  30.422  36.363  1.00  0.00     0.029 A 
ATOM     56  C   UNL A   1      42.665  29.979  35.111  1.00  0.00     0.049 A 
ATOM     57  H   UNL A   1      41.100  30.688  33.886  1.00  0.00     0.167 HD
ATOM     58  C   UNL A   1      42.774  28.529  33.099  1.00  0.00     0.074 A 
ATOM     59  C   UNL A   1      43.340  27.447  32.319  1.00  0.00     0.031 C 
ATOM     60  C   UNL A   1      43.230  28.910  34.320  1.00  0.00     0.034 A 
BRANCH  47  61
ATOM     61  C   UNL A   1      40.088  33.641  36.827  1.00  0.00     0.023 A 
ATOM     62  C   UNL A   1      40.966  34.724  37.001  1.00  0.00     0.031 A 
ATOM     63  C   UNL A   1      39.063  33.469  37.774  1.00  0.00     0.131 A 
ATOM     64  C   UNL A   1      40.854  35.545  38.134  1.00  0.00     0.055 A 
ATOM     65  C   UNL A   1      38.901  34.343  38.852  1.00  0.00     0.041 A 
ATOM     66  F   UNL A   1      38.206  32.441  37.677  1.00  0.00    -0.206 F 
ATOM     67  C   UNL A   1      39.810  35.379  39.045  1.00  0.00     0.022 A 
BRANCH  64  68
ATOM     68  S   UNL A   1      42.183  36.730  38.478  1.00  0.00     0.124 S 
ATOM     69  O   UNL A   1      42.597  37.106  37.128  1.00  0.00    -0.237 OA
ATOM     70  O   UNL A   1      41.495  37.760  39.247  1.00  0.00    -0.237 OA
ATOM     71  O   UNL A   1      43.161  35.941  39.224  1.00  0.00    -0.744 OA
ENDBRANCH  64  68
ENDBRANCH  47  61
BRANCH  48  72
ATOM     72  C   UNL A   1      40.862  27.544  28.903  1.00  0.00     0.023 A 
ATOM     73  C   UNL A   1      41.856  27.773  27.939  1.00  0.00     0.031 A 
ATOM     74  C   UNL A   1      39.978  26.469  28.694  1.00  0.00     0.131 A 
ATOM     75  C   UNL A   1      41.912  26.974  26.787  1.00  0.00     0.055 A 
ATOM     76  C   UNL A   1      40.076  25.639  27.577  1.00  0.00     0.041 A 
ATOM     77  F   UNL A   1      39.011  26.202  29.585  1.00  0.00    -0.206 F 
ATOM     78  C   UNL A   1      41.040  25.898  26.607  1.00  0.00     0.022 A 
BRANCH  75  79
ATOM     79  S   UNL A   1      43.087  27.419  25.479  1.00  0.00     0.124 S 
ATOM     80  O   UNL A   1      44.133  28.095  26.239  1.00  0.00    -0.237 OA
ATOM     81  O   UNL A   1      43.436  26.114  24.928  1.00  0.00    -0.237 OA
ATOM     82  O   UNL A   1      42.301  28.278  24.595  1.00  0.00    -0.744 OA
ENDBRANCH  75  79
ENDBRANCH  48  72
BRANCH  60  83
ATOM     83  C   UNL A   1      44.370  28.113  34.909  1.00  0.00     0.023 A 
ATOM     84  C   UNL A   1      44.163  26.875  35.543  1.00  0.00     0.031 A 
ATOM     85  C   UNL A   1      45.685  28.605  34.839  1.00  0.00     0.131 A 
ATOM     86  C   UNL A   1      45.243  26.202  36.133  1.00  0.00     0.055 A 
ATOM     87  C   UNL A   1      46.767  27.898  35.367  1.00  0.00     0.041 A 
ATOM     88  F   UNL A   1      45.943  29.785  34.251  1.00  0.00    -0.206 F 
ATOM     89  C   UNL A   1      46.546  26.695  36.031  1.00  0.00     0.022 A 
BRANCH  86  90
ATOM     90  S   UNL A   1      44.910  24.721  37.125  1.00  0.00     0.124 S 
ATOM     91  O   UNL A   1      46.257  24.250  37.430  1.00  0.00    -0.237 OA
ATOM     92  O   UNL A   1      44.154  25.263  38.250  1.00  0.00    -0.237 OA
ATOM     93  O   UNL A   1      44.143  23.866  36.221  1.00  0.00    -0.744 OA
ENDBRANCH  86  90
ENDBRANCH  60  83
ENDBRANCH  34  35
ENDBRANCH  26  29
ENDBRANCH  24  25
ENDBRANCH  23  24
ENDBRANCH   1  23
TORSDOF 18
ENDMDL
