MODEL 1
REMARK VINA RESULT:     -10.4      0.000      0.000
REMARK SMILES C[NH+](C)Cc1noc(C[C@@](C)(C(=O)NCCCCCCNC(=O)c2ccc(-c3c4nc(c(-c5cc(S(=O)(=O)[O-])ccc5F)c5ccc([nH]5)c(-c5cc(S(=O)(=O)[O-])ccc5F)c5nc(c(-c6cc(S(=O)(=O)[O-])ccc6F)c6ccc3[nH]6)C=C5)C=C4)cc2)c2ccccc2)n1
REMARK SMILES IDX 17 1 16 2 15 3 14 4 12 5 13 6 10 8 11 9 9 10 8 11 5 12 6 13
REMARK SMILES IDX 93 14 7 15 4 16 2 17 1 18 3 19 87 21 88 22 92 23 89 24 91 25
REMARK SMILES IDX 90 26 18 27 19 28 20 29 21 30 22 31 23 33 24 34 25 35 86 36
REMARK SMILES IDX 26 37 85 38 27 39 28 40 29 41 79 42 30 43 84 44 78 45 80 46
REMARK SMILES IDX 31 47 83 48 77 49 76 50 32 52 64 53 44 54 63 55 45 56 48 57
REMARK SMILES IDX 62 58 81 59 46 60 47 61 61 63 82 64 49 65 33 66 34 67 42 68
REMARK SMILES IDX 35 69 41 70 43 71 40 72 36 73 37 74 38 75 39 76 65 77 66 78
REMARK SMILES IDX 74 79 67 80 73 81 75 82 72 83 68 84 69 85 70 86 71 87 50 88
REMARK SMILES IDX 51 89 59 90 52 91 58 92 60 93 57 94 53 95 54 96 55 97 56 98
REMARK H PARENT 14 7 2 20 21 32 80 51 48 62
REMARK Flexibility Score: inf
ROOT
ATOM      1  C   UNL A   1      38.896  23.725  26.546  1.00  0.00     0.002 C 
ENDROOT
BRANCH   1   2
ATOM      2  C   UNL A   1      37.751  23.044  25.787  1.00  0.00     0.021 C 
BRANCH   2   3
ATOM      3  C   UNL A   1      36.444  23.835  25.826  1.00  0.00     0.116 C 
BRANCH   3   4
ATOM      4  N   UNL A   1      35.526  23.243  26.780  1.00  0.00    -0.355 N 
ATOM      5  C   UNL A   1      34.180  23.045  26.784  1.00  0.00     0.230 C 
ATOM      6  O   UNL A   1      33.721  22.642  27.858  1.00  0.00    -0.274 OA
ATOM      7  H   UNL A   1      35.969  22.915  27.596  1.00  0.00     0.163 HD
BRANCH   5   8
ATOM      8  C   UNL A   1      33.283  23.280  25.531  1.00  0.00     0.080 C 
ATOM      9  C   UNL A   1      31.817  22.939  25.915  1.00  0.00     0.027 C 
BRANCH   8  10
ATOM     10  C   UNL A   1      33.775  22.346  24.391  1.00  0.00     0.122 C 
BRANCH  10  11
ATOM     11  C   UNL A   1      33.279  20.955  24.486  1.00  0.00     0.228 A 
ATOM     12  C   UNL A   1      32.783  18.988  24.995  1.00  0.00     0.226 A 
ATOM     13  N   UNL A   1      32.195  19.158  23.800  1.00  0.00    -0.056 NA
ATOM     14  N   UNL A   1      33.445  20.097  25.460  1.00  0.00    -0.190 NA
ATOM     15  O   UNL A   1      32.511  20.476  23.468  1.00  0.00    -0.339 OA
BRANCH  12  16
ATOM     16  C   UNL A   1      32.731  17.678  25.725  1.00  0.00     0.344 C 
BRANCH  16  17
ATOM     17  N   UNL A   1      33.868  16.752  25.512  1.00  0.00    -0.333 N 
ATOM     18  C   UNL A   1      33.446  15.366  25.313  1.00  0.00     0.332 C 
ATOM     19  C   UNL A   1      34.760  17.200  24.446  1.00  0.00     0.332 C 
ATOM     20  H   UNL A   1      34.402  16.770  26.381  1.00  0.00     0.348 HD
ENDBRANCH  16  17
ENDBRANCH  12  16
ENDBRANCH  10  11
ENDBRANCH   8  10
BRANCH   8  21
ATOM     21  C   UNL A   1      33.376  24.793  25.141  1.00  0.00    -0.032 A 
ATOM     22  C   UNL A   1      33.180  25.821  26.084  1.00  0.00     0.005 A 
ATOM     23  C   UNL A   1      33.604  25.187  23.808  1.00  0.00     0.005 A 
ATOM     24  C   UNL A   1      33.277  27.169  25.726  1.00  0.00     0.000 A 
ATOM     25  C   UNL A   1      33.693  26.535  23.448  1.00  0.00     0.000 A 
ATOM     26  C   UNL A   1      33.540  27.527  24.410  1.00  0.00     0.000 A 
ENDBRANCH   8  21
ENDBRANCH   5   8
ENDBRANCH   3   4
ENDBRANCH   2   3
ENDBRANCH   1   2
BRANCH   1  27
ATOM     27  C   UNL A   1      40.093  22.814  26.846  1.00  0.00     0.002 C 
BRANCH  27  28
ATOM     28  C   UNL A   1      39.925  21.365  26.384  1.00  0.00     0.021 C 
BRANCH  28  29
ATOM     29  C   UNL A   1      40.781  20.364  27.151  1.00  0.00     0.116 C 
BRANCH  29  30
ATOM     30  N   UNL A   1      41.655  19.615  26.261  1.00  0.00    -0.352 N 
ATOM     31  C   UNL A   1      42.753  20.052  25.563  1.00  0.00     0.251 C 
ATOM     32  H   UNL A   1      41.427  18.665  26.143  1.00  0.00     0.163 HD
ATOM     33  O   UNL A   1      43.230  19.358  24.670  1.00  0.00    -0.269 OA
BRANCH  31  34
ATOM     34  C   UNL A   1      43.334  21.372  25.882  1.00  0.00     0.039 A 
ATOM     35  C   UNL A   1      43.261  22.397  24.937  1.00  0.00     0.014 A 
ATOM     36  C   UNL A   1      43.924  21.600  27.129  1.00  0.00     0.014 A 
ATOM     37  C   UNL A   1      43.717  23.673  25.270  1.00  0.00     0.010 A 
ATOM     38  C   UNL A   1      44.311  22.888  27.483  1.00  0.00     0.010 A 
ATOM     39  C   UNL A   1      44.206  23.940  26.559  1.00  0.00    -0.014 A 
BRANCH  39  40
ATOM     40  C   UNL A   1      44.595  25.312  26.974  1.00  0.00     0.031 A 
ATOM     41  C   UNL A   1      43.568  26.238  27.566  1.00  0.00     0.074 A 
ATOM     42  C   UNL A   1      45.850  25.747  26.744  1.00  0.00     0.049 A 
ATOM     43  N   UNL A   1      43.679  27.502  27.882  1.00  0.00    -0.248 NA
ATOM     44  C   UNL A   1      42.233  25.672  27.805  1.00  0.00     0.031 C 
ATOM     45  C   UNL A   1      46.925  24.948  26.149  1.00  0.00     0.029 A 
ATOM     46  N   UNL A   1      46.432  26.970  26.966  1.00  0.00    -0.354 N 
ATOM     47  C   UNL A   1      42.427  27.886  28.349  1.00  0.00     0.074 A 
ATOM     48  C   UNL A   1      41.559  26.735  28.216  1.00  0.00     0.031 C 
ATOM     49  C   UNL A   1      48.037  25.695  26.073  1.00  0.00     0.029 A 
ATOM     50  C   UNL A   1      47.744  27.041  26.555  1.00  0.00     0.049 A 
ATOM     51  H   UNL A   1      45.956  27.725  27.380  1.00  0.00     0.167 HD
ATOM     52  C   UNL A   1      42.044  29.084  28.860  1.00  0.00     0.034 A 
ATOM     53  C   UNL A   1      48.606  28.077  26.545  1.00  0.00     0.034 A 
ATOM     54  C   UNL A   1      42.926  30.218  28.987  1.00  0.00     0.049 A 
ATOM     55  C   UNL A   1      48.140  29.416  27.065  1.00  0.00     0.074 A 
ATOM     56  C   UNL A   1      42.658  31.459  29.539  1.00  0.00     0.029 A 
ATOM     57  N   UNL A   1      44.243  30.258  28.547  1.00  0.00    -0.354 N 
ATOM     58  N   UNL A   1      46.965  29.750  27.548  1.00  0.00    -0.248 NA
ATOM     59  C   UNL A   1      49.116  30.512  27.041  1.00  0.00     0.031 C 
ATOM     60  C   UNL A   1      43.782  32.271  29.360  1.00  0.00     0.029 A 
ATOM     61  C   UNL A   1      44.785  31.514  28.775  1.00  0.00     0.049 A 
ATOM     62  H   UNL A   1      44.723  29.504  28.132  1.00  0.00     0.167 HD
ATOM     63  C   UNL A   1      47.073  31.089  27.912  1.00  0.00     0.074 A 
ATOM     64  C   UNL A   1      48.430  31.494  27.608  1.00  0.00     0.031 C 
ATOM     65  C   UNL A   1      46.137  31.910  28.454  1.00  0.00     0.034 A 
BRANCH  52  66
ATOM     66  C   UNL A   1      40.603  29.230  29.286  1.00  0.00     0.023 A 
ATOM     67  C   UNL A   1      40.226  29.215  30.640  1.00  0.00     0.031 A 
ATOM     68  C   UNL A   1      39.586  29.367  28.324  1.00  0.00     0.131 A 
ATOM     69  C   UNL A   1      38.869  29.259  30.992  1.00  0.00     0.055 A 
ATOM     70  C   UNL A   1      38.243  29.497  28.684  1.00  0.00     0.041 A 
ATOM     71  F   UNL A   1      39.879  29.366  27.014  1.00  0.00    -0.206 F 
ATOM     72  C   UNL A   1      37.876  29.427  30.025  1.00  0.00     0.022 A 
BRANCH  69  73
ATOM     73  S   UNL A   1      38.412  28.942  32.718  1.00  0.00     0.124 S 
ATOM     74  O   UNL A   1      36.972  28.720  32.606  1.00  0.00    -0.237 OA
ATOM     75  O   UNL A   1      39.216  27.771  33.047  1.00  0.00    -0.237 OA
ATOM     76  O   UNL A   1      38.792  30.175  33.406  1.00  0.00    -0.744 OA
ENDBRANCH  69  73
ENDBRANCH  52  66
BRANCH  53  77
ATOM     77  C   UNL A   1      49.985  27.911  26.003  1.00  0.00     0.023 A 
ATOM     78  C   UNL A   1      50.229  27.946  24.621  1.00  0.00     0.031 A 
ATOM     79  C   UNL A   1      51.076  27.668  26.858  1.00  0.00     0.131 A 
ATOM     80  C   UNL A   1      51.520  27.691  24.132  1.00  0.00     0.055 A 
ATOM     81  C   UNL A   1      52.369  27.475  26.369  1.00  0.00     0.041 A 
ATOM     82  F   UNL A   1      50.901  27.627  28.188  1.00  0.00    -0.206 F 
ATOM     83  C   UNL A   1      52.595  27.471  24.996  1.00  0.00     0.022 A 
BRANCH  80  84
ATOM     84  S   UNL A   1      51.756  27.557  22.338  1.00  0.00     0.124 S 
ATOM     85  O   UNL A   1      52.844  26.590  22.255  1.00  0.00    -0.237 OA
ATOM     86  O   UNL A   1      50.446  27.091  21.895  1.00  0.00    -0.237 OA
ATOM     87  O   UNL A   1      52.099  28.920  21.938  1.00  0.00    -0.744 OA
ENDBRANCH  80  84
ENDBRANCH  53  77
BRANCH  65  88
ATOM     88  C   UNL A   1      46.565  33.318  28.788  1.00  0.00     0.023 A 
ATOM     89  C   UNL A   1      46.374  34.383  27.892  1.00  0.00     0.031 A 
ATOM     90  C   UNL A   1      47.172  33.596  30.027  1.00  0.00     0.131 A 
ATOM     91  C   UNL A   1      46.830  35.668  28.225  1.00  0.00     0.055 A 
ATOM     92  C   UNL A   1      47.565  34.888  30.379  1.00  0.00     0.041 A 
ATOM     93  F   UNL A   1      47.383  32.616  30.920  1.00  0.00    -0.206 F 
ATOM     94  C   UNL A   1      47.405  35.931  29.471  1.00  0.00     0.022 A 
BRANCH  91  95
ATOM     95  S   UNL A   1      46.737  36.979  26.975  1.00  0.00     0.124 S 
ATOM     96  O   UNL A   1      45.329  37.359  27.041  1.00  0.00    -0.237 OA
ATOM     97  O   UNL A   1      47.687  37.963  27.484  1.00  0.00    -0.237 OA
ATOM     98  O   UNL A   1      47.142  36.307  25.742  1.00  0.00    -0.744 OA
ENDBRANCH  91  95
ENDBRANCH  65  88
ENDBRANCH  39  40
ENDBRANCH  31  34
ENDBRANCH  29  30
ENDBRANCH  28  29
ENDBRANCH  27  28
ENDBRANCH   1  27
TORSDOF 21
ENDMDL
MODEL 2
REMARK VINA RESULT:      -9.9      2.483      3.275
REMARK SMILES C[NH+](C)Cc1noc(C[C@@](C)(C(=O)NCCCCCCNC(=O)c2ccc(-c3c4nc(c(-c5cc(S(=O)(=O)[O-])ccc5F)c5ccc([nH]5)c(-c5cc(S(=O)(=O)[O-])ccc5F)c5nc(c(-c6cc(S(=O)(=O)[O-])ccc6F)c6ccc3[nH]6)C=C5)C=C4)cc2)c2ccccc2)n1
REMARK SMILES IDX 17 1 16 2 15 3 14 4 12 5 13 6 10 8 11 9 9 10 8 11 5 12 6 13
REMARK SMILES IDX 93 14 7 15 4 16 2 17 1 18 3 19 87 21 88 22 92 23 89 24 91 25
REMARK SMILES IDX 90 26 18 27 19 28 20 29 21 30 22 31 23 33 24 34 25 35 86 36
REMARK SMILES IDX 26 37 85 38 27 39 28 40 29 41 79 42 30 43 84 44 78 45 80 46
REMARK SMILES IDX 31 47 83 48 77 49 76 50 32 52 64 53 44 54 63 55 45 56 48 57
REMARK SMILES IDX 62 58 81 59 46 60 47 61 61 63 82 64 49 65 33 66 34 67 42 68
REMARK SMILES IDX 35 69 41 70 43 71 40 72 36 73 37 74 38 75 39 76 65 77 66 78
REMARK SMILES IDX 74 79 67 80 73 81 75 82 72 83 68 84 69 85 70 86 71 87 50 88
REMARK SMILES IDX 51 89 59 90 52 91 58 92 60 93 57 94 53 95 54 96 55 97 56 98
REMARK H PARENT 14 7 2 20 21 32 80 51 48 62
REMARK Flexibility Score: inf
ROOT
ATOM      1  C   UNL A   1      38.981  24.009  26.623  1.00  0.00     0.002 C 
ENDROOT
BRANCH   1   2
ATOM      2  C   UNL A   1      38.080  23.029  25.863  1.00  0.00     0.021 C 
BRANCH   2   3
ATOM      3  C   UNL A   1      36.660  23.551  25.652  1.00  0.00     0.116 C 
BRANCH   3   4
ATOM      4  N   UNL A   1      35.769  23.008  26.660  1.00  0.00    -0.355 N 
ATOM      5  C   UNL A   1      34.422  22.829  26.720  1.00  0.00     0.230 C 
ATOM      6  O   UNL A   1      33.998  22.474  27.825  1.00  0.00    -0.274 OA
ATOM      7  H   UNL A   1      36.237  22.705  27.472  1.00  0.00     0.163 HD
BRANCH   5   8
ATOM      8  C   UNL A   1      33.483  23.029  25.492  1.00  0.00     0.080 C 
ATOM      9  C   UNL A   1      32.041  22.635  25.916  1.00  0.00     0.027 C 
BRANCH   8  10
ATOM     10  C   UNL A   1      33.978  22.111  24.340  1.00  0.00     0.122 C 
BRANCH  10  11
ATOM     11  C   UNL A   1      33.429  20.737  24.376  1.00  0.00     0.228 A 
ATOM     12  C   UNL A   1      32.936  18.738  24.741  1.00  0.00     0.226 A 
ATOM     13  N   UNL A   1      32.106  19.085  23.745  1.00  0.00    -0.056 NA
ATOM     14  N   UNL A   1      33.755  19.752  25.173  1.00  0.00    -0.190 NA
ATOM     15  O   UNL A   1      32.422  20.425  23.513  1.00  0.00    -0.339 OA
BRANCH  12  16
ATOM     16  C   UNL A   1      32.966  17.345  25.298  1.00  0.00     0.344 C 
BRANCH  16  17
ATOM     17  N   UNL A   1      33.809  16.360  24.580  1.00  0.00    -0.333 N 
ATOM     18  C   UNL A   1      34.115  16.762  23.208  1.00  0.00     0.332 C 
ATOM     19  C   UNL A   1      35.019  16.016  25.321  1.00  0.00     0.332 C 
ATOM     20  H   UNL A   1      33.244  15.513  24.513  1.00  0.00     0.348 HD
ENDBRANCH  16  17
ENDBRANCH  12  16
ENDBRANCH  10  11
ENDBRANCH   8  10
BRANCH   8  21
ATOM     21  C   UNL A   1      33.510  24.543  25.099  1.00  0.00    -0.032 A 
ATOM     22  C   UNL A   1      33.719  24.967  23.771  1.00  0.00     0.005 A 
ATOM     23  C   UNL A   1      33.384  25.550  26.075  1.00  0.00     0.005 A 
ATOM     24  C   UNL A   1      33.732  26.323  23.430  1.00  0.00     0.000 A 
ATOM     25  C   UNL A   1      33.404  26.907  25.735  1.00  0.00     0.000 A 
ATOM     26  C   UNL A   1      33.567  27.293  24.410  1.00  0.00     0.000 A 
ENDBRANCH   8  21
ENDBRANCH   5   8
ENDBRANCH   3   4
ENDBRANCH   2   3
ENDBRANCH   1   2
BRANCH   1  27
ATOM     27  C   UNL A   1      40.417  23.517  26.843  1.00  0.00     0.002 C 
BRANCH  27  28
ATOM     28  C   UNL A   1      40.708  22.124  26.280  1.00  0.00     0.021 C 
BRANCH  28  29
ATOM     29  C   UNL A   1      42.053  21.549  26.709  1.00  0.00     0.116 C 
BRANCH  29  30
ATOM     30  N   UNL A   1      42.941  21.360  25.573  1.00  0.00    -0.352 N 
ATOM     31  C   UNL A   1      43.751  22.277  24.950  1.00  0.00     0.251 C 
ATOM     32  H   UNL A   1      42.963  20.450  25.198  1.00  0.00     0.163 HD
ATOM     33  O   UNL A   1      44.248  22.017  23.858  1.00  0.00    -0.269 OA
BRANCH  31  34
ATOM     34  C   UNL A   1      43.996  23.582  25.598  1.00  0.00     0.039 A 
ATOM     35  C   UNL A   1      43.639  24.754  24.930  1.00  0.00     0.014 A 
ATOM     36  C   UNL A   1      44.553  23.639  26.880  1.00  0.00     0.014 A 
ATOM     37  C   UNL A   1      43.774  25.983  25.577  1.00  0.00     0.010 A 
ATOM     38  C   UNL A   1      44.619  24.857  27.548  1.00  0.00     0.010 A 
ATOM     39  C   UNL A   1      44.225  26.042  26.906  1.00  0.00    -0.014 A 
BRANCH  39  40
ATOM     40  C   UNL A   1      44.274  27.324  27.653  1.00  0.00     0.031 A 
ATOM     41  C   UNL A   1      43.011  27.915  28.217  1.00  0.00     0.074 A 
ATOM     42  C   UNL A   1      45.440  27.992  27.754  1.00  0.00     0.049 A 
ATOM     43  N   UNL A   1      42.826  29.072  28.796  1.00  0.00    -0.248 NA
ATOM     44  C   UNL A   1      41.790  27.106  28.083  1.00  0.00     0.031 C 
ATOM     45  C   UNL A   1      46.725  27.532  27.222  1.00  0.00     0.029 A 
ATOM     46  N   UNL A   1      45.734  29.207  28.322  1.00  0.00    -0.354 N 
ATOM     47  C   UNL A   1      41.468  29.137  29.088  1.00  0.00     0.074 A 
ATOM     48  C   UNL A   1      40.870  27.926  28.566  1.00  0.00     0.031 C 
ATOM     49  C   UNL A   1      47.670  28.441  27.506  1.00  0.00     0.029 A 
ATOM     50  C   UNL A   1      47.053  29.576  28.187  1.00  0.00     0.049 A 
ATOM     51  H   UNL A   1      45.065  29.761  28.783  1.00  0.00     0.167 HD
ATOM     52  C   UNL A   1      40.789  30.108  29.749  1.00  0.00     0.034 A 
ATOM     53  C   UNL A   1      47.689  30.709  28.546  1.00  0.00     0.034 A 
ATOM     54  C   UNL A   1      41.404  31.306  30.264  1.00  0.00     0.049 A 
ATOM     55  C   UNL A   1      46.900  31.800  29.228  1.00  0.00     0.074 A 
ATOM     56  C   UNL A   1      40.821  32.328  30.995  1.00  0.00     0.029 A 
ATOM     57  N   UNL A   1      42.739  31.653  30.095  1.00  0.00    -0.354 N 
ATOM     58  N   UNL A   1      45.625  31.824  29.541  1.00  0.00    -0.248 NA
ATOM     59  C   UNL A   1      47.637  33.012  29.609  1.00  0.00     0.031 C 
ATOM     60  C   UNL A   1      41.780  33.326  31.196  1.00  0.00     0.029 A 
ATOM     61  C   UNL A   1      42.986  32.892  30.668  1.00  0.00     0.049 A 
ATOM     62  H   UNL A   1      43.412  31.101  29.634  1.00  0.00     0.167 HD
ATOM     63  C   UNL A   1      45.416  33.043  30.181  1.00  0.00     0.074 A 
ATOM     64  C   UNL A   1      46.697  33.715  30.223  1.00  0.00     0.031 C 
ATOM     65  C   UNL A   1      44.268  33.558  30.692  1.00  0.00     0.034 A 
BRANCH  52  66
ATOM     66  C   UNL A   1      39.299  29.923  29.919  1.00  0.00     0.023 A 
ATOM     67  C   UNL A   1      38.372  30.621  29.127  1.00  0.00     0.031 A 
ATOM     68  C   UNL A   1      38.797  29.050  30.901  1.00  0.00     0.131 A 
ATOM     69  C   UNL A   1      36.997  30.493  29.378  1.00  0.00     0.055 A 
ATOM     70  C   UNL A   1      37.426  28.862  31.090  1.00  0.00     0.041 A 
ATOM     71  F   UNL A   1      39.632  28.372  31.705  1.00  0.00    -0.206 F 
ATOM     72  C   UNL A   1      36.517  29.599  30.336  1.00  0.00     0.022 A 
BRANCH  69  73
ATOM     73  S   UNL A   1      35.856  31.626  28.539  1.00  0.00     0.124 S 
ATOM     74  O   UNL A   1      36.724  32.768  28.261  1.00  0.00    -0.237 OA
ATOM     75  O   UNL A   1      35.434  30.848  27.380  1.00  0.00    -0.237 OA
ATOM     76  O   UNL A   1      34.819  31.871  29.539  1.00  0.00    -0.744 OA
ENDBRANCH  69  73
ENDBRANCH  52  66
BRANCH  53  77
ATOM     77  C   UNL A   1      49.139  30.891  28.250  1.00  0.00     0.023 A 
ATOM     78  C   UNL A   1      49.562  31.627  27.132  1.00  0.00     0.031 A 
ATOM     79  C   UNL A   1      50.126  30.293  29.055  1.00  0.00     0.131 A 
ATOM     80  C   UNL A   1      50.929  31.703  26.821  1.00  0.00     0.055 A 
ATOM     81  C   UNL A   1      51.487  30.422  28.775  1.00  0.00     0.041 A 
ATOM     82  F   UNL A   1      49.778  29.579  30.138  1.00  0.00    -0.206 F 
ATOM     83  C   UNL A   1      51.895  31.119  27.643  1.00  0.00     0.022 A 
BRANCH  80  84
ATOM     84  S   UNL A   1      51.421  32.501  25.267  1.00  0.00     0.124 S 
ATOM     85  O   UNL A   1      50.334  33.451  25.065  1.00  0.00    -0.237 OA
ATOM     86  O   UNL A   1      52.717  33.072  25.618  1.00  0.00    -0.237 OA
ATOM     87  O   UNL A   1      51.468  31.392  24.317  1.00  0.00    -0.744 OA
ENDBRANCH  80  84
ENDBRANCH  53  77
BRANCH  65  88
ATOM     88  C   UNL A   1      44.360  34.900  31.377  1.00  0.00     0.023 A 
ATOM     89  C   UNL A   1      44.141  36.103  30.684  1.00  0.00     0.031 A 
ATOM     90  C   UNL A   1      44.670  34.974  32.747  1.00  0.00     0.131 A 
ATOM     91  C   UNL A   1      44.283  37.329  31.350  1.00  0.00     0.055 A 
ATOM     92  C   UNL A   1      44.747  36.194  33.419  1.00  0.00     0.041 A 
ATOM     93  F   UNL A   1      44.894  33.857  33.458  1.00  0.00    -0.206 F 
ATOM     94  C   UNL A   1      44.564  37.382  32.717  1.00  0.00     0.022 A 
BRANCH  91  95
ATOM     95  S   UNL A   1      44.176  38.863  30.387  1.00  0.00     0.124 S 
ATOM     96  O   UNL A   1      45.570  39.084  30.015  1.00  0.00    -0.237 OA
ATOM     97  O   UNL A   1      43.279  38.487  29.299  1.00  0.00    -0.237 OA
ATOM     98  O   UNL A   1      43.626  39.828  31.337  1.00  0.00    -0.744 OA
ENDBRANCH  91  95
ENDBRANCH  65  88
ENDBRANCH  39  40
ENDBRANCH  31  34
ENDBRANCH  29  30
ENDBRANCH  28  29
ENDBRANCH  27  28
ENDBRANCH   1  27
TORSDOF 21
ENDMDL
MODEL 3
REMARK VINA RESULT:      -9.7      1.652      3.573
REMARK SMILES C[NH+](C)Cc1noc(C[C@@](C)(C(=O)NCCCCCCNC(=O)c2ccc(-c3c4nc(c(-c5cc(S(=O)(=O)[O-])ccc5F)c5ccc([nH]5)c(-c5cc(S(=O)(=O)[O-])ccc5F)c5nc(c(-c6cc(S(=O)(=O)[O-])ccc6F)c6ccc3[nH]6)C=C5)C=C4)cc2)c2ccccc2)n1
REMARK SMILES IDX 17 1 16 2 15 3 14 4 12 5 13 6 10 8 11 9 9 10 8 11 5 12 6 13
REMARK SMILES IDX 93 14 7 15 4 16 2 17 1 18 3 19 87 21 88 22 92 23 89 24 91 25
REMARK SMILES IDX 90 26 18 27 19 28 20 29 21 30 22 31 23 33 24 34 25 35 86 36
REMARK SMILES IDX 26 37 85 38 27 39 28 40 29 41 79 42 30 43 84 44 78 45 80 46
REMARK SMILES IDX 31 47 83 48 77 49 76 50 32 52 64 53 44 54 63 55 45 56 48 57
REMARK SMILES IDX 62 58 81 59 46 60 47 61 61 63 82 64 49 65 33 66 34 67 42 68
REMARK SMILES IDX 35 69 41 70 43 71 40 72 36 73 37 74 38 75 39 76 65 77 66 78
REMARK SMILES IDX 74 79 67 80 73 81 75 82 72 83 68 84 69 85 70 86 71 87 50 88
REMARK SMILES IDX 51 89 59 90 52 91 58 92 60 93 57 94 53 95 54 96 55 97 56 98
REMARK H PARENT 14 7 2 20 21 32 80 51 48 62
REMARK Flexibility Score: inf
ROOT
ATOM      1  C   UNL A   1      39.302  22.894  26.567  1.00  0.00     0.002 C 
ENDROOT
BRANCH   1   2
ATOM      2  C   UNL A   1      38.365  22.013  25.732  1.00  0.00     0.021 C 
BRANCH   2   3
ATOM      3  C   UNL A   1      37.057  22.709  25.355  1.00  0.00     0.116 C 
BRANCH   3   4
ATOM      4  N   UNL A   1      36.091  22.580  26.430  1.00  0.00    -0.355 N 
ATOM      5  C   UNL A   1      34.812  23.015  26.595  1.00  0.00     0.230 C 
ATOM      6  O   UNL A   1      34.353  22.845  27.729  1.00  0.00    -0.274 OA
ATOM      7  H   UNL A   1      36.431  22.073  27.201  1.00  0.00     0.163 HD
BRANCH   5   8
ATOM      8  C   UNL A   1      33.977  23.655  25.445  1.00  0.00     0.080 C 
ATOM      9  C   UNL A   1      34.940  24.481  24.549  1.00  0.00     0.027 C 
BRANCH   8  10
ATOM     10  C   UNL A   1      32.898  24.578  26.076  1.00  0.00     0.122 C 
BRANCH  10  11
ATOM     11  C   UNL A   1      32.384  25.625  25.165  1.00  0.00     0.228 A 
ATOM     12  C   UNL A   1      32.017  27.308  23.979  1.00  0.00     0.226 A 
ATOM     13  N   UNL A   1      30.938  26.539  23.767  1.00  0.00    -0.056 NA
ATOM     14  N   UNL A   1      32.947  26.755  24.825  1.00  0.00    -0.190 NA
ATOM     15  O   UNL A   1      31.190  25.407  24.545  1.00  0.00    -0.339 OA
BRANCH  12  16
ATOM     16  C   UNL A   1      32.158  28.665  23.354  1.00  0.00     0.344 C 
BRANCH  16  17
ATOM     17  N   UNL A   1      31.373  29.763  23.966  1.00  0.00    -0.333 N 
ATOM     18  C   UNL A   1      29.961  29.735  23.589  1.00  0.00     0.332 C 
ATOM     19  C   UNL A   1      31.541  29.829  25.415  1.00  0.00     0.332 C 
ATOM     20  H   UNL A   1      31.759  30.624  23.578  1.00  0.00     0.348 HD
ENDBRANCH  16  17
ENDBRANCH  12  16
ENDBRANCH  10  11
ENDBRANCH   8  10
BRANCH   8  21
ATOM     21  C   UNL A   1      33.348  22.499  24.599  1.00  0.00    -0.032 A 
ATOM     22  C   UNL A   1      33.205  21.192  25.107  1.00  0.00     0.005 A 
ATOM     23  C   UNL A   1      32.949  22.709  23.264  1.00  0.00     0.005 A 
ATOM     24  C   UNL A   1      32.632  20.170  24.344  1.00  0.00     0.000 A 
ATOM     25  C   UNL A   1      32.383  21.684  22.499  1.00  0.00     0.000 A 
ATOM     26  C   UNL A   1      32.214  20.417  23.043  1.00  0.00     0.000 A 
ENDBRANCH   8  21
ENDBRANCH   5   8
ENDBRANCH   3   4
ENDBRANCH   2   3
ENDBRANCH   1   2
BRANCH   1  27
ATOM     27  C   UNL A   1      40.636  22.235  26.936  1.00  0.00     0.002 C 
BRANCH  27  28
ATOM     28  C   UNL A   1      40.794  20.793  26.447  1.00  0.00     0.021 C 
BRANCH  28  29
ATOM     29  C   UNL A   1      42.027  20.083  26.993  1.00  0.00     0.116 C 
BRANCH  29  30
ATOM     30  N   UNL A   1      42.847  19.538  25.922  1.00  0.00    -0.352 N 
ATOM     31  C   UNL A   1      43.745  20.185  25.110  1.00  0.00     0.251 C 
ATOM     32  H   UNL A   1      42.745  18.573  25.758  1.00  0.00     0.163 HD
ATOM     33  O   UNL A   1      44.170  19.632  24.100  1.00  0.00    -0.269 OA
BRANCH  31  34
ATOM     34  C   UNL A   1      44.171  21.557  25.453  1.00  0.00     0.039 A 
ATOM     35  C   UNL A   1      43.668  22.632  24.717  1.00  0.00     0.014 A 
ATOM     36  C   UNL A   1      45.046  21.778  26.521  1.00  0.00     0.014 A 
ATOM     37  C   UNL A   1      43.987  23.936  25.099  1.00  0.00     0.010 A 
ATOM     38  C   UNL A   1      45.303  23.078  26.943  1.00  0.00     0.010 A 
ATOM     39  C   UNL A   1      44.772  24.171  26.241  1.00  0.00    -0.014 A 
BRANCH  39  40
ATOM     40  C   UNL A   1      45.034  25.548  26.732  1.00  0.00     0.031 A 
ATOM     41  C   UNL A   1      43.908  26.376  27.286  1.00  0.00     0.074 A 
ATOM     42  C   UNL A   1      46.268  26.076  26.606  1.00  0.00     0.049 A 
ATOM     43  N   UNL A   1      43.908  27.630  27.656  1.00  0.00    -0.248 NA
ATOM     44  C   UNL A   1      42.603  25.711  27.411  1.00  0.00     0.031 C 
ATOM     45  C   UNL A   1      47.434  25.378  26.057  1.00  0.00     0.029 A 
ATOM     46  N   UNL A   1      46.747  27.326  26.913  1.00  0.00    -0.354 N 
ATOM     47  C   UNL A   1      42.604  27.909  28.050  1.00  0.00     0.074 A 
ATOM     48  C   UNL A   1      41.830  26.708  27.813  1.00  0.00     0.031 C 
ATOM     49  C   UNL A   1      48.493  26.200  26.086  1.00  0.00     0.029 A 
ATOM     50  C   UNL A   1      48.074  27.502  26.597  1.00  0.00     0.049 A 
ATOM     51  H   UNL A   1      46.192  28.028  27.321  1.00  0.00     0.167 HD
ATOM     52  C   UNL A   1      42.105  29.055  28.577  1.00  0.00     0.034 A 
ATOM     53  C   UNL A   1      48.860  28.594  26.685  1.00  0.00     0.034 A 
ATOM     54  C   UNL A   1      42.894  30.240  28.807  1.00  0.00     0.049 A 
ATOM     55  C   UNL A   1      48.268  29.875  27.221  1.00  0.00     0.074 A 
ATOM     56  C   UNL A   1      42.503  31.436  29.386  1.00  0.00     0.029 A 
ATOM     57  N   UNL A   1      44.232  30.387  28.461  1.00  0.00    -0.354 N 
ATOM     58  N   UNL A   1      47.043  30.108  27.634  1.00  0.00    -0.248 NA
ATOM     59  C   UNL A   1      49.163  31.035  27.306  1.00  0.00     0.031 C 
ATOM     60  C   UNL A   1      43.577  32.329  29.315  1.00  0.00     0.029 A 
ATOM     61  C   UNL A   1      44.667  31.667  28.773  1.00  0.00     0.049 A 
ATOM     62  H   UNL A   1      44.789  29.687  28.052  1.00  0.00     0.167 HD
ATOM     63  C   UNL A   1      47.032  31.435  28.055  1.00  0.00     0.074 A 
ATOM     64  C   UNL A   1      48.373  31.943  27.861  1.00  0.00     0.031 C 
ATOM     65  C   UNL A   1      46.006  32.167  28.561  1.00  0.00     0.034 A 
BRANCH  52  66
ATOM     66  C   UNL A   1      40.631  29.085  28.908  1.00  0.00     0.023 A 
ATOM     67  C   UNL A   1      40.169  29.025  30.234  1.00  0.00     0.031 A 
ATOM     68  C   UNL A   1      39.673  29.156  27.882  1.00  0.00     0.131 A 
ATOM     69  C   UNL A   1      38.793  28.961  30.495  1.00  0.00     0.055 A 
ATOM     70  C   UNL A   1      38.303  29.178  28.152  1.00  0.00     0.041 A 
ATOM     71  F   UNL A   1      40.050  29.193  26.593  1.00  0.00    -0.206 F 
ATOM     72  C   UNL A   1      37.855  29.063  29.465  1.00  0.00     0.022 A 
BRANCH  69  73
ATOM     73  S   UNL A   1      38.250  28.588  32.185  1.00  0.00     0.124 S 
ATOM     74  O   UNL A   1      38.449  27.141  32.246  1.00  0.00    -0.237 OA
ATOM     75  O   UNL A   1      39.157  29.393  32.993  1.00  0.00    -0.237 OA
ATOM     76  O   UNL A   1      36.852  29.016  32.198  1.00  0.00    -0.744 OA
ENDBRANCH  69  73
ENDBRANCH  52  66
BRANCH  53  77
ATOM     77  C   UNL A   1      50.281  28.544  26.234  1.00  0.00     0.023 A 
ATOM     78  C   UNL A   1      50.620  28.747  24.887  1.00  0.00     0.031 A 
ATOM     79  C   UNL A   1      51.319  28.248  27.136  1.00  0.00     0.131 A 
ATOM     80  C   UNL A   1      51.952  28.601  24.472  1.00  0.00     0.055 A 
ATOM     81  C   UNL A   1      52.651  28.162  26.728  1.00  0.00     0.041 A 
ATOM     82  F   UNL A   1      51.052  28.047  28.437  1.00  0.00    -0.206 F 
ATOM     83  C   UNL A   1      52.973  28.325  25.385  1.00  0.00     0.022 A 
BRANCH  80  84
ATOM     84  S   UNL A   1      52.321  28.683  22.697  1.00  0.00     0.124 S 
ATOM     85  O   UNL A   1      53.768  28.865  22.704  1.00  0.00    -0.237 OA
ATOM     86  O   UNL A   1      51.839  27.388  22.228  1.00  0.00    -0.237 OA
ATOM     87  O   UNL A   1      51.548  29.837  22.243  1.00  0.00    -0.744 OA
ENDBRANCH  80  84
ENDBRANCH  53  77
BRANCH  65  88
ATOM     88  C   UNL A   1      46.311  33.585  28.976  1.00  0.00     0.023 A 
ATOM     89  C   UNL A   1      46.135  34.669  28.099  1.00  0.00     0.031 A 
ATOM     90  C   UNL A   1      46.782  33.855  30.274  1.00  0.00     0.131 A 
ATOM     91  C   UNL A   1      46.475  35.966  28.513  1.00  0.00     0.055 A 
ATOM     92  C   UNL A   1      47.058  35.155  30.701  1.00  0.00     0.041 A 
ATOM     93  F   UNL A   1      46.973  32.858  31.153  1.00  0.00    -0.206 F 
ATOM     94  C   UNL A   1      46.916  36.218  29.814  1.00  0.00     0.022 A 
BRANCH  91  95
ATOM     95  S   UNL A   1      46.413  37.313  27.300  1.00  0.00     0.124 S 
ATOM     96  O   UNL A   1      47.471  38.198  27.777  1.00  0.00    -0.237 OA
ATOM     97  O   UNL A   1      46.683  36.617  26.046  1.00  0.00    -0.237 OA
ATOM     98  O   UNL A   1      45.056  37.837  27.438  1.00  0.00    -0.744 OA
ENDBRANCH  91  95
ENDBRANCH  65  88
ENDBRANCH  39  40
ENDBRANCH  31  34
ENDBRANCH  29  30
ENDBRANCH  28  29
ENDBRANCH  27  28
ENDBRANCH   1  27
TORSDOF 21
ENDMDL
