MODEL 1
REMARK VINA RESULT:     -12.7      0.000      0.000
REMARK SMILES [NH3+]C[C@H]1CC[C@@H](C(=O)Nc2ccc(C(=O)NCCCCCCNC(=O)c3ccc(-c4c5nc(c(-c6cc(S(=O)(=O)[O-])ccc6F)c6ccc([nH]6)c(-c6cc(S(=O)(=O)[O-])ccc6F)c6nc(c(-c7cc(S(=O)(=O)[O-])ccc7F)c7ccc4[nH]7)C=C6)C=C5)cc3)cc2Br)CC1
REMARK SMILES IDX 19 1 18 2 17 3 16 4 14 5 15 6 13 8 10 9 11 10 90 11 12 12
REMARK SMILES IDX 89 13 91 14 9 15 7 16 8 17 6 19 3 20 4 21 93 22 5 23 92 24
REMARK SMILES IDX 2 25 1 26 20 30 21 31 22 32 23 33 24 34 25 36 26 37 27 38
REMARK SMILES IDX 88 39 28 40 87 41 29 42 30 43 31 44 81 45 32 46 86 47 80 48
REMARK SMILES IDX 82 49 33 50 85 51 79 52 78 53 34 55 66 56 46 57 65 58 47 59
REMARK SMILES IDX 50 60 64 61 83 62 48 63 49 64 63 66 84 67 51 68 35 69 36 70
REMARK SMILES IDX 44 71 37 72 43 73 45 74 42 75 38 76 39 77 40 78 41 79 67 80
REMARK SMILES IDX 68 81 76 82 69 83 75 84 77 85 74 86 70 87 71 88 72 89 73 90
REMARK SMILES IDX 52 91 53 92 61 93 54 94 60 95 62 96 59 97 55 98 56 99 57 100
REMARK SMILES IDX 58 101
REMARK H PARENT 16 7 9 18 1 27 1 28 1 29 23 35 82 54 50 65
REMARK Flexibility Score: inf
ROOT
ATOM      1  C   UNL A   1      35.815  20.553  25.081  1.00  0.00     0.002 C 
ENDROOT
BRANCH   1   2
ATOM      2  C   UNL A   1      35.157  21.471  26.109  1.00  0.00     0.021 C 
BRANCH   2   3
ATOM      3  C   UNL A   1      33.705  21.099  26.377  1.00  0.00     0.116 C 
BRANCH   3   4
ATOM      4  N   UNL A   1      33.140  20.376  25.246  1.00  0.00    -0.352 N 
ATOM      5  C   UNL A   1      32.550  20.786  24.077  1.00  0.00     0.251 C 
ATOM      6  O   UNL A   1      32.183  19.949  23.256  1.00  0.00    -0.269 OA
ATOM      7  H   UNL A   1      33.191  19.397  25.340  1.00  0.00     0.163 HD
BRANCH   5   8
ATOM      8  C   UNL A   1      32.498  22.208  23.704  1.00  0.00     0.041 A 
ATOM      9  C   UNL A   1      33.005  25.809  23.619  1.00  0.00     0.055 A 
ATOM     10  C   UNL A   1      34.333  24.693  23.031  1.00  0.00     0.028 A 
ATOM     11  C   UNL A   1      31.426  25.121  24.230  1.00  0.00     0.042 A 
ATOM     12  C   UNL A   1      34.069  22.877  23.049  1.00  0.00     0.016 A 
ATOM     13  C   UNL A   1      31.161  23.316  24.280  1.00  0.00     0.031 A 
ATOM     14  Br  UNL A   1      29.883  26.226  24.352  1.00  0.00    -0.049 Br
BRANCH   9  15
ATOM     15  N   UNL A   1      33.192  27.184  23.490  1.00  0.00    -0.325 N 
ATOM     16  C   UNL A   1      33.254  28.146  24.450  1.00  0.00     0.227 C 
ATOM     17  O   UNL A   1      33.101  29.317  24.079  1.00  0.00    -0.274 OA
ATOM     18  H   UNL A   1      33.293  27.507  22.566  1.00  0.00     0.169 HD
BRANCH  16  19
ATOM     19  C   UNL A   1      33.645  27.871  25.911  1.00  0.00     0.079 C 
ATOM     20  C   UNL A   1      32.399  30.059  27.275  1.00  0.00     0.044 C 
ATOM     21  C   UNL A   1      31.650  28.713  27.255  1.00  0.00     0.010 C 
ATOM     22  C   UNL A   1      33.934  30.004  27.322  1.00  0.00     0.010 C 
ATOM     23  C   UNL A   1      32.478  27.521  26.826  1.00  0.00     0.014 C 
ATOM     24  C   UNL A   1      34.593  28.849  26.582  1.00  0.00     0.014 C 
BRANCH  20  25
ATOM     25  C   UNL A   1      31.619  31.370  26.533  1.00  0.00     0.262 C 
BRANCH  25  26
ATOM     26  N   UNL A   1      30.374  31.779  24.940  1.00  0.00    -0.357 N 
ATOM     27  H   UNL A   1      30.597  32.699  24.561  1.00  0.00     0.344 HD
ATOM     28  H   UNL A   1      29.404  31.767  25.255  1.00  0.00     0.344 HD
ATOM     29  H   UNL A   1      30.506  31.073  24.215  1.00  0.00     0.344 HD
ENDBRANCH  25  26
ENDBRANCH  20  25
ENDBRANCH  16  19
ENDBRANCH   9  15
ENDBRANCH   5   8
ENDBRANCH   3   4
ENDBRANCH   2   3
ENDBRANCH   1   2
BRANCH   1  30
ATOM     30  C   UNL A   1      37.269  20.912  24.751  1.00  0.00     0.002 C 
BRANCH  30  31
ATOM     31  C   UNL A   1      38.293  19.814  25.052  1.00  0.00     0.021 C 
BRANCH  31  32
ATOM     32  C   UNL A   1      39.347  20.201  26.083  1.00  0.00     0.116 C 
BRANCH  32  33
ATOM     33  N   UNL A   1      40.505  19.323  26.024  1.00  0.00    -0.352 N 
ATOM     34  C   UNL A   1      41.837  19.650  26.046  1.00  0.00     0.251 C 
ATOM     35  H   UNL A   1      40.306  18.361  25.958  1.00  0.00     0.163 HD
ATOM     36  O   UNL A   1      42.683  18.810  25.756  1.00  0.00    -0.269 OA
BRANCH  34  37
ATOM     37  C   UNL A   1      42.235  21.026  26.406  1.00  0.00     0.039 A 
ATOM     38  C   UNL A   1      42.525  21.326  27.738  1.00  0.00     0.014 A 
ATOM     39  C   UNL A   1      42.334  22.011  25.419  1.00  0.00     0.014 A 
ATOM     40  C   UNL A   1      42.973  22.605  28.073  1.00  0.00     0.010 A 
ATOM     41  C   UNL A   1      42.848  23.262  25.743  1.00  0.00     0.010 A 
ATOM     42  C   UNL A   1      43.169  23.572  27.074  1.00  0.00    -0.014 A 
BRANCH  42  43
ATOM     43  C   UNL A   1      43.699  24.924  27.392  1.00  0.00     0.031 A 
ATOM     44  C   UNL A   1      42.773  25.980  27.930  1.00  0.00     0.074 A 
ATOM     45  C   UNL A   1      44.984  25.219  27.120  1.00  0.00     0.049 A 
ATOM     46  N   UNL A   1      43.002  27.247  28.154  1.00  0.00    -0.248 NA
ATOM     47  C   UNL A   1      41.394  25.556  28.219  1.00  0.00     0.031 C 
ATOM     48  C   UNL A   1      45.967  24.286  26.565  1.00  0.00     0.029 A 
ATOM     49  N   UNL A   1      45.683  26.392  27.256  1.00  0.00    -0.354 N 
ATOM     50  C   UNL A   1      41.794  27.779  28.593  1.00  0.00     0.074 A 
ATOM     51  C   UNL A   1      40.823  26.706  28.541  1.00  0.00     0.031 C 
ATOM     52  C   UNL A   1      47.143  24.917  26.424  1.00  0.00     0.029 A 
ATOM     53  C   UNL A   1      46.988  26.312  26.828  1.00  0.00     0.049 A 
ATOM     54  H   UNL A   1      45.287  27.215  27.625  1.00  0.00     0.167 HD
ATOM     55  C   UNL A   1      41.526  29.038  29.018  1.00  0.00     0.034 A 
ATOM     56  C   UNL A   1      47.945  27.258  26.751  1.00  0.00     0.034 A 
ATOM     57  C   UNL A   1      42.513  30.089  29.071  1.00  0.00     0.049 A 
ATOM     58  C   UNL A   1      47.619  28.659  27.205  1.00  0.00     0.074 A 
ATOM     59  C   UNL A   1      42.369  31.385  29.534  1.00  0.00     0.029 A 
ATOM     60  N   UNL A   1      43.829  29.968  28.639  1.00  0.00    -0.354 N 
ATOM     61  N   UNL A   1      46.483  29.137  27.658  1.00  0.00    -0.248 NA
ATOM     62  C   UNL A   1      48.707  29.642  27.145  1.00  0.00     0.031 C 
ATOM     63  C   UNL A   1      43.572  32.067  29.315  1.00  0.00     0.029 A 
ATOM     64  C   UNL A   1      44.495  31.174  28.794  1.00  0.00     0.049 A 
ATOM     65  H   UNL A   1      44.229  29.146  28.274  1.00  0.00     0.167 HD
ATOM     66  C   UNL A   1      46.731  30.471  27.971  1.00  0.00     0.074 A 
ATOM     67  C   UNL A   1      48.126  30.716  27.663  1.00  0.00     0.031 C 
ATOM     68  C   UNL A   1      45.886  31.406  28.475  1.00  0.00     0.034 A 
BRANCH  55  69
ATOM     69  C   UNL A   1      40.103  29.346  29.426  1.00  0.00     0.023 A 
ATOM     70  C   UNL A   1      39.735  29.494  30.774  1.00  0.00     0.031 A 
ATOM     71  C   UNL A   1      39.091  29.456  28.455  1.00  0.00     0.131 A 
ATOM     72  C   UNL A   1      38.384  29.653  31.120  1.00  0.00     0.055 A 
ATOM     73  C   UNL A   1      37.762  29.705  28.801  1.00  0.00     0.041 A 
ATOM     74  F   UNL A   1      39.374  29.303  27.151  1.00  0.00    -0.206 F 
ATOM     75  C   UNL A   1      37.398  29.787  30.141  1.00  0.00     0.022 A 
BRANCH  72  76
ATOM     76  S   UNL A   1      37.918  29.517  32.868  1.00  0.00     0.124 S 
ATOM     77  O   UNL A   1      39.178  29.839  33.534  1.00  0.00    -0.237 OA
ATOM     78  O   UNL A   1      36.859  30.511  32.991  1.00  0.00    -0.237 OA
ATOM     79  O   UNL A   1      37.490  28.126  33.002  1.00  0.00    -0.744 OA
ENDBRANCH  72  76
ENDBRANCH  55  69
BRANCH  56  80
ATOM     80  C   UNL A   1      49.294  26.921  26.215  1.00  0.00     0.023 A 
ATOM     81  C   UNL A   1      49.705  27.378  24.953  1.00  0.00     0.031 A 
ATOM     82  C   UNL A   1      50.183  26.111  26.945  1.00  0.00     0.131 A 
ATOM     83  C   UNL A   1      50.952  26.987  24.439  1.00  0.00     0.055 A 
ATOM     84  C   UNL A   1      51.444  25.769  26.453  1.00  0.00     0.041 A 
ATOM     85  F   UNL A   1      49.842  25.653  28.160  1.00  0.00    -0.206 F 
ATOM     86  C   UNL A   1      51.830  26.197  25.186  1.00  0.00     0.022 A 
BRANCH  83  87
ATOM     87  S   UNL A   1      51.381  27.464  22.743  1.00  0.00     0.124 S 
ATOM     88  O   UNL A   1      51.188  28.909  22.783  1.00  0.00    -0.237 OA
ATOM     89  O   UNL A   1      52.761  27.002  22.639  1.00  0.00    -0.237 OA
ATOM     90  O   UNL A   1      50.416  26.726  21.929  1.00  0.00    -0.744 OA
ENDBRANCH  83  87
ENDBRANCH  56  80
BRANCH  68  91
ATOM     91  C   UNL A   1      46.466  32.767  28.777  1.00  0.00     0.023 A 
ATOM     92  C   UNL A   1      46.467  33.804  27.828  1.00  0.00     0.031 A 
ATOM     93  C   UNL A   1      47.032  33.024  30.039  1.00  0.00     0.131 A 
ATOM     94  C   UNL A   1      47.069  35.033  28.138  1.00  0.00     0.055 A 
ATOM     95  C   UNL A   1      47.572  34.269  30.363  1.00  0.00     0.041 A 
ATOM     96  F   UNL A   1      47.062  32.070  30.983  1.00  0.00    -0.206 F 
ATOM     97  C   UNL A   1      47.606  35.278  29.405  1.00  0.00     0.022 A 
BRANCH  94  98
ATOM     98  S   UNL A   1      47.227  36.280  26.830  1.00  0.00     0.124 S 
ATOM     99  O   UNL A   1      48.364  35.777  26.067  1.00  0.00    -0.237 OA
ATOM    100  O   UNL A   1      45.929  36.203  26.168  1.00  0.00    -0.237 OA
ATOM    101  O   UNL A   1      47.473  37.519  27.566  1.00  0.00    -0.744 OA
ENDBRANCH  94  98
ENDBRANCH  68  91
ENDBRANCH  42  43
ENDBRANCH  34  37
ENDBRANCH  32  33
ENDBRANCH  31  32
ENDBRANCH  30  31
ENDBRANCH   1  30
TORSDOF 20
ENDMDL
MODEL 2
REMARK VINA RESULT:     -12.0      1.728      2.221
REMARK SMILES [NH3+]C[C@H]1CC[C@@H](C(=O)Nc2ccc(C(=O)NCCCCCCNC(=O)c3ccc(-c4c5nc(c(-c6cc(S(=O)(=O)[O-])ccc6F)c6ccc([nH]6)c(-c6cc(S(=O)(=O)[O-])ccc6F)c6nc(c(-c7cc(S(=O)(=O)[O-])ccc7F)c7ccc4[nH]7)C=C6)C=C5)cc3)cc2Br)CC1
REMARK SMILES IDX 19 1 18 2 17 3 16 4 14 5 15 6 13 8 10 9 11 10 90 11 12 12
REMARK SMILES IDX 89 13 91 14 9 15 7 16 8 17 6 19 3 20 4 21 93 22 5 23 92 24
REMARK SMILES IDX 2 25 1 26 20 30 21 31 22 32 23 33 24 34 25 36 26 37 27 38
REMARK SMILES IDX 88 39 28 40 87 41 29 42 30 43 31 44 81 45 32 46 86 47 80 48
REMARK SMILES IDX 82 49 33 50 85 51 79 52 78 53 34 55 66 56 46 57 65 58 47 59
REMARK SMILES IDX 50 60 64 61 83 62 48 63 49 64 63 66 84 67 51 68 35 69 36 70
REMARK SMILES IDX 44 71 37 72 43 73 45 74 42 75 38 76 39 77 40 78 41 79 67 80
REMARK SMILES IDX 68 81 76 82 69 83 75 84 77 85 74 86 70 87 71 88 72 89 73 90
REMARK SMILES IDX 52 91 53 92 61 93 54 94 60 95 62 96 59 97 55 98 56 99 57 100
REMARK SMILES IDX 58 101
REMARK H PARENT 16 7 9 18 1 27 1 28 1 29 23 35 82 54 50 65
REMARK Flexibility Score: inf
ROOT
ATOM      1  C   UNL A   1      35.534  22.402  25.195  1.00  0.00     0.002 C 
ENDROOT
BRANCH   1   2
ATOM      2  C   UNL A   1      35.611  22.025  26.674  1.00  0.00     0.021 C 
BRANCH   2   3
ATOM      3  C   UNL A   1      34.244  21.704  27.264  1.00  0.00     0.116 C 
BRANCH   3   4
ATOM      4  N   UNL A   1      33.725  20.457  26.721  1.00  0.00    -0.352 N 
ATOM      5  C   UNL A   1      32.741  20.175  25.806  1.00  0.00     0.251 C 
ATOM      6  O   UNL A   1      32.522  19.008  25.490  1.00  0.00    -0.269 OA
ATOM      7  H   UNL A   1      34.170  19.655  27.081  1.00  0.00     0.163 HD
BRANCH   5   8
ATOM      8  C   UNL A   1      32.053  21.246  25.069  1.00  0.00     0.041 A 
ATOM      9  C   UNL A   1      31.332  24.279  23.196  1.00  0.00     0.055 A 
ATOM     10  C   UNL A   1      32.112  22.855  22.348  1.00  0.00     0.028 A 
ATOM     11  C   UNL A   1      30.900  24.174  24.968  1.00  0.00     0.042 A 
ATOM     12  C   UNL A   1      32.454  21.314  23.286  1.00  0.00     0.016 A 
ATOM     13  C   UNL A   1      31.259  22.658  25.920  1.00  0.00     0.031 A 
ATOM     14  Br  UNL A   1      29.655  25.395  25.726  1.00  0.00    -0.049 Br
BRANCH   9  15
ATOM     15  N   UNL A   1      30.984  25.392  22.433  1.00  0.00    -0.325 N 
ATOM     16  C   UNL A   1      31.658  26.559  22.241  1.00  0.00     0.227 C 
ATOM     17  O   UNL A   1      31.008  27.513  21.794  1.00  0.00    -0.274 OA
ATOM     18  H   UNL A   1      30.122  25.325  21.963  1.00  0.00     0.169 HD
BRANCH  16  19
ATOM     19  C   UNL A   1      33.179  26.703  22.407  1.00  0.00     0.079 C 
ATOM     20  C   UNL A   1      33.359  28.518  24.616  1.00  0.00     0.044 C 
ATOM     21  C   UNL A   1      33.501  27.013  24.917  1.00  0.00     0.010 C 
ATOM     22  C   UNL A   1      33.909  29.016  23.270  1.00  0.00     0.010 C 
ATOM     23  C   UNL A   1      33.734  26.134  23.708  1.00  0.00     0.014 C 
ATOM     24  C   UNL A   1      33.797  28.055  22.096  1.00  0.00     0.014 C 
BRANCH  20  25
ATOM     25  C   UNL A   1      32.053  29.316  25.347  1.00  0.00     0.262 C 
BRANCH  25  26
ATOM     26  N   UNL A   1      31.614  31.091  26.302  1.00  0.00    -0.357 N 
ATOM     27  H   UNL A   1      31.324  30.899  27.261  1.00  0.00     0.344 HD
ATOM     28  H   UNL A   1      30.858  31.566  25.807  1.00  0.00     0.344 HD
ATOM     29  H   UNL A   1      32.442  31.687  26.310  1.00  0.00     0.344 HD
ENDBRANCH  25  26
ENDBRANCH  20  25
ENDBRANCH  16  19
ENDBRANCH   9  15
ENDBRANCH   5   8
ENDBRANCH   3   4
ENDBRANCH   2   3
ENDBRANCH   1   2
BRANCH   1  30
ATOM     30  C   UNL A   1      36.386  21.522  24.273  1.00  0.00     0.002 C 
BRANCH  30  31
ATOM     31  C   UNL A   1      37.234  20.465  24.987  1.00  0.00     0.021 C 
BRANCH  31  32
ATOM     32  C   UNL A   1      38.608  20.955  25.430  1.00  0.00     0.116 C 
BRANCH  32  33
ATOM     33  N   UNL A   1      39.491  19.849  25.766  1.00  0.00    -0.352 N 
ATOM     34  C   UNL A   1      40.813  19.881  26.130  1.00  0.00     0.251 C 
ATOM     35  H   UNL A   1      39.083  18.953  25.726  1.00  0.00     0.163 HD
ATOM     36  O   UNL A   1      41.470  18.844  26.155  1.00  0.00    -0.269 OA
BRANCH  34  37
ATOM     37  C   UNL A   1      41.435  21.175  26.472  1.00  0.00     0.039 A 
ATOM     38  C   UNL A   1      41.957  21.972  25.451  1.00  0.00     0.014 A 
ATOM     39  C   UNL A   1      41.485  21.603  27.802  1.00  0.00     0.014 A 
ATOM     40  C   UNL A   1      42.480  23.230  25.760  1.00  0.00     0.010 A 
ATOM     41  C   UNL A   1      41.940  22.883  28.097  1.00  0.00     0.010 A 
ATOM     42  C   UNL A   1      42.445  23.708  27.080  1.00  0.00    -0.014 A 
BRANCH  42  43
ATOM     43  C   UNL A   1      42.941  25.064  27.429  1.00  0.00     0.031 A 
ATOM     44  C   UNL A   1      42.010  26.056  28.069  1.00  0.00     0.074 A 
ATOM     45  C   UNL A   1      44.195  25.424  27.093  1.00  0.00     0.049 A 
ATOM     46  N   UNL A   1      42.204  27.321  28.338  1.00  0.00    -0.248 NA
ATOM     47  C   UNL A   1      40.669  25.564  28.421  1.00  0.00     0.031 C 
ATOM     48  C   UNL A   1      45.177  24.558  26.438  1.00  0.00     0.029 A 
ATOM     49  N   UNL A   1      44.855  26.619  27.242  1.00  0.00    -0.354 N 
ATOM     50  C   UNL A   1      41.005  27.782  28.873  1.00  0.00     0.074 A 
ATOM     51  C   UNL A   1      40.075  26.673  28.829  1.00  0.00     0.031 C 
ATOM     52  C   UNL A   1      46.317  25.244  26.256  1.00  0.00     0.029 A 
ATOM     53  C   UNL A   1      46.132  26.611  26.733  1.00  0.00     0.049 A 
ATOM     54  H   UNL A   1      44.451  27.407  27.672  1.00  0.00     0.167 HD
ATOM     55  C   UNL A   1      40.715  29.009  29.372  1.00  0.00     0.034 A 
ATOM     56  C   UNL A   1      47.046  27.599  26.643  1.00  0.00     0.034 A 
ATOM     57  C   UNL A   1      41.662  30.097  29.414  1.00  0.00     0.049 A 
ATOM     58  C   UNL A   1      46.694  28.964  27.180  1.00  0.00     0.074 A 
ATOM     59  C   UNL A   1      41.497  31.364  29.945  1.00  0.00     0.029 A 
ATOM     60  N   UNL A   1      42.953  30.050  28.899  1.00  0.00    -0.354 N 
ATOM     61  N   UNL A   1      45.571  29.374  27.723  1.00  0.00    -0.248 NA
ATOM     62  C   UNL A   1      47.738  29.993  27.102  1.00  0.00     0.031 C 
ATOM     63  C   UNL A   1      42.656  32.104  29.686  1.00  0.00     0.029 A 
ATOM     64  C   UNL A   1      43.580  31.275  29.070  1.00  0.00     0.049 A 
ATOM     65  H   UNL A   1      43.361  29.262  28.473  1.00  0.00     0.167 HD
ATOM     66  C   UNL A   1      45.787  30.702  28.083  1.00  0.00     0.074 A 
ATOM     67  C   UNL A   1      47.149  31.018  27.703  1.00  0.00     0.031 C 
ATOM     68  C   UNL A   1      44.938  31.578  28.679  1.00  0.00     0.034 A 
BRANCH  55  69
ATOM     69  C   UNL A   1      39.310  29.240  29.878  1.00  0.00     0.023 A 
ATOM     70  C   UNL A   1      38.360  29.954  29.127  1.00  0.00     0.031 A 
ATOM     71  C   UNL A   1      38.923  28.772  31.147  1.00  0.00     0.131 A 
ATOM     72  C   UNL A   1      37.108  30.257  29.684  1.00  0.00     0.055 A 
ATOM     73  C   UNL A   1      37.644  28.998  31.658  1.00  0.00     0.041 A 
ATOM     74  F   UNL A   1      39.790  28.102  31.922  1.00  0.00    -0.206 F 
ATOM     75  C   UNL A   1      36.733  29.760  30.933  1.00  0.00     0.022 A 
BRANCH  72  76
ATOM     76  S   UNL A   1      36.042  31.444  28.820  1.00  0.00     0.124 S 
ATOM     77  O   UNL A   1      35.038  31.735  29.840  1.00  0.00    -0.237 OA
ATOM     78  O   UNL A   1      36.965  32.527  28.505  1.00  0.00    -0.237 OA
ATOM     79  O   UNL A   1      35.550  30.688  27.670  1.00  0.00    -0.744 OA
ENDBRANCH  72  76
ENDBRANCH  55  69
BRANCH  56  80
ATOM     80  C   UNL A   1      48.371  27.343  26.012  1.00  0.00     0.023 A 
ATOM     81  C   UNL A   1      48.559  27.510  24.631  1.00  0.00     0.031 A 
ATOM     82  C   UNL A   1      49.464  26.897  26.777  1.00  0.00     0.131 A 
ATOM     83  C   UNL A   1      49.797  27.193  24.049  1.00  0.00     0.055 A 
ATOM     84  C   UNL A   1      50.709  26.633  26.203  1.00  0.00     0.041 A 
ATOM     85  F   UNL A   1      49.341  26.726  28.103  1.00  0.00    -0.206 F 
ATOM     86  C   UNL A   1      50.877  26.768  24.827  1.00  0.00     0.022 A 
BRANCH  83  87
ATOM     87  S   UNL A   1      49.954  27.268  22.244  1.00  0.00     0.124 S 
ATOM     88  O   UNL A   1      48.934  26.316  21.818  1.00  0.00    -0.237 OA
ATOM     89  O   UNL A   1      49.672  28.674  21.975  1.00  0.00    -0.237 OA
ATOM     90  O   UNL A   1      51.335  26.854  22.005  1.00  0.00    -0.744 OA
ENDBRANCH  83  87
ENDBRANCH  56  80
BRANCH  68  91
ATOM     91  C   UNL A   1      45.483  32.947  29.008  1.00  0.00     0.023 A 
ATOM     92  C   UNL A   1      45.361  34.031  28.123  1.00  0.00     0.031 A 
ATOM     93  C   UNL A   1      46.139  33.165  30.233  1.00  0.00     0.131 A 
ATOM     94  C   UNL A   1      45.933  35.269  28.451  1.00  0.00     0.055 A 
ATOM     95  C   UNL A   1      46.651  34.415  30.582  1.00  0.00     0.041 A 
ATOM     96  F   UNL A   1      46.288  32.165  31.118  1.00  0.00    -0.206 F 
ATOM     97  C   UNL A   1      46.562  35.473  29.682  1.00  0.00     0.022 A 
BRANCH  94  98
ATOM     98  S   UNL A   1      45.929  36.589  27.206  1.00  0.00     0.124 S 
ATOM     99  O   UNL A   1      46.552  35.930  26.063  1.00  0.00    -0.237 OA
ATOM    100  O   UNL A   1      44.507  36.888  27.074  1.00  0.00    -0.237 OA
ATOM    101  O   UNL A   1      46.728  37.645  27.824  1.00  0.00    -0.744 OA
ENDBRANCH  94  98
ENDBRANCH  68  91
ENDBRANCH  42  43
ENDBRANCH  34  37
ENDBRANCH  32  33
ENDBRANCH  31  32
ENDBRANCH  30  31
ENDBRANCH   1  30
TORSDOF 20
ENDMDL
MODEL 3
REMARK VINA RESULT:     -11.9      5.981     10.875
REMARK SMILES [NH3+]C[C@H]1CC[C@@H](C(=O)Nc2ccc(C(=O)NCCCCCCNC(=O)c3ccc(-c4c5nc(c(-c6cc(S(=O)(=O)[O-])ccc6F)c6ccc([nH]6)c(-c6cc(S(=O)(=O)[O-])ccc6F)c6nc(c(-c7cc(S(=O)(=O)[O-])ccc7F)c7ccc4[nH]7)C=C6)C=C5)cc3)cc2Br)CC1
REMARK SMILES IDX 19 1 18 2 17 3 16 4 14 5 15 6 13 8 10 9 11 10 90 11 12 12
REMARK SMILES IDX 89 13 91 14 9 15 7 16 8 17 6 19 3 20 4 21 93 22 5 23 92 24
REMARK SMILES IDX 2 25 1 26 20 30 21 31 22 32 23 33 24 34 25 36 26 37 27 38
REMARK SMILES IDX 88 39 28 40 87 41 29 42 30 43 31 44 81 45 32 46 86 47 80 48
REMARK SMILES IDX 82 49 33 50 85 51 79 52 78 53 34 55 66 56 46 57 65 58 47 59
REMARK SMILES IDX 50 60 64 61 83 62 48 63 49 64 63 66 84 67 51 68 35 69 36 70
REMARK SMILES IDX 44 71 37 72 43 73 45 74 42 75 38 76 39 77 40 78 41 79 67 80
REMARK SMILES IDX 68 81 76 82 69 83 75 84 77 85 74 86 70 87 71 88 72 89 73 90
REMARK SMILES IDX 52 91 53 92 61 93 54 94 60 95 62 96 59 97 55 98 56 99 57 100
REMARK SMILES IDX 58 101
REMARK H PARENT 16 7 9 18 1 27 1 28 1 29 23 35 82 54 50 65
REMARK Flexibility Score: inf
ROOT
ATOM      1  C   UNL A   1      35.741  32.420  27.857  1.00  0.00     0.002 C 
ENDROOT
BRANCH   1   2
ATOM      2  C   UNL A   1      35.562  30.967  28.294  1.00  0.00     0.021 C 
BRANCH   2   3
ATOM      3  C   UNL A   1      34.513  30.236  27.466  1.00  0.00     0.116 C 
BRANCH   3   4
ATOM      4  N   UNL A   1      33.339  31.074  27.263  1.00  0.00    -0.352 N 
ATOM      5  C   UNL A   1      32.133  30.856  26.645  1.00  0.00     0.251 C 
ATOM      6  O   UNL A   1      31.281  31.741  26.646  1.00  0.00    -0.269 OA
ATOM      7  H   UNL A   1      33.428  31.977  27.646  1.00  0.00     0.163 HD
BRANCH   5   8
ATOM      8  C   UNL A   1      31.769  29.529  26.124  1.00  0.00     0.041 A 
ATOM      9  C   UNL A   1      31.805  25.998  25.253  1.00  0.00     0.055 A 
ATOM     10  C   UNL A   1      31.448  26.502  26.977  1.00  0.00     0.028 A 
ATOM     11  C   UNL A   1      32.125  27.260  23.971  1.00  0.00     0.042 A 
ATOM     12  C   UNL A   1      31.404  28.284  27.413  1.00  0.00     0.016 A 
ATOM     13  C   UNL A   1      32.112  29.035  24.396  1.00  0.00     0.031 A 
ATOM     14  Br  UNL A   1      31.984  26.812  22.128  1.00  0.00    -0.049 Br
BRANCH   9  15
ATOM     15  N   UNL A   1      31.722  24.645  24.929  1.00  0.00    -0.325 N 
ATOM     16  C   UNL A   1      32.715  23.751  24.671  1.00  0.00     0.227 C 
ATOM     17  O   UNL A   1      32.389  22.704  24.096  1.00  0.00    -0.274 OA
ATOM     18  H   UNL A   1      30.809  24.282  24.879  1.00  0.00     0.169 HD
BRANCH  16  19
ATOM     19  C   UNL A   1      34.157  23.907  25.179  1.00  0.00     0.079 C 
ATOM     20  C   UNL A   1      35.003  21.179  25.391  1.00  0.00     0.044 C 
ATOM     21  C   UNL A   1      35.402  21.951  24.119  1.00  0.00     0.010 C 
ATOM     22  C   UNL A   1      34.929  21.979  26.701  1.00  0.00     0.010 C 
ATOM     23  C   UNL A   1      35.231  23.452  24.197  1.00  0.00     0.014 C 
ATOM     24  C   UNL A   1      34.464  23.423  26.586  1.00  0.00     0.014 C 
BRANCH  20  25
ATOM     25  C   UNL A   1      34.014  19.818  25.172  1.00  0.00     0.262 C 
BRANCH  25  26
ATOM     26  N   UNL A   1      32.822  18.533  26.260  1.00  0.00    -0.357 N 
ATOM     27  H   UNL A   1      32.183  19.073  26.843  1.00  0.00     0.344 HD
ATOM     28  H   UNL A   1      33.409  17.945  26.853  1.00  0.00     0.344 HD
ATOM     29  H   UNL A   1      32.286  17.945  25.623  1.00  0.00     0.344 HD
ENDBRANCH  25  26
ENDBRANCH  20  25
ENDBRANCH  16  19
ENDBRANCH   9  15
ENDBRANCH   5   8
ENDBRANCH   3   4
ENDBRANCH   2   3
ENDBRANCH   1   2
BRANCH   1  30
ATOM     30  C   UNL A   1      35.703  33.434  29.007  1.00  0.00     0.002 C 
BRANCH  30  31
ATOM     31  C   UNL A   1      34.745  34.611  28.802  1.00  0.00     0.021 C 
BRANCH  31  32
ATOM     32  C   UNL A   1      33.310  34.339  29.239  1.00  0.00     0.116 C 
BRANCH  32  33
ATOM     33  N   UNL A   1      32.840  35.332  30.192  1.00  0.00    -0.352 N 
ATOM     34  C   UNL A   1      33.172  35.482  31.515  1.00  0.00     0.251 C 
ATOM     35  H   UNL A   1      32.195  35.986  29.839  1.00  0.00     0.163 HD
ATOM     36  O   UNL A   1      32.512  36.226  32.234  1.00  0.00    -0.269 OA
BRANCH  34  37
ATOM     37  C   UNL A   1      34.316  34.726  32.061  1.00  0.00     0.039 A 
ATOM     38  C   UNL A   1      34.128  33.405  32.471  1.00  0.00     0.014 A 
ATOM     39  C   UNL A   1      35.577  35.323  32.151  1.00  0.00     0.014 A 
ATOM     40  C   UNL A   1      35.221  32.661  32.919  1.00  0.00     0.010 A 
ATOM     41  C   UNL A   1      36.676  34.561  32.529  1.00  0.00     0.010 A 
ATOM     42  C   UNL A   1      36.508  33.223  32.920  1.00  0.00    -0.014 A 
BRANCH  42  43
ATOM     43  C   UNL A   1      37.699  32.438  33.337  1.00  0.00     0.031 A 
ATOM     44  C   UNL A   1      38.403  32.776  34.622  1.00  0.00     0.074 A 
ATOM     45  C   UNL A   1      38.189  31.484  32.521  1.00  0.00     0.049 A 
ATOM     46  N   UNL A   1      39.522  32.302  35.103  1.00  0.00    -0.248 NA
ATOM     47  C   UNL A   1      37.779  33.814  35.457  1.00  0.00     0.031 C 
ATOM     48  C   UNL A   1      37.611  31.092  31.234  1.00  0.00     0.029 A 
ATOM     49  N   UNL A   1      39.296  30.681  32.645  1.00  0.00    -0.354 N 
ATOM     50  C   UNL A   1      39.748  32.995  36.288  1.00  0.00     0.074 A 
ATOM     51  C   UNL A   1      38.679  33.965  36.414  1.00  0.00     0.031 C 
ATOM     52  C   UNL A   1      38.357  30.114  30.696  1.00  0.00     0.029 A 
ATOM     53  C   UNL A   1      39.494  29.845  31.571  1.00  0.00     0.049 A 
ATOM     54  H   UNL A   1      39.892  30.702  33.428  1.00  0.00     0.167 HD
ATOM     55  C   UNL A   1      40.741  32.825  37.195  1.00  0.00     0.034 A 
ATOM     56  C   UNL A   1      40.489  28.973  31.311  1.00  0.00     0.034 A 
ATOM     57  C   UNL A   1      41.790  31.844  37.054  1.00  0.00     0.049 A 
ATOM     58  C   UNL A   1      41.599  28.817  32.321  1.00  0.00     0.074 A 
ATOM     59  C   UNL A   1      42.816  31.545  37.933  1.00  0.00     0.029 A 
ATOM     60  N   UNL A   1      41.954  31.005  35.956  1.00  0.00    -0.354 N 
ATOM     61  N   UNL A   1      41.777  29.449  33.458  1.00  0.00    -0.248 NA
ATOM     62  C   UNL A   1      42.635  27.822  32.015  1.00  0.00     0.031 C 
ATOM     63  C   UNL A   1      43.639  30.581  37.338  1.00  0.00     0.029 A 
ATOM     64  C   UNL A   1      43.081  30.215  36.124  1.00  0.00     0.049 A 
ATOM     65  H   UNL A   1      41.357  30.978  35.174  1.00  0.00     0.167 HD
ATOM     66  C   UNL A   1      42.928  28.902  34.020  1.00  0.00     0.074 A 
ATOM     67  C   UNL A   1      43.394  27.884  33.100  1.00  0.00     0.031 C 
ATOM     68  C   UNL A   1      43.539  29.207  35.193  1.00  0.00     0.034 A 
BRANCH  55  69
ATOM     69  C   UNL A   1      40.751  33.741  38.397  1.00  0.00     0.023 A 
ATOM     70  C   UNL A   1      39.942  33.496  39.520  1.00  0.00     0.031 A 
ATOM     71  C   UNL A   1      41.551  34.898  38.405  1.00  0.00     0.131 A 
ATOM     72  C   UNL A   1      39.883  34.436  40.561  1.00  0.00     0.055 A 
ATOM     73  C   UNL A   1      41.556  35.783  39.486  1.00  0.00     0.041 A 
ATOM     74  F   UNL A   1      42.329  35.199  37.354  1.00  0.00    -0.206 F 
ATOM     75  C   UNL A   1      40.705  35.564  40.565  1.00  0.00     0.022 A 
BRANCH  72  76
ATOM     76  S   UNL A   1      38.599  34.243  41.828  1.00  0.00     0.124 S 
ATOM     77  O   UNL A   1      39.308  33.479  42.852  1.00  0.00    -0.237 OA
ATOM     78  O   UNL A   1      38.280  35.624  42.168  1.00  0.00    -0.237 OA
ATOM     79  O   UNL A   1      37.542  33.509  41.135  1.00  0.00    -0.744 OA
ENDBRANCH  72  76
ENDBRANCH  55  69
BRANCH  56  80
ATOM     80  C   UNL A   1      40.493  28.191  30.042  1.00  0.00     0.023 A 
ATOM     81  C   UNL A   1      41.404  28.484  29.015  1.00  0.00     0.031 A 
ATOM     82  C   UNL A   1      39.564  27.158  29.826  1.00  0.00     0.131 A 
ATOM     83  C   UNL A   1      41.339  27.781  27.801  1.00  0.00     0.055 A 
ATOM     84  C   UNL A   1      39.537  26.426  28.637  1.00  0.00     0.041 A 
ATOM     85  F   UNL A   1      38.674  26.833  30.778  1.00  0.00    -0.206 F 
ATOM     86  C   UNL A   1      40.421  26.745  27.610  1.00  0.00     0.022 A 
BRANCH  83  87
ATOM     87  S   UNL A   1      42.425  28.294  26.442  1.00  0.00     0.124 S 
ATOM     88  O   UNL A   1      41.736  27.734  25.285  1.00  0.00    -0.237 OA
ATOM     89  O   UNL A   1      42.396  29.748  26.565  1.00  0.00    -0.237 OA
ATOM     90  O   UNL A   1      43.703  27.667  26.773  1.00  0.00    -0.744 OA
ENDBRANCH  83  87
ENDBRANCH  56  80
BRANCH  68  91
ATOM     91  C   UNL A   1      44.749  28.389  35.572  1.00  0.00     0.023 A 
ATOM     92  C   UNL A   1      44.640  27.183  36.286  1.00  0.00     0.031 A 
ATOM     93  C   UNL A   1      46.035  28.830  35.212  1.00  0.00     0.131 A 
ATOM     94  C   UNL A   1      45.799  26.488  36.664  1.00  0.00     0.055 A 
ATOM     95  C   UNL A   1      47.180  28.102  35.534  1.00  0.00     0.041 A 
ATOM     96  F   UNL A   1      46.200  29.976  34.532  1.00  0.00    -0.206 F 
ATOM     97  C   UNL A   1      47.067  26.930  36.277  1.00  0.00     0.022 A 
BRANCH  94  98
ATOM     98  S   UNL A   1      45.635  25.044  37.750  1.00  0.00     0.124 S 
ATOM     99  O   UNL A   1      45.064  24.050  36.848  1.00  0.00    -0.237 OA
ATOM    100  O   UNL A   1      47.014  24.810  38.167  1.00  0.00    -0.237 OA
ATOM    101  O   UNL A   1      44.740  25.511  38.807  1.00  0.00    -0.744 OA
ENDBRANCH  94  98
ENDBRANCH  68  91
ENDBRANCH  42  43
ENDBRANCH  34  37
ENDBRANCH  32  33
ENDBRANCH  31  32
ENDBRANCH  30  31
ENDBRANCH   1  30
TORSDOF 20
ENDMDL
