MODEL 1
REMARK VINA RESULT:     -11.3      0.000      0.000
REMARK SMILES Cc1ccc(OCCC(=O)N2C[C@H](O)C[C@@H]2C(=O)NCCCCCCNC(=O)c2ccc(-c3c4nc(c(-c5cc(S(=O)(=O)[O-])ccc5F)c5ccc([nH]5)c(-c5cc(S(=O)(=O)[O-])ccc5F)c5nc(c(-c6cc(S(=O)(=O)[O-])ccc6F)c6ccc3[nH]6)C=C5)C=C4)cc2)cc1
REMARK SMILES IDX 21 1 20 2 19 3 17 4 18 5 16 7 11 8 12 9 13 10 15 11 9 12
REMARK SMILES IDX 10 13 8 14 7 15 6 16 5 17 1 18 2 19 3 20 93 21 4 22 92 23
REMARK SMILES IDX 14 24 22 26 23 27 24 28 25 29 26 30 27 31 28 33 29 34 30 35
REMARK SMILES IDX 91 36 31 37 90 38 32 39 33 40 34 41 84 42 35 43 89 44 83 45
REMARK SMILES IDX 85 46 36 47 88 48 82 49 81 50 37 52 69 53 49 54 68 55 50 56
REMARK SMILES IDX 53 57 67 58 86 59 51 60 52 61 66 63 87 64 54 65 38 66 39 67
REMARK SMILES IDX 47 68 40 69 46 70 48 71 45 72 41 73 42 74 43 75 44 76 70 77
REMARK SMILES IDX 71 78 79 79 72 80 78 81 80 82 77 83 73 84 74 85 75 86 76 87
REMARK SMILES IDX 55 88 56 89 64 90 57 91 63 92 65 93 62 94 58 95 59 96 60 97
REMARK SMILES IDX 61 98
REMARK H PARENT 19 6 14 25 26 32 85 51 53 62
REMARK Flexibility Score: inf
ROOT
ATOM      1  C   UNL A   1      36.277  23.289  23.644  1.00  0.00     0.021 C 
ENDROOT
BRANCH   1   2
ATOM      2  C   UNL A   1      35.128  24.080  24.264  1.00  0.00     0.116 C 
BRANCH   2   3
ATOM      3  N   UNL A   1      34.026  24.335  23.356  1.00  0.00    -0.354 N 
ATOM      4  C   UNL A   1      33.759  25.511  22.701  1.00  0.00     0.242 C 
ATOM      5  O   UNL A   1      33.312  25.428  21.551  1.00  0.00    -0.273 OA
ATOM      6  H   UNL A   1      33.407  23.589  23.193  1.00  0.00     0.163 HD
BRANCH   4   7
ATOM      7  C   UNL A   1      33.744  26.880  23.444  1.00  0.00     0.177 C 
ATOM      8  N   UNL A   1      32.757  27.073  24.498  1.00  0.00    -0.328 N 
ATOM      9  C   UNL A   1      31.535  27.662  23.959  1.00  0.00     0.152 C 
ATOM     10  C   UNL A   1      31.860  28.052  22.516  1.00  0.00     0.136 C 
ATOM     11  C   UNL A   1      33.381  27.966  22.423  1.00  0.00     0.069 C 
BRANCH   8  12
ATOM     12  C   UNL A   1      33.041  26.841  25.829  1.00  0.00     0.226 C 
ATOM     13  O   UNL A   1      33.570  27.693  26.545  1.00  0.00    -0.275 OA
BRANCH  12  14
ATOM     14  C   UNL A   1      32.815  25.430  26.356  1.00  0.00     0.141 C 
BRANCH  14  15
ATOM     15  C   UNL A   1      31.452  24.831  26.031  1.00  0.00     0.239 C 
BRANCH  15  16
ATOM     16  O   UNL A   1      31.263  23.510  26.559  1.00  0.00    -0.493 OA
BRANCH  16  17
ATOM     17  C   UNL A   1      32.078  22.532  26.059  1.00  0.00     0.119 A 
ATOM     18  C   UNL A   1      33.909  18.954  24.553  1.00  0.00     0.044 C 
ATOM     19  C   UNL A   1      33.339  20.253  25.031  1.00  0.00    -0.051 A 
ATOM     20  C   UNL A   1      32.390  20.939  24.264  1.00  0.00     0.007 A 
ATOM     21  C   UNL A   1      33.736  20.791  26.259  1.00  0.00     0.007 A 
ATOM     22  C   UNL A   1      31.772  22.085  24.772  1.00  0.00     0.046 A 
ATOM     23  C   UNL A   1      33.117  21.933  26.764  1.00  0.00     0.046 A 
ENDBRANCH  16  17
ENDBRANCH  15  16
ENDBRANCH  14  15
ENDBRANCH  12  14
ENDBRANCH   8  12
BRANCH  10  24
ATOM     24  O   UNL A   1      31.257  27.167  21.578  1.00  0.00    -0.391 OA
ATOM     25  H   UNL A   1      30.938  26.376  22.039  1.00  0.00     0.211 HD
ENDBRANCH  10  24
ENDBRANCH   4   7
ENDBRANCH   2   3
ENDBRANCH   1   2
BRANCH   1  26
ATOM     26  C   UNL A   1      36.493  21.911  24.269  1.00  0.00     0.002 C 
BRANCH  26  27
ATOM     27  C   UNL A   1      37.808  21.720  25.043  1.00  0.00     0.002 C 
BRANCH  27  28
ATOM     28  C   UNL A   1      38.168  22.837  26.022  1.00  0.00     0.021 C 
BRANCH  28  29
ATOM     29  C   UNL A   1      39.479  22.595  26.756  1.00  0.00     0.116 C 
BRANCH  29  30
ATOM     30  N   UNL A   1      40.309  21.565  26.143  1.00  0.00    -0.352 N 
ATOM     31  C   UNL A   1      41.690  21.500  26.079  1.00  0.00     0.251 C 
ATOM     32  H   UNL A   1      39.825  20.819  25.720  1.00  0.00     0.163 HD
ATOM     33  O   UNL A   1      42.271  20.607  25.488  1.00  0.00    -0.269 OA
BRANCH  31  34
ATOM     34  C   UNL A   1      42.458  22.494  26.861  1.00  0.00     0.039 A 
ATOM     35  C   UNL A   1      42.458  22.346  28.252  1.00  0.00     0.014 A 
ATOM     36  C   UNL A   1      42.914  23.668  26.264  1.00  0.00     0.014 A 
ATOM     37  C   UNL A   1      42.699  23.457  29.051  1.00  0.00     0.010 A 
ATOM     38  C   UNL A   1      43.068  24.791  27.053  1.00  0.00     0.010 A 
ATOM     39  C   UNL A   1      42.892  24.696  28.439  1.00  0.00    -0.014 A 
BRANCH  39  40
ATOM     40  C   UNL A   1      42.780  25.952  29.172  1.00  0.00     0.031 A 
ATOM     41  C   UNL A   1      41.577  26.794  29.036  1.00  0.00     0.074 A 
ATOM     42  C   UNL A   1      43.792  26.350  29.973  1.00  0.00     0.049 A 
ATOM     43  N   UNL A   1      41.549  28.070  29.224  1.00  0.00    -0.248 NA
ATOM     44  C   UNL A   1      40.300  26.248  28.600  1.00  0.00     0.031 C 
ATOM     45  C   UNL A   1      43.789  27.452  30.930  1.00  0.00     0.029 A 
ATOM     46  N   UNL A   1      45.130  25.977  29.872  1.00  0.00    -0.354 N 
ATOM     47  C   UNL A   1      40.232  28.468  29.213  1.00  0.00     0.074 A 
ATOM     48  C   UNL A   1      39.506  27.312  28.739  1.00  0.00     0.031 C 
ATOM     49  C   UNL A   1      45.057  27.840  31.144  1.00  0.00     0.029 A 
ATOM     50  C   UNL A   1      45.900  27.096  30.224  1.00  0.00     0.049 A 
ATOM     51  H   UNL A   1      45.471  25.094  29.604  1.00  0.00     0.167 HD
ATOM     52  C   UNL A   1      39.896  29.683  29.737  1.00  0.00     0.034 A 
ATOM     53  C   UNL A   1      46.763  27.661  29.331  1.00  0.00     0.034 A 
ATOM     54  C   UNL A   1      41.088  30.460  30.095  1.00  0.00     0.049 A 
ATOM     55  C   UNL A   1      46.447  29.103  29.001  1.00  0.00     0.074 A 
ATOM     56  C   UNL A   1      41.718  30.726  31.300  1.00  0.00     0.029 A 
ATOM     57  N   UNL A   1      41.971  30.869  29.097  1.00  0.00    -0.354 N 
ATOM     58  N   UNL A   1      45.304  29.689  29.233  1.00  0.00    -0.248 NA
ATOM     59  C   UNL A   1      47.409  29.988  28.355  1.00  0.00     0.031 C 
ATOM     60  C   UNL A   1      43.012  31.242  31.018  1.00  0.00     0.029 A 
ATOM     61  C   UNL A   1      43.158  31.322  29.642  1.00  0.00     0.049 A 
ATOM     62  H   UNL A   1      41.775  30.839  28.132  1.00  0.00     0.167 HD
ATOM     63  C   UNL A   1      45.341  30.975  28.751  1.00  0.00     0.074 A 
ATOM     64  C   UNL A   1      46.697  31.122  28.248  1.00  0.00     0.031 C 
ATOM     65  C   UNL A   1      44.245  31.797  28.789  1.00  0.00     0.034 A 
BRANCH  52  66
ATOM     66  C   UNL A   1      38.499  30.030  30.225  1.00  0.00     0.023 A 
ATOM     67  C   UNL A   1      37.781  31.067  29.587  1.00  0.00     0.031 A 
ATOM     68  C   UNL A   1      37.848  29.456  31.334  1.00  0.00     0.131 A 
ATOM     69  C   UNL A   1      36.573  31.563  30.115  1.00  0.00     0.055 A 
ATOM     70  C   UNL A   1      36.678  29.987  31.897  1.00  0.00     0.041 A 
ATOM     71  F   UNL A   1      38.272  28.316  31.890  1.00  0.00    -0.206 F 
ATOM     72  C   UNL A   1      36.041  31.060  31.296  1.00  0.00     0.022 A 
BRANCH  69  73
ATOM     73  S   UNL A   1      35.694  32.883  29.233  1.00  0.00     0.124 S 
ATOM     74  O   UNL A   1      36.745  33.875  29.031  1.00  0.00    -0.237 OA
ATOM     75  O   UNL A   1      35.218  32.193  28.039  1.00  0.00    -0.237 OA
ATOM     76  O   UNL A   1      34.645  33.280  30.172  1.00  0.00    -0.744 OA
ENDBRANCH  69  73
ENDBRANCH  52  66
BRANCH  53  77
ATOM     77  C   UNL A   1      47.367  26.690  28.374  1.00  0.00     0.023 A 
ATOM     78  C   UNL A   1      47.099  26.853  26.999  1.00  0.00     0.031 A 
ATOM     79  C   UNL A   1      48.437  25.862  28.741  1.00  0.00     0.131 A 
ATOM     80  C   UNL A   1      47.958  26.298  26.041  1.00  0.00     0.055 A 
ATOM     81  C   UNL A   1      49.274  25.283  27.780  1.00  0.00     0.041 A 
ATOM     82  F   UNL A   1      48.761  25.696  30.032  1.00  0.00    -0.206 F 
ATOM     83  C   UNL A   1      49.060  25.531  26.426  1.00  0.00     0.022 A 
BRANCH  80  84
ATOM     84  S   UNL A   1      47.780  26.745  24.292  1.00  0.00     0.124 S 
ATOM     85  O   UNL A   1      48.832  27.739  24.116  1.00  0.00    -0.237 OA
ATOM     86  O   UNL A   1      47.989  25.477  23.597  1.00  0.00    -0.237 OA
ATOM     87  O   UNL A   1      46.412  27.255  24.229  1.00  0.00    -0.744 OA
ENDBRANCH  80  84
ENDBRANCH  53  77
BRANCH  65  88
ATOM     88  C   UNL A   1      44.113  33.154  28.111  1.00  0.00     0.023 A 
ATOM     89  C   UNL A   1      44.137  34.379  28.795  1.00  0.00     0.031 A 
ATOM     90  C   UNL A   1      44.014  33.260  26.700  1.00  0.00     0.131 A 
ATOM     91  C   UNL A   1      43.973  35.605  28.123  1.00  0.00     0.055 A 
ATOM     92  C   UNL A   1      43.929  34.484  26.025  1.00  0.00     0.041 A 
ATOM     93  F   UNL A   1      44.008  32.179  25.906  1.00  0.00    -0.206 F 
ATOM     94  C   UNL A   1      43.889  35.670  26.737  1.00  0.00     0.022 A 
BRANCH  91  95
ATOM     95  S   UNL A   1      43.810  37.113  29.118  1.00  0.00     0.124 S 
ATOM     96  O   UNL A   1      43.463  36.572  30.428  1.00  0.00    -0.237 OA
ATOM     97  O   UNL A   1      45.139  37.705  29.009  1.00  0.00    -0.237 OA
ATOM     98  O   UNL A   1      42.742  37.855  28.451  1.00  0.00    -0.744 OA
ENDBRANCH  91  95
ENDBRANCH  65  88
ENDBRANCH  39  40
ENDBRANCH  31  34
ENDBRANCH  29  30
ENDBRANCH  28  29
ENDBRANCH  27  28
ENDBRANCH  26  27
ENDBRANCH   1  26
TORSDOF 22
ENDMDL
MODEL 2
REMARK VINA RESULT:     -10.9      3.983      9.562
REMARK SMILES Cc1ccc(OCCC(=O)N2C[C@H](O)C[C@@H]2C(=O)NCCCCCCNC(=O)c2ccc(-c3c4nc(c(-c5cc(S(=O)(=O)[O-])ccc5F)c5ccc([nH]5)c(-c5cc(S(=O)(=O)[O-])ccc5F)c5nc(c(-c6cc(S(=O)(=O)[O-])ccc6F)c6ccc3[nH]6)C=C5)C=C4)cc2)cc1
REMARK SMILES IDX 21 1 20 2 19 3 17 4 18 5 16 7 11 8 12 9 13 10 15 11 9 12
REMARK SMILES IDX 10 13 8 14 7 15 6 16 5 17 1 18 2 19 3 20 93 21 4 22 92 23
REMARK SMILES IDX 14 24 22 26 23 27 24 28 25 29 26 30 27 31 28 33 29 34 30 35
REMARK SMILES IDX 91 36 31 37 90 38 32 39 33 40 34 41 84 42 35 43 89 44 83 45
REMARK SMILES IDX 85 46 36 47 88 48 82 49 81 50 37 52 69 53 49 54 68 55 50 56
REMARK SMILES IDX 53 57 67 58 86 59 51 60 52 61 66 63 87 64 54 65 38 66 39 67
REMARK SMILES IDX 47 68 40 69 46 70 48 71 45 72 41 73 42 74 43 75 44 76 70 77
REMARK SMILES IDX 71 78 79 79 72 80 78 81 80 82 77 83 73 84 74 85 75 86 76 87
REMARK SMILES IDX 55 88 56 89 64 90 57 91 63 92 65 93 62 94 58 95 59 96 60 97
REMARK SMILES IDX 61 98
REMARK H PARENT 19 6 14 25 26 32 85 51 53 62
REMARK Flexibility Score: inf
ROOT
ATOM      1  C   UNL A   1      34.428  30.046  27.869  1.00  0.00     0.021 C 
ENDROOT
BRANCH   1   2
ATOM      2  C   UNL A   1      33.986  28.891  26.975  1.00  0.00     0.116 C 
BRANCH   2   3
ATOM      3  N   UNL A   1      34.160  29.138  25.556  1.00  0.00    -0.354 N 
ATOM      4  C   UNL A   1      33.269  28.841  24.556  1.00  0.00     0.242 C 
ATOM      5  O   UNL A   1      33.185  29.641  23.617  1.00  0.00    -0.273 OA
ATOM      6  H   UNL A   1      35.004  29.564  25.284  1.00  0.00     0.163 HD
BRANCH   4   7
ATOM      7  C   UNL A   1      32.596  27.440  24.446  1.00  0.00     0.177 C 
ATOM      8  N   UNL A   1      32.344  26.907  23.113  1.00  0.00    -0.328 N 
ATOM      9  C   UNL A   1      31.011  27.281  22.651  1.00  0.00     0.152 C 
ATOM     10  C   UNL A   1      30.312  27.911  23.857  1.00  0.00     0.136 C 
ATOM     11  C   UNL A   1      31.190  27.544  25.050  1.00  0.00     0.069 C 
BRANCH   8  12
ATOM     12  C   UNL A   1      33.227  26.057  22.477  1.00  0.00     0.226 C 
ATOM     13  O   UNL A   1      34.016  26.454  21.617  1.00  0.00    -0.275 OA
BRANCH  12  14
ATOM     14  C   UNL A   1      33.093  24.567  22.765  1.00  0.00     0.141 C 
BRANCH  14  15
ATOM     15  C   UNL A   1      34.347  23.903  23.321  1.00  0.00     0.239 C 
BRANCH  15  16
ATOM     16  O   UNL A   1      34.221  23.494  24.691  1.00  0.00    -0.493 OA
BRANCH  16  17
ATOM     17  C   UNL A   1      32.949  23.371  25.177  1.00  0.00     0.119 A 
ATOM     18  C   UNL A   1      29.363  22.717  27.443  1.00  0.00     0.044 C 
ATOM     19  C   UNL A   1      30.563  23.007  26.596  1.00  0.00    -0.051 A 
ATOM     20  C   UNL A   1      31.411  24.077  26.906  1.00  0.00     0.007 A 
ATOM     21  C   UNL A   1      30.862  22.202  25.492  1.00  0.00     0.007 A 
ATOM     22  C   UNL A   1      32.595  24.266  26.187  1.00  0.00     0.046 A 
ATOM     23  C   UNL A   1      32.043  22.393  24.778  1.00  0.00     0.046 A 
ENDBRANCH  16  17
ENDBRANCH  15  16
ENDBRANCH  14  15
ENDBRANCH  12  14
ENDBRANCH   8  12
BRANCH  10  24
ATOM     24  O   UNL A   1      30.211  29.325  23.733  1.00  0.00    -0.391 OA
ATOM     25  H   UNL A   1      30.790  29.749  24.386  1.00  0.00     0.211 HD
ENDBRANCH  10  24
ENDBRANCH   4   7
ENDBRANCH   2   3
ENDBRANCH   1   2
BRANCH   1  26
ATOM     26  C   UNL A   1      33.711  31.366  27.581  1.00  0.00     0.002 C 
BRANCH  26  27
ATOM     27  C   UNL A   1      34.293  32.613  28.267  1.00  0.00     0.002 C 
BRANCH  27  28
ATOM     28  C   UNL A   1      35.658  33.073  27.758  1.00  0.00     0.021 C 
BRANCH  28  29
ATOM     29  C   UNL A   1      36.793  32.780  28.728  1.00  0.00     0.116 C 
BRANCH  29  30
ATOM     30  N   UNL A   1      36.338  32.437  30.070  1.00  0.00    -0.352 N 
ATOM     31  C   UNL A   1      36.428  31.220  30.722  1.00  0.00     0.251 C 
ATOM     32  H   UNL A   1      35.914  33.166  30.579  1.00  0.00     0.163 HD
ATOM     33  O   UNL A   1      35.960  31.043  31.834  1.00  0.00    -0.269 OA
BRANCH  31  34
ATOM     34  C   UNL A   1      37.225  30.154  30.075  1.00  0.00     0.039 A 
ATOM     35  C   UNL A   1      37.384  28.959  30.785  1.00  0.00     0.014 A 
ATOM     36  C   UNL A   1      38.006  30.434  28.956  1.00  0.00     0.014 A 
ATOM     37  C   UNL A   1      38.479  28.149  30.510  1.00  0.00     0.010 A 
ATOM     38  C   UNL A   1      39.141  29.676  28.739  1.00  0.00     0.010 A 
ATOM     39  C   UNL A   1      39.409  28.576  29.562  1.00  0.00    -0.014 A 
BRANCH  39  40
ATOM     40  C   UNL A   1      40.747  28.002  29.473  1.00  0.00     0.031 A 
ATOM     41  C   UNL A   1      40.941  26.627  28.977  1.00  0.00     0.074 A 
ATOM     42  C   UNL A   1      41.815  28.734  29.858  1.00  0.00     0.049 A 
ATOM     43  N   UNL A   1      41.941  25.871  29.282  1.00  0.00    -0.248 NA
ATOM     44  C   UNL A   1      39.958  25.968  28.129  1.00  0.00     0.031 C 
ATOM     45  C   UNL A   1      43.227  28.423  29.660  1.00  0.00     0.029 A 
ATOM     46  N   UNL A   1      41.814  29.799  30.756  1.00  0.00    -0.354 N 
ATOM     47  C   UNL A   1      41.887  24.756  28.475  1.00  0.00     0.074 A 
ATOM     48  C   UNL A   1      40.592  24.831  27.839  1.00  0.00     0.031 C 
ATOM     49  C   UNL A   1      43.948  29.086  30.579  1.00  0.00     0.029 A 
ATOM     50  C   UNL A   1      43.011  29.728  31.485  1.00  0.00     0.049 A 
ATOM     51  H   UNL A   1      41.106  30.475  30.859  1.00  0.00     0.167 HD
ATOM     52  C   UNL A   1      43.000  23.978  28.337  1.00  0.00     0.034 A 
ATOM     53  C   UNL A   1      42.996  29.558  32.839  1.00  0.00     0.034 A 
ATOM     54  C   UNL A   1      44.069  24.402  29.248  1.00  0.00     0.049 A 
ATOM     55  C   UNL A   1      43.686  28.295  33.305  1.00  0.00     0.074 A 
ATOM     56  C   UNL A   1      45.229  25.139  29.070  1.00  0.00     0.029 A 
ATOM     57  N   UNL A   1      43.880  24.302  30.626  1.00  0.00    -0.354 N 
ATOM     58  N   UNL A   1      43.970  27.275  32.542  1.00  0.00    -0.248 NA
ATOM     59  C   UNL A   1      44.085  28.087  34.691  1.00  0.00     0.031 C 
ATOM     60  C   UNL A   1      45.704  25.531  30.350  1.00  0.00     0.029 A 
ATOM     61  C   UNL A   1      44.853  25.007  31.310  1.00  0.00     0.049 A 
ATOM     62  H   UNL A   1      43.152  23.795  31.054  1.00  0.00     0.167 HD
ATOM     63  C   UNL A   1      44.533  26.277  33.302  1.00  0.00     0.074 A 
ATOM     64  C   UNL A   1      44.619  26.856  34.632  1.00  0.00     0.031 C 
ATOM     65  C   UNL A   1      44.859  25.056  32.770  1.00  0.00     0.034 A 
BRANCH  52  66
ATOM     66  C   UNL A   1      43.234  23.052  27.155  1.00  0.00     0.023 A 
ATOM     67  C   UNL A   1      42.710  21.740  27.190  1.00  0.00     0.031 A 
ATOM     68  C   UNL A   1      44.010  23.347  26.017  1.00  0.00     0.131 A 
ATOM     69  C   UNL A   1      43.056  20.778  26.221  1.00  0.00     0.055 A 
ATOM     70  C   UNL A   1      44.407  22.377  25.085  1.00  0.00     0.041 A 
ATOM     71  F   UNL A   1      44.368  24.599  25.712  1.00  0.00    -0.206 F 
ATOM     72  C   UNL A   1      43.943  21.077  25.193  1.00  0.00     0.022 A 
BRANCH  69  73
ATOM     73  S   UNL A   1      42.330  19.118  26.317  1.00  0.00     0.124 S 
ATOM     74  O   UNL A   1      43.206  18.344  25.445  1.00  0.00    -0.237 OA
ATOM     75  O   UNL A   1      42.415  18.826  27.744  1.00  0.00    -0.237 OA
ATOM     76  O   UNL A   1      40.971  19.312  25.810  1.00  0.00    -0.744 OA
ENDBRANCH  69  73
ENDBRANCH  52  66
BRANCH  53  77
ATOM     77  C   UNL A   1      41.821  30.177  33.516  1.00  0.00     0.023 A 
ATOM     78  C   UNL A   1      41.868  31.556  33.806  1.00  0.00     0.031 A 
ATOM     79  C   UNL A   1      40.574  29.538  33.558  1.00  0.00     0.131 A 
ATOM     80  C   UNL A   1      40.682  32.276  34.007  1.00  0.00     0.055 A 
ATOM     81  C   UNL A   1      39.395  30.256  33.790  1.00  0.00     0.041 A 
ATOM     82  F   UNL A   1      40.463  28.236  33.257  1.00  0.00    -0.206 F 
ATOM     83  C   UNL A   1      39.441  31.635  33.977  1.00  0.00     0.022 A 
BRANCH  80  84
ATOM     84  S   UNL A   1      40.722  34.088  34.093  1.00  0.00     0.124 S 
ATOM     85  O   UNL A   1      39.918  34.360  35.278  1.00  0.00    -0.237 OA
ATOM     86  O   UNL A   1      42.146  34.388  34.214  1.00  0.00    -0.237 OA
ATOM     87  O   UNL A   1      40.123  34.482  32.819  1.00  0.00    -0.744 OA
ENDBRANCH  80  84
ENDBRANCH  53  77
BRANCH  65  88
ATOM     88  C   UNL A   1      45.296  23.824  33.550  1.00  0.00     0.023 A 
ATOM     89  C   UNL A   1      46.590  23.634  34.058  1.00  0.00     0.031 A 
ATOM     90  C   UNL A   1      44.374  22.793  33.865  1.00  0.00     0.131 A 
ATOM     91  C   UNL A   1      46.952  22.456  34.740  1.00  0.00     0.055 A 
ATOM     92  C   UNL A   1      44.715  21.657  34.611  1.00  0.00     0.041 A 
ATOM     93  F   UNL A   1      43.092  22.843  33.474  1.00  0.00    -0.206 F 
ATOM     94  C   UNL A   1      46.018  21.472  35.039  1.00  0.00     0.022 A 
BRANCH  91  95
ATOM     95  S   UNL A   1      48.698  22.219  35.173  1.00  0.00     0.124 S 
ATOM     96  O   UNL A   1      49.302  21.980  33.865  1.00  0.00    -0.237 OA
ATOM     97  O   UNL A   1      49.039  23.489  35.805  1.00  0.00    -0.237 OA
ATOM     98  O   UNL A   1      48.679  21.063  36.067  1.00  0.00    -0.744 OA
ENDBRANCH  91  95
ENDBRANCH  65  88
ENDBRANCH  39  40
ENDBRANCH  31  34
ENDBRANCH  29  30
ENDBRANCH  28  29
ENDBRANCH  27  28
ENDBRANCH  26  27
ENDBRANCH   1  26
TORSDOF 22
ENDMDL
MODEL 3
REMARK VINA RESULT:     -10.2      4.000      9.279
REMARK SMILES Cc1ccc(OCCC(=O)N2C[C@H](O)C[C@@H]2C(=O)NCCCCCCNC(=O)c2ccc(-c3c4nc(c(-c5cc(S(=O)(=O)[O-])ccc5F)c5ccc([nH]5)c(-c5cc(S(=O)(=O)[O-])ccc5F)c5nc(c(-c6cc(S(=O)(=O)[O-])ccc6F)c6ccc3[nH]6)C=C5)C=C4)cc2)cc1
REMARK SMILES IDX 21 1 20 2 19 3 17 4 18 5 16 7 11 8 12 9 13 10 15 11 9 12
REMARK SMILES IDX 10 13 8 14 7 15 6 16 5 17 1 18 2 19 3 20 93 21 4 22 92 23
REMARK SMILES IDX 14 24 22 26 23 27 24 28 25 29 26 30 27 31 28 33 29 34 30 35
REMARK SMILES IDX 91 36 31 37 90 38 32 39 33 40 34 41 84 42 35 43 89 44 83 45
REMARK SMILES IDX 85 46 36 47 88 48 82 49 81 50 37 52 69 53 49 54 68 55 50 56
REMARK SMILES IDX 53 57 67 58 86 59 51 60 52 61 66 63 87 64 54 65 38 66 39 67
REMARK SMILES IDX 47 68 40 69 46 70 48 71 45 72 41 73 42 74 43 75 44 76 70 77
REMARK SMILES IDX 71 78 79 79 72 80 78 81 80 82 77 83 73 84 74 85 75 86 76 87
REMARK SMILES IDX 55 88 56 89 64 90 57 91 63 92 65 93 62 94 58 95 59 96 60 97
REMARK SMILES IDX 61 98
REMARK H PARENT 19 6 14 25 26 32 85 51 53 62
REMARK Flexibility Score: inf
ROOT
ATOM      1  C   UNL A   1      34.389  29.133  27.008  1.00  0.00     0.021 C 
ENDROOT
BRANCH   1   2
ATOM      2  C   UNL A   1      33.598  28.134  26.167  1.00  0.00     0.116 C 
BRANCH   2   3
ATOM      3  N   UNL A   1      33.942  28.143  24.757  1.00  0.00    -0.354 N 
ATOM      4  C   UNL A   1      33.067  28.131  23.700  1.00  0.00     0.242 C 
ATOM      5  O   UNL A   1      33.376  28.796  22.704  1.00  0.00    -0.273 OA
ATOM      6  H   UNL A   1      34.900  28.158  24.537  1.00  0.00     0.163 HD
BRANCH   4   7
ATOM      7  C   UNL A   1      31.883  27.122  23.625  1.00  0.00     0.177 C 
ATOM      8  N   UNL A   1      32.160  25.722  23.926  1.00  0.00    -0.328 N 
ATOM      9  C   UNL A   1      32.503  24.991  22.710  1.00  0.00     0.152 C 
ATOM     10  C   UNL A   1      32.219  25.949  21.551  1.00  0.00     0.136 C 
ATOM     11  C   UNL A   1      31.396  27.075  22.171  1.00  0.00     0.069 C 
BRANCH   8  12
ATOM     12  C   UNL A   1      31.974  25.186  25.184  1.00  0.00     0.226 C 
ATOM     13  O   UNL A   1      30.906  25.290  25.790  1.00  0.00    -0.275 OA
BRANCH  12  14
ATOM     14  C   UNL A   1      33.192  24.585  25.874  1.00  0.00     0.141 C 
BRANCH  14  15
ATOM     15  C   UNL A   1      34.506  24.748  25.119  1.00  0.00     0.239 C 
BRANCH  15  16
ATOM     16  O   UNL A   1      35.664  24.426  25.904  1.00  0.00    -0.493 OA
BRANCH  16  17
ATOM     17  C   UNL A   1      36.371  23.321  25.521  1.00  0.00     0.119 A 
ATOM     18  C   UNL A   1      38.136  19.448  24.964  1.00  0.00     0.044 C 
ATOM     19  C   UNL A   1      37.544  20.820  25.066  1.00  0.00    -0.051 A 
ATOM     20  C   UNL A   1      36.209  21.046  24.712  1.00  0.00     0.007 A 
ATOM     21  C   UNL A   1      38.314  21.890  25.531  1.00  0.00     0.007 A 
ATOM     22  C   UNL A   1      35.629  22.300  24.926  1.00  0.00     0.046 A 
ATOM     23  C   UNL A   1      37.732  23.139  25.744  1.00  0.00     0.046 A 
ENDBRANCH  16  17
ENDBRANCH  15  16
ENDBRANCH  14  15
ENDBRANCH  12  14
ENDBRANCH   8  12
BRANCH  10  24
ATOM     24  O   UNL A   1      33.417  26.467  20.985  1.00  0.00    -0.391 OA
ATOM     25  H   UNL A   1      34.020  25.736  20.779  1.00  0.00     0.211 HD
ENDBRANCH  10  24
ENDBRANCH   4   7
ENDBRANCH   2   3
ENDBRANCH   1   2
BRANCH   1  26
ATOM     26  C   UNL A   1      33.881  30.571  26.908  1.00  0.00     0.002 C 
BRANCH  26  27
ATOM     27  C   UNL A   1      34.140  31.465  28.132  1.00  0.00     0.002 C 
BRANCH  27  28
ATOM     28  C   UNL A   1      35.259  32.493  27.977  1.00  0.00     0.021 C 
BRANCH  28  29
ATOM     29  C   UNL A   1      35.761  33.043  29.304  1.00  0.00     0.116 C 
BRANCH  29  30
ATOM     30  N   UNL A   1      35.584  32.122  30.420  1.00  0.00    -0.352 N 
ATOM     31  C   UNL A   1      36.346  31.014  30.749  1.00  0.00     0.251 C 
ATOM     32  H   UNL A   1      34.825  32.312  31.018  1.00  0.00     0.163 HD
ATOM     33  O   UNL A   1      36.064  30.287  31.685  1.00  0.00    -0.269 OA
BRANCH  31  34
ATOM     34  C   UNL A   1      37.602  30.801  29.996  1.00  0.00     0.039 A 
ATOM     35  C   UNL A   1      37.610  29.769  29.051  1.00  0.00     0.014 A 
ATOM     36  C   UNL A   1      38.788  31.405  30.410  1.00  0.00     0.014 A 
ATOM     37  C   UNL A   1      38.821  29.189  28.693  1.00  0.00     0.010 A 
ATOM     38  C   UNL A   1      39.983  30.774  30.122  1.00  0.00     0.010 A 
ATOM     39  C   UNL A   1      39.987  29.626  29.320  1.00  0.00    -0.014 A 
BRANCH  39  40
ATOM     40  C   UNL A   1      41.222  28.850  29.294  1.00  0.00     0.031 A 
ATOM     41  C   UNL A   1      41.194  27.409  28.982  1.00  0.00     0.074 A 
ATOM     42  C   UNL A   1      42.397  29.455  29.570  1.00  0.00     0.049 A 
ATOM     43  N   UNL A   1      42.078  26.556  29.375  1.00  0.00    -0.248 NA
ATOM     44  C   UNL A   1      40.099  26.803  28.239  1.00  0.00     0.031 C 
ATOM     45  C   UNL A   1      43.741  28.910  29.402  1.00  0.00     0.029 A 
ATOM     46  N   UNL A   1      42.581  30.615  30.320  1.00  0.00    -0.354 N 
ATOM     47  C   UNL A   1      41.836  25.368  28.724  1.00  0.00     0.074 A 
ATOM     48  C   UNL A   1      40.548  25.554  28.095  1.00  0.00     0.031 C 
ATOM     49  C   UNL A   1      44.579  29.569  30.218  1.00  0.00     0.029 A 
ATOM     50  C   UNL A   1      43.775  30.458  31.040  1.00  0.00     0.049 A 
ATOM     51  H   UNL A   1      41.985  31.398  30.339  1.00  0.00     0.167 HD
ATOM     52  C   UNL A   1      42.816  24.418  28.678  1.00  0.00     0.034 A 
ATOM     53  C   UNL A   1      43.775  30.468  32.404  1.00  0.00     0.034 A 
ATOM     54  C   UNL A   1      43.961  24.789  29.516  1.00  0.00     0.049 A 
ATOM     55  C   UNL A   1      44.282  29.186  33.027  1.00  0.00     0.074 A 
ATOM     56  C   UNL A   1      45.213  25.312  29.231  1.00  0.00     0.029 A 
ATOM     57  N   UNL A   1      43.800  24.897  30.896  1.00  0.00    -0.354 N 
ATOM     58  N   UNL A   1      44.388  28.044  32.402  1.00  0.00    -0.248 NA
ATOM     59  C   UNL A   1      44.686  29.100  34.425  1.00  0.00     0.031 C 
ATOM     60  C   UNL A   1      45.778  25.790  30.444  1.00  0.00     0.029 A 
ATOM     61  C   UNL A   1      44.887  25.530  31.472  1.00  0.00     0.049 A 
ATOM     62  H   UNL A   1      43.017  24.567  31.394  1.00  0.00     0.167 HD
ATOM     63  C   UNL A   1      44.818  27.079  33.282  1.00  0.00     0.074 A 
ATOM     64  C   UNL A   1      45.028  27.805  34.523  1.00  0.00     0.031 C 
ATOM     65  C   UNL A   1      44.942  25.765  32.913  1.00  0.00     0.034 A 
BRANCH  52  66
ATOM     66  C   UNL A   1      42.874  23.322  27.627  1.00  0.00     0.023 A 
ATOM     67  C   UNL A   1      43.902  23.347  26.657  1.00  0.00     0.031 A 
ATOM     68  C   UNL A   1      41.934  22.285  27.465  1.00  0.00     0.131 A 
ATOM     69  C   UNL A   1      43.894  22.478  25.548  1.00  0.00     0.055 A 
ATOM     70  C   UNL A   1      41.889  21.461  26.332  1.00  0.00     0.041 A 
ATOM     71  F   UNL A   1      41.054  21.974  28.423  1.00  0.00    -0.206 F 
ATOM     72  C   UNL A   1      42.864  21.566  25.355  1.00  0.00     0.022 A 
BRANCH  69  73
ATOM     73  S   UNL A   1      45.257  22.553  24.352  1.00  0.00     0.124 S 
ATOM     74  O   UNL A   1      44.665  21.938  23.169  1.00  0.00    -0.237 OA
ATOM     75  O   UNL A   1      45.521  23.986  24.274  1.00  0.00    -0.237 OA
ATOM     76  O   UNL A   1      46.313  21.769  24.991  1.00  0.00    -0.744 OA
ENDBRANCH  69  73
ENDBRANCH  52  66
BRANCH  53  77
ATOM     77  C   UNL A   1      42.725  31.340  33.005  1.00  0.00     0.023 A 
ATOM     78  C   UNL A   1      41.446  30.787  33.228  1.00  0.00     0.031 A 
ATOM     79  C   UNL A   1      43.046  32.539  33.656  1.00  0.00     0.131 A 
ATOM     80  C   UNL A   1      40.583  31.364  34.169  1.00  0.00     0.055 A 
ATOM     81  C   UNL A   1      42.166  33.129  34.571  1.00  0.00     0.041 A 
ATOM     82  F   UNL A   1      44.258  33.093  33.509  1.00  0.00    -0.206 F 
ATOM     83  C   UNL A   1      40.947  32.521  34.861  1.00  0.00     0.022 A 
BRANCH  80  84
ATOM     84  S   UNL A   1      39.068  30.496  34.665  1.00  0.00     0.124 S 
ATOM     85  O   UNL A   1      39.363  30.119  36.043  1.00  0.00    -0.237 OA
ATOM     86  O   UNL A   1      38.030  31.509  34.498  1.00  0.00    -0.237 OA
ATOM     87  O   UNL A   1      39.003  29.394  33.708  1.00  0.00    -0.744 OA
ENDBRANCH  80  84
ENDBRANCH  53  77
BRANCH  65  88
ATOM     88  C   UNL A   1      45.213  24.592  33.845  1.00  0.00     0.023 A 
ATOM     89  C   UNL A   1      46.490  24.065  34.093  1.00  0.00     0.031 A 
ATOM     90  C   UNL A   1      44.164  23.984  34.580  1.00  0.00     0.131 A 
ATOM     91  C   UNL A   1      46.680  22.951  34.934  1.00  0.00     0.055 A 
ATOM     92  C   UNL A   1      44.364  22.928  35.478  1.00  0.00     0.041 A 
ATOM     93  F   UNL A   1      42.892  24.396  34.473  1.00  0.00    -0.206 F 
ATOM     94  C   UNL A   1      45.628  22.389  35.647  1.00  0.00     0.022 A 
BRANCH  91  95
ATOM     95  S   UNL A   1      48.338  22.219  35.025  1.00  0.00     0.124 S 
ATOM     96  O   UNL A   1      49.100  23.091  34.136  1.00  0.00    -0.237 OA
ATOM     97  O   UNL A   1      48.652  22.332  36.445  1.00  0.00    -0.237 OA
ATOM     98  O   UNL A   1      48.141  20.856  34.537  1.00  0.00    -0.744 OA
ENDBRANCH  91  95
ENDBRANCH  65  88
ENDBRANCH  39  40
ENDBRANCH  31  34
ENDBRANCH  29  30
ENDBRANCH  28  29
ENDBRANCH  27  28
ENDBRANCH  26  27
ENDBRANCH   1  26
TORSDOF 22
ENDMDL
