MODEL 1
REMARK VINA RESULT:     -12.1      0.000      0.000
REMARK SMILES CCCNC(=O)N1[C@@H](C(=O)NCCCCCCNC(=O)c2ccc(-c3c4nc(c(-c5cc(S(=O)(=O)[O-])ccc5F)c5ccc([nH]5)c(-c5cc(S(=O)(=O)[O-])ccc5F)c5nc(c(-c6cc(S(=O)(=O)[O-])ccc6F)c6ccc3[nH]6)C=C5)C=C4)cc2)CC[C@H]2CCCC[C@@H]21
REMARK SMILES IDX 14 1 13 2 12 3 11 4 9 5 10 6 8 8 7 9 91 10 84 11 86 12 90 13
REMARK SMILES IDX 85 14 87 15 89 16 88 17 5 18 4 19 6 21 3 22 2 23 1 24 15 25
REMARK SMILES IDX 16 26 17 27 18 28 19 29 20 31 21 32 22 33 83 34 23 35 82 36
REMARK SMILES IDX 24 37 25 38 26 39 76 40 27 41 81 42 75 43 77 44 28 45 80 46
REMARK SMILES IDX 74 47 73 48 29 50 61 51 41 52 60 53 42 54 45 55 59 56 78 57
REMARK SMILES IDX 43 58 44 59 58 61 79 62 46 63 30 64 31 65 39 66 32 67 38 68
REMARK SMILES IDX 40 69 37 70 33 71 34 72 35 73 36 74 62 75 63 76 71 77 64 78
REMARK SMILES IDX 70 79 72 80 69 81 65 82 66 83 67 84 68 85 47 86 48 87 56 88
REMARK SMILES IDX 49 89 55 90 57 91 54 92 50 93 51 94 52 95 53 96
REMARK H PARENT 11 7 4 20 18 30 77 49 45 60
REMARK Flexibility Score: inf
ROOT
ATOM      1  C   UNL A   1      30.665  27.616  23.628  1.00  0.00     0.002 C 
ENDROOT
BRANCH   1   2
ATOM      2  C   UNL A   1      29.880  26.637  24.505  1.00  0.00     0.021 C 
BRANCH   2   3
ATOM      3  C   UNL A   1      30.734  25.719  25.373  1.00  0.00     0.116 C 
BRANCH   3   4
ATOM      4  N   UNL A   1      30.182  24.382  25.511  1.00  0.00    -0.354 N 
ATOM      5  C   UNL A   1      30.843  23.204  25.777  1.00  0.00     0.242 C 
ATOM      6  O   UNL A   1      30.175  22.246  26.166  1.00  0.00    -0.273 OA
ATOM      7  H   UNL A   1      29.206  24.309  25.401  1.00  0.00     0.163 HD
BRANCH   5   8
ATOM      8  C   UNL A   1      32.394  23.212  25.710  1.00  0.00     0.176 C 
ATOM      9  N   UNL A   1      33.111  22.338  24.774  1.00  0.00    -0.310 N 
ATOM     10  C   UNL A   1      34.575  22.475  24.744  1.00  0.00     0.091 C 
ATOM     11  C   UNL A   1      32.877  22.839  27.136  1.00  0.00     0.036 C 
ATOM     12  C   UNL A   1      35.115  23.146  26.023  1.00  0.00     0.012 C 
ATOM     13  C   UNL A   1      35.121  23.236  23.528  1.00  0.00     0.025 C 
ATOM     14  C   UNL A   1      34.388  22.586  27.240  1.00  0.00     0.008 C 
ATOM     15  C   UNL A   1      36.632  22.972  26.078  1.00  0.00     0.006 C 
ATOM     16  C   UNL A   1      36.653  23.147  23.525  1.00  0.00     0.002 C 
ATOM     17  C   UNL A   1      37.282  23.606  24.844  1.00  0.00     0.000 C 
BRANCH   9  18
ATOM     18  C   UNL A   1      32.446  21.637  23.806  1.00  0.00     0.318 C 
ATOM     19  N   UNL A   1      32.523  20.276  23.865  1.00  0.00    -0.338 N 
ATOM     20  H   UNL A   1      32.169  19.795  23.082  1.00  0.00     0.165 HD
ATOM     21  O   UNL A   1      31.798  22.176  22.912  1.00  0.00    -0.249 OA
BRANCH  19  22
ATOM     22  C   UNL A   1      33.057  19.436  24.926  1.00  0.00     0.117 C 
BRANCH  22  23
ATOM     23  C   UNL A   1      33.949  18.301  24.439  1.00  0.00     0.018 C 
ATOM     24  C   UNL A   1      33.270  17.385  23.438  1.00  0.00     0.006 C 
ENDBRANCH  22  23
ENDBRANCH  19  22
ENDBRANCH   9  18
ENDBRANCH   5   8
ENDBRANCH   3   4
ENDBRANCH   2   3
ENDBRANCH   1   2
BRANCH   1  25
ATOM     25  C   UNL A   1      30.925  28.995  24.243  1.00  0.00     0.002 C 
BRANCH  25  26
ATOM     26  C   UNL A   1      32.335  29.220  24.795  1.00  0.00     0.021 C 
BRANCH  26  27
ATOM     27  C   UNL A   1      32.408  29.564  26.280  1.00  0.00     0.116 C 
BRANCH  27  28
ATOM     28  N   UNL A   1      32.223  30.985  26.532  1.00  0.00    -0.352 N 
ATOM     29  C   UNL A   1      33.005  31.854  27.254  1.00  0.00     0.251 C 
ATOM     30  H   UNL A   1      31.419  31.382  26.126  1.00  0.00     0.163 HD
ATOM     31  O   UNL A   1      32.590  32.984  27.500  1.00  0.00    -0.269 OA
BRANCH  29  32
ATOM     32  C   UNL A   1      34.323  31.416  27.762  1.00  0.00     0.039 A 
ATOM     33  C   UNL A   1      35.318  32.374  27.966  1.00  0.00     0.014 A 
ATOM     34  C   UNL A   1      34.572  30.071  28.055  1.00  0.00     0.014 A 
ATOM     35  C   UNL A   1      36.532  31.998  28.547  1.00  0.00     0.010 A 
ATOM     36  C   UNL A   1      35.756  29.710  28.696  1.00  0.00     0.010 A 
ATOM     37  C   UNL A   1      36.740  30.674  28.966  1.00  0.00    -0.014 A 
BRANCH  37  38
ATOM     38  C   UNL A   1      37.951  30.296  29.740  1.00  0.00     0.031 A 
ATOM     39  C   UNL A   1      38.940  29.311  29.183  1.00  0.00     0.074 A 
ATOM     40  C   UNL A   1      38.120  30.795  30.982  1.00  0.00     0.049 A 
ATOM     41  N   UNL A   1      40.009  28.806  29.743  1.00  0.00    -0.248 NA
ATOM     42  C   UNL A   1      38.681  28.812  27.825  1.00  0.00     0.031 C 
ATOM     43  C   UNL A   1      37.209  31.733  31.644  1.00  0.00     0.029 A 
ATOM     44  N   UNL A   1      39.103  30.578  31.916  1.00  0.00    -0.354 N 
ATOM     45  C   UNL A   1      40.550  27.928  28.811  1.00  0.00     0.074 A 
ATOM     46  C   UNL A   1      39.657  27.928  27.672  1.00  0.00     0.031 C 
ATOM     47  C   UNL A   1      37.689  32.028  32.862  1.00  0.00     0.029 A 
ATOM     48  C   UNL A   1      38.907  31.260  33.095  1.00  0.00     0.049 A 
ATOM     49  H   UNL A   1      39.877  29.991  31.755  1.00  0.00     0.167 HD
ATOM     50  C   UNL A   1      41.695  27.204  28.894  1.00  0.00     0.034 A 
ATOM     51  C   UNL A   1      39.610  31.250  34.245  1.00  0.00     0.034 A 
ATOM     52  C   UNL A   1      42.572  27.217  30.039  1.00  0.00     0.049 A 
ATOM     53  C   UNL A   1      40.843  30.387  34.334  1.00  0.00     0.074 A 
ATOM     54  C   UNL A   1      43.787  26.573  30.201  1.00  0.00     0.029 A 
ATOM     55  N   UNL A   1      42.323  27.890  31.229  1.00  0.00    -0.354 N 
ATOM     56  N   UNL A   1      41.374  29.610  33.417  1.00  0.00    -0.248 NA
ATOM     57  C   UNL A   1      41.569  30.396  35.611  1.00  0.00     0.031 C 
ATOM     58  C   UNL A   1      44.229  26.786  31.511  1.00  0.00     0.029 A 
ATOM     59  C   UNL A   1      43.333  27.633  32.145  1.00  0.00     0.049 A 
ATOM     60  H   UNL A   1      41.543  28.467  31.398  1.00  0.00     0.167 HD
ATOM     61  C   UNL A   1      42.508  29.053  34.004  1.00  0.00     0.074 A 
ATOM     62  C   UNL A   1      42.596  29.604  35.342  1.00  0.00     0.031 C 
ATOM     63  C   UNL A   1      43.395  28.166  33.486  1.00  0.00     0.034 A 
BRANCH  50  64
ATOM     64  C   UNL A   1      42.047  26.318  27.722  1.00  0.00     0.023 A 
ATOM     65  C   UNL A   1      41.622  24.979  27.653  1.00  0.00     0.031 A 
ATOM     66  C   UNL A   1      42.825  26.815  26.661  1.00  0.00     0.131 A 
ATOM     67  C   UNL A   1      42.034  24.167  26.586  1.00  0.00     0.055 A 
ATOM     68  C   UNL A   1      43.164  26.024  25.561  1.00  0.00     0.041 A 
ATOM     69  F   UNL A   1      43.279  28.078  26.679  1.00  0.00    -0.206 F 
ATOM     70  C   UNL A   1      42.781  24.687  25.526  1.00  0.00     0.022 A 
BRANCH  67  71
ATOM     71  S   UNL A   1      41.703  22.386  26.677  1.00  0.00     0.124 S 
ATOM     72  O   UNL A   1      40.251  22.364  26.841  1.00  0.00    -0.237 OA
ATOM     73  O   UNL A   1      42.209  21.906  25.396  1.00  0.00    -0.237 OA
ATOM     74  O   UNL A   1      42.461  21.957  27.850  1.00  0.00    -0.744 OA
ENDBRANCH  67  71
ENDBRANCH  50  64
BRANCH  51  75
ATOM     75  C   UNL A   1      39.157  32.053  35.417  1.00  0.00     0.023 A 
ATOM     76  C   UNL A   1      38.513  31.445  36.505  1.00  0.00     0.031 A 
ATOM     77  C   UNL A   1      39.323  33.450  35.447  1.00  0.00     0.131 A 
ATOM     78  C   UNL A   1      38.015  32.234  37.555  1.00  0.00     0.055 A 
ATOM     79  C   UNL A   1      38.880  34.224  36.522  1.00  0.00     0.041 A 
ATOM     80  F   UNL A   1      39.931  34.085  34.433  1.00  0.00    -0.206 F 
ATOM     81  C   UNL A   1      38.209  33.617  37.578  1.00  0.00     0.022 A 
BRANCH  78  82
ATOM     82  S   UNL A   1      37.024  31.435  38.846  1.00  0.00     0.124 S 
ATOM     83  O   UNL A   1      37.895  31.564  40.009  1.00  0.00    -0.237 OA
ATOM     84  O   UNL A   1      35.817  32.256  38.853  1.00  0.00    -0.237 OA
ATOM     85  O   UNL A   1      36.847  30.073  38.345  1.00  0.00    -0.744 OA
ENDBRANCH  78  82
ENDBRANCH  51  75
BRANCH  63  86
ATOM     86  C   UNL A   1      44.544  27.749  34.370  1.00  0.00     0.023 A 
ATOM     87  C   UNL A   1      44.461  26.612  35.195  1.00  0.00     0.031 A 
ATOM     88  C   UNL A   1      45.734  28.497  34.395  1.00  0.00     0.131 A 
ATOM     89  C   UNL A   1      45.528  26.285  36.045  1.00  0.00     0.055 A 
ATOM     90  C   UNL A   1      46.817  28.129  35.195  1.00  0.00     0.041 A 
ATOM     91  F   UNL A   1      45.868  29.595  33.632  1.00  0.00    -0.206 F 
ATOM     92  C   UNL A   1      46.713  27.025  36.035  1.00  0.00     0.022 A 
BRANCH  89  93
ATOM     93  S   UNL A   1      45.313  24.926  37.226  1.00  0.00     0.124 S 
ATOM     94  O   UNL A   1      46.385  24.014  36.836  1.00  0.00    -0.237 OA
ATOM     95  O   UNL A   1      45.484  25.596  38.511  1.00  0.00    -0.237 OA
ATOM     96  O   UNL A   1      43.961  24.445  36.954  1.00  0.00    -0.744 OA
ENDBRANCH  89  93
ENDBRANCH  63  86
ENDBRANCH  37  38
ENDBRANCH  29  32
ENDBRANCH  27  28
ENDBRANCH  26  27
ENDBRANCH  25  26
ENDBRANCH   1  25
TORSDOF 19
ENDMDL
MODEL 2
REMARK VINA RESULT:     -12.0      1.774      7.682
REMARK SMILES CCCNC(=O)N1[C@@H](C(=O)NCCCCCCNC(=O)c2ccc(-c3c4nc(c(-c5cc(S(=O)(=O)[O-])ccc5F)c5ccc([nH]5)c(-c5cc(S(=O)(=O)[O-])ccc5F)c5nc(c(-c6cc(S(=O)(=O)[O-])ccc6F)c6ccc3[nH]6)C=C5)C=C4)cc2)CC[C@H]2CCCC[C@@H]21
REMARK SMILES IDX 14 1 13 2 12 3 11 4 9 5 10 6 8 8 7 9 91 10 84 11 86 12 90 13
REMARK SMILES IDX 85 14 87 15 89 16 88 17 5 18 4 19 6 21 3 22 2 23 1 24 15 25
REMARK SMILES IDX 16 26 17 27 18 28 19 29 20 31 21 32 22 33 83 34 23 35 82 36
REMARK SMILES IDX 24 37 25 38 26 39 76 40 27 41 81 42 75 43 77 44 28 45 80 46
REMARK SMILES IDX 74 47 73 48 29 50 61 51 41 52 60 53 42 54 45 55 59 56 78 57
REMARK SMILES IDX 43 58 44 59 58 61 79 62 46 63 30 64 31 65 39 66 32 67 38 68
REMARK SMILES IDX 40 69 37 70 33 71 34 72 35 73 36 74 62 75 63 76 71 77 64 78
REMARK SMILES IDX 70 79 72 80 69 81 65 82 66 83 67 84 68 85 47 86 48 87 56 88
REMARK SMILES IDX 49 89 55 90 57 91 54 92 50 93 51 94 52 95 53 96
REMARK H PARENT 11 7 4 20 18 30 77 49 45 60
REMARK Flexibility Score: inf
ROOT
ATOM      1  C   UNL A   1      33.236  28.854  24.373  1.00  0.00     0.002 C 
ENDROOT
BRANCH   1   2
ATOM      2  C   UNL A   1      33.520  28.989  22.875  1.00  0.00     0.021 C 
BRANCH   2   3
ATOM      3  C   UNL A   1      33.605  27.672  22.112  1.00  0.00     0.116 C 
BRANCH   3   4
ATOM      4  N   UNL A   1      32.360  26.923  22.119  1.00  0.00    -0.354 N 
ATOM      5  C   UNL A   1      32.018  25.833  22.889  1.00  0.00     0.242 C 
ATOM      6  O   UNL A   1      30.825  25.544  22.976  1.00  0.00    -0.273 OA
ATOM      7  H   UNL A   1      31.669  27.236  21.492  1.00  0.00     0.163 HD
BRANCH   5   8
ATOM      8  C   UNL A   1      33.142  25.143  23.707  1.00  0.00     0.176 C 
ATOM      9  N   UNL A   1      33.633  23.810  23.337  1.00  0.00    -0.310 N 
ATOM     10  C   UNL A   1      34.746  23.279  24.136  1.00  0.00     0.091 C 
ATOM     11  C   UNL A   1      32.600  25.037  25.157  1.00  0.00     0.036 C 
ATOM     12  C   UNL A   1      34.865  23.991  25.499  1.00  0.00     0.012 C 
ATOM     13  C   UNL A   1      36.114  23.327  23.441  1.00  0.00     0.025 C 
ATOM     14  C   UNL A   1      33.476  24.192  26.094  1.00  0.00     0.008 C 
ATOM     15  C   UNL A   1      35.811  23.196  26.399  1.00  0.00     0.006 C 
ATOM     16  C   UNL A   1      37.142  22.581  24.301  1.00  0.00     0.002 C 
ATOM     17  C   UNL A   1      37.193  23.086  25.747  1.00  0.00     0.000 C 
BRANCH   9  18
ATOM     18  C   UNL A   1      33.261  23.220  22.160  1.00  0.00     0.318 C 
ATOM     19  N   UNL A   1      32.478  22.105  22.249  1.00  0.00    -0.338 N 
ATOM     20  H   UNL A   1      32.346  21.610  21.408  1.00  0.00     0.165 HD
ATOM     21  O   UNL A   1      33.597  23.647  21.059  1.00  0.00    -0.249 OA
BRANCH  19  22
ATOM     22  C   UNL A   1      31.809  21.549  23.415  1.00  0.00     0.117 C 
BRANCH  22  23
ATOM     23  C   UNL A   1      32.612  20.481  24.148  1.00  0.00     0.018 C 
ATOM     24  C   UNL A   1      32.526  19.111  23.504  1.00  0.00     0.006 C 
ENDBRANCH  22  23
ENDBRANCH  19  22
ENDBRANCH   9  18
ENDBRANCH   5   8
ENDBRANCH   3   4
ENDBRANCH   2   3
ENDBRANCH   1   2
BRANCH   1  25
ATOM     25  C   UNL A   1      31.771  29.025  24.788  1.00  0.00     0.002 C 
BRANCH  25  26
ATOM     26  C   UNL A   1      31.403  30.391  25.376  1.00  0.00     0.021 C 
BRANCH  26  27
ATOM     27  C   UNL A   1      32.113  30.754  26.677  1.00  0.00     0.116 C 
BRANCH  27  28
ATOM     28  N   UNL A   1      32.215  32.192  26.873  1.00  0.00    -0.352 N 
ATOM     29  C   UNL A   1      33.177  32.918  27.532  1.00  0.00     0.251 C 
ATOM     30  H   UNL A   1      31.488  32.722  26.474  1.00  0.00     0.163 HD
ATOM     31  O   UNL A   1      32.998  34.116  27.742  1.00  0.00    -0.269 OA
BRANCH  29  32
ATOM     32  C   UNL A   1      34.404  32.252  28.019  1.00  0.00     0.039 A 
ATOM     33  C   UNL A   1      35.563  33.014  28.187  1.00  0.00     0.014 A 
ATOM     34  C   UNL A   1      34.410  30.887  28.326  1.00  0.00     0.014 A 
ATOM     35  C   UNL A   1      36.700  32.428  28.748  1.00  0.00     0.010 A 
ATOM     36  C   UNL A   1      35.523  30.323  28.946  1.00  0.00     0.010 A 
ATOM     37  C   UNL A   1      36.673  31.093  29.182  1.00  0.00    -0.014 A 
BRANCH  37  38
ATOM     38  C   UNL A   1      37.813  30.507  29.935  1.00  0.00     0.031 A 
ATOM     39  C   UNL A   1      38.087  30.920  31.354  1.00  0.00     0.074 A 
ATOM     40  C   UNL A   1      38.643  29.650  29.307  1.00  0.00     0.049 A 
ATOM     41  N   UNL A   1      39.075  30.574  32.138  1.00  0.00    -0.248 NA
ATOM     42  C   UNL A   1      37.137  31.862  31.962  1.00  0.00     0.031 C 
ATOM     43  C   UNL A   1      38.499  29.200  27.920  1.00  0.00     0.029 A 
ATOM     44  N   UNL A   1      39.778  29.010  29.742  1.00  0.00    -0.354 N 
ATOM     45  C   UNL A   1      38.871  31.257  33.332  1.00  0.00     0.074 A 
ATOM     46  C   UNL A   1      37.694  32.080  33.145  1.00  0.00     0.031 C 
ATOM     47  C   UNL A   1      39.489  28.343  27.629  1.00  0.00     0.029 A 
ATOM     48  C   UNL A   1      40.373  28.224  28.783  1.00  0.00     0.049 A 
ATOM     49  H   UNL A   1      40.132  29.106  30.657  1.00  0.00     0.167 HD
ATOM     50  C   UNL A   1      39.589  31.187  34.482  1.00  0.00     0.034 A 
ATOM     51  C   UNL A   1      41.514  27.506  28.816  1.00  0.00     0.034 A 
ATOM     52  C   UNL A   1      40.760  30.360  34.648  1.00  0.00     0.049 A 
ATOM     53  C   UNL A   1      42.329  27.498  30.084  1.00  0.00     0.074 A 
ATOM     54  C   UNL A   1      41.522  30.167  35.787  1.00  0.00     0.029 A 
ATOM     55  N   UNL A   1      41.354  29.605  33.645  1.00  0.00    -0.354 N 
ATOM     56  N   UNL A   1      42.085  28.100  31.226  1.00  0.00    -0.248 NA
ATOM     57  C   UNL A   1      43.571  26.716  30.069  1.00  0.00     0.031 C 
ATOM     58  C   UNL A   1      42.620  29.366  35.453  1.00  0.00     0.029 A 
ATOM     59  C   UNL A   1      42.500  28.989  34.125  1.00  0.00     0.049 A 
ATOM     60  H   UNL A   1      41.011  29.519  32.725  1.00  0.00     0.167 HD
ATOM     61  C   UNL A   1      43.137  27.753  32.070  1.00  0.00     0.074 A 
ATOM     62  C   UNL A   1      44.001  26.869  31.314  1.00  0.00     0.031 C 
ATOM     63  C   UNL A   1      43.369  28.132  33.352  1.00  0.00     0.034 A 
BRANCH  50  64
ATOM     64  C   UNL A   1      39.141  32.049  35.638  1.00  0.00     0.023 A 
ATOM     65  C   UNL A   1      39.553  33.387  35.767  1.00  0.00     0.031 A 
ATOM     66  C   UNL A   1      38.294  31.525  36.632  1.00  0.00     0.131 A 
ATOM     67  C   UNL A   1      39.178  34.131  36.896  1.00  0.00     0.055 A 
ATOM     68  C   UNL A   1      37.858  32.296  37.711  1.00  0.00     0.041 A 
ATOM     69  F   UNL A   1      37.883  30.248  36.576  1.00  0.00    -0.206 F 
ATOM     70  C   UNL A   1      38.312  33.603  37.856  1.00  0.00     0.022 A 
BRANCH  67  71
ATOM     71  S   UNL A   1      39.956  35.748  37.164  1.00  0.00     0.124 S 
ATOM     72  O   UNL A   1      41.354  35.373  37.364  1.00  0.00    -0.237 OA
ATOM     73  O   UNL A   1      39.654  36.451  35.922  1.00  0.00    -0.237 OA
ATOM     74  O   UNL A   1      39.279  36.260  38.353  1.00  0.00    -0.744 OA
ENDBRANCH  67  71
ENDBRANCH  50  64
BRANCH  51  75
ATOM     75  C   UNL A   1      41.978  26.764  27.608  1.00  0.00     0.023 A 
ATOM     76  C   UNL A   1      41.746  25.387  27.472  1.00  0.00     0.031 A 
ATOM     77  C   UNL A   1      42.700  27.414  26.591  1.00  0.00     0.131 A 
ATOM     78  C   UNL A   1      42.272  24.694  26.370  1.00  0.00     0.055 A 
ATOM     79  C   UNL A   1      43.169  26.732  25.466  1.00  0.00     0.041 A 
ATOM     80  F   UNL A   1      42.952  28.730  26.670  1.00  0.00    -0.206 F 
ATOM     81  C   UNL A   1      42.967  25.361  25.359  1.00  0.00     0.022 A 
BRANCH  78  82
ATOM     82  S   UNL A   1      42.115  22.888  26.325  1.00  0.00     0.124 S 
ATOM     83  O   UNL A   1      42.653  22.578  25.004  1.00  0.00    -0.237 OA
ATOM     84  O   UNL A   1      42.935  22.484  27.463  1.00  0.00    -0.237 OA
ATOM     85  O   UNL A   1      40.679  22.667  26.483  1.00  0.00    -0.744 OA
ENDBRANCH  78  82
ENDBRANCH  51  75
BRANCH  63  86
ATOM     86  C   UNL A   1      44.604  27.577  34.018  1.00  0.00     0.023 A 
ATOM     87  C   UNL A   1      44.578  26.356  34.715  1.00  0.00     0.031 A 
ATOM     88  C   UNL A   1      45.822  28.277  33.960  1.00  0.00     0.131 A 
ATOM     89  C   UNL A   1      45.731  25.896  35.368  1.00  0.00     0.055 A 
ATOM     90  C   UNL A   1      46.983  27.783  34.557  1.00  0.00     0.041 A 
ATOM     91  F   UNL A   1      45.905  29.451  33.313  1.00  0.00    -0.206 F 
ATOM     92  C   UNL A   1      46.939  26.593  35.276  1.00  0.00     0.022 A 
BRANCH  89  93
ATOM     93  S   UNL A   1      45.611  24.418  36.410  1.00  0.00     0.124 S 
ATOM     94  O   UNL A   1      45.829  23.347  35.441  1.00  0.00    -0.237 OA
ATOM     95  O   UNL A   1      46.682  24.627  37.378  1.00  0.00    -0.237 OA
ATOM     96  O   UNL A   1      44.259  24.492  36.957  1.00  0.00    -0.744 OA
ENDBRANCH  89  93
ENDBRANCH  63  86
ENDBRANCH  37  38
ENDBRANCH  29  32
ENDBRANCH  27  28
ENDBRANCH  26  27
ENDBRANCH  25  26
ENDBRANCH   1  25
TORSDOF 19
ENDMDL
MODEL 3
REMARK VINA RESULT:     -11.7      2.122      2.862
REMARK SMILES CCCNC(=O)N1[C@@H](C(=O)NCCCCCCNC(=O)c2ccc(-c3c4nc(c(-c5cc(S(=O)(=O)[O-])ccc5F)c5ccc([nH]5)c(-c5cc(S(=O)(=O)[O-])ccc5F)c5nc(c(-c6cc(S(=O)(=O)[O-])ccc6F)c6ccc3[nH]6)C=C5)C=C4)cc2)CC[C@H]2CCCC[C@@H]21
REMARK SMILES IDX 14 1 13 2 12 3 11 4 9 5 10 6 8 8 7 9 91 10 84 11 86 12 90 13
REMARK SMILES IDX 85 14 87 15 89 16 88 17 5 18 4 19 6 21 3 22 2 23 1 24 15 25
REMARK SMILES IDX 16 26 17 27 18 28 19 29 20 31 21 32 22 33 83 34 23 35 82 36
REMARK SMILES IDX 24 37 25 38 26 39 76 40 27 41 81 42 75 43 77 44 28 45 80 46
REMARK SMILES IDX 74 47 73 48 29 50 61 51 41 52 60 53 42 54 45 55 59 56 78 57
REMARK SMILES IDX 43 58 44 59 58 61 79 62 46 63 30 64 31 65 39 66 32 67 38 68
REMARK SMILES IDX 40 69 37 70 33 71 34 72 35 73 36 74 62 75 63 76 71 77 64 78
REMARK SMILES IDX 70 79 72 80 69 81 65 82 66 83 67 84 68 85 47 86 48 87 56 88
REMARK SMILES IDX 49 89 55 90 57 91 54 92 50 93 51 94 52 95 53 96
REMARK H PARENT 11 7 4 20 18 30 77 49 45 60
REMARK Flexibility Score: inf
ROOT
ATOM      1  C   UNL A   1      33.419  29.053  26.349  1.00  0.00     0.002 C 
ENDROOT
BRANCH   1   2
ATOM      2  C   UNL A   1      33.626  28.941  24.837  1.00  0.00     0.021 C 
BRANCH   2   3
ATOM      3  C   UNL A   1      33.606  27.520  24.285  1.00  0.00     0.116 C 
BRANCH   3   4
ATOM      4  N   UNL A   1      32.284  26.917  24.297  1.00  0.00    -0.354 N 
ATOM      5  C   UNL A   1      31.920  25.653  24.703  1.00  0.00     0.242 C 
ATOM      6  O   UNL A   1      30.730  25.444  24.934  1.00  0.00    -0.273 OA
ATOM      7  H   UNL A   1      31.551  27.490  23.974  1.00  0.00     0.163 HD
BRANCH   5   8
ATOM      8  C   UNL A   1      33.053  24.628  24.981  1.00  0.00     0.176 C 
ATOM      9  N   UNL A   1      33.551  23.749  23.917  1.00  0.00    -0.310 N 
ATOM     10  C   UNL A   1      34.671  22.865  24.270  1.00  0.00     0.091 C 
ATOM     11  C   UNL A   1      32.518  23.709  26.111  1.00  0.00     0.036 C 
ATOM     12  C   UNL A   1      34.791  22.673  25.795  1.00  0.00     0.012 C 
ATOM     13  C   UNL A   1      36.035  23.312  23.728  1.00  0.00     0.025 C 
ATOM     14  C   UNL A   1      33.403  22.487  26.399  1.00  0.00     0.008 C 
ATOM     15  C   UNL A   1      35.745  21.515  26.081  1.00  0.00     0.006 C 
ATOM     16  C   UNL A   1      37.073  22.217  24.009  1.00  0.00     0.002 C 
ATOM     17  C   UNL A   1      37.125  21.807  25.484  1.00  0.00     0.000 C 
BRANCH   9  18
ATOM     18  C   UNL A   1      33.178  23.933  22.613  1.00  0.00     0.318 C 
ATOM     19  N   UNL A   1      32.317  23.017  22.082  1.00  0.00    -0.338 N 
ATOM     20  H   UNL A   1      32.179  23.077  21.109  1.00  0.00     0.165 HD
ATOM     21  O   UNL A   1      33.579  24.867  21.925  1.00  0.00    -0.249 OA
BRANCH  19  22
ATOM     22  C   UNL A   1      31.572  21.964  22.756  1.00  0.00     0.117 C 
BRANCH  22  23
ATOM     23  C   UNL A   1      32.155  20.568  22.572  1.00  0.00     0.018 C 
ATOM     24  C   UNL A   1      32.559  19.905  23.875  1.00  0.00     0.006 C 
ENDBRANCH  22  23
ENDBRANCH  19  22
ENDBRANCH   9  18
ENDBRANCH   5   8
ENDBRANCH   3   4
ENDBRANCH   2   3
ENDBRANCH   1   2
BRANCH   1  25
ATOM     25  C   UNL A   1      32.065  29.618  26.793  1.00  0.00     0.002 C 
BRANCH  25  26
ATOM     26  C   UNL A   1      31.914  31.138  26.685  1.00  0.00     0.021 C 
BRANCH  26  27
ATOM     27  C   UNL A   1      33.065  31.952  27.269  1.00  0.00     0.116 C 
BRANCH  27  28
ATOM     28  N   UNL A   1      32.701  33.339  27.510  1.00  0.00    -0.352 N 
ATOM     29  C   UNL A   1      33.200  34.227  28.433  1.00  0.00     0.251 C 
ATOM     30  H   UNL A   1      31.993  33.694  26.926  1.00  0.00     0.163 HD
ATOM     31  O   UNL A   1      32.641  35.308  28.601  1.00  0.00    -0.269 OA
BRANCH  29  32
ATOM     32  C   UNL A   1      34.382  33.864  29.244  1.00  0.00     0.039 A 
ATOM     33  C   UNL A   1      34.197  33.105  30.402  1.00  0.00     0.014 A 
ATOM     34  C   UNL A   1      35.669  34.253  28.858  1.00  0.00     0.014 A 
ATOM     35  C   UNL A   1      35.308  32.661  31.123  1.00  0.00     0.010 A 
ATOM     36  C   UNL A   1      36.777  33.753  29.539  1.00  0.00     0.010 A 
ATOM     37  C   UNL A   1      36.607  32.935  30.667  1.00  0.00    -0.014 A 
BRANCH  37  38
ATOM     38  C   UNL A   1      37.795  32.326  31.322  1.00  0.00     0.031 A 
ATOM     39  C   UNL A   1      38.526  31.184  30.675  1.00  0.00     0.074 A 
ATOM     40  C   UNL A   1      38.170  32.765  32.541  1.00  0.00     0.049 A 
ATOM     41  N   UNL A   1      39.530  30.481  31.132  1.00  0.00    -0.248 NA
ATOM     42  C   UNL A   1      38.051  30.763  29.349  1.00  0.00     0.031 C 
ATOM     43  C   UNL A   1      37.516  33.845  33.285  1.00  0.00     0.029 A 
ATOM     44  N   UNL A   1      39.180  32.355  33.377  1.00  0.00    -0.354 N 
ATOM     45  C   UNL A   1      39.808  29.532  30.154  1.00  0.00     0.074 A 
ATOM     46  C   UNL A   1      38.826  29.716  29.105  1.00  0.00     0.031 C 
ATOM     47  C   UNL A   1      38.156  34.027  34.451  1.00  0.00     0.029 A 
ATOM     48  C   UNL A   1      39.225  33.043  34.568  1.00  0.00     0.049 A 
ATOM     49  H   UNL A   1      39.812  31.637  33.145  1.00  0.00     0.167 HD
ATOM     50  C   UNL A   1      40.800  28.607  30.128  1.00  0.00     0.034 A 
ATOM     51  C   UNL A   1      40.020  32.884  35.645  1.00  0.00     0.034 A 
ATOM     52  C   UNL A   1      41.769  28.438  31.184  1.00  0.00     0.049 A 
ATOM     53  C   UNL A   1      41.073  31.806  35.618  1.00  0.00     0.074 A 
ATOM     54  C   UNL A   1      42.852  27.577  31.230  1.00  0.00     0.029 A 
ATOM     55  N   UNL A   1      41.763  29.127  32.391  1.00  0.00    -0.354 N 
ATOM     56  N   UNL A   1      41.362  30.959  34.657  1.00  0.00    -0.248 NA
ATOM     57  C   UNL A   1      41.905  31.660  36.819  1.00  0.00     0.031 C 
ATOM     58  C   UNL A   1      43.447  27.685  32.492  1.00  0.00     0.029 A 
ATOM     59  C   UNL A   1      42.789  28.673  33.206  1.00  0.00     0.049 A 
ATOM     60  H   UNL A   1      41.123  29.836  32.632  1.00  0.00     0.167 HD
ATOM     61  C   UNL A   1      42.422  30.192  35.133  1.00  0.00     0.074 A 
ATOM     62  C   UNL A   1      42.737  30.695  36.455  1.00  0.00     0.031 C 
ATOM     63  C   UNL A   1      43.076  29.164  34.534  1.00  0.00     0.034 A 
BRANCH  50  64
ATOM     64  C   UNL A   1      40.869  27.689  28.930  1.00  0.00     0.023 A 
ATOM     65  C   UNL A   1      41.831  27.860  27.920  1.00  0.00     0.031 A 
ATOM     66  C   UNL A   1      39.953  26.631  28.790  1.00  0.00     0.131 A 
ATOM     67  C   UNL A   1      41.812  27.035  26.786  1.00  0.00     0.055 A 
ATOM     68  C   UNL A   1      39.991  25.762  27.698  1.00  0.00     0.041 A 
ATOM     69  F   UNL A   1      38.996  26.429  29.710  1.00  0.00    -0.206 F 
ATOM     70  C   UNL A   1      40.915  25.970  26.680  1.00  0.00     0.022 A 
BRANCH  67  71
ATOM     71  S   UNL A   1      42.883  27.465  25.385  1.00  0.00     0.124 S 
ATOM     72  O   UNL A   1      42.942  26.198  24.660  1.00  0.00    -0.237 OA
ATOM     73  O   UNL A   1      42.138  28.539  24.738  1.00  0.00    -0.237 OA
ATOM     74  O   UNL A   1      44.134  27.868  26.023  1.00  0.00    -0.744 OA
ENDBRANCH  67  71
ENDBRANCH  50  64
BRANCH  51  75
ATOM     75  C   UNL A   1      39.837  33.739  36.855  1.00  0.00     0.023 A 
ATOM     76  C   UNL A   1      39.343  33.201  38.053  1.00  0.00     0.031 A 
ATOM     77  C   UNL A   1      40.113  35.118  36.816  1.00  0.00     0.131 A 
ATOM     78  C   UNL A   1      39.094  34.043  39.148  1.00  0.00     0.055 A 
ATOM     79  C   UNL A   1      39.921  35.941  37.928  1.00  0.00     0.041 A 
ATOM     80  F   UNL A   1      40.586  35.686  35.696  1.00  0.00    -0.206 F 
ATOM     81  C   UNL A   1      39.396  35.406  39.098  1.00  0.00     0.022 A 
BRANCH  78  82
ATOM     82  S   UNL A   1      38.280  33.347  40.611  1.00  0.00     0.124 S 
ATOM     83  O   UNL A   1      36.891  33.739  40.390  1.00  0.00    -0.237 OA
ATOM     84  O   UNL A   1      38.575  31.925  40.474  1.00  0.00    -0.237 OA
ATOM     85  O   UNL A   1      38.949  34.018  41.724  1.00  0.00    -0.744 OA
ENDBRANCH  78  82
ENDBRANCH  51  75
BRANCH  63  86
ATOM     86  C   UNL A   1      44.205  28.527  35.306  1.00  0.00     0.023 A 
ATOM     87  C   UNL A   1      43.972  27.490  36.227  1.00  0.00     0.031 A 
ATOM     88  C   UNL A   1      45.529  28.962  35.123  1.00  0.00     0.131 A 
ATOM     89  C   UNL A   1      45.038  26.958  36.967  1.00  0.00     0.055 A 
ATOM     90  C   UNL A   1      46.595  28.384  35.815  1.00  0.00     0.041 A 
ATOM     91  F   UNL A   1      45.810  29.953  34.260  1.00  0.00    -0.206 F 
ATOM     92  C   UNL A   1      46.351  27.385  36.752  1.00  0.00     0.022 A 
BRANCH  89  93
ATOM     93  S   UNL A   1      44.676  25.757  38.275  1.00  0.00     0.124 S 
ATOM     94  O   UNL A   1      44.312  26.626  39.391  1.00  0.00    -0.237 OA
ATOM     95  O   UNL A   1      43.588  24.978  37.695  1.00  0.00    -0.237 OA
ATOM     96  O   UNL A   1      45.936  25.036  38.438  1.00  0.00    -0.744 OA
ENDBRANCH  89  93
ENDBRANCH  63  86
ENDBRANCH  37  38
ENDBRANCH  29  32
ENDBRANCH  27  28
ENDBRANCH  26  27
ENDBRANCH  25  26
ENDBRANCH   1  25
TORSDOF 19
ENDMDL
