MODEL 1
REMARK VINA RESULT:     -10.1      0.000      0.000
REMARK SMILES NS(=O)(=O)c1ccc(-c2coc(=O)n2-c2ccc(C(=O)NCCCCCCNC(=O)c3ccc(-c4c5nc(c(-c6cc(S(=O)(=O)[O-])ccc6F)c6ccc([nH]6)c(-c6cc(S(=O)(=O)[O-])ccc6F)c6nc(c(-c7cc(S(=O)(=O)[O-])ccc7F)c7ccc4[nH]7)C=C6)C=C5)cc3)cc2)cc1
REMARK SMILES IDX 24 1 23 2 22 3 21 4 19 5 20 6 18 8 15 9 16 10 95 11 17 12
REMARK SMILES IDX 94 13 14 14 9 15 10 16 11 17 12 18 13 19 8 20 5 21 6 22
REMARK SMILES IDX 97 23 7 24 96 25 2 26 3 27 4 28 1 29 25 32 26 33 27 34 28 35
REMARK SMILES IDX 29 36 30 38 31 39 32 40 93 41 33 42 92 43 34 44 35 45 36 46
REMARK SMILES IDX 86 47 37 48 91 49 85 50 87 51 38 52 90 53 84 54 83 55 39 57
REMARK SMILES IDX 71 58 51 59 70 60 52 61 55 62 69 63 88 64 53 65 54 66 68 68
REMARK SMILES IDX 89 69 56 70 40 71 41 72 49 73 42 74 48 75 50 76 47 77 43 78
REMARK SMILES IDX 44 79 45 80 46 81 72 82 73 83 81 84 74 85 80 86 82 87 79 88
REMARK SMILES IDX 75 89 76 90 77 91 78 92 57 93 58 94 66 95 59 96 65 97 67 98
REMARK SMILES IDX 64 99 60 100 61 101 62 102 63 103
REMARK H PARENT 21 7 1 30 1 31 28 37 87 56 55 67
REMARK Flexibility Score: inf
ROOT
ATOM      1  C   UNL A   1      44.847  22.945  25.243  1.00  0.00     0.002 C 
ENDROOT
BRANCH   1   2
ATOM      2  C   UNL A   1      43.906  21.782  25.588  1.00  0.00     0.021 C 
BRANCH   2   3
ATOM      3  C   UNL A   1      42.427  22.139  25.428  1.00  0.00     0.116 C 
BRANCH   3   4
ATOM      4  N   UNL A   1      41.654  21.573  26.518  1.00  0.00    -0.352 N 
ATOM      5  C   UNL A   1      41.644  21.785  27.872  1.00  0.00     0.251 C 
ATOM      6  O   UNL A   1      40.838  21.137  28.541  1.00  0.00    -0.269 OA
ATOM      7  H   UNL A   1      41.001  20.896  26.223  1.00  0.00     0.163 HD
BRANCH   5   8
ATOM      8  C   UNL A   1      42.489  22.811  28.550  1.00  0.00     0.039 A 
ATOM      9  C   UNL A   1      44.068  24.545  30.102  1.00  0.00     0.053 A 
ATOM     10  C   UNL A   1      44.510  23.247  29.851  1.00  0.00     0.028 A 
ATOM     11  C   UNL A   1      42.896  25.001  29.493  1.00  0.00     0.028 A 
ATOM     12  C   UNL A   1      43.704  22.377  29.109  1.00  0.00     0.016 A 
ATOM     13  C   UNL A   1      42.151  24.157  28.669  1.00  0.00     0.016 A 
BRANCH   9  14
ATOM     14  N   UNL A   1      44.770  25.400  30.971  1.00  0.00    -0.242 N 
ATOM     15  C   UNL A   1      45.751  26.295  30.654  1.00  0.00     0.095 A 
ATOM     16  C   UNL A   1      46.218  26.750  31.810  1.00  0.00     0.228 A 
ATOM     17  O   UNL A   1      45.587  26.218  32.934  1.00  0.00    -0.415 OA
ATOM     18  C   UNL A   1      44.640  25.369  32.356  1.00  0.00     0.424 A 
ATOM     19  O   UNL A   1      43.858  24.705  33.024  1.00  0.00    -0.223 OA
BRANCH  15  20
ATOM     20  C   UNL A   1      46.068  26.764  29.307  1.00  0.00     0.002 A 
ATOM     21  C   UNL A   1      46.607  27.684  26.712  1.00  0.00     0.082 A 
ATOM     22  C   UNL A   1      45.898  28.496  27.600  1.00  0.00     0.022 A 
ATOM     23  C   UNL A   1      47.057  26.422  27.112  1.00  0.00     0.022 A 
ATOM     24  C   UNL A   1      45.633  28.035  28.891  1.00  0.00     0.012 A 
ATOM     25  C   UNL A   1      46.792  25.969  28.411  1.00  0.00     0.012 A 
BRANCH  21  26
ATOM     26  S   UNL A   1      46.911  28.310  25.087  1.00  0.00     0.238 S 
ATOM     27  O   UNL A   1      46.525  29.700  25.060  1.00  0.00    -0.207 OA
ATOM     28  O   UNL A   1      46.422  27.344  24.130  1.00  0.00    -0.207 OA
BRANCH  26  29
ATOM     29  N   UNL A   1      48.582  28.302  24.923  1.00  0.00    -0.225 NA
ATOM     30  H   UNL A   1      48.879  29.143  24.428  1.00  0.00     0.137 HD
ATOM     31  H   UNL A   1      48.868  27.477  24.395  1.00  0.00     0.137 HD
ENDBRANCH  26  29
ENDBRANCH  21  26
ENDBRANCH  15  20
ENDBRANCH   9  14
ENDBRANCH   5   8
ENDBRANCH   3   4
ENDBRANCH   2   3
ENDBRANCH   1   2
BRANCH   1  32
ATOM     32  C   UNL A   1      44.476  24.299  25.871  1.00  0.00     0.002 C 
BRANCH  32  33
ATOM     33  C   UNL A   1      43.680  25.260  24.975  1.00  0.00     0.021 C 
BRANCH  33  34
ATOM     34  C   UNL A   1      42.579  25.998  25.718  1.00  0.00     0.116 C 
BRANCH  34  35
ATOM     35  N   UNL A   1      41.261  25.424  25.440  1.00  0.00    -0.352 N 
ATOM     36  C   UNL A   1      40.128  25.451  26.230  1.00  0.00     0.251 C 
ATOM     37  H   UNL A   1      41.171  24.959  24.578  1.00  0.00     0.163 HD
ATOM     38  O   UNL A   1      39.242  24.619  26.071  1.00  0.00    -0.269 OA
BRANCH  36  39
ATOM     39  C   UNL A   1      40.009  26.499  27.257  1.00  0.00     0.039 A 
ATOM     40  C   UNL A   1      39.538  26.221  28.542  1.00  0.00     0.014 A 
ATOM     41  C   UNL A   1      40.407  27.787  26.908  1.00  0.00     0.014 A 
ATOM     42  C   UNL A   1      39.543  27.241  29.491  1.00  0.00     0.010 A 
ATOM     43  C   UNL A   1      40.580  28.734  27.881  1.00  0.00     0.010 A 
ATOM     44  C   UNL A   1      40.082  28.494  29.154  1.00  0.00    -0.014 A 
BRANCH  44  45
ATOM     45  C   UNL A   1      40.250  29.545  30.150  1.00  0.00     0.031 A 
ATOM     46  C   UNL A   1      39.008  30.309  30.434  1.00  0.00     0.074 A 
ATOM     47  C   UNL A   1      41.351  29.652  30.926  1.00  0.00     0.049 A 
ATOM     48  N   UNL A   1      38.740  31.527  30.102  1.00  0.00    -0.248 NA
ATOM     49  C   UNL A   1      37.852  29.584  30.990  1.00  0.00     0.031 C 
ATOM     50  C   UNL A   1      42.520  28.767  30.981  1.00  0.00     0.029 A 
ATOM     51  N   UNL A   1      41.605  30.529  31.932  1.00  0.00    -0.354 N 
ATOM     52  C   UNL A   1      37.493  31.805  30.650  1.00  0.00     0.074 A 
ATOM     53  C   UNL A   1      36.909  30.528  30.955  1.00  0.00     0.031 C 
ATOM     54  C   UNL A   1      43.217  29.002  32.115  1.00  0.00     0.029 A 
ATOM     55  C   UNL A   1      42.651  30.163  32.778  1.00  0.00     0.049 A 
ATOM     56  H   UNL A   1      41.090  31.359  32.055  1.00  0.00     0.167 HD
ATOM     57  C   UNL A   1      37.173  33.067  31.053  1.00  0.00     0.034 A 
ATOM     58  C   UNL A   1      43.004  30.754  33.953  1.00  0.00     0.034 A 
ATOM     59  C   UNL A   1      38.107  34.031  30.506  1.00  0.00     0.049 A 
ATOM     60  C   UNL A   1      42.450  32.133  33.906  1.00  0.00     0.074 A 
ATOM     61  C   UNL A   1      38.520  34.352  29.224  1.00  0.00     0.029 A 
ATOM     62  N   UNL A   1      39.085  34.537  31.337  1.00  0.00    -0.354 N 
ATOM     63  N   UNL A   1      42.837  33.026  33.033  1.00  0.00    -0.248 NA
ATOM     64  C   UNL A   1      41.118  32.346  34.455  1.00  0.00     0.031 C 
ATOM     65  C   UNL A   1      39.934  34.523  29.333  1.00  0.00     0.029 A 
ATOM     66  C   UNL A   1      40.286  34.408  30.680  1.00  0.00     0.049 A 
ATOM     67  H   UNL A   1      38.949  34.919  32.234  1.00  0.00     0.167 HD
ATOM     68  C   UNL A   1      41.669  33.637  32.599  1.00  0.00     0.074 A 
ATOM     69  C   UNL A   1      40.651  33.238  33.574  1.00  0.00     0.031 C 
ATOM     70  C   UNL A   1      41.557  34.162  31.341  1.00  0.00     0.034 A 
BRANCH  57  71
ATOM     71  C   UNL A   1      36.283  33.402  32.234  1.00  0.00     0.023 A 
ATOM     72  C   UNL A   1      35.137  34.174  31.965  1.00  0.00     0.031 A 
ATOM     73  C   UNL A   1      36.621  33.272  33.601  1.00  0.00     0.131 A 
ATOM     74  C   UNL A   1      34.473  34.871  32.990  1.00  0.00     0.055 A 
ATOM     75  C   UNL A   1      35.915  33.910  34.625  1.00  0.00     0.041 A 
ATOM     76  F   UNL A   1      37.697  32.602  34.027  1.00  0.00    -0.206 F 
ATOM     77  C   UNL A   1      34.857  34.747  34.321  1.00  0.00     0.022 A 
BRANCH  74  78
ATOM     78  S   UNL A   1      33.225  36.094  32.520  1.00  0.00     0.124 S 
ATOM     79  O   UNL A   1      33.383  37.089  33.575  1.00  0.00    -0.237 OA
ATOM     80  O   UNL A   1      33.677  36.486  31.190  1.00  0.00    -0.237 OA
ATOM     81  O   UNL A   1      31.977  35.335  32.557  1.00  0.00    -0.744 OA
ENDBRANCH  74  78
ENDBRANCH  57  71
BRANCH  58  82
ATOM     82  C   UNL A   1      43.451  30.068  35.205  1.00  0.00     0.023 A 
ATOM     83  C   UNL A   1      42.904  28.849  35.667  1.00  0.00     0.031 A 
ATOM     84  C   UNL A   1      44.627  30.513  35.858  1.00  0.00     0.131 A 
ATOM     85  C   UNL A   1      43.523  28.142  36.731  1.00  0.00     0.055 A 
ATOM     86  C   UNL A   1      45.230  29.813  36.906  1.00  0.00     0.041 A 
ATOM     87  F   UNL A   1      45.282  31.607  35.442  1.00  0.00    -0.206 F 
ATOM     88  C   UNL A   1      44.685  28.617  37.342  1.00  0.00     0.022 A 
BRANCH  85  89
ATOM     89  S   UNL A   1      42.871  26.531  37.293  1.00  0.00     0.124 S 
ATOM     90  O   UNL A   1      41.437  26.786  37.369  1.00  0.00    -0.237 OA
ATOM     91  O   UNL A   1      43.317  25.627  36.240  1.00  0.00    -0.237 OA
ATOM     92  O   UNL A   1      43.525  26.329  38.587  1.00  0.00    -0.744 OA
ENDBRANCH  85  89
ENDBRANCH  58  82
BRANCH  70  93
ATOM     93  C   UNL A   1      42.807  34.317  30.491  1.00  0.00     0.023 A 
ATOM     94  C   UNL A   1      43.262  33.387  29.526  1.00  0.00     0.031 A 
ATOM     95  C   UNL A   1      43.485  35.546  30.574  1.00  0.00     0.131 A 
ATOM     96  C   UNL A   1      44.358  33.708  28.697  1.00  0.00     0.055 A 
ATOM     97  C   UNL A   1      44.552  35.869  29.737  1.00  0.00     0.041 A 
ATOM     98  F   UNL A   1      43.088  36.484  31.451  1.00  0.00    -0.206 F 
ATOM     99  C   UNL A   1      44.995  34.948  28.797  1.00  0.00     0.022 A 
BRANCH  96 100
ATOM    100  S   UNL A   1      44.991  32.512  27.472  1.00  0.00     0.124 S 
ATOM    101  O   UNL A   1      45.109  33.305  26.253  1.00  0.00    -0.237 OA
ATOM    102  O   UNL A   1      46.247  32.075  28.075  1.00  0.00    -0.237 OA
ATOM    103  O   UNL A   1      43.948  31.484  27.429  1.00  0.00    -0.744 OA
ENDBRANCH  96 100
ENDBRANCH  70  93
ENDBRANCH  44  45
ENDBRANCH  36  39
ENDBRANCH  34  35
ENDBRANCH  33  34
ENDBRANCH  32  33
ENDBRANCH   1  32
TORSDOF 20
ENDMDL
MODEL 2
REMARK VINA RESULT:      -9.7      5.522     11.655
REMARK SMILES NS(=O)(=O)c1ccc(-c2coc(=O)n2-c2ccc(C(=O)NCCCCCCNC(=O)c3ccc(-c4c5nc(c(-c6cc(S(=O)(=O)[O-])ccc6F)c6ccc([nH]6)c(-c6cc(S(=O)(=O)[O-])ccc6F)c6nc(c(-c7cc(S(=O)(=O)[O-])ccc7F)c7ccc4[nH]7)C=C6)C=C5)cc3)cc2)cc1
REMARK SMILES IDX 24 1 23 2 22 3 21 4 19 5 20 6 18 8 15 9 16 10 95 11 17 12
REMARK SMILES IDX 94 13 14 14 9 15 10 16 11 17 12 18 13 19 8 20 5 21 6 22
REMARK SMILES IDX 97 23 7 24 96 25 2 26 3 27 4 28 1 29 25 32 26 33 27 34 28 35
REMARK SMILES IDX 29 36 30 38 31 39 32 40 93 41 33 42 92 43 34 44 35 45 36 46
REMARK SMILES IDX 86 47 37 48 91 49 85 50 87 51 38 52 90 53 84 54 83 55 39 57
REMARK SMILES IDX 71 58 51 59 70 60 52 61 55 62 69 63 88 64 53 65 54 66 68 68
REMARK SMILES IDX 89 69 56 70 40 71 41 72 49 73 42 74 48 75 50 76 47 77 43 78
REMARK SMILES IDX 44 79 45 80 46 81 72 82 73 83 81 84 74 85 80 86 82 87 79 88
REMARK SMILES IDX 75 89 76 90 77 91 78 92 57 93 58 94 66 95 59 96 65 97 67 98
REMARK SMILES IDX 64 99 60 100 61 101 62 102 63 103
REMARK H PARENT 21 7 1 30 1 31 28 37 87 56 55 67
REMARK Flexibility Score: inf
ROOT
ATOM      1  C   UNL A   1      32.858  33.559  28.430  1.00  0.00     0.002 C 
ENDROOT
BRANCH   1   2
ATOM      2  C   UNL A   1      32.395  33.006  27.075  1.00  0.00     0.021 C 
BRANCH   2   3
ATOM      3  C   UNL A   1      32.321  31.478  27.044  1.00  0.00     0.116 C 
BRANCH   3   4
ATOM      4  N   UNL A   1      33.536  30.906  27.593  1.00  0.00    -0.352 N 
ATOM      5  C   UNL A   1      34.059  29.639  27.596  1.00  0.00     0.251 C 
ATOM      6  O   UNL A   1      35.147  29.477  28.152  1.00  0.00    -0.269 OA
ATOM      7  H   UNL A   1      34.102  31.564  28.060  1.00  0.00     0.163 HD
BRANCH   5   8
ATOM      8  C   UNL A   1      33.426  28.486  26.892  1.00  0.00     0.039 A 
ATOM      9  C   UNL A   1      32.240  26.506  25.286  1.00  0.00     0.053 A 
ATOM     10  C   UNL A   1      33.517  26.972  24.977  1.00  0.00     0.028 A 
ATOM     11  C   UNL A   1      31.608  26.953  26.449  1.00  0.00     0.028 A 
ATOM     12  C   UNL A   1      34.088  27.983  25.758  1.00  0.00     0.016 A 
ATOM     13  C   UNL A   1      32.230  27.886  27.279  1.00  0.00     0.016 A 
BRANCH   9  14
ATOM     14  N   UNL A   1      31.566  25.606  24.439  1.00  0.00    -0.242 N 
ATOM     15  C   UNL A   1      30.476  25.852  23.654  1.00  0.00     0.095 A 
ATOM     16  C   UNL A   1      30.105  24.674  23.165  1.00  0.00     0.228 A 
ATOM     17  O   UNL A   1      30.908  23.608  23.567  1.00  0.00    -0.415 OA
ATOM     18  C   UNL A   1      31.857  24.248  24.369  1.00  0.00     0.424 A 
ATOM     19  O   UNL A   1      32.768  23.643  24.918  1.00  0.00    -0.223 OA
BRANCH  15  20
ATOM     20  C   UNL A   1      29.964  27.175  23.303  1.00  0.00     0.002 A 
ATOM     21  C   UNL A   1      28.926  29.682  22.595  1.00  0.00     0.082 A 
ATOM     22  C   UNL A   1      28.086  28.722  23.162  1.00  0.00     0.022 A 
ATOM     23  C   UNL A   1      30.280  29.405  22.387  1.00  0.00     0.022 A 
ATOM     24  C   UNL A   1      28.607  27.475  23.515  1.00  0.00     0.012 A 
ATOM     25  C   UNL A   1      30.797  28.154  22.748  1.00  0.00     0.012 A 
BRANCH  21  26
ATOM     26  S   UNL A   1      28.216  31.243  22.161  1.00  0.00     0.238 S 
ATOM     27  O   UNL A   1      27.280  31.616  23.193  1.00  0.00    -0.207 OA
ATOM     28  O   UNL A   1      27.862  31.205  20.760  1.00  0.00    -0.207 OA
BRANCH  26  29
ATOM     29  N   UNL A   1      29.480  32.343  22.278  1.00  0.00    -0.225 NA
ATOM     30  H   UNL A   1      29.203  33.115  22.885  1.00  0.00     0.137 HD
ATOM     31  H   UNL A   1      29.703  32.704  21.350  1.00  0.00     0.137 HD
ENDBRANCH  26  29
ENDBRANCH  21  26
ENDBRANCH  15  20
ENDBRANCH   9  14
ENDBRANCH   5   8
ENDBRANCH   3   4
ENDBRANCH   2   3
ENDBRANCH   1   2
BRANCH   1  32
ATOM     32  C   UNL A   1      34.150  34.392  28.394  1.00  0.00     0.002 C 
BRANCH  32  33
ATOM     33  C   UNL A   1      35.312  33.797  27.583  1.00  0.00     0.021 C 
BRANCH  33  34
ATOM     34  C   UNL A   1      36.366  33.128  28.450  1.00  0.00     0.116 C 
BRANCH  34  35
ATOM     35  N   UNL A   1      36.082  33.298  29.876  1.00  0.00    -0.352 N 
ATOM     36  C   UNL A   1      36.518  32.529  30.937  1.00  0.00     0.251 C 
ATOM     37  H   UNL A   1      35.504  34.059  30.108  1.00  0.00     0.163 HD
ATOM     38  O   UNL A   1      35.906  32.533  31.998  1.00  0.00    -0.269 OA
BRANCH  36  39
ATOM     39  C   UNL A   1      37.731  31.713  30.764  1.00  0.00     0.039 A 
ATOM     40  C   UNL A   1      39.010  32.266  30.854  1.00  0.00     0.014 A 
ATOM     41  C   UNL A   1      37.559  30.352  30.525  1.00  0.00     0.014 A 
ATOM     42  C   UNL A   1      40.112  31.417  30.775  1.00  0.00     0.010 A 
ATOM     43  C   UNL A   1      38.627  29.502  30.628  1.00  0.00     0.010 A 
ATOM     44  C   UNL A   1      39.909  30.030  30.677  1.00  0.00    -0.014 A 
BRANCH  44  45
ATOM     45  C   UNL A   1      41.021  29.090  30.744  1.00  0.00     0.031 A 
ATOM     46  C   UNL A   1      41.376  28.674  32.125  1.00  0.00     0.074 A 
ATOM     47  C   UNL A   1      41.517  28.460  29.656  1.00  0.00     0.049 A 
ATOM     48  N   UNL A   1      42.426  29.002  32.801  1.00  0.00    -0.248 NA
ATOM     49  C   UNL A   1      40.363  27.960  32.922  1.00  0.00     0.031 C 
ATOM     50  C   UNL A   1      41.046  28.527  28.267  1.00  0.00     0.029 A 
ATOM     51  N   UNL A   1      42.492  27.516  29.584  1.00  0.00    -0.354 N 
ATOM     52  C   UNL A   1      42.335  28.311  34.004  1.00  0.00     0.074 A 
ATOM     53  C   UNL A   1      40.961  27.903  34.114  1.00  0.00     0.031 C 
ATOM     54  C   UNL A   1      41.560  27.496  27.561  1.00  0.00     0.029 A 
ATOM     55  C   UNL A   1      42.526  26.798  28.391  1.00  0.00     0.049 A 
ATOM     56  H   UNL A   1      43.125  27.352  30.320  1.00  0.00     0.167 HD
ATOM     57  C   UNL A   1      43.457  27.904  34.661  1.00  0.00     0.034 A 
ATOM     58  C   UNL A   1      43.271  25.691  28.117  1.00  0.00     0.034 A 
ATOM     59  C   UNL A   1      44.627  28.588  34.148  1.00  0.00     0.049 A 
ATOM     60  C   UNL A   1      44.402  25.705  29.083  1.00  0.00     0.074 A 
ATOM     61  C   UNL A   1      44.978  29.919  34.001  1.00  0.00     0.029 A 
ATOM     62  N   UNL A   1      45.465  27.898  33.297  1.00  0.00    -0.354 N 
ATOM     63  N   UNL A   1      45.313  26.643  29.097  1.00  0.00    -0.248 NA
ATOM     64  C   UNL A   1      44.223  25.000  30.344  1.00  0.00     0.031 C 
ATOM     65  C   UNL A   1      45.589  29.991  32.712  1.00  0.00     0.029 A 
ATOM     66  C   UNL A   1      45.676  28.695  32.197  1.00  0.00     0.049 A 
ATOM     67  H   UNL A   1      45.842  27.001  33.448  1.00  0.00     0.167 HD
ATOM     68  C   UNL A   1      45.500  26.943  30.439  1.00  0.00     0.074 A 
ATOM     69  C   UNL A   1      44.866  25.840  31.164  1.00  0.00     0.031 C 
ATOM     70  C   UNL A   1      45.882  28.191  30.849  1.00  0.00     0.034 A 
BRANCH  57  71
ATOM     71  C   UNL A   1      43.572  26.631  35.477  1.00  0.00     0.023 A 
ATOM     72  C   UNL A   1      43.885  26.778  36.842  1.00  0.00     0.031 A 
ATOM     73  C   UNL A   1      43.681  25.317  34.966  1.00  0.00     0.131 A 
ATOM     74  C   UNL A   1      44.402  25.705  37.588  1.00  0.00     0.055 A 
ATOM     75  C   UNL A   1      44.129  24.236  35.733  1.00  0.00     0.041 A 
ATOM     76  F   UNL A   1      43.454  25.009  33.686  1.00  0.00    -0.206 F 
ATOM     77  C   UNL A   1      44.530  24.433  37.041  1.00  0.00     0.022 A 
BRANCH  74  78
ATOM     78  S   UNL A   1      45.086  26.057  39.226  1.00  0.00     0.124 S 
ATOM     79  O   UNL A   1      45.397  24.714  39.705  1.00  0.00    -0.237 OA
ATOM     80  O   UNL A   1      46.227  26.905  38.897  1.00  0.00    -0.237 OA
ATOM     81  O   UNL A   1      43.987  26.730  39.914  1.00  0.00    -0.744 OA
ENDBRANCH  74  78
ENDBRANCH  57  71
BRANCH  58  82
ATOM     82  C   UNL A   1      42.841  24.487  27.341  1.00  0.00     0.023 A 
ATOM     83  C   UNL A   1      43.682  23.799  26.436  1.00  0.00     0.031 A 
ATOM     84  C   UNL A   1      41.621  23.847  27.671  1.00  0.00     0.131 A 
ATOM     85  C   UNL A   1      43.290  22.541  25.906  1.00  0.00     0.055 A 
ATOM     86  C   UNL A   1      41.241  22.610  27.145  1.00  0.00     0.041 A 
ATOM     87  F   UNL A   1      40.790  24.365  28.588  1.00  0.00    -0.206 F 
ATOM     88  C   UNL A   1      42.079  21.946  26.265  1.00  0.00     0.022 A 
BRANCH  85  89
ATOM     89  S   UNL A   1      44.395  21.606  24.792  1.00  0.00     0.124 S 
ATOM     90  O   UNL A   1      44.209  22.295  23.521  1.00  0.00    -0.237 OA
ATOM     91  O   UNL A   1      45.695  21.764  25.435  1.00  0.00    -0.237 OA
ATOM     92  O   UNL A   1      43.854  20.246  24.836  1.00  0.00    -0.744 OA
ENDBRANCH  85  89
ENDBRANCH  58  82
BRANCH  70  93
ATOM     93  C   UNL A   1      46.365  29.194  29.814  1.00  0.00     0.023 A 
ATOM     94  C   UNL A   1      45.536  29.905  28.913  1.00  0.00     0.031 A 
ATOM     95  C   UNL A   1      47.726  29.542  29.853  1.00  0.00     0.131 A 
ATOM     96  C   UNL A   1      46.086  30.916  28.096  1.00  0.00     0.055 A 
ATOM     97  C   UNL A   1      48.261  30.558  29.061  1.00  0.00     0.041 A 
ATOM     98  F   UNL A   1      48.563  28.925  30.703  1.00  0.00    -0.206 F 
ATOM     99  C   UNL A   1      47.442  31.246  28.176  1.00  0.00     0.022 A 
BRANCH  96 100
ATOM    100  S   UNL A   1      45.049  31.821  26.897  1.00  0.00     0.124 S 
ATOM    101  O   UNL A   1      45.043  33.185  27.414  1.00  0.00    -0.237 OA
ATOM    102  O   UNL A   1      45.763  31.615  25.641  1.00  0.00    -0.237 OA
ATOM    103  O   UNL A   1      43.757  31.135  26.979  1.00  0.00    -0.744 OA
ENDBRANCH  96 100
ENDBRANCH  70  93
ENDBRANCH  44  45
ENDBRANCH  36  39
ENDBRANCH  34  35
ENDBRANCH  33  34
ENDBRANCH  32  33
ENDBRANCH   1  32
TORSDOF 20
ENDMDL
MODEL 3
REMARK VINA RESULT:      -9.4      2.763      4.958
REMARK SMILES NS(=O)(=O)c1ccc(-c2coc(=O)n2-c2ccc(C(=O)NCCCCCCNC(=O)c3ccc(-c4c5nc(c(-c6cc(S(=O)(=O)[O-])ccc6F)c6ccc([nH]6)c(-c6cc(S(=O)(=O)[O-])ccc6F)c6nc(c(-c7cc(S(=O)(=O)[O-])ccc7F)c7ccc4[nH]7)C=C6)C=C5)cc3)cc2)cc1
REMARK SMILES IDX 24 1 23 2 22 3 21 4 19 5 20 6 18 8 15 9 16 10 95 11 17 12
REMARK SMILES IDX 94 13 14 14 9 15 10 16 11 17 12 18 13 19 8 20 5 21 6 22
REMARK SMILES IDX 97 23 7 24 96 25 2 26 3 27 4 28 1 29 25 32 26 33 27 34 28 35
REMARK SMILES IDX 29 36 30 38 31 39 32 40 93 41 33 42 92 43 34 44 35 45 36 46
REMARK SMILES IDX 86 47 37 48 91 49 85 50 87 51 38 52 90 53 84 54 83 55 39 57
REMARK SMILES IDX 71 58 51 59 70 60 52 61 55 62 69 63 88 64 53 65 54 66 68 68
REMARK SMILES IDX 89 69 56 70 40 71 41 72 49 73 42 74 48 75 50 76 47 77 43 78
REMARK SMILES IDX 44 79 45 80 46 81 72 82 73 83 81 84 74 85 80 86 82 87 79 88
REMARK SMILES IDX 75 89 76 90 77 91 78 92 57 93 58 94 66 95 59 96 65 97 67 98
REMARK SMILES IDX 64 99 60 100 61 101 62 102 63 103
REMARK H PARENT 21 7 1 30 1 31 28 37 87 56 55 67
REMARK Flexibility Score: inf
ROOT
ATOM      1  C   UNL A   1      44.593  26.306  27.470  1.00  0.00     0.002 C 
ENDROOT
BRANCH   1   2
ATOM      2  C   UNL A   1      45.797  25.382  27.243  1.00  0.00     0.021 C 
BRANCH   2   3
ATOM      3  C   UNL A   1      46.489  24.967  28.544  1.00  0.00     0.116 C 
BRANCH   3   4
ATOM      4  N   UNL A   1      47.257  26.076  29.079  1.00  0.00    -0.352 N 
ATOM      5  C   UNL A   1      47.207  26.769  30.260  1.00  0.00     0.251 C 
ATOM      6  O   UNL A   1      48.028  27.674  30.421  1.00  0.00    -0.269 OA
ATOM      7  H   UNL A   1      47.960  26.396  28.467  1.00  0.00     0.163 HD
BRANCH   5   8
ATOM      8  C   UNL A   1      46.279  26.427  31.376  1.00  0.00     0.039 A 
ATOM      9  C   UNL A   1      44.286  25.930  33.297  1.00  0.00     0.053 A 
ATOM     10  C   UNL A   1      44.161  25.392  32.018  1.00  0.00     0.028 A 
ATOM     11  C   UNL A   1      45.450  26.623  33.640  1.00  0.00     0.028 A 
ATOM     12  C   UNL A   1      45.137  25.672  31.055  1.00  0.00     0.016 A 
ATOM     13  C   UNL A   1      46.466  26.808  32.703  1.00  0.00     0.016 A 
BRANCH   9  14
ATOM     14  N   UNL A   1      43.254  25.805  34.246  1.00  0.00    -0.242 N 
ATOM     15  C   UNL A   1      43.003  24.751  35.076  1.00  0.00     0.095 A 
ATOM     16  C   UNL A   1      41.846  25.019  35.669  1.00  0.00     0.228 A 
ATOM     17  O   UNL A   1      41.280  26.238  35.296  1.00  0.00    -0.415 OA
ATOM     18  C   UNL A   1      42.227  26.732  34.395  1.00  0.00     0.424 A 
ATOM     19  O   UNL A   1      42.101  27.813  33.836  1.00  0.00    -0.223 OA
BRANCH  15  20
ATOM     20  C   UNL A   1      43.930  23.657  35.362  1.00  0.00     0.002 A 
ATOM     21  C   UNL A   1      45.653  21.511  35.898  1.00  0.00     0.082 A 
ATOM     22  C   UNL A   1      44.850  21.483  34.756  1.00  0.00     0.022 A 
ATOM     23  C   UNL A   1      45.610  22.604  36.768  1.00  0.00     0.022 A 
ATOM     24  C   UNL A   1      43.994  22.554  34.492  1.00  0.00     0.012 A 
ATOM     25  C   UNL A   1      44.753  23.677  36.494  1.00  0.00     0.012 A 
BRANCH  21  26
ATOM     26  S   UNL A   1      46.715  20.128  36.191  1.00  0.00     0.238 S 
ATOM     27  O   UNL A   1      45.959  19.118  36.890  1.00  0.00    -0.207 OA
ATOM     28  O   UNL A   1      47.985  20.625  36.670  1.00  0.00    -0.207 OA
BRANCH  26  29
ATOM     29  N   UNL A   1      47.027  19.488  34.670  1.00  0.00    -0.225 NA
ATOM     30  H   UNL A   1      46.912  18.474  34.698  1.00  0.00     0.137 HD
ATOM     31  H   UNL A   1      47.982  19.715  34.395  1.00  0.00     0.137 HD
ENDBRANCH  26  29
ENDBRANCH  21  26
ENDBRANCH  15  20
ENDBRANCH   9  14
ENDBRANCH   5   8
ENDBRANCH   3   4
ENDBRANCH   2   3
ENDBRANCH   1   2
BRANCH   1  32
ATOM     32  C   UNL A   1      43.985  26.919  26.198  1.00  0.00     0.002 C 
BRANCH  32  33
ATOM     33  C   UNL A   1      42.925  26.068  25.482  1.00  0.00     0.021 C 
BRANCH  33  34
ATOM     34  C   UNL A   1      42.252  25.057  26.395  1.00  0.00     0.116 C 
BRANCH  34  35
ATOM     35  N   UNL A   1      40.847  24.855  26.037  1.00  0.00    -0.352 N 
ATOM     36  C   UNL A   1      39.718  25.271  26.717  1.00  0.00     0.251 C 
ATOM     37  H   UNL A   1      40.685  24.358  25.204  1.00  0.00     0.163 HD
ATOM     38  O   UNL A   1      38.644  24.711  26.535  1.00  0.00    -0.269 OA
BRANCH  36  39
ATOM     39  C   UNL A   1      39.837  26.398  27.656  1.00  0.00     0.039 A 
ATOM     40  C   UNL A   1      39.721  26.221  29.037  1.00  0.00     0.014 A 
ATOM     41  C   UNL A   1      40.092  27.657  27.119  1.00  0.00     0.014 A 
ATOM     42  C   UNL A   1      39.939  27.316  29.871  1.00  0.00     0.010 A 
ATOM     43  C   UNL A   1      40.480  28.682  27.938  1.00  0.00     0.010 A 
ATOM     44  C   UNL A   1      40.335  28.542  29.311  1.00  0.00    -0.014 A 
BRANCH  44  45
ATOM     45  C   UNL A   1      40.721  29.673  30.146  1.00  0.00     0.031 A 
ATOM     46  C   UNL A   1      39.572  30.450  30.677  1.00  0.00     0.074 A 
ATOM     47  C   UNL A   1      41.980  29.851  30.604  1.00  0.00     0.049 A 
ATOM     48  N   UNL A   1      39.196  31.635  30.330  1.00  0.00    -0.248 NA
ATOM     49  C   UNL A   1      38.615  29.765  31.565  1.00  0.00     0.031 C 
ATOM     50  C   UNL A   1      43.149  28.980  30.429  1.00  0.00     0.029 A 
ATOM     51  N   UNL A   1      42.458  30.809  31.441  1.00  0.00    -0.354 N 
ATOM     52  C   UNL A   1      38.121  31.949  31.155  1.00  0.00     0.074 A 
ATOM     53  C   UNL A   1      37.669  30.697  31.697  1.00  0.00     0.031 C 
ATOM     54  C   UNL A   1      44.104  29.313  31.325  1.00  0.00     0.029 A 
ATOM     55  C   UNL A   1      43.693  30.521  32.017  1.00  0.00     0.049 A 
ATOM     56  H   UNL A   1      41.968  31.643  31.626  1.00  0.00     0.167 HD
ATOM     57  C   UNL A   1      37.881  33.238  31.527  1.00  0.00     0.034 A 
ATOM     58  C   UNL A   1      44.317  31.208  33.014  1.00  0.00     0.034 A 
ATOM     59  C   UNL A   1      38.618  34.160  30.685  1.00  0.00     0.049 A 
ATOM     60  C   UNL A   1      43.732  32.576  33.002  1.00  0.00     0.074 A 
ATOM     61  C   UNL A   1      38.684  34.376  29.320  1.00  0.00     0.029 A 
ATOM     62  N   UNL A   1      39.761  34.738  31.198  1.00  0.00    -0.354 N 
ATOM     63  N   UNL A   1      43.860  33.396  31.992  1.00  0.00    -0.248 NA
ATOM     64  C   UNL A   1      42.578  32.825  33.855  1.00  0.00     0.031 C 
ATOM     65  C   UNL A   1      40.073  34.564  29.050  1.00  0.00     0.029 A 
ATOM     66  C   UNL A   1      40.759  34.563  30.268  1.00  0.00     0.049 A 
ATOM     67  H   UNL A   1      39.847  35.192  32.067  1.00  0.00     0.167 HD
ATOM     68  C   UNL A   1      42.604  33.962  31.825  1.00  0.00     0.074 A 
ATOM     69  C   UNL A   1      41.878  33.637  33.055  1.00  0.00     0.031 C 
ATOM     70  C   UNL A   1      42.162  34.380  30.600  1.00  0.00     0.034 A 
BRANCH  57  71
ATOM     71  C   UNL A   1      37.310  33.663  32.865  1.00  0.00     0.023 A 
ATOM     72  C   UNL A   1      37.959  33.176  34.016  1.00  0.00     0.031 A 
ATOM     73  C   UNL A   1      36.043  34.252  33.086  1.00  0.00     0.131 A 
ATOM     74  C   UNL A   1      37.313  33.163  35.264  1.00  0.00     0.055 A 
ATOM     75  C   UNL A   1      35.433  34.300  34.343  1.00  0.00     0.041 A 
ATOM     76  F   UNL A   1      35.279  34.733  32.100  1.00  0.00    -0.206 F 
ATOM     77  C   UNL A   1      36.050  33.719  35.436  1.00  0.00     0.022 A 
BRANCH  74  78
ATOM     78  S   UNL A   1      38.077  32.225  36.610  1.00  0.00     0.124 S 
ATOM     79  O   UNL A   1      39.379  32.876  36.713  1.00  0.00    -0.237 OA
ATOM     80  O   UNL A   1      37.146  32.466  37.707  1.00  0.00    -0.237 OA
ATOM     81  O   UNL A   1      38.099  30.857  36.099  1.00  0.00    -0.744 OA
ENDBRANCH  74  78
ENDBRANCH  57  71
BRANCH  58  82
ATOM     82  C   UNL A   1      45.086  30.631  34.160  1.00  0.00     0.023 A 
ATOM     83  C   UNL A   1      44.488  29.905  35.216  1.00  0.00     0.031 A 
ATOM     84  C   UNL A   1      46.501  30.595  34.099  1.00  0.00     0.131 A 
ATOM     85  C   UNL A   1      45.294  29.197  36.146  1.00  0.00     0.055 A 
ATOM     86  C   UNL A   1      47.288  29.897  35.018  1.00  0.00     0.041 A 
ATOM     87  F   UNL A   1      47.168  31.171  33.087  1.00  0.00    -0.206 F 
ATOM     88  C   UNL A   1      46.686  29.186  36.043  1.00  0.00     0.022 A 
BRANCH  85  89
ATOM     89  S   UNL A   1      44.537  28.196  37.473  1.00  0.00     0.124 S 
ATOM     90  O   UNL A   1      45.107  26.876  37.231  1.00  0.00    -0.237 OA
ATOM     91  O   UNL A   1      44.980  28.886  38.679  1.00  0.00    -0.237 OA
ATOM     92  O   UNL A   1      43.101  28.301  37.205  1.00  0.00    -0.744 OA
ENDBRANCH  85  89
ENDBRANCH  58  82
BRANCH  70  93
ATOM     93  C   UNL A   1      43.151  34.472  29.449  1.00  0.00     0.023 A 
ATOM     94  C   UNL A   1      43.591  33.384  28.658  1.00  0.00     0.031 A 
ATOM     95  C   UNL A   1      43.549  35.762  29.054  1.00  0.00     0.131 A 
ATOM     96  C   UNL A   1      44.401  33.617  27.526  1.00  0.00     0.055 A 
ATOM     97  C   UNL A   1      44.329  35.989  27.921  1.00  0.00     0.041 A 
ATOM     98  F   UNL A   1      43.145  36.841  29.746  1.00  0.00    -0.206 F 
ATOM     99  C   UNL A   1      44.762  34.915  27.154  1.00  0.00     0.022 A 
BRANCH  96 100
ATOM    100  S   UNL A   1      45.016  32.229  26.511  1.00  0.00     0.124 S 
ATOM    101  O   UNL A   1      45.228  31.164  27.485  1.00  0.00    -0.237 OA
ATOM    102  O   UNL A   1      43.926  32.022  25.562  1.00  0.00    -0.237 OA
ATOM    103  O   UNL A   1      46.244  32.762  25.916  1.00  0.00    -0.744 OA
ENDBRANCH  96 100
ENDBRANCH  70  93
ENDBRANCH  44  45
ENDBRANCH  36  39
ENDBRANCH  34  35
ENDBRANCH  33  34
ENDBRANCH  32  33
ENDBRANCH   1  32
TORSDOF 20
ENDMDL
