MODEL 1
REMARK VINA RESULT:     -10.7      0.000      0.000
REMARK SMILES COc1cc(F)ccc1-c1ccc(=O)n(CC(=O)NCc2ccc(C(=O)NCCCCCCNC(=O)c3ccc(-c4c5nc(c(-c6cc(S(=O)(=O)[O-])ccc6F)c6ccc([nH]6)c(-c6cc(S(=O)(=O)[O-])ccc6F)c6nc(c(-c7cc(S(=O)(=O)[O-])ccc7F)c7ccc4[nH]7)C=C6)C=C5)cc3)cc2)n1
REMARK SMILES IDX 29 1 28 2 27 3 25 4 26 5 24 7 21 8 22 9 101 10 23 11 100 12
REMARK SMILES IDX 20 13 19 14 17 15 18 16 16 18 15 19 10 20 11 21 102 22 12 23
REMARK SMILES IDX 13 24 14 25 9 26 3 27 4 28 5 29 8 30 6 31 7 32 2 33 1 34
REMARK SMILES IDX 30 35 31 36 32 37 33 38 34 39 35 40 36 42 37 43 38 44 99 45
REMARK SMILES IDX 39 46 98 47 40 48 41 49 42 50 92 51 43 52 97 53 91 54 93 55
REMARK SMILES IDX 44 56 96 57 90 58 89 59 45 61 77 62 57 63 76 64 58 65 61 66
REMARK SMILES IDX 75 67 94 68 59 69 60 70 74 72 95 73 62 74 46 75 47 76 55 77
REMARK SMILES IDX 48 78 54 79 56 80 53 81 49 82 50 83 51 84 52 85 78 86 79 87
REMARK SMILES IDX 87 88 80 89 86 90 88 91 85 92 81 93 82 94 83 95 84 96 63 97
REMARK SMILES IDX 64 98 72 99 65 100 71 101 73 102 70 103 66 104 67 105 68 106
REMARK SMILES IDX 69 107
REMARK H PARENT 27 6 19 17 34 41 93 60 61 71
REMARK Flexibility Score: inf
ROOT
ATOM      1  C   UNL A   1      39.814  25.412  27.486  1.00  0.00     0.021 C 
ENDROOT
BRANCH   1   2
ATOM      2  C   UNL A   1      38.827  24.438  26.855  1.00  0.00     0.116 C 
BRANCH   2   3
ATOM      3  N   UNL A   1      39.394  23.142  26.549  1.00  0.00    -0.352 N 
ATOM      4  C   UNL A   1      38.826  22.073  25.905  1.00  0.00     0.251 C 
ATOM      5  O   UNL A   1      39.477  21.036  25.785  1.00  0.00    -0.269 OA
ATOM      6  H   UNL A   1      40.324  23.010  26.846  1.00  0.00     0.163 HD
BRANCH   4   7
ATOM      7  C   UNL A   1      37.414  22.108  25.443  1.00  0.00     0.039 A 
ATOM      8  C   UNL A   1      34.672  22.310  24.816  1.00  0.00    -0.029 A 
ATOM      9  C   UNL A   1      35.102  21.730  26.013  1.00  0.00     0.006 A 
ATOM     10  C   UNL A   1      35.642  22.695  23.885  1.00  0.00     0.006 A 
ATOM     11  C   UNL A   1      36.453  21.638  26.336  1.00  0.00     0.014 A 
ATOM     12  C   UNL A   1      37.006  22.573  24.188  1.00  0.00     0.014 A 
BRANCH   8  13
ATOM     13  C   UNL A   1      33.199  22.487  24.555  1.00  0.00     0.151 C 
BRANCH  13  14
ATOM     14  N   UNL A   1      32.539  23.155  25.651  1.00  0.00    -0.350 N 
ATOM     15  C   UNL A   1      32.423  24.486  25.917  1.00  0.00     0.242 C 
ATOM     16  O   UNL A   1      31.584  24.822  26.759  1.00  0.00    -0.273 OA
ATOM     17  H   UNL A   1      32.108  22.558  26.305  1.00  0.00     0.163 HD
BRANCH  15  18
ATOM     18  C   UNL A   1      33.177  25.544  25.104  1.00  0.00     0.248 C 
BRANCH  18  19
ATOM     19  N   UNL A   1      32.472  26.027  23.921  1.00  0.00    -0.220 N 
ATOM     20  C   UNL A   1      30.982  27.534  23.053  1.00  0.00     0.095 A 
ATOM     21  C   UNL A   1      31.217  27.077  21.670  1.00  0.00     0.037 A 
ATOM     22  N   UNL A   1      31.558  27.052  24.110  1.00  0.00    -0.169 NA
ATOM     23  C   UNL A   1      32.130  26.119  21.512  1.00  0.00     0.075 A 
ATOM     24  C   UNL A   1      32.866  25.567  22.670  1.00  0.00     0.267 A 
ATOM     25  O   UNL A   1      33.754  24.743  22.467  1.00  0.00    -0.268 OA
BRANCH  20  26
ATOM     26  C   UNL A   1      29.961  28.585  23.200  1.00  0.00     0.044 A 
ATOM     27  C   UNL A   1      30.280  29.798  23.818  1.00  0.00     0.131 A 
ATOM     28  C   UNL A   1      29.299  30.778  23.963  1.00  0.00     0.086 A 
ATOM     29  C   UNL A   1      28.005  30.519  23.517  1.00  0.00     0.126 A 
ATOM     30  C   UNL A   1      28.657  28.330  22.756  1.00  0.00     0.017 A 
ATOM     31  F   UNL A   1      27.061  31.459  23.661  1.00  0.00    -0.207 F 
ATOM     32  C   UNL A   1      27.675  29.308  22.917  1.00  0.00     0.040 A 
BRANCH  27  33
ATOM     33  O   UNL A   1      31.574  30.039  24.196  1.00  0.00    -0.496 OA
ATOM     34  C   UNL A   1      31.680  30.198  25.611  1.00  0.00     0.278 C 
ENDBRANCH  27  33
ENDBRANCH  20  26
ENDBRANCH  18  19
ENDBRANCH  15  18
ENDBRANCH  13  14
ENDBRANCH   8  13
ENDBRANCH   4   7
ENDBRANCH   2   3
ENDBRANCH   1   2
BRANCH   1  35
ATOM     35  C   UNL A   1      39.308  26.265  28.653  1.00  0.00     0.002 C 
BRANCH  35  36
ATOM     36  C   UNL A   1      39.496  27.780  28.558  1.00  0.00     0.002 C 
BRANCH  36  37
ATOM     37  C   UNL A   1      38.240  28.631  28.386  1.00  0.00     0.021 C 
BRANCH  37  38
ATOM     38  C   UNL A   1      38.241  29.988  29.073  1.00  0.00     0.116 C 
BRANCH  38  39
ATOM     39  N   UNL A   1      37.267  30.108  30.144  1.00  0.00    -0.352 N 
ATOM     40  C   UNL A   1      37.428  29.817  31.482  1.00  0.00     0.251 C 
ATOM     41  H   UNL A   1      36.378  30.438  29.880  1.00  0.00     0.163 HD
ATOM     42  O   UNL A   1      36.485  29.908  32.259  1.00  0.00    -0.269 OA
BRANCH  40  43
ATOM     43  C   UNL A   1      38.748  29.344  31.957  1.00  0.00     0.039 A 
ATOM     44  C   UNL A   1      39.806  30.240  32.123  1.00  0.00     0.014 A 
ATOM     45  C   UNL A   1      38.947  27.975  32.149  1.00  0.00     0.014 A 
ATOM     46  C   UNL A   1      41.097  29.752  32.302  1.00  0.00     0.010 A 
ATOM     47  C   UNL A   1      40.234  27.493  32.409  1.00  0.00     0.010 A 
ATOM     48  C   UNL A   1      41.329  28.372  32.431  1.00  0.00    -0.014 A 
BRANCH  48  49
ATOM     49  C   UNL A   1      42.724  27.870  32.549  1.00  0.00     0.031 A 
ATOM     50  C   UNL A   1      43.321  27.569  33.900  1.00  0.00     0.074 A 
ATOM     51  C   UNL A   1      43.438  27.628  31.432  1.00  0.00     0.049 A 
ATOM     52  N   UNL A   1      44.523  27.143  34.195  1.00  0.00    -0.248 NA
ATOM     53  C   UNL A   1      42.460  27.777  35.076  1.00  0.00     0.031 C 
ATOM     54  C   UNL A   1      42.964  27.858  30.065  1.00  0.00     0.029 A 
ATOM     55  N   UNL A   1      44.699  27.116  31.263  1.00  0.00    -0.354 N 
ATOM     56  C   UNL A   1      44.573  27.057  35.582  1.00  0.00     0.074 A 
ATOM     57  C   UNL A   1      43.284  27.492  36.074  1.00  0.00     0.031 C 
ATOM     58  C   UNL A   1      43.903  27.446  29.199  1.00  0.00     0.029 A 
ATOM     59  C   UNL A   1      45.069  26.984  29.945  1.00  0.00     0.049 A 
ATOM     60  H   UNL A   1      45.284  26.866  32.015  1.00  0.00     0.167 HD
ATOM     61  C   UNL A   1      45.598  26.650  36.370  1.00  0.00     0.034 A 
ATOM     62  C   UNL A   1      46.222  26.562  29.394  1.00  0.00     0.034 A 
ATOM     63  C   UNL A   1      46.868  26.189  35.872  1.00  0.00     0.049 A 
ATOM     64  C   UNL A   1      47.352  26.141  30.291  1.00  0.00     0.074 A 
ATOM     65  C   UNL A   1      47.958  25.726  36.591  1.00  0.00     0.029 A 
ATOM     66  N   UNL A   1      47.222  26.125  34.532  1.00  0.00    -0.354 N 
ATOM     67  N   UNL A   1      47.389  26.103  31.603  1.00  0.00    -0.248 NA
ATOM     68  C   UNL A   1      48.597  25.716  29.637  1.00  0.00     0.031 C 
ATOM     69  C   UNL A   1      48.986  25.432  35.692  1.00  0.00     0.029 A 
ATOM     70  C   UNL A   1      48.519  25.653  34.406  1.00  0.00     0.049 A 
ATOM     71  H   UNL A   1      46.638  26.377  33.781  1.00  0.00     0.167 HD
ATOM     72  C   UNL A   1      48.662  25.647  31.930  1.00  0.00     0.074 A 
ATOM     73  C   UNL A   1      49.356  25.409  30.681  1.00  0.00     0.031 C 
ATOM     74  C   UNL A   1      49.205  25.444  33.156  1.00  0.00     0.034 A 
BRANCH  61  75
ATOM     75  C   UNL A   1      45.405  26.717  37.863  1.00  0.00     0.023 A 
ATOM     76  C   UNL A   1      45.558  27.917  38.575  1.00  0.00     0.031 A 
ATOM     77  C   UNL A   1      45.026  25.565  38.574  1.00  0.00     0.131 A 
ATOM     78  C   UNL A   1      45.366  27.931  39.965  1.00  0.00     0.055 A 
ATOM     79  C   UNL A   1      44.781  25.597  39.948  1.00  0.00     0.041 A 
ATOM     80  F   UNL A   1      44.880  24.389  37.941  1.00  0.00    -0.206 F 
ATOM     81  C   UNL A   1      44.956  26.784  40.653  1.00  0.00     0.022 A 
BRANCH  78  82
ATOM     82  S   UNL A   1      45.719  29.457  40.878  1.00  0.00     0.124 S 
ATOM     83  O   UNL A   1      47.068  29.771  40.414  1.00  0.00    -0.237 OA
ATOM     84  O   UNL A   1      44.664  30.354  40.420  1.00  0.00    -0.237 OA
ATOM     85  O   UNL A   1      45.625  29.048  42.279  1.00  0.00    -0.744 OA
ENDBRANCH  78  82
ENDBRANCH  61  75
BRANCH  62  86
ATOM     86  C   UNL A   1      46.376  26.563  27.915  1.00  0.00     0.023 A 
ATOM     87  C   UNL A   1      46.171  25.398  27.162  1.00  0.00     0.031 A 
ATOM     88  C   UNL A   1      46.720  27.745  27.234  1.00  0.00     0.131 A 
ATOM     89  C   UNL A   1      46.327  25.436  25.768  1.00  0.00     0.055 A 
ATOM     90  C   UNL A   1      46.836  27.787  25.845  1.00  0.00     0.041 A 
ATOM     91  F   UNL A   1      46.916  28.886  27.913  1.00  0.00    -0.206 F 
ATOM     92  C   UNL A   1      46.645  26.624  25.104  1.00  0.00     0.022 A 
BRANCH  89  93
ATOM     93  S   UNL A   1      46.124  23.900  24.826  1.00  0.00     0.124 S 
ATOM     94  O   UNL A   1      46.415  22.891  25.839  1.00  0.00    -0.237 OA
ATOM     95  O   UNL A   1      44.734  23.989  24.391  1.00  0.00    -0.237 OA
ATOM     96  O   UNL A   1      47.115  24.021  23.760  1.00  0.00    -0.744 OA
ENDBRANCH  89  93
ENDBRANCH  62  86
BRANCH  74  97
ATOM     97  C   UNL A   1      50.614  24.922  33.204  1.00  0.00     0.023 A 
ATOM     98  C   UNL A   1      50.882  23.543  33.218  1.00  0.00     0.031 A 
ATOM     99  C   UNL A   1      51.699  25.815  33.207  1.00  0.00     0.131 A 
ATOM    100  C   UNL A   1      52.211  23.094  33.265  1.00  0.00     0.055 A 
ATOM    101  C   UNL A   1      53.019  25.363  33.211  1.00  0.00     0.041 A 
ATOM    102  F   UNL A   1      51.492  27.142  33.193  1.00  0.00    -0.206 F 
ATOM    103  C   UNL A   1      53.280  23.995  33.245  1.00  0.00     0.022 A 
BRANCH 100 104
ATOM    104  S   UNL A   1      52.526  21.313  33.382  1.00  0.00     0.124 S 
ATOM    105  O   UNL A   1      51.212  20.799  33.756  1.00  0.00    -0.237 OA
ATOM    106  O   UNL A   1      52.981  20.982  32.036  1.00  0.00    -0.237 OA
ATOM    107  O   UNL A   1      53.549  21.214  34.421  1.00  0.00    -0.744 OA
ENDBRANCH 100 104
ENDBRANCH  74  97
ENDBRANCH  48  49
ENDBRANCH  40  43
ENDBRANCH  38  39
ENDBRANCH  37  38
ENDBRANCH  36  37
ENDBRANCH  35  36
ENDBRANCH   1  35
TORSDOF 22
ENDMDL
MODEL 2
REMARK VINA RESULT:     -10.6      6.785     12.189
REMARK SMILES COc1cc(F)ccc1-c1ccc(=O)n(CC(=O)NCc2ccc(C(=O)NCCCCCCNC(=O)c3ccc(-c4c5nc(c(-c6cc(S(=O)(=O)[O-])ccc6F)c6ccc([nH]6)c(-c6cc(S(=O)(=O)[O-])ccc6F)c6nc(c(-c7cc(S(=O)(=O)[O-])ccc7F)c7ccc4[nH]7)C=C6)C=C5)cc3)cc2)n1
REMARK SMILES IDX 29 1 28 2 27 3 25 4 26 5 24 7 21 8 22 9 101 10 23 11 100 12
REMARK SMILES IDX 20 13 19 14 17 15 18 16 16 18 15 19 10 20 11 21 102 22 12 23
REMARK SMILES IDX 13 24 14 25 9 26 3 27 4 28 5 29 8 30 6 31 7 32 2 33 1 34
REMARK SMILES IDX 30 35 31 36 32 37 33 38 34 39 35 40 36 42 37 43 38 44 99 45
REMARK SMILES IDX 39 46 98 47 40 48 41 49 42 50 92 51 43 52 97 53 91 54 93 55
REMARK SMILES IDX 44 56 96 57 90 58 89 59 45 61 77 62 57 63 76 64 58 65 61 66
REMARK SMILES IDX 75 67 94 68 59 69 60 70 74 72 95 73 62 74 46 75 47 76 55 77
REMARK SMILES IDX 48 78 54 79 56 80 53 81 49 82 50 83 51 84 52 85 78 86 79 87
REMARK SMILES IDX 87 88 80 89 86 90 88 91 85 92 81 93 82 94 83 95 84 96 63 97
REMARK SMILES IDX 64 98 72 99 65 100 71 101 73 102 70 103 66 104 67 105 68 106
REMARK SMILES IDX 69 107
REMARK H PARENT 27 6 19 17 34 41 93 60 61 71
REMARK Flexibility Score: inf
ROOT
ATOM      1  C   UNL A   1      47.101  38.420  25.600  1.00  0.00     0.021 C 
ENDROOT
BRANCH   1   2
ATOM      2  C   UNL A   1      47.873  37.479  26.516  1.00  0.00     0.116 C 
BRANCH   2   3
ATOM      3  N   UNL A   1      48.819  36.630  25.824  1.00  0.00    -0.352 N 
ATOM      4  C   UNL A   1      48.696  35.318  25.445  1.00  0.00     0.251 C 
ATOM      5  O   UNL A   1      49.648  34.764  24.897  1.00  0.00    -0.269 OA
ATOM      6  H   UNL A   1      49.675  37.057  25.592  1.00  0.00     0.163 HD
BRANCH   4   7
ATOM      7  C   UNL A   1      47.480  34.528  25.771  1.00  0.00     0.039 A 
ATOM      8  C   UNL A   1      45.262  33.035  26.667  1.00  0.00    -0.029 A 
ATOM      9  C   UNL A   1      46.570  32.634  26.953  1.00  0.00     0.006 A 
ATOM     10  C   UNL A   1      45.080  34.143  25.833  1.00  0.00     0.006 A 
ATOM     11  C   UNL A   1      47.670  33.372  26.526  1.00  0.00     0.014 A 
ATOM     12  C   UNL A   1      46.185  34.872  25.369  1.00  0.00     0.014 A 
BRANCH   8  13
ATOM     13  C   UNL A   1      44.100  32.267  27.240  1.00  0.00     0.151 C 
BRANCH  13  14
ATOM     14  N   UNL A   1      43.729  31.154  26.399  1.00  0.00    -0.350 N 
ATOM     15  C   UNL A   1      43.287  29.912  26.742  1.00  0.00     0.242 C 
ATOM     16  O   UNL A   1      42.775  29.228  25.849  1.00  0.00    -0.273 OA
ATOM     17  H   UNL A   1      43.808  31.317  25.431  1.00  0.00     0.163 HD
BRANCH  15  18
ATOM     18  C   UNL A   1      43.271  29.431  28.198  1.00  0.00     0.248 C 
BRANCH  18  19
ATOM     19  N   UNL A   1      44.134  28.288  28.477  1.00  0.00    -0.220 N 
ATOM     20  C   UNL A   1      44.393  26.014  28.416  1.00  0.00     0.095 A 
ATOM     21  C   UNL A   1      45.800  26.090  28.854  1.00  0.00     0.037 A 
ATOM     22  N   UNL A   1      43.607  27.029  28.238  1.00  0.00    -0.169 NA
ATOM     23  C   UNL A   1      46.295  27.314  29.038  1.00  0.00     0.075 A 
ATOM     24  C   UNL A   1      45.468  28.517  28.796  1.00  0.00     0.267 A 
ATOM     25  O   UNL A   1      45.990  29.623  28.900  1.00  0.00    -0.268 OA
BRANCH  20  26
ATOM     26  C   UNL A   1      43.868  24.650  28.232  1.00  0.00     0.044 A 
ATOM     27  C   UNL A   1      44.164  23.930  27.070  1.00  0.00     0.131 A 
ATOM     28  C   UNL A   1      43.648  22.646  26.904  1.00  0.00     0.086 A 
ATOM     29  C   UNL A   1      42.819  22.111  27.887  1.00  0.00     0.126 A 
ATOM     30  C   UNL A   1      43.031  24.108  29.215  1.00  0.00     0.017 A 
ATOM     31  F   UNL A   1      42.319  20.879  27.724  1.00  0.00    -0.207 F 
ATOM     32  C   UNL A   1      42.504  22.828  29.037  1.00  0.00     0.040 A 
BRANCH  27  33
ATOM     33  O   UNL A   1      45.027  24.464  26.150  1.00  0.00    -0.496 OA
ATOM     34  C   UNL A   1      44.536  24.296  24.820  1.00  0.00     0.278 C 
ENDBRANCH  27  33
ENDBRANCH  20  26
ENDBRANCH  18  19
ENDBRANCH  15  18
ENDBRANCH  13  14
ENDBRANCH   8  13
ENDBRANCH   4   7
ENDBRANCH   2   3
ENDBRANCH   1   2
BRANCH   1  35
ATOM     35  C   UNL A   1      46.602  39.735  26.206  1.00  0.00     0.002 C 
BRANCH  35  36
ATOM     36  C   UNL A   1      46.467  40.939  25.272  1.00  0.00     0.002 C 
BRANCH  36  37
ATOM     37  C   UNL A   1      45.104  41.624  25.209  1.00  0.00     0.021 C 
BRANCH  37  38
ATOM     38  C   UNL A   1      44.223  41.495  26.443  1.00  0.00     0.116 C 
BRANCH  38  39
ATOM     39  N   UNL A   1      42.800  41.461  26.150  1.00  0.00    -0.352 N 
ATOM     40  C   UNL A   1      41.894  40.459  26.427  1.00  0.00     0.251 C 
ATOM     41  H   UNL A   1      42.437  42.255  25.695  1.00  0.00     0.163 HD
ATOM     42  O   UNL A   1      40.730  40.549  26.056  1.00  0.00    -0.269 OA
BRANCH  40  43
ATOM     43  C   UNL A   1      42.363  39.247  27.136  1.00  0.00     0.039 A 
ATOM     44  C   UNL A   1      42.560  38.051  26.443  1.00  0.00     0.014 A 
ATOM     45  C   UNL A   1      42.518  39.291  28.524  1.00  0.00     0.014 A 
ATOM     46  C   UNL A   1      42.732  36.867  27.153  1.00  0.00     0.010 A 
ATOM     47  C   UNL A   1      42.770  38.111  29.229  1.00  0.00     0.010 A 
ATOM     48  C   UNL A   1      42.823  36.880  28.555  1.00  0.00    -0.014 A 
BRANCH  48  49
ATOM     49  C   UNL A   1      42.934  35.595  29.296  1.00  0.00     0.031 A 
ATOM     50  C   UNL A   1      41.703  34.789  29.626  1.00  0.00     0.074 A 
ATOM     51  C   UNL A   1      44.153  35.123  29.624  1.00  0.00     0.049 A 
ATOM     52  N   UNL A   1      41.609  33.658  30.280  1.00  0.00    -0.248 NA
ATOM     53  C   UNL A   1      40.410  35.320  29.167  1.00  0.00     0.031 C 
ATOM     54  C   UNL A   1      45.421  35.800  29.342  1.00  0.00     0.029 A 
ATOM     55  N   UNL A   1      44.530  33.958  30.242  1.00  0.00    -0.354 N 
ATOM     56  C   UNL A   1      40.253  33.357  30.334  1.00  0.00     0.074 A 
ATOM     57  C   UNL A   1      39.557  34.433  29.661  1.00  0.00     0.031 C 
ATOM     58  C   UNL A   1      46.435  35.019  29.744  1.00  0.00     0.029 A 
ATOM     59  C   UNL A   1      45.892  33.818  30.370  1.00  0.00     0.049 A 
ATOM     60  H   UNL A   1      43.887  33.286  30.565  1.00  0.00     0.167 HD
ATOM     61  C   UNL A   1      39.645  32.281  30.891  1.00  0.00     0.034 A 
ATOM     62  C   UNL A   1      46.626  32.847  30.945  1.00  0.00     0.034 A 
ATOM     63  C   UNL A   1      40.344  31.197  31.532  1.00  0.00     0.049 A 
ATOM     64  C   UNL A   1      45.925  31.677  31.578  1.00  0.00     0.074 A 
ATOM     65  C   UNL A   1      39.817  30.048  32.098  1.00  0.00     0.029 A 
ATOM     66  N   UNL A   1      41.721  31.122  31.690  1.00  0.00    -0.354 N 
ATOM     67  N   UNL A   1      44.638  31.431  31.650  1.00  0.00    -0.248 NA
ATOM     68  C   UNL A   1      46.773  30.660  32.215  1.00  0.00     0.031 C 
ATOM     69  C   UNL A   1      40.869  29.304  32.643  1.00  0.00     0.029 A 
ATOM     70  C   UNL A   1      42.058  29.959  32.364  1.00  0.00     0.049 A 
ATOM     71  H   UNL A   1      42.363  31.795  31.370  1.00  0.00     0.167 HD
ATOM     72  C   UNL A   1      44.523  30.229  32.339  1.00  0.00     0.074 A 
ATOM     73  C   UNL A   1      45.869  29.791  32.648  1.00  0.00     0.031 C 
ATOM     74  C   UNL A   1      43.401  29.549  32.685  1.00  0.00     0.034 A 
BRANCH  61  75
ATOM     75  C   UNL A   1      38.139  32.234  30.866  1.00  0.00     0.023 A 
ATOM     76  C   UNL A   1      37.364  32.808  31.886  1.00  0.00     0.031 A 
ATOM     77  C   UNL A   1      37.473  31.635  29.781  1.00  0.00     0.131 A 
ATOM     78  C   UNL A   1      35.964  32.741  31.818  1.00  0.00     0.055 A 
ATOM     79  C   UNL A   1      36.080  31.622  29.691  1.00  0.00     0.041 A 
ATOM     80  F   UNL A   1      38.169  31.060  28.787  1.00  0.00    -0.206 F 
ATOM     81  C   UNL A   1      35.317  32.172  30.716  1.00  0.00     0.022 A 
BRANCH  78  82
ATOM     82  S   UNL A   1      34.993  33.354  33.221  1.00  0.00     0.124 S 
ATOM     83  O   UNL A   1      35.663  32.706  34.346  1.00  0.00    -0.237 OA
ATOM     84  O   UNL A   1      35.168  34.799  33.123  1.00  0.00    -0.237 OA
ATOM     85  O   UNL A   1      33.642  32.869  32.941  1.00  0.00    -0.744 OA
ENDBRANCH  78  82
ENDBRANCH  61  75
BRANCH  62  86
ATOM     86  C   UNL A   1      48.108  32.968  30.986  1.00  0.00     0.023 A 
ATOM     87  C   UNL A   1      48.892  32.672  29.862  1.00  0.00     0.031 A 
ATOM     88  C   UNL A   1      48.757  33.399  32.157  1.00  0.00     0.131 A 
ATOM     89  C   UNL A   1      50.288  32.795  29.937  1.00  0.00     0.055 A 
ATOM     90  C   UNL A   1      50.141  33.558  32.215  1.00  0.00     0.041 A 
ATOM     91  F   UNL A   1      48.044  33.704  33.253  1.00  0.00    -0.206 F 
ATOM     92  C   UNL A   1      50.916  33.249  31.101  1.00  0.00     0.022 A 
BRANCH  89  93
ATOM     93  S   UNL A   1      51.283  32.339  28.492  1.00  0.00     0.124 S 
ATOM     94  O   UNL A   1      52.414  31.659  29.113  1.00  0.00    -0.237 OA
ATOM     95  O   UNL A   1      50.361  31.494  27.739  1.00  0.00    -0.237 OA
ATOM     96  O   UNL A   1      51.590  33.626  27.871  1.00  0.00    -0.744 OA
ENDBRANCH  89  93
ENDBRANCH  62  86
BRANCH  74  97
ATOM     97  C   UNL A   1      43.586  28.251  33.421  1.00  0.00     0.023 A 
ATOM     98  C   UNL A   1      43.558  28.198  34.825  1.00  0.00     0.031 A 
ATOM     99  C   UNL A   1      43.762  27.053  32.709  1.00  0.00     0.131 A 
ATOM    100  C   UNL A   1      43.736  26.968  35.477  1.00  0.00     0.055 A 
ATOM    101  C   UNL A   1      43.897  25.827  33.361  1.00  0.00     0.041 A 
ATOM    102  F   UNL A   1      43.794  27.055  31.366  1.00  0.00    -0.206 F 
ATOM    103  C   UNL A   1      43.888  25.781  34.753  1.00  0.00     0.022 A 
BRANCH 100 104
ATOM    104  S   UNL A   1      43.795  26.941  37.288  1.00  0.00     0.124 S 
ATOM    105  O   UNL A   1      44.886  26.003  37.540  1.00  0.00    -0.237 OA
ATOM    106  O   UNL A   1      44.066  28.336  37.617  1.00  0.00    -0.237 OA
ATOM    107  O   UNL A   1      42.467  26.464  37.667  1.00  0.00    -0.744 OA
ENDBRANCH 100 104
ENDBRANCH  74  97
ENDBRANCH  48  49
ENDBRANCH  40  43
ENDBRANCH  38  39
ENDBRANCH  37  38
ENDBRANCH  36  37
ENDBRANCH  35  36
ENDBRANCH   1  35
TORSDOF 22
ENDMDL
MODEL 3
REMARK VINA RESULT:     -10.5      6.287     11.484
REMARK SMILES COc1cc(F)ccc1-c1ccc(=O)n(CC(=O)NCc2ccc(C(=O)NCCCCCCNC(=O)c3ccc(-c4c5nc(c(-c6cc(S(=O)(=O)[O-])ccc6F)c6ccc([nH]6)c(-c6cc(S(=O)(=O)[O-])ccc6F)c6nc(c(-c7cc(S(=O)(=O)[O-])ccc7F)c7ccc4[nH]7)C=C6)C=C5)cc3)cc2)n1
REMARK SMILES IDX 29 1 28 2 27 3 25 4 26 5 24 7 21 8 22 9 101 10 23 11 100 12
REMARK SMILES IDX 20 13 19 14 17 15 18 16 16 18 15 19 10 20 11 21 102 22 12 23
REMARK SMILES IDX 13 24 14 25 9 26 3 27 4 28 5 29 8 30 6 31 7 32 2 33 1 34
REMARK SMILES IDX 30 35 31 36 32 37 33 38 34 39 35 40 36 42 37 43 38 44 99 45
REMARK SMILES IDX 39 46 98 47 40 48 41 49 42 50 92 51 43 52 97 53 91 54 93 55
REMARK SMILES IDX 44 56 96 57 90 58 89 59 45 61 77 62 57 63 76 64 58 65 61 66
REMARK SMILES IDX 75 67 94 68 59 69 60 70 74 72 95 73 62 74 46 75 47 76 55 77
REMARK SMILES IDX 48 78 54 79 56 80 53 81 49 82 50 83 51 84 52 85 78 86 79 87
REMARK SMILES IDX 87 88 80 89 86 90 88 91 85 92 81 93 82 94 83 95 84 96 63 97
REMARK SMILES IDX 64 98 72 99 65 100 71 101 73 102 70 103 66 104 67 105 68 106
REMARK SMILES IDX 69 107
REMARK H PARENT 27 6 19 17 34 41 93 60 61 71
REMARK Flexibility Score: inf
ROOT
ATOM      1  C   UNL A   1      38.874  32.803  39.093  1.00  0.00     0.021 C 
ENDROOT
BRANCH   1   2
ATOM      2  C   UNL A   1      38.451  32.828  37.629  1.00  0.00     0.116 C 
BRANCH   2   3
ATOM      3  N   UNL A   1      38.817  31.637  36.892  1.00  0.00    -0.352 N 
ATOM      4  C   UNL A   1      38.686  31.368  35.553  1.00  0.00     0.251 C 
ATOM      5  O   UNL A   1      39.026  30.263  35.132  1.00  0.00    -0.269 OA
ATOM      6  H   UNL A   1      39.217  30.916  37.429  1.00  0.00     0.163 HD
BRANCH   4   7
ATOM      7  C   UNL A   1      38.054  32.342  34.625  1.00  0.00     0.039 A 
ATOM      8  C   UNL A   1      36.693  34.275  33.089  1.00  0.00    -0.029 A 
ATOM      9  C   UNL A   1      35.998  33.305  33.816  1.00  0.00     0.006 A 
ATOM     10  C   UNL A   1      38.089  34.199  33.056  1.00  0.00     0.006 A 
ATOM     11  C   UNL A   1      36.661  32.355  34.588  1.00  0.00     0.014 A 
ATOM     12  C   UNL A   1      38.765  33.223  33.802  1.00  0.00     0.014 A 
BRANCH   8  13
ATOM     13  C   UNL A   1      35.934  35.349  32.355  1.00  0.00     0.151 C 
BRANCH  13  14
ATOM     14  N   UNL A   1      34.525  35.313  32.664  1.00  0.00    -0.350 N 
ATOM     15  C   UNL A   1      33.451  35.246  31.828  1.00  0.00     0.242 C 
ATOM     16  O   UNL A   1      32.361  34.951  32.331  1.00  0.00    -0.273 OA
ATOM     17  H   UNL A   1      34.306  35.340  33.623  1.00  0.00     0.163 HD
BRANCH  15  18
ATOM     18  C   UNL A   1      33.599  35.369  30.307  1.00  0.00     0.248 C 
BRANCH  18  19
ATOM     19  N   UNL A   1      34.109  34.176  29.640  1.00  0.00    -0.220 N 
ATOM     20  C   UNL A   1      35.547  32.395  29.720  1.00  0.00     0.095 A 
ATOM     21  C   UNL A   1      35.008  31.813  28.477  1.00  0.00     0.037 A 
ATOM     22  N   UNL A   1      35.138  33.495  30.272  1.00  0.00    -0.169 NA
ATOM     23  C   UNL A   1      33.992  32.465  27.911  1.00  0.00     0.075 A 
ATOM     24  C   UNL A   1      33.440  33.694  28.521  1.00  0.00     0.267 A 
ATOM     25  O   UNL A   1      32.453  34.215  28.009  1.00  0.00    -0.268 OA
BRANCH  20  26
ATOM     26  C   UNL A   1      36.676  31.662  30.317  1.00  0.00     0.044 A 
ATOM     27  C   UNL A   1      37.983  31.900  29.880  1.00  0.00     0.131 A 
ATOM     28  C   UNL A   1      39.040  31.187  30.445  1.00  0.00     0.086 A 
ATOM     29  C   UNL A   1      38.773  30.226  31.416  1.00  0.00     0.126 A 
ATOM     30  C   UNL A   1      36.414  30.690  31.293  1.00  0.00     0.017 A 
ATOM     31  F   UNL A   1      39.789  29.538  31.955  1.00  0.00    -0.207 F 
ATOM     32  C   UNL A   1      37.473  29.970  31.844  1.00  0.00     0.040 A 
BRANCH  27  33
ATOM     33  O   UNL A   1      38.214  32.890  28.964  1.00  0.00    -0.496 OA
ATOM     34  C   UNL A   1      38.676  34.084  29.596  1.00  0.00     0.278 C 
ENDBRANCH  27  33
ENDBRANCH  20  26
ENDBRANCH  18  19
ENDBRANCH  15  18
ENDBRANCH  13  14
ENDBRANCH   8  13
ENDBRANCH   4   7
ENDBRANCH   2   3
ENDBRANCH   1   2
BRANCH   1  35
ATOM     35  C   UNL A   1      40.368  32.949  39.393  1.00  0.00     0.002 C 
BRANCH  35  36
ATOM     36  C   UNL A   1      40.768  33.400  40.799  1.00  0.00     0.002 C 
BRANCH  36  37
ATOM     37  C   UNL A   1      42.251  33.662  41.053  1.00  0.00     0.021 C 
BRANCH  37  38
ATOM     38  C   UNL A   1      42.925  34.677  40.143  1.00  0.00     0.116 C 
BRANCH  38  39
ATOM     39  N   UNL A   1      42.272  35.975  40.122  1.00  0.00    -0.352 N 
ATOM     40  C   UNL A   1      41.849  36.700  39.028  1.00  0.00     0.251 C 
ATOM     41  H   UNL A   1      42.111  36.389  41.000  1.00  0.00     0.163 HD
ATOM     42  O   UNL A   1      41.369  37.819  39.168  1.00  0.00    -0.269 OA
BRANCH  40  43
ATOM     43  C   UNL A   1      42.030  36.126  37.675  1.00  0.00     0.039 A 
ATOM     44  C   UNL A   1      40.927  35.719  36.923  1.00  0.00     0.014 A 
ATOM     45  C   UNL A   1      43.326  35.913  37.199  1.00  0.00     0.014 A 
ATOM     46  C   UNL A   1      41.121  34.941  35.786  1.00  0.00     0.010 A 
ATOM     47  C   UNL A   1      43.517  35.198  36.012  1.00  0.00     0.010 A 
ATOM     48  C   UNL A   1      42.417  34.657  35.326  1.00  0.00    -0.014 A 
BRANCH  48  49
ATOM     49  C   UNL A   1      42.601  33.763  34.151  1.00  0.00     0.031 A 
ATOM     50  C   UNL A   1      42.848  34.339  32.779  1.00  0.00     0.074 A 
ATOM     51  C   UNL A   1      42.603  32.428  34.329  1.00  0.00     0.049 A 
ATOM     52  N   UNL A   1      43.011  33.714  31.641  1.00  0.00    -0.248 NA
ATOM     53  C   UNL A   1      42.916  35.804  32.669  1.00  0.00     0.031 C 
ATOM     54  C   UNL A   1      42.396  31.749  35.610  1.00  0.00     0.029 A 
ATOM     55  N   UNL A   1      42.807  31.402  33.441  1.00  0.00    -0.354 N 
ATOM     56  C   UNL A   1      43.175  34.704  30.678  1.00  0.00     0.074 A 
ATOM     57  C   UNL A   1      43.074  35.974  31.363  1.00  0.00     0.031 C 
ATOM     58  C   UNL A   1      42.528  30.426  35.434  1.00  0.00     0.029 A 
ATOM     59  C   UNL A   1      42.765  30.156  34.019  1.00  0.00     0.049 A 
ATOM     60  H   UNL A   1      42.967  31.546  32.480  1.00  0.00     0.167 HD
ATOM     61  C   UNL A   1      43.392  34.565  29.347  1.00  0.00     0.034 A 
ATOM     62  C   UNL A   1      42.881  28.930  33.475  1.00  0.00     0.034 A 
ATOM     63  C   UNL A   1      43.523  33.298  28.676  1.00  0.00     0.049 A 
ATOM     64  C   UNL A   1      43.096  28.803  31.992  1.00  0.00     0.074 A 
ATOM     65  C   UNL A   1      43.776  33.056  27.336  1.00  0.00     0.029 A 
ATOM     66  N   UNL A   1      43.418  32.057  29.290  1.00  0.00    -0.354 N 
ATOM     67  N   UNL A   1      43.210  29.754  31.095  1.00  0.00    -0.248 NA
ATOM     68  C   UNL A   1      43.187  27.442  31.448  1.00  0.00     0.031 C 
ATOM     69  C   UNL A   1      43.772  31.673  27.130  1.00  0.00     0.029 A 
ATOM     70  C   UNL A   1      43.578  31.050  28.353  1.00  0.00     0.049 A 
ATOM     71  H   UNL A   1      43.255  31.915  30.249  1.00  0.00     0.167 HD
ATOM     72  C   UNL A   1      43.389  29.104  29.879  1.00  0.00     0.074 A 
ATOM     73  C   UNL A   1      43.384  27.682  30.159  1.00  0.00     0.031 C 
ATOM     74  C   UNL A   1      43.545  29.638  28.642  1.00  0.00     0.034 A 
BRANCH  61  75
ATOM     75  C   UNL A   1      43.468  35.818  28.514  1.00  0.00     0.023 A 
ATOM     76  C   UNL A   1      44.679  36.499  28.312  1.00  0.00     0.031 A 
ATOM     77  C   UNL A   1      42.313  36.314  27.883  1.00  0.00     0.131 A 
ATOM     78  C   UNL A   1      44.702  37.661  27.525  1.00  0.00     0.055 A 
ATOM     79  C   UNL A   1      42.352  37.438  27.056  1.00  0.00     0.041 A 
ATOM     80  F   UNL A   1      41.128  35.707  28.056  1.00  0.00    -0.206 F 
ATOM     81  C   UNL A   1      43.551  38.122  26.878  1.00  0.00     0.022 A 
BRANCH  78  82
ATOM     82  S   UNL A   1      46.246  38.603  27.407  1.00  0.00     0.124 S 
ATOM     83  O   UNL A   1      47.228  37.611  27.839  1.00  0.00    -0.237 OA
ATOM     84  O   UNL A   1      46.290  38.969  25.997  1.00  0.00    -0.237 OA
ATOM     85  O   UNL A   1      46.041  39.715  28.334  1.00  0.00    -0.744 OA
ENDBRANCH  78  82
ENDBRANCH  61  75
BRANCH  62  86
ATOM     86  C   UNL A   1      42.748  27.725  34.337  1.00  0.00     0.023 A 
ATOM     87  C   UNL A   1      43.825  27.259  35.104  1.00  0.00     0.031 A 
ATOM     88  C   UNL A   1      41.526  27.031  34.411  1.00  0.00     0.131 A 
ATOM     89  C   UNL A   1      43.664  26.117  35.905  1.00  0.00     0.055 A 
ATOM     90  C   UNL A   1      41.360  25.920  35.237  1.00  0.00     0.041 A 
ATOM     91  F   UNL A   1      40.466  27.449  33.702  1.00  0.00    -0.206 F 
ATOM     92  C   UNL A   1      42.436  25.454  35.986  1.00  0.00     0.022 A 
BRANCH  89  93
ATOM     93  S   UNL A   1      45.092  25.495  36.833  1.00  0.00     0.124 S 
ATOM     94  O   UNL A   1      45.619  24.484  35.923  1.00  0.00    -0.237 OA
ATOM     95  O   UNL A   1      45.901  26.698  36.993  1.00  0.00    -0.237 OA
ATOM     96  O   UNL A   1      44.498  24.980  38.065  1.00  0.00    -0.744 OA
ENDBRANCH  89  93
ENDBRANCH  62  86
BRANCH  74  97
ATOM     97  C   UNL A   1      43.739  28.680  27.501  1.00  0.00     0.023 A 
ATOM     98  C   UNL A   1      45.011  28.180  27.175  1.00  0.00     0.031 A 
ATOM     99  C   UNL A   1      42.635  28.240  26.750  1.00  0.00     0.131 A 
ATOM    100  C   UNL A   1      45.154  27.288  26.101  1.00  0.00     0.055 A 
ATOM    101  C   UNL A   1      42.777  27.321  25.710  1.00  0.00     0.041 A 
ATOM    102  F   UNL A   1      41.400  28.689  27.026  1.00  0.00    -0.206 F 
ATOM    103  C   UNL A   1      44.043  26.844  25.378  1.00  0.00     0.022 A 
BRANCH 100 104
ATOM    104  S   UNL A   1      46.817  26.737  25.639  1.00  0.00     0.124 S 
ATOM    105  O   UNL A   1      46.992  27.367  24.333  1.00  0.00    -0.237 OA
ATOM    106  O   UNL A   1      47.640  27.271  26.719  1.00  0.00    -0.237 OA
ATOM    107  O   UNL A   1      46.701  25.281  25.614  1.00  0.00    -0.744 OA
ENDBRANCH 100 104
ENDBRANCH  74  97
ENDBRANCH  48  49
ENDBRANCH  40  43
ENDBRANCH  38  39
ENDBRANCH  37  38
ENDBRANCH  36  37
ENDBRANCH  35  36
ENDBRANCH   1  35
TORSDOF 22
ENDMDL
