MODEL 1
REMARK VINA RESULT:     -11.5      0.000      0.000
REMARK SMILES Cc1c(CC(=O)N[C@@H](CCO)C(=O)NCCCCCCNC(=O)c2ccc(-c3c4nc(c(-c5cc(S(=O)(=O)[O-])ccc5F)c5ccc([nH]5)c(-c5cc(S(=O)(=O)[O-])ccc5F)c5nc(c(-c6cc(S(=O)(=O)[O-])ccc6F)c6ccc3[nH]6)C=C5)C=C4)cc2)cc(-c2ccc(S(C)(=O)=O)cc2)n1-c1ccc(F)cc1
REMARK SMILES IDX 16 1 15 2 14 3 12 4 13 5 8 7 7 8 5 9 6 10 4 12 3 13 1 14
REMARK SMILES IDX 2 15 99 16 87 17 88 18 100 19 101 20 106 21 102 22 105 23
REMARK SMILES IDX 103 24 104 25 89 26 90 27 98 28 91 29 97 30 92 31 93 32
REMARK SMILES IDX 94 33 95 34 96 35 9 36 10 37 11 38 17 40 18 41 19 42 20 43
REMARK SMILES IDX 21 44 22 45 23 47 24 48 25 49 86 50 26 51 85 52 27 53 28 54
REMARK SMILES IDX 29 55 79 56 30 57 84 58 78 59 80 60 31 61 83 62 77 63 76 64
REMARK SMILES IDX 32 66 64 67 44 68 63 69 45 70 48 71 62 72 81 73 46 74 47 75
REMARK SMILES IDX 61 77 82 78 49 79 33 80 34 81 42 82 35 83 41 84 43 85 40 86
REMARK SMILES IDX 36 87 37 88 38 89 39 90 65 91 66 92 74 93 67 94 73 95 75 96
REMARK SMILES IDX 72 97 68 98 69 99 70 100 71 101 50 102 51 103 59 104 52 105
REMARK SMILES IDX 58 106 60 107 57 108 53 109 54 110 55 111 56 112
REMARK H PARENT 14 6 7 11 11 39 21 46 80 65 48 76
REMARK Flexibility Score: inf
ROOT
ATOM      1  C   UNL A   1      31.628  29.484  25.718  1.00  0.00     0.021 C 
ENDROOT
BRANCH   1   2
ATOM      2  C   UNL A   1      32.466  29.434  24.457  1.00  0.00     0.116 C 
BRANCH   2   3
ATOM      3  N   UNL A   1      31.666  29.592  23.262  1.00  0.00    -0.354 N 
ATOM      4  C   UNL A   1      30.989  28.684  22.510  1.00  0.00     0.242 C 
ATOM      5  O   UNL A   1      30.276  29.134  21.607  1.00  0.00    -0.273 OA
ATOM      6  H   UNL A   1      31.602  30.519  22.936  1.00  0.00     0.163 HD
BRANCH   4   7
ATOM      7  C   UNL A   1      30.960  27.180  22.842  1.00  0.00     0.173 C 
BRANCH   7   8
ATOM      8  N   UNL A   1      29.641  26.684  23.243  1.00  0.00    -0.344 N 
ATOM      9  C   UNL A   1      29.226  26.272  24.480  1.00  0.00     0.225 C 
ATOM     10  O   UNL A   1      28.021  26.064  24.639  1.00  0.00    -0.275 OA
ATOM     11  H   UNL A   1      28.964  26.640  22.529  1.00  0.00     0.164 HD
BRANCH   9  12
ATOM     12  C   UNL A   1      30.219  26.086  25.619  1.00  0.00     0.137 C 
BRANCH  12  13
ATOM     13  C   UNL A   1      31.301  25.107  25.272  1.00  0.00    -0.017 A 
ATOM     14  C   UNL A   1      33.406  26.549  25.720  1.00  0.00     0.065 C 
ATOM     15  C   UNL A   1      32.674  25.290  25.375  1.00  0.00     0.024 A 
ATOM     16  N   UNL A   1      33.300  24.086  25.068  1.00  0.00    -0.314 N 
ATOM     17  C   UNL A   1      31.097  23.780  24.813  1.00  0.00     0.033 A 
ATOM     18  C   UNL A   1      32.321  23.140  24.762  1.00  0.00     0.053 A 
BRANCH  16  19
ATOM     19  C   UNL A   1      34.699  23.835  25.089  1.00  0.00     0.046 A 
ATOM     20  C   UNL A   1      35.373  23.629  23.877  1.00  0.00     0.029 A 
ATOM     21  C   UNL A   1      35.379  23.735  26.310  1.00  0.00     0.029 A 
ATOM     22  C   UNL A   1      36.732  23.319  23.889  1.00  0.00     0.041 A 
ATOM     23  C   UNL A   1      36.736  23.407  26.312  1.00  0.00     0.041 A 
ATOM     24  C   UNL A   1      37.398  23.203  25.104  1.00  0.00     0.123 A 
ATOM     25  F   UNL A   1      38.696  22.876  25.111  1.00  0.00    -0.207 F 
ENDBRANCH  16  19
BRANCH  18  26
ATOM     26  C   UNL A   1      32.553  21.702  24.581  1.00  0.00    -0.001 A 
ATOM     27  C   UNL A   1      32.901  20.887  25.671  1.00  0.00     0.011 A 
ATOM     28  C   UNL A   1      32.386  21.119  23.319  1.00  0.00     0.011 A 
ATOM     29  C   UNL A   1      33.108  19.516  25.500  1.00  0.00     0.021 A 
ATOM     30  C   UNL A   1      32.595  19.749  23.138  1.00  0.00     0.021 A 
ATOM     31  C   UNL A   1      32.964  18.958  24.227  1.00  0.00     0.067 A 
BRANCH  31  32
ATOM     32  S   UNL A   1      33.195  17.207  24.023  1.00  0.00     0.175 S 
ATOM     33  C   UNL A   1      32.252  16.483  25.338  1.00  0.00     0.163 C 
ATOM     34  O   UNL A   1      32.598  16.836  22.771  1.00  0.00    -0.224 OA
ATOM     35  O   UNL A   1      34.604  16.918  24.300  1.00  0.00    -0.224 OA
ENDBRANCH  31  32
ENDBRANCH  18  26
ENDBRANCH  12  13
ENDBRANCH   9  12
ENDBRANCH   7   8
BRANCH   7  36
ATOM     36  C   UNL A   1      31.699  26.270  21.839  1.00  0.00     0.063 C 
BRANCH  36  37
ATOM     37  C   UNL A   1      33.198  26.431  21.636  1.00  0.00     0.158 C 
BRANCH  37  38
ATOM     38  O   UNL A   1      33.603  27.791  21.626  1.00  0.00    -0.396 OA
ATOM     39  H   UNL A   1      34.511  27.855  21.291  1.00  0.00     0.210 HD
ENDBRANCH  37  38
ENDBRANCH  36  37
ENDBRANCH   7  36
ENDBRANCH   4   7
ENDBRANCH   2   3
ENDBRANCH   1   2
BRANCH   1  40
ATOM     40  C   UNL A   1      32.102  30.505  26.756  1.00  0.00     0.002 C 
BRANCH  40  41
ATOM     41  C   UNL A   1      33.539  30.360  27.276  1.00  0.00     0.002 C 
BRANCH  41  42
ATOM     42  C   UNL A   1      34.309  31.632  27.688  1.00  0.00     0.021 C 
BRANCH  42  43
ATOM     43  C   UNL A   1      35.147  31.618  28.983  1.00  0.00     0.116 C 
BRANCH  43  44
ATOM     44  N   UNL A   1      35.019  32.772  29.830  1.00  0.00    -0.352 N 
ATOM     45  C   UNL A   1      35.959  33.270  30.724  1.00  0.00     0.251 C 
ATOM     46  H   UNL A   1      34.170  33.265  29.769  1.00  0.00     0.163 HD
ATOM     47  O   UNL A   1      35.668  34.311  31.309  1.00  0.00    -0.269 OA
BRANCH  45  48
ATOM     48  C   UNL A   1      37.248  32.537  31.067  1.00  0.00     0.039 A 
ATOM     49  C   UNL A   1      38.294  32.575  30.151  1.00  0.00     0.014 A 
ATOM     50  C   UNL A   1      37.386  31.593  32.101  1.00  0.00     0.014 A 
ATOM     51  C   UNL A   1      39.455  31.733  30.295  1.00  0.00     0.010 A 
ATOM     52  C   UNL A   1      38.540  30.685  32.203  1.00  0.00     0.010 A 
ATOM     53  C   UNL A   1      39.629  30.705  31.296  1.00  0.00    -0.014 A 
BRANCH  53  54
ATOM     54  C   UNL A   1      40.531  29.397  30.837  1.00  0.00     0.031 A 
ATOM     55  C   UNL A   1      41.317  29.179  32.090  1.00  0.00     0.074 A 
ATOM     56  C   UNL A   1      40.863  28.544  29.765  1.00  0.00     0.049 A 
ATOM     57  N   UNL A   1      42.017  30.163  32.584  1.00  0.00    -0.248 NA
ATOM     58  C   UNL A   1      41.016  28.112  33.046  1.00  0.00     0.031 C 
ATOM     59  C   UNL A   1      40.410  28.627  28.362  1.00  0.00     0.029 A 
ATOM     60  N   UNL A   1      41.704  27.368  29.650  1.00  0.00    -0.354 N 
ATOM     61  C   UNL A   1      42.528  29.722  33.778  1.00  0.00     0.074 A 
ATOM     62  C   UNL A   1      41.683  28.576  34.110  1.00  0.00     0.031 C 
ATOM     63  C   UNL A   1      40.809  27.546  27.618  1.00  0.00     0.029 A 
ATOM     64  C   UNL A   1      41.643  26.620  28.394  1.00  0.00     0.049 A 
ATOM     65  H   UNL A   1      42.292  27.085  30.388  1.00  0.00     0.167 HD
ATOM     66  C   UNL A   1      43.890  29.795  33.865  1.00  0.00     0.034 A 
ATOM     67  C   UNL A   1      42.255  25.418  27.971  1.00  0.00     0.034 A 
ATOM     68  C   UNL A   1      44.507  28.564  33.444  1.00  0.00     0.049 A 
ATOM     69  C   UNL A   1      43.489  25.292  28.741  1.00  0.00     0.074 A 
ATOM     70  C   UNL A   1      44.242  27.245  33.751  1.00  0.00     0.029 A 
ATOM     71  N   UNL A   1      45.194  28.571  32.247  1.00  0.00    -0.354 N 
ATOM     72  N   UNL A   1      44.539  25.999  28.470  1.00  0.00    -0.248 NA
ATOM     73  C   UNL A   1      43.628  24.331  29.825  1.00  0.00     0.031 C 
ATOM     74  C   UNL A   1      44.303  26.584  32.509  1.00  0.00     0.029 A 
ATOM     75  C   UNL A   1      45.024  27.363  31.608  1.00  0.00     0.049 A 
ATOM     76  H   UNL A   1      45.726  29.325  31.902  1.00  0.00     0.167 HD
ATOM     77  C   UNL A   1      45.194  25.998  29.661  1.00  0.00     0.074 A 
ATOM     78  C   UNL A   1      44.788  24.765  30.318  1.00  0.00     0.031 C 
ATOM     79  C   UNL A   1      45.409  27.219  30.217  1.00  0.00     0.034 A 
BRANCH  66  80
ATOM     80  C   UNL A   1      44.461  31.150  33.557  1.00  0.00     0.023 A 
ATOM     81  C   UNL A   1      43.669  32.063  32.853  1.00  0.00     0.031 A 
ATOM     82  C   UNL A   1      45.779  31.538  33.889  1.00  0.00     0.131 A 
ATOM     83  C   UNL A   1      44.213  33.295  32.456  1.00  0.00     0.055 A 
ATOM     84  C   UNL A   1      46.331  32.738  33.446  1.00  0.00     0.041 A 
ATOM     85  F   UNL A   1      46.547  30.776  34.683  1.00  0.00    -0.206 F 
ATOM     86  C   UNL A   1      45.547  33.624  32.720  1.00  0.00     0.022 A 
BRANCH  83  87
ATOM     87  S   UNL A   1      43.133  34.491  31.630  1.00  0.00     0.124 S 
ATOM     88  O   UNL A   1      42.689  33.752  30.451  1.00  0.00    -0.237 OA
ATOM     89  O   UNL A   1      42.108  34.735  32.641  1.00  0.00    -0.237 OA
ATOM     90  O   UNL A   1      44.013  35.626  31.359  1.00  0.00    -0.744 OA
ENDBRANCH  83  87
ENDBRANCH  66  80
BRANCH  67  91
ATOM     91  C   UNL A   1      42.243  24.232  26.922  1.00  0.00     0.023 A 
ATOM     92  C   UNL A   1      43.394  23.881  26.083  1.00  0.00     0.031 A 
ATOM     93  C   UNL A   1      41.318  23.190  27.066  1.00  0.00     0.131 A 
ATOM     94  C   UNL A   1      43.575  22.579  25.505  1.00  0.00     0.055 A 
ATOM     95  C   UNL A   1      41.505  21.905  26.490  1.00  0.00     0.041 A 
ATOM     96  F   UNL A   1      40.258  23.339  27.873  1.00  0.00    -0.206 F 
ATOM     97  C   UNL A   1      42.630  21.590  25.730  1.00  0.00     0.022 A 
BRANCH  94  98
ATOM     98  S   UNL A   1      45.114  22.059  24.598  1.00  0.00     0.124 S 
ATOM     99  O   UNL A   1      45.309  23.135  23.636  1.00  0.00    -0.237 OA
ATOM    100  O   UNL A   1      46.102  21.944  25.665  1.00  0.00    -0.237 OA
ATOM    101  O   UNL A   1      44.741  20.774  23.996  1.00  0.00    -0.744 OA
ENDBRANCH  94  98
ENDBRANCH  67  91
BRANCH  79 102
ATOM    102  C   UNL A   1      45.894  28.330  29.285  1.00  0.00     0.023 A 
ATOM    103  C   UNL A   1      45.090  29.321  28.653  1.00  0.00     0.031 A 
ATOM    104  C   UNL A   1      47.250  28.312  28.922  1.00  0.00     0.131 A 
ATOM    105  C   UNL A   1      45.634  30.195  27.685  1.00  0.00     0.055 A 
ATOM    106  C   UNL A   1      47.796  29.200  27.992  1.00  0.00     0.041 A 
ATOM    107  F   UNL A   1      48.078  27.399  29.453  1.00  0.00    -0.206 F 
ATOM    108  C   UNL A   1      46.987  30.133  27.357  1.00  0.00     0.022 A 
BRANCH 105 109
ATOM    109  S   UNL A   1      44.570  31.360  26.762  1.00  0.00     0.124 S 
ATOM    110  O   UNL A   1      43.444  30.539  26.336  1.00  0.00    -0.237 OA
ATOM    111  O   UNL A   1      44.270  32.377  27.766  1.00  0.00    -0.237 OA
ATOM    112  O   UNL A   1      45.434  31.817  25.671  1.00  0.00    -0.744 OA
ENDBRANCH 105 109
ENDBRANCH  79 102
ENDBRANCH  53  54
ENDBRANCH  45  48
ENDBRANCH  43  44
ENDBRANCH  42  43
ENDBRANCH  41  42
ENDBRANCH  40  41
ENDBRANCH   1  40
TORSDOF 25
ENDMDL
MODEL 2
REMARK VINA RESULT:     -10.5      2.460      3.712
REMARK SMILES Cc1c(CC(=O)N[C@@H](CCO)C(=O)NCCCCCCNC(=O)c2ccc(-c3c4nc(c(-c5cc(S(=O)(=O)[O-])ccc5F)c5ccc([nH]5)c(-c5cc(S(=O)(=O)[O-])ccc5F)c5nc(c(-c6cc(S(=O)(=O)[O-])ccc6F)c6ccc3[nH]6)C=C5)C=C4)cc2)cc(-c2ccc(S(C)(=O)=O)cc2)n1-c1ccc(F)cc1
REMARK SMILES IDX 16 1 15 2 14 3 12 4 13 5 8 7 7 8 5 9 6 10 4 12 3 13 1 14
REMARK SMILES IDX 2 15 99 16 87 17 88 18 100 19 101 20 106 21 102 22 105 23
REMARK SMILES IDX 103 24 104 25 89 26 90 27 98 28 91 29 97 30 92 31 93 32
REMARK SMILES IDX 94 33 95 34 96 35 9 36 10 37 11 38 17 40 18 41 19 42 20 43
REMARK SMILES IDX 21 44 22 45 23 47 24 48 25 49 86 50 26 51 85 52 27 53 28 54
REMARK SMILES IDX 29 55 79 56 30 57 84 58 78 59 80 60 31 61 83 62 77 63 76 64
REMARK SMILES IDX 32 66 64 67 44 68 63 69 45 70 48 71 62 72 81 73 46 74 47 75
REMARK SMILES IDX 61 77 82 78 49 79 33 80 34 81 42 82 35 83 41 84 43 85 40 86
REMARK SMILES IDX 36 87 37 88 38 89 39 90 65 91 66 92 74 93 67 94 73 95 75 96
REMARK SMILES IDX 72 97 68 98 69 99 70 100 71 101 50 102 51 103 59 104 52 105
REMARK SMILES IDX 58 106 60 107 57 108 53 109 54 110 55 111 56 112
REMARK H PARENT 14 6 7 11 11 39 21 46 80 65 48 76
REMARK Flexibility Score: inf
ROOT
ATOM      1  C   UNL A   1      31.818  29.450  25.904  1.00  0.00     0.021 C 
ENDROOT
BRANCH   1   2
ATOM      2  C   UNL A   1      32.522  29.310  24.571  1.00  0.00     0.116 C 
BRANCH   2   3
ATOM      3  N   UNL A   1      31.617  29.467  23.453  1.00  0.00    -0.354 N 
ATOM      4  C   UNL A   1      30.894  28.555  22.750  1.00  0.00     0.242 C 
ATOM      5  O   UNL A   1      30.095  29.003  21.921  1.00  0.00    -0.273 OA
ATOM      6  H   UNL A   1      31.506  30.396  23.149  1.00  0.00     0.163 HD
BRANCH   4   7
ATOM      7  C   UNL A   1      30.924  27.047  23.061  1.00  0.00     0.173 C 
BRANCH   7   8
ATOM      8  N   UNL A   1      29.649  26.514  23.551  1.00  0.00    -0.344 N 
ATOM      9  C   UNL A   1      29.331  26.098  24.815  1.00  0.00     0.225 C 
ATOM     10  O   UNL A   1      28.146  25.856  25.055  1.00  0.00    -0.275 OA
ATOM     11  H   UNL A   1      28.928  26.446  22.885  1.00  0.00     0.164 HD
BRANCH   9  12
ATOM     12  C   UNL A   1      30.403  25.949  25.886  1.00  0.00     0.137 C 
BRANCH  12  13
ATOM     13  C   UNL A   1      31.445  24.939  25.506  1.00  0.00    -0.017 A 
ATOM     14  C   UNL A   1      33.603  26.320  25.890  1.00  0.00     0.065 C 
ATOM     15  C   UNL A   1      32.825  25.083  25.568  1.00  0.00     0.024 A 
ATOM     16  N   UNL A   1      33.407  23.862  25.243  1.00  0.00    -0.314 N 
ATOM     17  C   UNL A   1      31.189  23.619  25.054  1.00  0.00     0.033 A 
ATOM     18  C   UNL A   1      32.392  22.944  24.966  1.00  0.00     0.053 A 
BRANCH  16  19
ATOM     19  C   UNL A   1      34.798  23.570  25.221  1.00  0.00     0.046 A 
ATOM     20  C   UNL A   1      35.500  23.505  26.432  1.00  0.00     0.029 A 
ATOM     21  C   UNL A   1      35.465  23.411  23.999  1.00  0.00     0.029 A 
ATOM     22  C   UNL A   1      36.876  23.283  26.420  1.00  0.00     0.041 A 
ATOM     23  C   UNL A   1      36.846  23.206  23.997  1.00  0.00     0.041 A 
ATOM     24  C   UNL A   1      37.537  23.144  25.204  1.00  0.00     0.123 A 
ATOM     25  F   UNL A   1      38.863  22.960  25.196  1.00  0.00    -0.207 F 
ENDBRANCH  16  19
BRANCH  18  26
ATOM     26  C   UNL A   1      32.577  21.500  24.778  1.00  0.00    -0.001 A 
ATOM     27  C   UNL A   1      33.026  20.690  25.833  1.00  0.00     0.011 A 
ATOM     28  C   UNL A   1      32.262  20.909  23.548  1.00  0.00     0.011 A 
ATOM     29  C   UNL A   1      33.189  19.313  25.656  1.00  0.00     0.021 A 
ATOM     30  C   UNL A   1      32.425  19.533  23.363  1.00  0.00     0.021 A 
ATOM     31  C   UNL A   1      32.896  18.746  24.414  1.00  0.00     0.067 A 
BRANCH  31  32
ATOM     32  S   UNL A   1      33.072  16.989  24.207  1.00  0.00     0.175 S 
ATOM     33  C   UNL A   1      34.624  16.609  24.975  1.00  0.00     0.163 C 
ATOM     34  O   UNL A   1      32.022  16.359  24.958  1.00  0.00    -0.224 OA
ATOM     35  O   UNL A   1      33.231  16.731  22.774  1.00  0.00    -0.224 OA
ENDBRANCH  31  32
ENDBRANCH  18  26
ENDBRANCH  12  13
ENDBRANCH   9  12
ENDBRANCH   7   8
BRANCH   7  36
ATOM     36  C   UNL A   1      31.605  26.168  21.992  1.00  0.00     0.063 C 
BRANCH  36  37
ATOM     37  C   UNL A   1      33.075  26.381  21.664  1.00  0.00     0.158 C 
BRANCH  37  38
ATOM     38  O   UNL A   1      33.318  26.450  20.267  1.00  0.00    -0.396 OA
ATOM     39  H   UNL A   1      33.932  27.177  20.081  1.00  0.00     0.210 HD
ENDBRANCH  37  38
ENDBRANCH  36  37
ENDBRANCH   7  36
ENDBRANCH   4   7
ENDBRANCH   2   3
ENDBRANCH   1   2
BRANCH   1  40
ATOM     40  C   UNL A   1      31.664  30.893  26.393  1.00  0.00     0.002 C 
BRANCH  40  41
ATOM     41  C   UNL A   1      32.838  31.496  27.176  1.00  0.00     0.002 C 
BRANCH  41  42
ATOM     42  C   UNL A   1      32.908  33.028  27.343  1.00  0.00     0.021 C 
BRANCH  42  43
ATOM     43  C   UNL A   1      33.735  33.622  28.503  1.00  0.00     0.116 C 
BRANCH  43  44
ATOM     44  N   UNL A   1      33.025  34.482  29.408  1.00  0.00    -0.352 N 
ATOM     45  C   UNL A   1      33.370  34.799  30.716  1.00  0.00     0.251 C 
ATOM     46  H   UNL A   1      32.200  34.893  29.062  1.00  0.00     0.163 HD
ATOM     47  O   UNL A   1      32.650  35.608  31.298  1.00  0.00    -0.269 OA
BRANCH  45  48
ATOM     48  C   UNL A   1      34.513  34.123  31.460  1.00  0.00     0.039 A 
ATOM     49  C   UNL A   1      35.806  34.587  31.249  1.00  0.00     0.014 A 
ATOM     50  C   UNL A   1      34.416  32.890  32.132  1.00  0.00     0.014 A 
ATOM     51  C   UNL A   1      36.956  33.867  31.736  1.00  0.00     0.010 A 
ATOM     52  C   UNL A   1      35.596  32.123  32.564  1.00  0.00     0.010 A 
ATOM     53  C   UNL A   1      36.928  32.572  32.377  1.00  0.00    -0.014 A 
BRANCH  53  54
ATOM     54  C   UNL A   1      38.246  31.608  32.115  1.00  0.00     0.031 A 
ATOM     55  C   UNL A   1      38.687  31.394  33.528  1.00  0.00     0.074 A 
ATOM     56  C   UNL A   1      39.082  31.039  31.134  1.00  0.00     0.049 A 
ATOM     57  N   UNL A   1      38.924  32.428  34.287  1.00  0.00    -0.248 NA
ATOM     58  C   UNL A   1      38.443  30.150  34.260  1.00  0.00     0.031 C 
ATOM     59  C   UNL A   1      39.027  31.228  29.671  1.00  0.00     0.029 A 
ATOM     60  N   UNL A   1      40.213  30.134  31.190  1.00  0.00    -0.354 N 
ATOM     61  C   UNL A   1      39.190  31.943  35.543  1.00  0.00     0.074 A 
ATOM     62  C   UNL A   1      38.637  30.589  35.510  1.00  0.00     0.031 C 
ATOM     63  C   UNL A   1      39.897  30.406  29.002  1.00  0.00     0.029 A 
ATOM     64  C   UNL A   1      40.709  29.599  29.921  1.00  0.00     0.049 A 
ATOM     65  H   UNL A   1      40.631  29.889  32.048  1.00  0.00     0.167 HD
ATOM     66  C   UNL A   1      40.400  32.327  36.046  1.00  0.00     0.034 A 
ATOM     67  C   UNL A   1      41.721  28.661  29.614  1.00  0.00     0.034 A 
ATOM     68  C   UNL A   1      41.425  31.363  35.741  1.00  0.00     0.049 A 
ATOM     69  C   UNL A   1      42.682  28.719  30.712  1.00  0.00     0.074 A 
ATOM     70  C   UNL A   1      41.462  29.988  35.849  1.00  0.00     0.029 A 
ATOM     71  N   UNL A   1      42.384  31.723  34.815  1.00  0.00    -0.354 N 
ATOM     72  N   UNL A   1      43.527  29.692  30.830  1.00  0.00    -0.248 NA
ATOM     73  C   UNL A   1      42.778  27.662  31.709  1.00  0.00     0.031 C 
ATOM     74  C   UNL A   1      42.041  29.564  34.637  1.00  0.00     0.029 A 
ATOM     75  C   UNL A   1      42.737  30.625  34.063  1.00  0.00     0.049 A 
ATOM     76  H   UNL A   1      42.759  32.628  34.709  1.00  0.00     0.167 HD
ATOM     77  C   UNL A   1      43.805  29.663  32.161  1.00  0.00     0.074 A 
ATOM     78  C   UNL A   1      43.592  28.282  32.565  1.00  0.00     0.031 C 
ATOM     79  C   UNL A   1      43.512  30.797  32.849  1.00  0.00     0.034 A 
BRANCH  66  80
ATOM     80  C   UNL A   1      40.634  33.812  36.035  1.00  0.00     0.023 A 
ATOM     81  C   UNL A   1      41.695  34.313  35.274  1.00  0.00     0.031 A 
ATOM     82  C   UNL A   1      39.877  34.730  36.797  1.00  0.00     0.131 A 
ATOM     83  C   UNL A   1      42.007  35.682  35.330  1.00  0.00     0.055 A 
ATOM     84  C   UNL A   1      40.224  36.076  36.893  1.00  0.00     0.041 A 
ATOM     85  F   UNL A   1      38.762  34.346  37.438  1.00  0.00    -0.206 F 
ATOM     86  C   UNL A   1      41.299  36.559  36.158  1.00  0.00     0.022 A 
BRANCH  83  87
ATOM     87  S   UNL A   1      43.325  36.312  34.260  1.00  0.00     0.124 S 
ATOM     88  O   UNL A   1      44.467  35.491  34.651  1.00  0.00    -0.237 OA
ATOM     89  O   UNL A   1      42.793  36.054  32.925  1.00  0.00    -0.237 OA
ATOM     90  O   UNL A   1      43.421  37.725  34.623  1.00  0.00    -0.744 OA
ENDBRANCH  83  87
ENDBRANCH  66  80
BRANCH  67  91
ATOM     91  C   UNL A   1      42.326  27.687  28.523  1.00  0.00     0.023 A 
ATOM     92  C   UNL A   1      42.663  26.284  28.787  1.00  0.00     0.031 A 
ATOM     93  C   UNL A   1      42.141  27.970  27.163  1.00  0.00     0.131 A 
ATOM     94  C   UNL A   1      42.749  25.290  27.755  1.00  0.00     0.055 A 
ATOM     95  C   UNL A   1      42.229  26.981  26.148  1.00  0.00     0.041 A 
ATOM     96  F   UNL A   1      41.748  29.193  26.780  1.00  0.00    -0.206 F 
ATOM     97  C   UNL A   1      42.513  25.646  26.436  1.00  0.00     0.022 A 
BRANCH  94  98
ATOM     98  S   UNL A   1      42.988  23.475  28.088  1.00  0.00     0.124 S 
ATOM     99  O   UNL A   1      44.423  23.294  27.911  1.00  0.00    -0.237 OA
ATOM    100  O   UNL A   1      42.468  23.317  29.441  1.00  0.00    -0.237 OA
ATOM    101  O   UNL A   1      42.170  22.824  27.059  1.00  0.00    -0.744 OA
ENDBRANCH  94  98
ENDBRANCH  67  91
BRANCH  79 102
ATOM    102  C   UNL A   1      43.906  32.124  32.199  1.00  0.00     0.023 A 
ATOM    103  C   UNL A   1      43.148  32.863  31.247  1.00  0.00     0.031 A 
ATOM    104  C   UNL A   1      45.192  32.614  32.478  1.00  0.00     0.131 A 
ATOM    105  C   UNL A   1      43.693  33.994  30.599  1.00  0.00     0.055 A 
ATOM    106  C   UNL A   1      45.717  33.754  31.865  1.00  0.00     0.041 A 
ATOM    107  F   UNL A   1      45.985  31.970  33.349  1.00  0.00    -0.206 F 
ATOM    108  C   UNL A   1      44.976  34.438  30.909  1.00  0.00     0.022 A 
BRANCH 105 109
ATOM    109  S   UNL A   1      42.778  34.848  29.265  1.00  0.00     0.124 S 
ATOM    110  O   UNL A   1      43.288  34.233  28.046  1.00  0.00    -0.237 OA
ATOM    111  O   UNL A   1      41.387  34.548  29.594  1.00  0.00    -0.237 OA
ATOM    112  O   UNL A   1      43.157  36.252  29.440  1.00  0.00    -0.744 OA
ENDBRANCH 105 109
ENDBRANCH  79 102
ENDBRANCH  53  54
ENDBRANCH  45  48
ENDBRANCH  43  44
ENDBRANCH  42  43
ENDBRANCH  41  42
ENDBRANCH  40  41
ENDBRANCH   1  40
TORSDOF 25
ENDMDL
MODEL 3
REMARK VINA RESULT:      -9.7      3.511      7.293
REMARK SMILES Cc1c(CC(=O)N[C@@H](CCO)C(=O)NCCCCCCNC(=O)c2ccc(-c3c4nc(c(-c5cc(S(=O)(=O)[O-])ccc5F)c5ccc([nH]5)c(-c5cc(S(=O)(=O)[O-])ccc5F)c5nc(c(-c6cc(S(=O)(=O)[O-])ccc6F)c6ccc3[nH]6)C=C5)C=C4)cc2)cc(-c2ccc(S(C)(=O)=O)cc2)n1-c1ccc(F)cc1
REMARK SMILES IDX 16 1 15 2 14 3 12 4 13 5 8 7 7 8 5 9 6 10 4 12 3 13 1 14
REMARK SMILES IDX 2 15 99 16 87 17 88 18 100 19 101 20 106 21 102 22 105 23
REMARK SMILES IDX 103 24 104 25 89 26 90 27 98 28 91 29 97 30 92 31 93 32
REMARK SMILES IDX 94 33 95 34 96 35 9 36 10 37 11 38 17 40 18 41 19 42 20 43
REMARK SMILES IDX 21 44 22 45 23 47 24 48 25 49 86 50 26 51 85 52 27 53 28 54
REMARK SMILES IDX 29 55 79 56 30 57 84 58 78 59 80 60 31 61 83 62 77 63 76 64
REMARK SMILES IDX 32 66 64 67 44 68 63 69 45 70 48 71 62 72 81 73 46 74 47 75
REMARK SMILES IDX 61 77 82 78 49 79 33 80 34 81 42 82 35 83 41 84 43 85 40 86
REMARK SMILES IDX 36 87 37 88 38 89 39 90 65 91 66 92 74 93 67 94 73 95 75 96
REMARK SMILES IDX 72 97 68 98 69 99 70 100 71 101 50 102 51 103 59 104 52 105
REMARK SMILES IDX 58 106 60 107 57 108 53 109 54 110 55 111 56 112
REMARK H PARENT 14 6 7 11 11 39 21 46 80 65 48 76
REMARK Flexibility Score: inf
ROOT
ATOM      1  C   UNL A   1      31.699  29.443  25.821  1.00  0.00     0.021 C 
ENDROOT
BRANCH   1   2
ATOM      2  C   UNL A   1      32.276  29.361  24.423  1.00  0.00     0.116 C 
BRANCH   2   3
ATOM      3  N   UNL A   1      31.271  29.561  23.402  1.00  0.00    -0.354 N 
ATOM      4  C   UNL A   1      30.545  28.673  22.672  1.00  0.00     0.242 C 
ATOM      5  O   UNL A   1      29.653  29.141  21.958  1.00  0.00    -0.273 OA
ATOM      6  H   UNL A   1      31.079  30.505  23.201  1.00  0.00     0.163 HD
BRANCH   4   7
ATOM      7  C   UNL A   1      30.691  27.147  22.828  1.00  0.00     0.173 C 
BRANCH   7   8
ATOM      8  N   UNL A   1      29.548  26.503  23.483  1.00  0.00    -0.344 N 
ATOM      9  C   UNL A   1      29.423  26.116  24.789  1.00  0.00     0.225 C 
ATOM     10  O   UNL A   1      28.308  25.758  25.174  1.00  0.00    -0.275 OA
ATOM     11  H   UNL A   1      28.769  26.325  22.908  1.00  0.00     0.164 HD
BRANCH   9  12
ATOM     12  C   UNL A   1      30.618  26.136  25.731  1.00  0.00     0.137 C 
BRANCH  12  13
ATOM     13  C   UNL A   1      31.634  25.089  25.379  1.00  0.00    -0.017 A 
ATOM     14  C   UNL A   1      33.828  26.413  25.758  1.00  0.00     0.065 C 
ATOM     15  C   UNL A   1      33.017  25.193  25.450  1.00  0.00     0.024 A 
ATOM     16  N   UNL A   1      33.565  23.950  25.152  1.00  0.00    -0.314 N 
ATOM     17  C   UNL A   1      31.343  23.769  24.948  1.00  0.00     0.033 A 
ATOM     18  C   UNL A   1      32.526  23.058  24.882  1.00  0.00     0.053 A 
BRANCH  16  19
ATOM     19  C   UNL A   1      34.948  23.618  25.148  1.00  0.00     0.046 A 
ATOM     20  C   UNL A   1      35.590  23.387  23.924  1.00  0.00     0.029 A 
ATOM     21  C   UNL A   1      35.639  23.465  26.357  1.00  0.00     0.029 A 
ATOM     22  C   UNL A   1      36.929  22.998  23.911  1.00  0.00     0.041 A 
ATOM     23  C   UNL A   1      36.974  23.059  26.334  1.00  0.00     0.041 A 
ATOM     24  C   UNL A   1      37.605  22.830  25.114  1.00  0.00     0.123 A 
ATOM     25  F   UNL A   1      38.882  22.428  25.097  1.00  0.00    -0.207 F 
ENDBRANCH  16  19
BRANCH  18  26
ATOM     26  C   UNL A   1      32.670  21.606  24.722  1.00  0.00    -0.001 A 
ATOM     27  C   UNL A   1      33.120  20.806  25.785  1.00  0.00     0.011 A 
ATOM     28  C   UNL A   1      32.317  20.997  23.511  1.00  0.00     0.011 A 
ATOM     29  C   UNL A   1      33.244  19.423  25.635  1.00  0.00     0.021 A 
ATOM     30  C   UNL A   1      32.441  19.614  23.352  1.00  0.00     0.021 A 
ATOM     31  C   UNL A   1      32.912  18.837  24.410  1.00  0.00     0.067 A 
BRANCH  31  32
ATOM     32  S   UNL A   1      33.039  17.072  24.238  1.00  0.00     0.175 S 
ATOM     33  C   UNL A   1      34.592  16.667  24.991  1.00  0.00     0.163 C 
ATOM     34  O   UNL A   1      31.984  16.486  25.016  1.00  0.00    -0.224 OA
ATOM     35  O   UNL A   1      33.170  16.782  22.808  1.00  0.00    -0.224 OA
ENDBRANCH  31  32
ENDBRANCH  18  26
ENDBRANCH  12  13
ENDBRANCH   9  12
ENDBRANCH   7   8
BRANCH   7  36
ATOM     36  C   UNL A   1      31.203  26.403  21.577  1.00  0.00     0.063 C 
BRANCH  36  37
ATOM     37  C   UNL A   1      32.621  25.851  21.555  1.00  0.00     0.158 C 
BRANCH  37  38
ATOM     38  O   UNL A   1      33.244  26.001  20.289  1.00  0.00    -0.396 OA
ATOM     39  H   UNL A   1      32.808  26.714  19.796  1.00  0.00     0.210 HD
ENDBRANCH  37  38
ENDBRANCH  36  37
ENDBRANCH   7  36
ENDBRANCH   4   7
ENDBRANCH   2   3
ENDBRANCH   1   2
BRANCH   1  40
ATOM     40  C   UNL A   1      31.922  30.785  26.523  1.00  0.00     0.002 C 
BRANCH  40  41
ATOM     41  C   UNL A   1      33.135  30.894  27.457  1.00  0.00     0.002 C 
BRANCH  41  42
ATOM     42  C   UNL A   1      33.575  32.292  27.940  1.00  0.00     0.021 C 
BRANCH  42  43
ATOM     43  C   UNL A   1      34.791  32.414  28.882  1.00  0.00     0.116 C 
BRANCH  43  44
ATOM     44  N   UNL A   1      34.507  32.355  30.289  1.00  0.00    -0.352 N 
ATOM     45  C   UNL A   1      35.396  32.069  31.317  1.00  0.00     0.251 C 
ATOM     46  H   UNL A   1      33.577  32.539  30.555  1.00  0.00     0.163 HD
ATOM     47  O   UNL A   1      34.955  32.130  32.464  1.00  0.00    -0.269 OA
BRANCH  45  48
ATOM     48  C   UNL A   1      36.823  31.597  31.074  1.00  0.00     0.039 A 
ATOM     49  C   UNL A   1      37.281  30.489  31.777  1.00  0.00     0.014 A 
ATOM     50  C   UNL A   1      37.814  32.342  30.410  1.00  0.00     0.014 A 
ATOM     51  C   UNL A   1      38.673  30.115  31.773  1.00  0.00     0.010 A 
ATOM     52  C   UNL A   1      39.244  31.999  30.468  1.00  0.00     0.010 A 
ATOM     53  C   UNL A   1      39.745  30.869  31.164  1.00  0.00    -0.014 A 
BRANCH  53  54
ATOM     54  C   UNL A   1      41.216  30.768  31.913  1.00  0.00     0.031 A 
ATOM     55  C   UNL A   1      42.102  30.637  30.716  1.00  0.00     0.074 A 
ATOM     56  C   UNL A   1      41.872  30.681  33.157  1.00  0.00     0.049 A 
ATOM     57  N   UNL A   1      41.875  29.684  29.854  1.00  0.00    -0.248 NA
ATOM     58  C   UNL A   1      42.909  31.742  30.195  1.00  0.00     0.031 C 
ATOM     59  C   UNL A   1      41.268  30.585  34.500  1.00  0.00     0.029 A 
ATOM     60  N   UNL A   1      43.269  30.652  33.547  1.00  0.00    -0.354 N 
ATOM     61  C   UNL A   1      42.750  29.874  28.816  1.00  0.00     0.074 A 
ATOM     62  C   UNL A   1      43.165  31.268  28.969  1.00  0.00     0.031 C 
ATOM     63  C   UNL A   1      42.201  30.666  35.502  1.00  0.00     0.029 A 
ATOM     64  C   UNL A   1      43.569  30.758  34.976  1.00  0.00     0.049 A 
ATOM     65  H   UNL A   1      43.986  30.564  32.878  1.00  0.00     0.167 HD
ATOM     66  C   UNL A   1      43.552  28.799  28.556  1.00  0.00     0.034 A 
ATOM     67  C   UNL A   1      44.786  30.833  35.690  1.00  0.00     0.034 A 
ATOM     68  C   UNL A   1      44.796  28.887  29.276  1.00  0.00     0.049 A 
ATOM     69  C   UNL A   1      45.788  30.164  34.866  1.00  0.00     0.074 A 
ATOM     70  C   UNL A   1      45.697  29.919  29.443  1.00  0.00     0.029 A 
ATOM     71  N   UNL A   1      44.991  28.006  30.321  1.00  0.00    -0.354 N 
ATOM     72  N   UNL A   1      45.846  28.874  34.774  1.00  0.00    -0.248 NA
ATOM     73  C   UNL A   1      46.810  30.904  34.141  1.00  0.00     0.031 C 
ATOM     74  C   UNL A   1      46.007  29.886  30.816  1.00  0.00     0.029 A 
ATOM     75  C   UNL A   1      45.690  28.631  31.330  1.00  0.00     0.049 A 
ATOM     76  H   UNL A   1      44.679  27.072  30.341  1.00  0.00     0.167 HD
ATOM     77  C   UNL A   1      46.474  28.706  33.580  1.00  0.00     0.074 A 
ATOM     78  C   UNL A   1      47.288  29.899  33.405  1.00  0.00     0.031 C 
ATOM     79  C   UNL A   1      45.778  28.015  32.640  1.00  0.00     0.034 A 
BRANCH  66  80
ATOM     80  C   UNL A   1      42.812  27.509  28.343  1.00  0.00     0.023 A 
ATOM     81  C   UNL A   1      43.478  26.307  28.604  1.00  0.00     0.031 A 
ATOM     82  C   UNL A   1      41.495  27.436  27.836  1.00  0.00     0.131 A 
ATOM     83  C   UNL A   1      42.851  25.085  28.310  1.00  0.00     0.055 A 
ATOM     84  C   UNL A   1      40.898  26.225  27.495  1.00  0.00     0.041 A 
ATOM     85  F   UNL A   1      40.744  28.540  27.695  1.00  0.00    -0.206 F 
ATOM     86  C   UNL A   1      41.580  25.038  27.729  1.00  0.00     0.022 A 
BRANCH  83  87
ATOM     87  S   UNL A   1      43.704  23.549  28.749  1.00  0.00     0.124 S 
ATOM     88  O   UNL A   1      44.952  24.037  29.329  1.00  0.00    -0.237 OA
ATOM     89  O   UNL A   1      42.772  22.934  29.691  1.00  0.00    -0.237 OA
ATOM     90  O   UNL A   1      43.841  22.850  27.473  1.00  0.00    -0.744 OA
ENDBRANCH  83  87
ENDBRANCH  66  80
BRANCH  67  91
ATOM     91  C   UNL A   1      45.489  31.206  37.059  1.00  0.00     0.023 A 
ATOM     92  C   UNL A   1      45.932  30.209  38.040  1.00  0.00     0.031 A 
ATOM     93  C   UNL A   1      46.128  32.445  37.195  1.00  0.00     0.131 A 
ATOM     94  C   UNL A   1      46.955  30.467  39.013  1.00  0.00     0.055 A 
ATOM     95  C   UNL A   1      47.139  32.692  38.161  1.00  0.00     0.041 A 
ATOM     96  F   UNL A   1      45.884  33.426  36.315  1.00  0.00    -0.206 F 
ATOM     97  C   UNL A   1      47.566  31.711  39.054  1.00  0.00     0.022 A 
BRANCH  94  98
ATOM     98  S   UNL A   1      47.661  29.163  40.138  1.00  0.00     0.124 S 
ATOM     99  O   UNL A   1      49.042  29.052  39.687  1.00  0.00    -0.237 OA
ATOM    100  O   UNL A   1      47.448  29.725  41.467  1.00  0.00    -0.237 OA
ATOM    101  O   UNL A   1      46.840  27.982  39.854  1.00  0.00    -0.744 OA
ENDBRANCH  94  98
ENDBRANCH  67  91
BRANCH  79 102
ATOM    102  C   UNL A   1      45.055  26.749  33.102  1.00  0.00     0.023 A 
ATOM    103  C   UNL A   1      43.909  26.684  33.944  1.00  0.00     0.031 A 
ATOM    104  C   UNL A   1      45.639  25.519  32.760  1.00  0.00     0.131 A 
ATOM    105  C   UNL A   1      43.430  25.448  34.433  1.00  0.00     0.055 A 
ATOM    106  C   UNL A   1      45.144  24.294  33.213  1.00  0.00     0.041 A 
ATOM    107  F   UNL A   1      46.736  25.485  31.986  1.00  0.00    -0.206 F 
ATOM    108  C   UNL A   1      44.048  24.255  34.066  1.00  0.00     0.022 A 
BRANCH 105 109
ATOM    109  S   UNL A   1      42.054  25.379  35.636  1.00  0.00     0.124 S 
ATOM    110  O   UNL A   1      42.694  25.680  36.911  1.00  0.00    -0.237 OA
ATOM    111  O   UNL A   1      41.139  26.397  35.129  1.00  0.00    -0.237 OA
ATOM    112  O   UNL A   1      41.566  24.003  35.513  1.00  0.00    -0.744 OA
ENDBRANCH 105 109
ENDBRANCH  79 102
ENDBRANCH  53  54
ENDBRANCH  45  48
ENDBRANCH  43  44
ENDBRANCH  42  43
ENDBRANCH  41  42
ENDBRANCH  40  41
ENDBRANCH   1  40
TORSDOF 25
ENDMDL
