MODEL 1
REMARK VINA RESULT:     -11.4      0.000      0.000
REMARK SMILES C[C@@H](CCC(=O)Nc1ccccn1)C(=O)NCCCCCCNC(=O)c1ccc(-c2c3nc(c(-c4cc(S(=O)(=O)[O-])ccc4F)c4ccc([nH]4)c(-c4cc(S(=O)(=O)[O-])ccc4F)c4nc(c(-c5cc(S(=O)(=O)[O-])ccc5F)c5ccc2[nH]5)C=C4)C=C3)cc1
REMARK SMILES IDX 19 1 18 2 17 3 16 4 14 5 15 6 2 8 1 9 3 10 4 11 5 12 6 13
REMARK SMILES IDX 7 14 8 16 9 17 13 18 10 19 12 20 11 21 20 22 21 23 22 24
REMARK SMILES IDX 23 25 24 26 25 28 26 29 27 30 88 31 28 32 87 33 29 34 30 35
REMARK SMILES IDX 31 36 81 37 32 38 86 39 80 40 82 41 33 42 85 43 79 44 78 45
REMARK SMILES IDX 34 47 66 48 46 49 65 50 47 51 50 52 64 53 83 54 48 55 49 56
REMARK SMILES IDX 63 58 84 59 51 60 35 61 36 62 44 63 37 64 43 65 45 66 42 67
REMARK SMILES IDX 38 68 39 69 40 70 41 71 67 72 68 73 76 74 69 75 75 76 77 77
REMARK SMILES IDX 74 78 70 79 71 80 72 81 73 82 52 83 53 84 61 85 54 86 60 87
REMARK SMILES IDX 62 88 59 89 55 90 56 91 57 92 58 93
REMARK H PARENT 16 7 7 15 23 27 82 46 50 57
REMARK Flexibility Score: inf
ROOT
ATOM      1  C   UNL A   1      32.153  29.434  26.679  1.00  0.00     0.002 C 
ENDROOT
BRANCH   1   2
ATOM      2  C   UNL A   1      32.683  28.213  25.898  1.00  0.00     0.021 C 
BRANCH   2   3
ATOM      3  C   UNL A   1      32.797  26.859  26.653  1.00  0.00     0.116 C 
BRANCH   3   4
ATOM      4  N   UNL A   1      31.520  26.119  26.660  1.00  0.00    -0.356 N 
ATOM      5  C   UNL A   1      30.915  25.076  26.043  1.00  0.00     0.222 C 
ATOM      6  O   UNL A   1      29.981  24.595  26.709  1.00  0.00    -0.275 OA
ATOM      7  H   UNL A   1      30.913  26.507  27.330  1.00  0.00     0.163 HD
BRANCH   5   8
ATOM      8  C   UNL A   1      31.133  24.472  24.635  1.00  0.00     0.076 C 
ATOM      9  C   UNL A   1      31.191  22.920  24.592  1.00  0.00     0.018 C 
BRANCH   8  10
ATOM     10  C   UNL A   1      30.396  25.023  23.431  1.00  0.00     0.023 C 
BRANCH  10  11
ATOM     11  C   UNL A   1      29.982  26.490  23.503  1.00  0.00     0.101 C 
BRANCH  11  12
ATOM     12  C   UNL A   1      30.768  27.469  22.675  1.00  0.00     0.225 C 
ATOM     13  O   UNL A   1      31.892  27.098  22.292  1.00  0.00    -0.275 OA
ATOM     14  N   UNL A   1      30.391  28.677  22.219  1.00  0.00    -0.311 N 
ATOM     15  H   UNL A   1      30.978  28.886  21.457  1.00  0.00     0.171 HD
BRANCH  14  16
ATOM     16  C   UNL A   1      29.527  29.759  22.365  1.00  0.00     0.132 A 
ATOM     17  C   UNL A   1      29.166  30.460  23.496  1.00  0.00     0.047 A 
ATOM     18  N   UNL A   1      29.151  30.215  21.153  1.00  0.00    -0.239 NA
ATOM     19  C   UNL A   1      28.377  31.616  23.406  1.00  0.00     0.005 A 
ATOM     20  C   UNL A   1      28.389  31.330  21.072  1.00  0.00     0.113 A 
ATOM     21  C   UNL A   1      27.971  32.060  22.163  1.00  0.00     0.020 A 
ENDBRANCH  14  16
ENDBRANCH  11  12
ENDBRANCH  10  11
ENDBRANCH   8  10
ENDBRANCH   5   8
ENDBRANCH   3   4
ENDBRANCH   2   3
ENDBRANCH   1   2
BRANCH   1  22
ATOM     22  C   UNL A   1      31.575  30.603  25.880  1.00  0.00     0.002 C 
BRANCH  22  23
ATOM     23  C   UNL A   1      31.429  31.932  26.622  1.00  0.00     0.021 C 
BRANCH  23  24
ATOM     24  C   UNL A   1      32.701  32.504  27.253  1.00  0.00     0.116 C 
BRANCH  24  25
ATOM     25  N   UNL A   1      32.572  33.905  27.633  1.00  0.00    -0.352 N 
ATOM     26  C   UNL A   1      33.232  34.640  28.591  1.00  0.00     0.251 C 
ATOM     27  H   UNL A   1      31.902  34.410  27.117  1.00  0.00     0.163 HD
ATOM     28  O   UNL A   1      32.834  35.767  28.862  1.00  0.00    -0.269 OA
BRANCH  26  29
ATOM     29  C   UNL A   1      34.408  34.083  29.299  1.00  0.00     0.039 A 
ATOM     30  C   UNL A   1      34.211  33.382  30.496  1.00  0.00     0.014 A 
ATOM     31  C   UNL A   1      35.704  34.294  28.824  1.00  0.00     0.014 A 
ATOM     32  C   UNL A   1      35.307  32.844  31.179  1.00  0.00     0.010 A 
ATOM     33  C   UNL A   1      36.789  33.708  29.475  1.00  0.00     0.010 A 
ATOM     34  C   UNL A   1      36.604  32.980  30.661  1.00  0.00    -0.014 A 
BRANCH  34  35
ATOM     35  C   UNL A   1      37.785  32.393  31.348  1.00  0.00     0.031 A 
ATOM     36  C   UNL A   1      38.546  31.269  30.694  1.00  0.00     0.074 A 
ATOM     37  C   UNL A   1      38.122  32.814  32.585  1.00  0.00     0.049 A 
ATOM     38  N   UNL A   1      39.516  30.535  31.175  1.00  0.00    -0.248 NA
ATOM     39  C   UNL A   1      38.142  30.907  29.326  1.00  0.00     0.031 C 
ATOM     40  C   UNL A   1      37.445  33.879  33.329  1.00  0.00     0.029 A 
ATOM     41  N   UNL A   1      39.104  32.387  33.445  1.00  0.00    -0.354 N 
ATOM     42  C   UNL A   1      39.817  29.605  30.183  1.00  0.00     0.074 A 
ATOM     43  C   UNL A   1      38.901  29.847  29.089  1.00  0.00     0.031 C 
ATOM     44  C   UNL A   1      38.037  34.027  34.525  1.00  0.00     0.029 A 
ATOM     45  C   UNL A   1      39.101  33.037  34.659  1.00  0.00     0.049 A 
ATOM     46  H   UNL A   1      39.751  31.681  33.215  1.00  0.00     0.167 HD
ATOM     47  C   UNL A   1      40.777  28.649  30.183  1.00  0.00     0.034 A 
ATOM     48  C   UNL A   1      39.854  32.842  35.761  1.00  0.00     0.034 A 
ATOM     49  C   UNL A   1      41.704  28.445  31.270  1.00  0.00     0.049 A 
ATOM     50  C   UNL A   1      40.907  31.759  35.737  1.00  0.00     0.074 A 
ATOM     51  C   UNL A   1      42.760  27.554  31.344  1.00  0.00     0.029 A 
ATOM     52  N   UNL A   1      41.682  29.138  32.473  1.00  0.00    -0.354 N 
ATOM     53  N   UNL A   1      41.213  30.924  34.768  1.00  0.00    -0.248 NA
ATOM     54  C   UNL A   1      41.724  31.595  36.947  1.00  0.00     0.031 C 
ATOM     55  C   UNL A   1      43.334  27.660  32.615  1.00  0.00     0.029 A 
ATOM     56  C   UNL A   1      42.688  28.672  33.306  1.00  0.00     0.049 A 
ATOM     57  H   UNL A   1      41.047  29.854  32.702  1.00  0.00     0.167 HD
ATOM     58  C   UNL A   1      42.287  30.174  35.239  1.00  0.00     0.074 A 
ATOM     59  C   UNL A   1      42.580  30.657  36.572  1.00  0.00     0.031 C 
ATOM     60  C   UNL A   1      42.975  29.178  34.626  1.00  0.00     0.034 A 
BRANCH  47  61
ATOM     61  C   UNL A   1      40.859  27.729  28.990  1.00  0.00     0.023 A 
ATOM     62  C   UNL A   1      41.847  27.878  28.002  1.00  0.00     0.031 A 
ATOM     63  C   UNL A   1      39.942  26.671  28.851  1.00  0.00     0.131 A 
ATOM     64  C   UNL A   1      41.862  27.018  26.892  1.00  0.00     0.055 A 
ATOM     65  C   UNL A   1      40.007  25.775  27.783  1.00  0.00     0.041 A 
ATOM     66  F   UNL A   1      38.965  26.490  29.754  1.00  0.00    -0.206 F 
ATOM     67  C   UNL A   1      40.966  25.951  26.789  1.00  0.00     0.022 A 
BRANCH  64  68
ATOM     68  S   UNL A   1      43.006  27.375  25.532  1.00  0.00     0.124 S 
ATOM     69  O   UNL A   1      42.220  28.300  24.720  1.00  0.00    -0.237 OA
ATOM     70  O   UNL A   1      44.154  27.948  26.224  1.00  0.00    -0.237 OA
ATOM     71  O   UNL A   1      43.237  26.065  24.925  1.00  0.00    -0.744 OA
ENDBRANCH  64  68
ENDBRANCH  47  61
BRANCH  48  72
ATOM     72  C   UNL A   1      39.644  33.660  36.992  1.00  0.00     0.023 A 
ATOM     73  C   UNL A   1      38.983  33.125  38.110  1.00  0.00     0.031 A 
ATOM     74  C   UNL A   1      40.023  35.014  37.041  1.00  0.00     0.131 A 
ATOM     75  C   UNL A   1      38.657  33.952  39.196  1.00  0.00     0.055 A 
ATOM     76  C   UNL A   1      39.757  35.816  38.154  1.00  0.00     0.041 A 
ATOM     77  F   UNL A   1      40.658  35.581  36.003  1.00  0.00    -0.206 F 
ATOM     78  C   UNL A   1      39.052  35.291  39.232  1.00  0.00     0.022 A 
BRANCH  75  79
ATOM     79  S   UNL A   1      37.591  33.284  40.504  1.00  0.00     0.124 S 
ATOM     80  O   UNL A   1      36.391  32.928  39.755  1.00  0.00    -0.237 OA
ATOM     81  O   UNL A   1      38.390  32.172  41.005  1.00  0.00    -0.237 OA
ATOM     82  O   UNL A   1      37.440  34.407  41.426  1.00  0.00    -0.744 OA
ENDBRANCH  75  79
ENDBRANCH  48  72
BRANCH  60  83
ATOM     83  C   UNL A   1      44.159  28.601  35.361  1.00  0.00     0.023 A 
ATOM     84  C   UNL A   1      44.020  27.563  36.298  1.00  0.00     0.031 A 
ATOM     85  C   UNL A   1      45.450  29.097  35.106  1.00  0.00     0.131 A 
ATOM     86  C   UNL A   1      45.149  27.087  36.982  1.00  0.00     0.055 A 
ATOM     87  C   UNL A   1      46.576  28.579  35.745  1.00  0.00     0.041 A 
ATOM     88  F   UNL A   1      45.638  30.088  34.219  1.00  0.00    -0.206 F 
ATOM     89  C   UNL A   1      46.427  27.575  36.698  1.00  0.00     0.022 A 
BRANCH  86  90
ATOM     90  S   UNL A   1      44.917  25.866  38.303  1.00  0.00     0.124 S 
ATOM     91  O   UNL A   1      44.355  24.733  37.575  1.00  0.00    -0.237 OA
ATOM     92  O   UNL A   1      46.276  25.689  38.807  1.00  0.00    -0.237 OA
ATOM     93  O   UNL A   1      43.997  26.529  39.225  1.00  0.00    -0.744 OA
ENDBRANCH  86  90
ENDBRANCH  60  83
ENDBRANCH  34  35
ENDBRANCH  26  29
ENDBRANCH  24  25
ENDBRANCH  23  24
ENDBRANCH  22  23
ENDBRANCH   1  22
TORSDOF 20
ENDMDL
MODEL 2
REMARK VINA RESULT:     -11.0      5.769     10.948
REMARK SMILES C[C@@H](CCC(=O)Nc1ccccn1)C(=O)NCCCCCCNC(=O)c1ccc(-c2c3nc(c(-c4cc(S(=O)(=O)[O-])ccc4F)c4ccc([nH]4)c(-c4cc(S(=O)(=O)[O-])ccc4F)c4nc(c(-c5cc(S(=O)(=O)[O-])ccc5F)c5ccc2[nH]5)C=C4)C=C3)cc1
REMARK SMILES IDX 19 1 18 2 17 3 16 4 14 5 15 6 2 8 1 9 3 10 4 11 5 12 6 13
REMARK SMILES IDX 7 14 8 16 9 17 13 18 10 19 12 20 11 21 20 22 21 23 22 24
REMARK SMILES IDX 23 25 24 26 25 28 26 29 27 30 88 31 28 32 87 33 29 34 30 35
REMARK SMILES IDX 31 36 81 37 32 38 86 39 80 40 82 41 33 42 85 43 79 44 78 45
REMARK SMILES IDX 34 47 66 48 46 49 65 50 47 51 50 52 64 53 83 54 48 55 49 56
REMARK SMILES IDX 63 58 84 59 51 60 35 61 36 62 44 63 37 64 43 65 45 66 42 67
REMARK SMILES IDX 38 68 39 69 40 70 41 71 67 72 68 73 76 74 69 75 75 76 77 77
REMARK SMILES IDX 74 78 70 79 71 80 72 81 73 82 52 83 53 84 61 85 54 86 60 87
REMARK SMILES IDX 62 88 59 89 55 90 56 91 57 92 58 93
REMARK H PARENT 16 7 7 15 23 27 82 46 50 57
REMARK Flexibility Score: inf
ROOT
ATOM      1  C   UNL A   1      34.971  24.566  24.428  1.00  0.00     0.002 C 
ENDROOT
BRANCH   1   2
ATOM      2  C   UNL A   1      33.610  25.259  24.207  1.00  0.00     0.021 C 
BRANCH   2   3
ATOM      3  C   UNL A   1      32.870  25.825  25.451  1.00  0.00     0.116 C 
BRANCH   3   4
ATOM      4  N   UNL A   1      32.016  24.810  26.100  1.00  0.00    -0.356 N 
ATOM      5  C   UNL A   1      32.105  23.595  26.692  1.00  0.00     0.222 C 
ATOM      6  O   UNL A   1      31.146  23.353  27.447  1.00  0.00    -0.275 OA
ATOM      7  H   UNL A   1      31.081  25.115  26.103  1.00  0.00     0.163 HD
BRANCH   5   8
ATOM      8  C   UNL A   1      33.133  22.454  26.504  1.00  0.00     0.076 C 
ATOM      9  C   UNL A   1      33.794  21.948  27.815  1.00  0.00     0.018 C 
BRANCH   8  10
ATOM     10  C   UNL A   1      32.853  21.305  25.556  1.00  0.00     0.023 C 
BRANCH  10  11
ATOM     11  C   UNL A   1      32.928  21.623  24.065  1.00  0.00     0.101 C 
BRANCH  11  12
ATOM     12  C   UNL A   1      32.251  20.667  23.122  1.00  0.00     0.225 C 
ATOM     13  O   UNL A   1      31.499  21.167  22.267  1.00  0.00    -0.275 OA
ATOM     14  N   UNL A   1      32.405  19.334  23.023  1.00  0.00    -0.311 N 
ATOM     15  H   UNL A   1      32.101  19.082  22.121  1.00  0.00     0.171 HD
BRANCH  14  16
ATOM     16  C   UNL A   1      32.809  18.159  23.651  1.00  0.00     0.132 A 
ATOM     17  C   UNL A   1      33.834  17.293  23.337  1.00  0.00     0.047 A 
ATOM     18  N   UNL A   1      32.141  18.004  24.813  1.00  0.00    -0.239 NA
ATOM     19  C   UNL A   1      34.161  16.226  24.187  1.00  0.00     0.005 A 
ATOM     20  C   UNL A   1      32.461  16.974  25.628  1.00  0.00     0.113 A 
ATOM     21  C   UNL A   1      33.454  16.056  25.360  1.00  0.00     0.020 A 
ENDBRANCH  14  16
ENDBRANCH  11  12
ENDBRANCH  10  11
ENDBRANCH   8  10
ENDBRANCH   5   8
ENDBRANCH   3   4
ENDBRANCH   2   3
ENDBRANCH   1   2
BRANCH   1  22
ATOM     22  C   UNL A   1      35.482  23.622  23.338  1.00  0.00     0.002 C 
BRANCH  22  23
ATOM     23  C   UNL A   1      36.553  22.614  23.756  1.00  0.00     0.021 C 
BRANCH  23  24
ATOM     24  C   UNL A   1      36.733  22.394  25.260  1.00  0.00     0.116 C 
BRANCH  24  25
ATOM     25  N   UNL A   1      37.622  21.283  25.575  1.00  0.00    -0.352 N 
ATOM     26  C   UNL A   1      38.918  21.273  26.038  1.00  0.00     0.251 C 
ATOM     27  H   UNL A   1      37.229  20.391  25.433  1.00  0.00     0.163 HD
ATOM     28  O   UNL A   1      39.538  20.217  26.063  1.00  0.00    -0.269 OA
BRANCH  26  29
ATOM     29  C   UNL A   1      39.569  22.521  26.498  1.00  0.00     0.039 A 
ATOM     30  C   UNL A   1      40.512  22.455  27.532  1.00  0.00     0.014 A 
ATOM     31  C   UNL A   1      39.214  23.761  25.961  1.00  0.00     0.014 A 
ATOM     32  C   UNL A   1      41.141  23.621  27.980  1.00  0.00     0.010 A 
ATOM     33  C   UNL A   1      39.885  24.914  26.368  1.00  0.00     0.010 A 
ATOM     34  C   UNL A   1      40.852  24.859  27.384  1.00  0.00    -0.014 A 
BRANCH  34  35
ATOM     35  C   UNL A   1      41.527  26.112  27.818  1.00  0.00     0.031 A 
ATOM     36  C   UNL A   1      40.736  27.173  28.538  1.00  0.00     0.074 A 
ATOM     37  C   UNL A   1      42.820  26.325  27.498  1.00  0.00     0.049 A 
ATOM     38  N   UNL A   1      41.095  28.382  28.884  1.00  0.00    -0.248 NA
ATOM     39  C   UNL A   1      39.347  26.837  28.889  1.00  0.00     0.031 C 
ATOM     40  C   UNL A   1      43.681  25.380  26.783  1.00  0.00     0.029 A 
ATOM     41  N   UNL A   1      43.633  27.411  27.713  1.00  0.00    -0.354 N 
ATOM     42  C   UNL A   1      39.970  28.961  29.465  1.00  0.00     0.074 A 
ATOM     43  C   UNL A   1      38.908  27.982  29.391  1.00  0.00     0.031 C 
ATOM     44  C   UNL A   1      44.900  25.922  26.629  1.00  0.00     0.029 A 
ATOM     45  C   UNL A   1      44.897  27.272  27.185  1.00  0.00     0.049 A 
ATOM     46  H   UNL A   1      43.340  28.215  28.201  1.00  0.00     0.167 HD
ATOM     47  C   UNL A   1      39.843  30.192  30.019  1.00  0.00     0.034 A 
ATOM     48  C   UNL A   1      45.928  28.141  27.135  1.00  0.00     0.034 A 
ATOM     49  C   UNL A   1      40.924  31.142  30.114  1.00  0.00     0.049 A 
ATOM     50  C   UNL A   1      45.751  29.511  27.749  1.00  0.00     0.074 A 
ATOM     51  C   UNL A   1      40.924  32.387  30.720  1.00  0.00     0.029 A 
ATOM     52  N   UNL A   1      42.195  30.956  29.586  1.00  0.00    -0.354 N 
ATOM     53  N   UNL A   1      44.696  30.021  28.342  1.00  0.00    -0.248 NA
ATOM     54  C   UNL A   1      46.906  30.419  27.697  1.00  0.00     0.031 C 
ATOM     55  C   UNL A   1      42.171  32.981  30.500  1.00  0.00     0.029 A 
ATOM     56  C   UNL A   1      42.976  32.076  29.828  1.00  0.00     0.049 A 
ATOM     57  H   UNL A   1      42.497  30.149  29.112  1.00  0.00     0.167 HD
ATOM     58  C   UNL A   1      45.079  31.288  28.774  1.00  0.00     0.074 A 
ATOM     59  C   UNL A   1      46.461  31.462  28.379  1.00  0.00     0.031 C 
ATOM     60  C   UNL A   1      44.357  32.225  29.441  1.00  0.00     0.034 A 
BRANCH  47  61
ATOM     61  C   UNL A   1      38.485  30.597  30.538  1.00  0.00     0.023 A 
ATOM     62  C   UNL A   1      37.584  31.345  29.762  1.00  0.00     0.031 A 
ATOM     63  C   UNL A   1      38.080  30.209  31.829  1.00  0.00     0.131 A 
ATOM     64  C   UNL A   1      36.345  31.726  30.301  1.00  0.00     0.055 A 
ATOM     65  C   UNL A   1      36.818  30.530  32.332  1.00  0.00     0.041 A 
ATOM     66  F   UNL A   1      38.905  29.509  32.623  1.00  0.00    -0.206 F 
ATOM     67  C   UNL A   1      35.945  31.302  31.570  1.00  0.00     0.022 A 
BRANCH  64  68
ATOM     68  S   UNL A   1      35.304  32.873  29.359  1.00  0.00     0.124 S 
ATOM     69  O   UNL A   1      36.230  33.334  28.328  1.00  0.00    -0.237 OA
ATOM     70  O   UNL A   1      34.216  32.013  28.904  1.00  0.00    -0.237 OA
ATOM     71  O   UNL A   1      34.927  33.884  30.346  1.00  0.00    -0.744 OA
ENDBRANCH  64  68
ENDBRANCH  47  61
BRANCH  48  72
ATOM     72  C   UNL A   1      47.212  27.774  26.469  1.00  0.00     0.023 A 
ATOM     73  C   UNL A   1      47.391  27.966  25.089  1.00  0.00     0.031 A 
ATOM     74  C   UNL A   1      48.250  27.148  27.182  1.00  0.00     0.131 A 
ATOM     75  C   UNL A   1      48.541  27.475  24.454  1.00  0.00     0.055 A 
ATOM     76  C   UNL A   1      49.425  26.721  26.557  1.00  0.00     0.041 A 
ATOM     77  F   UNL A   1      48.138  26.937  28.503  1.00  0.00    -0.206 F 
ATOM     78  C   UNL A   1      49.567  26.866  25.181  1.00  0.00     0.022 A 
BRANCH  75  79
ATOM     79  S   UNL A   1      48.618  27.523  22.641  1.00  0.00     0.124 S 
ATOM     80  O   UNL A   1      49.874  28.231  22.417  1.00  0.00    -0.237 OA
ATOM     81  O   UNL A   1      48.611  26.105  22.302  1.00  0.00    -0.237 OA
ATOM     82  O   UNL A   1      47.412  28.258  22.269  1.00  0.00    -0.744 OA
ENDBRANCH  75  79
ENDBRANCH  48  72
BRANCH  60  83
ATOM     83  C   UNL A   1      45.074  33.485  29.853  1.00  0.00     0.023 A 
ATOM     84  C   UNL A   1      45.698  33.612  31.105  1.00  0.00     0.031 A 
ATOM     85  C   UNL A   1      45.141  34.574  28.964  1.00  0.00     0.131 A 
ATOM     86  C   UNL A   1      46.320  34.821  31.454  1.00  0.00     0.055 A 
ATOM     87  C   UNL A   1      45.812  35.752  29.293  1.00  0.00     0.041 A 
ATOM     88  F   UNL A   1      44.562  34.505  27.755  1.00  0.00    -0.206 F 
ATOM     89  C   UNL A   1      46.398  35.883  30.550  1.00  0.00     0.022 A 
BRANCH  86  90
ATOM     90  S   UNL A   1      46.969  35.014  33.137  1.00  0.00     0.124 S 
ATOM     91  O   UNL A   1      48.000  33.982  33.185  1.00  0.00    -0.237 OA
ATOM     92  O   UNL A   1      47.447  36.393  33.132  1.00  0.00    -0.237 OA
ATOM     93  O   UNL A   1      45.805  34.766  33.985  1.00  0.00    -0.744 OA
ENDBRANCH  86  90
ENDBRANCH  60  83
ENDBRANCH  34  35
ENDBRANCH  26  29
ENDBRANCH  24  25
ENDBRANCH  23  24
ENDBRANCH  22  23
ENDBRANCH   1  22
TORSDOF 20
ENDMDL
MODEL 3
REMARK VINA RESULT:     -11.0      1.218      2.022
REMARK SMILES C[C@@H](CCC(=O)Nc1ccccn1)C(=O)NCCCCCCNC(=O)c1ccc(-c2c3nc(c(-c4cc(S(=O)(=O)[O-])ccc4F)c4ccc([nH]4)c(-c4cc(S(=O)(=O)[O-])ccc4F)c4nc(c(-c5cc(S(=O)(=O)[O-])ccc5F)c5ccc2[nH]5)C=C4)C=C3)cc1
REMARK SMILES IDX 19 1 18 2 17 3 16 4 14 5 15 6 2 8 1 9 3 10 4 11 5 12 6 13
REMARK SMILES IDX 7 14 8 16 9 17 13 18 10 19 12 20 11 21 20 22 21 23 22 24
REMARK SMILES IDX 23 25 24 26 25 28 26 29 27 30 88 31 28 32 87 33 29 34 30 35
REMARK SMILES IDX 31 36 81 37 32 38 86 39 80 40 82 41 33 42 85 43 79 44 78 45
REMARK SMILES IDX 34 47 66 48 46 49 65 50 47 51 50 52 64 53 83 54 48 55 49 56
REMARK SMILES IDX 63 58 84 59 51 60 35 61 36 62 44 63 37 64 43 65 45 66 42 67
REMARK SMILES IDX 38 68 39 69 40 70 41 71 67 72 68 73 76 74 69 75 75 76 77 77
REMARK SMILES IDX 74 78 70 79 71 80 72 81 73 82 52 83 53 84 61 85 54 86 60 87
REMARK SMILES IDX 62 88 59 89 55 90 56 91 57 92 58 93
REMARK H PARENT 16 7 7 15 23 27 82 46 50 57
REMARK Flexibility Score: inf
ROOT
ATOM      1  C   UNL A   1      32.462  29.822  26.905  1.00  0.00     0.002 C 
ENDROOT
BRANCH   1   2
ATOM      2  C   UNL A   1      33.695  29.239  26.183  1.00  0.00     0.021 C 
BRANCH   2   3
ATOM      3  C   UNL A   1      33.866  27.695  26.164  1.00  0.00     0.116 C 
BRANCH   3   4
ATOM      4  N   UNL A   1      33.947  27.162  24.790  1.00  0.00    -0.356 N 
ATOM      5  C   UNL A   1      33.811  25.997  24.113  1.00  0.00     0.222 C 
ATOM      6  O   UNL A   1      33.574  26.164  22.903  1.00  0.00    -0.275 OA
ATOM      7  H   UNL A   1      34.171  27.887  24.164  1.00  0.00     0.163 HD
BRANCH   5   8
ATOM      8  C   UNL A   1      33.999  24.532  24.577  1.00  0.00     0.076 C 
ATOM      9  C   UNL A   1      35.321  24.256  25.345  1.00  0.00     0.018 C 
BRANCH   8  10
ATOM     10  C   UNL A   1      32.846  23.754  25.179  1.00  0.00     0.023 C 
BRANCH  10  11
ATOM     11  C   UNL A   1      32.170  24.380  26.396  1.00  0.00     0.101 C 
BRANCH  11  12
ATOM     12  C   UNL A   1      30.666  24.394  26.416  1.00  0.00     0.225 C 
ATOM     13  O   UNL A   1      30.111  23.530  27.119  1.00  0.00    -0.275 OA
ATOM     14  N   UNL A   1      29.825  25.267  25.834  1.00  0.00    -0.311 N 
ATOM     15  H   UNL A   1      28.968  25.196  26.314  1.00  0.00     0.171 HD
BRANCH  14  16
ATOM     16  C   UNL A   1      29.649  26.229  24.843  1.00  0.00     0.132 A 
ATOM     17  C   UNL A   1      28.559  26.484  24.038  1.00  0.00     0.047 A 
ATOM     18  N   UNL A   1      30.690  27.087  24.843  1.00  0.00    -0.239 NA
ATOM     19  C   UNL A   1      28.537  27.598  23.187  1.00  0.00     0.005 A 
ATOM     20  C   UNL A   1      30.663  28.160  24.020  1.00  0.00     0.113 A 
ATOM     21  C   UNL A   1      29.619  28.456  23.171  1.00  0.00     0.020 A 
ENDBRANCH  14  16
ENDBRANCH  11  12
ENDBRANCH  10  11
ENDBRANCH   8  10
ENDBRANCH   5   8
ENDBRANCH   3   4
ENDBRANCH   2   3
ENDBRANCH   1   2
BRANCH   1  22
ATOM     22  C   UNL A   1      31.564  30.787  26.129  1.00  0.00     0.002 C 
BRANCH  22  23
ATOM     23  C   UNL A   1      31.424  32.198  26.700  1.00  0.00     0.021 C 
BRANCH  23  24
ATOM     24  C   UNL A   1      32.696  32.836  27.263  1.00  0.00     0.116 C 
BRANCH  24  25
ATOM     25  N   UNL A   1      32.496  34.202  27.728  1.00  0.00    -0.352 N 
ATOM     26  C   UNL A   1      33.100  34.901  28.748  1.00  0.00     0.251 C 
ATOM     27  H   UNL A   1      31.816  34.710  27.228  1.00  0.00     0.163 HD
ATOM     28  O   UNL A   1      32.646  35.989  29.081  1.00  0.00    -0.269 OA
BRANCH  26  29
ATOM     29  C   UNL A   1      34.283  34.350  29.449  1.00  0.00     0.039 A 
ATOM     30  C   UNL A   1      34.094  33.615  30.625  1.00  0.00     0.014 A 
ATOM     31  C   UNL A   1      35.578  34.602  28.988  1.00  0.00     0.014 A 
ATOM     32  C   UNL A   1      35.197  33.082  31.302  1.00  0.00     0.010 A 
ATOM     33  C   UNL A   1      36.671  34.021  29.630  1.00  0.00     0.010 A 
ATOM     34  C   UNL A   1      36.495  33.259  30.795  1.00  0.00    -0.014 A 
BRANCH  34  35
ATOM     35  C   UNL A   1      37.684  32.679  31.475  1.00  0.00     0.031 A 
ATOM     36  C   UNL A   1      38.422  31.532  30.836  1.00  0.00     0.074 A 
ATOM     37  C   UNL A   1      38.049  33.130  32.693  1.00  0.00     0.049 A 
ATOM     38  N   UNL A   1      39.395  30.801  31.317  1.00  0.00    -0.248 NA
ATOM     39  C   UNL A   1      37.987  31.137  29.486  1.00  0.00     0.031 C 
ATOM     40  C   UNL A   1      37.396  34.220  33.422  1.00  0.00     0.029 A 
ATOM     41  N   UNL A   1      39.044  32.717  33.545  1.00  0.00    -0.354 N 
ATOM     42  C   UNL A   1      39.667  29.843  30.345  1.00  0.00     0.074 A 
ATOM     43  C   UNL A   1      38.732  30.064  29.263  1.00  0.00     0.031 C 
ATOM     44  C   UNL A   1      38.013  34.395  34.601  1.00  0.00     0.029 A 
ATOM     45  C   UNL A   1      39.071  33.399  34.741  1.00  0.00     0.049 A 
ATOM     46  H   UNL A   1      39.681  31.999  33.322  1.00  0.00     0.167 HD
ATOM     47  C   UNL A   1      40.619  28.878  30.352  1.00  0.00     0.034 A 
ATOM     48  C   UNL A   1      39.844  33.226  35.833  1.00  0.00     0.034 A 
ATOM     49  C   UNL A   1      41.565  28.695  31.425  1.00  0.00     0.049 A 
ATOM     50  C   UNL A   1      40.887  32.133  35.817  1.00  0.00     0.074 A 
ATOM     51  C   UNL A   1      42.615  27.796  31.502  1.00  0.00     0.029 A 
ATOM     52  N   UNL A   1      41.573  29.419  32.610  1.00  0.00    -0.354 N 
ATOM     53  N   UNL A   1      41.166  31.270  34.865  1.00  0.00    -0.248 NA
ATOM     54  C   UNL A   1      41.727  31.994  37.015  1.00  0.00     0.031 C 
ATOM     55  C   UNL A   1      43.215  27.930  32.758  1.00  0.00     0.029 A 
ATOM     56  C   UNL A   1      42.592  28.966  33.435  1.00  0.00     0.049 A 
ATOM     57  H   UNL A   1      40.949  30.147  32.832  1.00  0.00     0.167 HD
ATOM     58  C   UNL A   1      42.243  30.523  35.335  1.00  0.00     0.074 A 
ATOM     59  C   UNL A   1      42.567  31.038  36.648  1.00  0.00     0.031 C 
ATOM     60  C   UNL A   1      42.910  29.504  34.735  1.00  0.00     0.034 A 
BRANCH  47  61
ATOM     61  C   UNL A   1      40.669  27.926  29.183  1.00  0.00     0.023 A 
ATOM     62  C   UNL A   1      41.581  28.091  28.127  1.00  0.00     0.031 A 
ATOM     63  C   UNL A   1      39.799  26.821  29.135  1.00  0.00     0.131 A 
ATOM     64  C   UNL A   1      41.568  27.199  27.043  1.00  0.00     0.055 A 
ATOM     65  C   UNL A   1      39.839  25.896  28.090  1.00  0.00     0.041 A 
ATOM     66  F   UNL A   1      38.893  26.622  30.105  1.00  0.00    -0.206 F 
ATOM     67  C   UNL A   1      40.721  26.087  27.031  1.00  0.00     0.022 A 
BRANCH  64  68
ATOM     68  S   UNL A   1      42.601  27.567  25.600  1.00  0.00     0.124 S 
ATOM     69  O   UNL A   1      42.118  28.892  25.221  1.00  0.00    -0.237 OA
ATOM     70  O   UNL A   1      43.950  27.513  26.153  1.00  0.00    -0.237 OA
ATOM     71  O   UNL A   1      42.271  26.498  24.660  1.00  0.00    -0.744 OA
ENDBRANCH  64  68
ENDBRANCH  47  61
BRANCH  48  72
ATOM     72  C   UNL A   1      39.666  34.079  37.045  1.00  0.00     0.023 A 
ATOM     73  C   UNL A   1      39.076  33.562  38.211  1.00  0.00     0.031 A 
ATOM     74  C   UNL A   1      40.002  35.444  37.033  1.00  0.00     0.131 A 
ATOM     75  C   UNL A   1      38.775  34.414  39.284  1.00  0.00     0.055 A 
ATOM     76  C   UNL A   1      39.763  36.276  38.130  1.00  0.00     0.041 A 
ATOM     77  F   UNL A   1      40.568  35.996  35.947  1.00  0.00    -0.206 F 
ATOM     78  C   UNL A   1      39.127  35.765  39.257  1.00  0.00     0.022 A 
BRANCH  75  79
ATOM     79  S   UNL A   1      37.795  33.758  40.663  1.00  0.00     0.124 S 
ATOM     80  O   UNL A   1      38.757  32.880  41.319  1.00  0.00    -0.237 OA
ATOM     81  O   UNL A   1      37.439  34.975  41.385  1.00  0.00    -0.237 OA
ATOM     82  O   UNL A   1      36.683  33.082  39.998  1.00  0.00    -0.744 OA
ENDBRANCH  75  79
ENDBRANCH  48  72
BRANCH  60  83
ATOM     83  C   UNL A   1      44.102  28.936  35.462  1.00  0.00     0.023 A 
ATOM     84  C   UNL A   1      44.014  27.770  36.241  1.00  0.00     0.031 A 
ATOM     85  C   UNL A   1      45.352  29.573  35.359  1.00  0.00     0.131 A 
ATOM     86  C   UNL A   1      45.145  27.304  36.928  1.00  0.00     0.055 A 
ATOM     87  C   UNL A   1      46.487  29.071  35.995  1.00  0.00     0.041 A 
ATOM     88  F   UNL A   1      45.492  30.689  34.627  1.00  0.00    -0.206 F 
ATOM     89  C   UNL A   1      46.385  27.935  36.794  1.00  0.00     0.022 A 
BRANCH  86  90
ATOM     90  S   UNL A   1      44.962  25.896  38.057  1.00  0.00     0.124 S 
ATOM     91  O   UNL A   1      46.033  25.010  37.613  1.00  0.00    -0.237 OA
ATOM     92  O   UNL A   1      45.149  26.518  39.364  1.00  0.00    -0.237 OA
ATOM     93  O   UNL A   1      43.608  25.415  37.789  1.00  0.00    -0.744 OA
ENDBRANCH  86  90
ENDBRANCH  60  83
ENDBRANCH  34  35
ENDBRANCH  26  29
ENDBRANCH  24  25
ENDBRANCH  23  24
ENDBRANCH  22  23
ENDBRANCH   1  22
TORSDOF 20
ENDMDL
