MODEL 1
REMARK VINA RESULT:     -11.7      0.000      0.000
REMARK SMILES CC(C)=CCc1cccc2c(C(=O)NCCCCCCNC(=O)c3ccc(-c4c5nc(c(-c6cc(S(=O)(=O)[O-])ccc6F)c6ccc([nH]6)c(-c6cc(S(=O)(=O)[O-])ccc6F)c6nc(c(-c7cc(S(=O)(=O)[O-])ccc7F)c7ccc4[nH]7)C=C6)C=C5)cc3)c[nH]c12
REMARK SMILES IDX 18 1 17 2 16 3 15 4 14 5 12 6 13 7 11 9 6 10 7 11 89 12 8 13
REMARK SMILES IDX 10 14 88 15 9 16 87 17 5 19 4 20 1 21 2 22 3 23 19 24 20 25
REMARK SMILES IDX 21 26 22 27 23 29 24 30 25 31 86 32 26 33 85 34 27 35 28 36
REMARK SMILES IDX 29 37 79 38 30 39 84 40 78 41 80 42 31 43 83 44 77 45 76 46
REMARK SMILES IDX 32 48 64 49 44 50 63 51 45 52 48 53 62 54 81 55 46 56 47 57
REMARK SMILES IDX 61 59 82 60 49 61 33 62 34 63 42 64 35 65 41 66 43 67 40 68
REMARK SMILES IDX 36 69 37 70 38 71 39 72 65 73 66 74 74 75 67 76 73 77 75 78
REMARK SMILES IDX 72 79 68 80 69 81 70 82 71 83 50 84 51 85 59 86 52 87 58 88
REMARK SMILES IDX 60 89 57 90 53 91 54 92 55 93 56 94
REMARK H PARENT 14 8 88 18 21 28 80 47 48 58
REMARK Flexibility Score: inf
ROOT
ATOM      1  C   UNL A   1      35.251  23.770  24.117  1.00  0.00     0.002 C 
ENDROOT
BRANCH   1   2
ATOM      2  C   UNL A   1      34.880  24.713  25.266  1.00  0.00     0.002 C 
BRANCH   2   3
ATOM      3  C   UNL A   1      34.025  25.931  24.915  1.00  0.00     0.021 C 
BRANCH   3   4
ATOM      4  C   UNL A   1      33.105  26.445  26.014  1.00  0.00     0.116 C 
BRANCH   4   5
ATOM      5  N   UNL A   1      31.701  26.452  25.694  1.00  0.00    -0.352 N 
ATOM      6  C   UNL A   1      30.835  25.393  25.559  1.00  0.00     0.253 C 
ATOM      7  O   UNL A   1      29.665  25.666  25.277  1.00  0.00    -0.269 OA
ATOM      8  H   UNL A   1      31.305  27.342  25.551  1.00  0.00     0.163 HD
BRANCH   6   9
ATOM      9  C   UNL A   1      31.288  23.999  25.639  1.00  0.00     0.065 A 
ATOM     10  C   UNL A   1      32.267  20.584  24.695  1.00  0.00    -0.020 A 
ATOM     11  C   UNL A   1      32.261  20.619  23.284  1.00  0.00     0.006 A 
ATOM     12  C   UNL A   1      31.921  21.797  25.344  1.00  0.00     0.050 A 
ATOM     13  C   UNL A   1      32.084  21.799  22.580  1.00  0.00     0.001 A 
ATOM     14  C   UNL A   1      31.683  23.004  24.665  1.00  0.00     0.012 A 
ATOM     15  N   UNL A   1      31.766  22.077  26.682  1.00  0.00    -0.360 N 
ATOM     16  C   UNL A   1      31.870  22.995  23.264  1.00  0.00     0.011 A 
ATOM     17  C   UNL A   1      31.423  23.380  26.872  1.00  0.00     0.097 A 
ATOM     18  H   UNL A   1      31.887  21.421  27.406  1.00  0.00     0.166 HD
BRANCH  10  19
ATOM     19  C   UNL A   1      32.610  19.248  25.337  1.00  0.00     0.065 C 
BRANCH  19  20
ATOM     20  C   UNL A   1      32.850  18.111  24.385  1.00  0.00    -0.024 C 
ATOM     21  C   UNL A   1      35.347  18.147  24.561  1.00  0.00     0.039 C 
ATOM     22  C   UNL A   1      34.051  17.633  23.999  1.00  0.00    -0.080 C 
ATOM     23  C   UNL A   1      34.138  16.570  22.940  1.00  0.00     0.039 C 
ENDBRANCH  19  20
ENDBRANCH  10  19
ENDBRANCH   6   9
ENDBRANCH   4   5
ENDBRANCH   3   4
ENDBRANCH   2   3
ENDBRANCH   1   2
BRANCH   1  24
ATOM     24  C   UNL A   1      35.404  22.286  24.462  1.00  0.00     0.021 C 
BRANCH  24  25
ATOM     25  C   UNL A   1      36.075  21.972  25.795  1.00  0.00     0.116 C 
BRANCH  25  26
ATOM     26  N   UNL A   1      37.123  20.975  25.673  1.00  0.00    -0.352 N 
ATOM     27  C   UNL A   1      38.481  21.108  25.811  1.00  0.00     0.251 C 
ATOM     28  H   UNL A   1      36.812  20.065  25.461  1.00  0.00     0.163 HD
ATOM     29  O   UNL A   1      39.212  20.166  25.506  1.00  0.00    -0.269 OA
BRANCH  27  30
ATOM     30  C   UNL A   1      39.068  22.378  26.292  1.00  0.00     0.039 A 
ATOM     31  C   UNL A   1      40.148  22.326  27.176  1.00  0.00     0.014 A 
ATOM     32  C   UNL A   1      38.555  23.616  25.891  1.00  0.00     0.014 A 
ATOM     33  C   UNL A   1      40.749  23.510  27.610  1.00  0.00     0.010 A 
ATOM     34  C   UNL A   1      39.204  24.793  26.263  1.00  0.00     0.010 A 
ATOM     35  C   UNL A   1      40.306  24.754  27.129  1.00  0.00    -0.014 A 
BRANCH  35  36
ATOM     36  C   UNL A   1      40.993  26.013  27.524  1.00  0.00     0.031 A 
ATOM     37  C   UNL A   1      42.434  26.245  27.153  1.00  0.00     0.074 A 
ATOM     38  C   UNL A   1      40.327  26.933  28.253  1.00  0.00     0.049 A 
ATOM     39  N   UNL A   1      43.208  27.261  27.437  1.00  0.00    -0.248 NA
ATOM     40  C   UNL A   1      43.097  25.181  26.385  1.00  0.00     0.031 C 
ATOM     41  C   UNL A   1      38.940  26.804  28.707  1.00  0.00     0.029 A 
ATOM     42  N   UNL A   1      40.722  28.153  28.742  1.00  0.00    -0.354 N 
ATOM     43  C   UNL A   1      44.450  26.957  26.889  1.00  0.00     0.074 A 
ATOM     44  C   UNL A   1      44.340  25.632  26.317  1.00  0.00     0.031 C 
ATOM     45  C   UNL A   1      38.592  27.915  29.375  1.00  0.00     0.029 A 
ATOM     46  C   UNL A   1      39.740  28.812  29.445  1.00  0.00     0.049 A 
ATOM     47  H   UNL A   1      41.623  28.522  28.602  1.00  0.00     0.167 HD
ATOM     48  C   UNL A   1      45.569  27.722  26.846  1.00  0.00     0.034 A 
ATOM     49  C   UNL A   1      39.762  30.000  30.083  1.00  0.00     0.034 A 
ATOM     50  C   UNL A   1      45.659  29.045  27.419  1.00  0.00     0.049 A 
ATOM     51  C   UNL A   1      41.030  30.816  30.053  1.00  0.00     0.074 A 
ATOM     52  C   UNL A   1      46.726  29.926  27.388  1.00  0.00     0.029 A 
ATOM     53  N   UNL A   1      44.649  29.673  28.137  1.00  0.00    -0.354 N 
ATOM     54  N   UNL A   1      42.180  30.537  29.483  1.00  0.00    -0.248 NA
ATOM     55  C   UNL A   1      40.999  32.113  30.743  1.00  0.00     0.031 C 
ATOM     56  C   UNL A   1      46.392  31.049  28.153  1.00  0.00     0.029 A 
ATOM     57  C   UNL A   1      45.083  30.912  28.585  1.00  0.00     0.049 A 
ATOM     58  H   UNL A   1      43.756  29.294  28.303  1.00  0.00     0.167 HD
ATOM     59  C   UNL A   1      42.997  31.641  29.716  1.00  0.00     0.074 A 
ATOM     60  C   UNL A   1      42.202  32.593  30.464  1.00  0.00     0.031 C 
ATOM     61  C   UNL A   1      44.285  31.850  29.342  1.00  0.00     0.034 A 
BRANCH  48  62
ATOM     62  C   UNL A   1      46.792  27.133  26.179  1.00  0.00     0.023 A 
ATOM     63  C   UNL A   1      47.766  26.428  26.909  1.00  0.00     0.031 A 
ATOM     64  C   UNL A   1      46.999  27.295  24.798  1.00  0.00     0.131 A 
ATOM     65  C   UNL A   1      48.933  25.981  26.273  1.00  0.00     0.055 A 
ATOM     66  C   UNL A   1      48.122  26.770  24.153  1.00  0.00     0.041 A 
ATOM     67  F   UNL A   1      46.119  27.978  24.049  1.00  0.00    -0.206 F 
ATOM     68  C   UNL A   1      49.106  26.123  24.894  1.00  0.00     0.022 A 
BRANCH  65  69
ATOM     69  S   UNL A   1      50.291  25.351  27.298  1.00  0.00     0.124 S 
ATOM     70  O   UNL A   1      51.301  25.039  26.291  1.00  0.00    -0.237 OA
ATOM     71  O   UNL A   1      50.583  26.486  28.167  1.00  0.00    -0.237 OA
ATOM     72  O   UNL A   1      49.706  24.189  27.964  1.00  0.00    -0.744 OA
ENDBRANCH  65  69
ENDBRANCH  48  62
BRANCH  49  73
ATOM     73  C   UNL A   1      38.557  30.489  30.815  1.00  0.00     0.023 A 
ATOM     74  C   UNL A   1      37.538  31.187  30.148  1.00  0.00     0.031 A 
ATOM     75  C   UNL A   1      38.428  30.306  32.203  1.00  0.00     0.131 A 
ATOM     76  C   UNL A   1      36.462  31.721  30.875  1.00  0.00     0.055 A 
ATOM     77  C   UNL A   1      37.326  30.785  32.912  1.00  0.00     0.041 A 
ATOM     78  F   UNL A   1      39.372  29.644  32.892  1.00  0.00    -0.206 F 
ATOM     79  C   UNL A   1      36.341  31.511  32.250  1.00  0.00     0.022 A 
BRANCH  76  80
ATOM     80  S   UNL A   1      35.271  32.784  30.012  1.00  0.00     0.124 S 
ATOM     81  O   UNL A   1      34.570  31.819  29.173  1.00  0.00    -0.237 OA
ATOM     82  O   UNL A   1      34.507  33.343  31.121  1.00  0.00    -0.237 OA
ATOM     83  O   UNL A   1      36.119  33.735  29.298  1.00  0.00    -0.744 OA
ENDBRANCH  76  80
ENDBRANCH  49  73
BRANCH  61  84
ATOM     84  C   UNL A   1      44.897  33.185  29.697  1.00  0.00     0.023 A 
ATOM     85  C   UNL A   1      44.872  34.275  28.808  1.00  0.00     0.031 A 
ATOM     86  C   UNL A   1      45.523  33.366  30.944  1.00  0.00     0.131 A 
ATOM     87  C   UNL A   1      45.514  35.473  29.153  1.00  0.00     0.055 A 
ATOM     88  C   UNL A   1      46.099  34.582  31.310  1.00  0.00     0.041 A 
ATOM     89  F   UNL A   1      45.582  32.359  31.831  1.00  0.00    -0.206 F 
ATOM     90  C   UNL A   1      46.109  35.641  30.407  1.00  0.00     0.022 A 
BRANCH  87  91
ATOM     91  S   UNL A   1      45.651  36.780  27.902  1.00  0.00     0.124 S 
ATOM     92  O   UNL A   1      44.431  37.548  28.132  1.00  0.00    -0.237 OA
ATOM     93  O   UNL A   1      46.898  37.439  28.275  1.00  0.00    -0.237 OA
ATOM     94  O   UNL A   1      45.693  36.044  26.640  1.00  0.00    -0.744 OA
ENDBRANCH  87  91
ENDBRANCH  61  84
ENDBRANCH  35  36
ENDBRANCH  27  30
ENDBRANCH  25  26
ENDBRANCH  24  25
ENDBRANCH   1  24
TORSDOF 18
ENDMDL
MODEL 2
REMARK VINA RESULT:     -11.6      1.966      2.204
REMARK SMILES CC(C)=CCc1cccc2c(C(=O)NCCCCCCNC(=O)c3ccc(-c4c5nc(c(-c6cc(S(=O)(=O)[O-])ccc6F)c6ccc([nH]6)c(-c6cc(S(=O)(=O)[O-])ccc6F)c6nc(c(-c7cc(S(=O)(=O)[O-])ccc7F)c7ccc4[nH]7)C=C6)C=C5)cc3)c[nH]c12
REMARK SMILES IDX 18 1 17 2 16 3 15 4 14 5 12 6 13 7 11 9 6 10 7 11 89 12 8 13
REMARK SMILES IDX 10 14 88 15 9 16 87 17 5 19 4 20 1 21 2 22 3 23 19 24 20 25
REMARK SMILES IDX 21 26 22 27 23 29 24 30 25 31 86 32 26 33 85 34 27 35 28 36
REMARK SMILES IDX 29 37 79 38 30 39 84 40 78 41 80 42 31 43 83 44 77 45 76 46
REMARK SMILES IDX 32 48 64 49 44 50 63 51 45 52 48 53 62 54 81 55 46 56 47 57
REMARK SMILES IDX 61 59 82 60 49 61 33 62 34 63 42 64 35 65 41 66 43 67 40 68
REMARK SMILES IDX 36 69 37 70 38 71 39 72 65 73 66 74 74 75 67 76 73 77 75 78
REMARK SMILES IDX 72 79 68 80 69 81 70 82 71 83 50 84 51 85 59 86 52 87 58 88
REMARK SMILES IDX 60 89 57 90 53 91 54 92 55 93 56 94
REMARK H PARENT 14 8 88 18 21 28 80 47 48 58
REMARK Flexibility Score: inf
ROOT
ATOM      1  C   UNL A   1      35.541  23.435  23.733  1.00  0.00     0.002 C 
ENDROOT
BRANCH   1   2
ATOM      2  C   UNL A   1      35.251  24.416  24.873  1.00  0.00     0.002 C 
BRANCH   2   3
ATOM      3  C   UNL A   1      34.299  25.573  24.566  1.00  0.00     0.021 C 
BRANCH   3   4
ATOM      4  C   UNL A   1      33.621  26.219  25.766  1.00  0.00     0.116 C 
BRANCH   4   5
ATOM      5  N   UNL A   1      32.187  26.321  25.687  1.00  0.00    -0.352 N 
ATOM      6  C   UNL A   1      31.242  25.324  25.722  1.00  0.00     0.253 C 
ATOM      7  O   UNL A   1      30.062  25.674  25.636  1.00  0.00    -0.269 OA
ATOM      8  H   UNL A   1      31.832  27.235  25.595  1.00  0.00     0.163 HD
BRANCH   6   9
ATOM      9  C   UNL A   1      31.608  23.902  25.754  1.00  0.00     0.065 A 
ATOM     10  C   UNL A   1      32.314  20.452  24.701  1.00  0.00    -0.020 A 
ATOM     11  C   UNL A   1      32.236  20.516  23.294  1.00  0.00     0.006 A 
ATOM     12  C   UNL A   1      32.082  21.671  25.388  1.00  0.00     0.050 A 
ATOM     13  C   UNL A   1      32.097  21.719  22.620  1.00  0.00     0.001 A 
ATOM     14  C   UNL A   1      31.886  22.904  24.743  1.00  0.00     0.012 A 
ATOM     15  N   UNL A   1      32.016  21.933  26.737  1.00  0.00    -0.360 N 
ATOM     16  C   UNL A   1      31.997  22.911  23.334  1.00  0.00     0.011 A 
ATOM     17  C   UNL A   1      31.769  23.251  26.967  1.00  0.00     0.097 A 
ATOM     18  H   UNL A   1      32.133  21.256  27.443  1.00  0.00     0.166 HD
BRANCH  10  19
ATOM     19  C   UNL A   1      32.604  19.084  25.301  1.00  0.00     0.065 C 
BRANCH  19  20
ATOM     20  C   UNL A   1      32.904  17.991  24.314  1.00  0.00    -0.024 C 
ATOM     21  C   UNL A   1      35.394  18.112  24.541  1.00  0.00     0.039 C 
ATOM     22  C   UNL A   1      34.128  17.571  23.936  1.00  0.00    -0.080 C 
ATOM     23  C   UNL A   1      34.274  16.551  22.843  1.00  0.00     0.039 C 
ENDBRANCH  19  20
ENDBRANCH  10  19
ENDBRANCH   6   9
ENDBRANCH   4   5
ENDBRANCH   3   4
ENDBRANCH   2   3
ENDBRANCH   1   2
BRANCH   1  24
ATOM     24  C   UNL A   1      36.034  22.040  24.128  1.00  0.00     0.021 C 
BRANCH  24  25
ATOM     25  C   UNL A   1      36.527  21.884  25.563  1.00  0.00     0.116 C 
BRANCH  25  26
ATOM     26  N   UNL A   1      37.559  20.871  25.693  1.00  0.00    -0.352 N 
ATOM     27  C   UNL A   1      38.887  21.007  26.005  1.00  0.00     0.251 C 
ATOM     28  H   UNL A   1      37.259  19.946  25.535  1.00  0.00     0.163 HD
ATOM     29  O   UNL A   1      39.632  20.032  25.905  1.00  0.00    -0.269 OA
BRANCH  27  30
ATOM     30  C   UNL A   1      39.431  22.316  26.428  1.00  0.00     0.039 A 
ATOM     31  C   UNL A   1      40.486  22.341  27.344  1.00  0.00     0.014 A 
ATOM     32  C   UNL A   1      38.902  23.517  25.944  1.00  0.00     0.014 A 
ATOM     33  C   UNL A   1      41.047  23.562  27.726  1.00  0.00     0.010 A 
ATOM     34  C   UNL A   1      39.513  24.728  26.266  1.00  0.00     0.010 A 
ATOM     35  C   UNL A   1      40.590  24.765  27.163  1.00  0.00    -0.014 A 
BRANCH  35  36
ATOM     36  C   UNL A   1      41.236  26.061  27.504  1.00  0.00     0.031 A 
ATOM     37  C   UNL A   1      42.619  26.379  27.002  1.00  0.00     0.074 A 
ATOM     38  C   UNL A   1      40.589  26.936  28.302  1.00  0.00     0.049 A 
ATOM     39  N   UNL A   1      43.356  27.438  27.222  1.00  0.00    -0.248 NA
ATOM     40  C   UNL A   1      43.269  25.360  26.164  1.00  0.00     0.031 C 
ATOM     41  C   UNL A   1      39.261  26.724  28.883  1.00  0.00     0.029 A 
ATOM     42  N   UNL A   1      40.956  28.176  28.763  1.00  0.00    -0.354 N 
ATOM     43  C   UNL A   1      44.557  27.211  26.557  1.00  0.00     0.074 A 
ATOM     44  C   UNL A   1      44.471  25.884  25.984  1.00  0.00     0.031 C 
ATOM     45  C   UNL A   1      38.913  27.809  29.592  1.00  0.00     0.029 A 
ATOM     46  C   UNL A   1      40.008  28.772  29.562  1.00  0.00     0.049 A 
ATOM     47  H   UNL A   1      41.818  28.598  28.543  1.00  0.00     0.167 HD
ATOM     48  C   UNL A   1      45.620  28.040  26.416  1.00  0.00     0.034 A 
ATOM     49  C   UNL A   1      40.021  29.956  30.207  1.00  0.00     0.034 A 
ATOM     50  C   UNL A   1      45.686  29.363  26.991  1.00  0.00     0.049 A 
ATOM     51  C   UNL A   1      41.231  30.846  30.066  1.00  0.00     0.074 A 
ATOM     52  C   UNL A   1      46.692  30.306  26.869  1.00  0.00     0.029 A 
ATOM     53  N   UNL A   1      44.713  29.928  27.807  1.00  0.00    -0.354 N 
ATOM     54  N   UNL A   1      42.336  30.639  29.387  1.00  0.00    -0.248 NA
ATOM     55  C   UNL A   1      41.190  32.136  30.769  1.00  0.00     0.031 C 
ATOM     56  C   UNL A   1      46.367  31.404  27.673  1.00  0.00     0.029 A 
ATOM     57  C   UNL A   1      45.114  31.188  28.225  1.00  0.00     0.049 A 
ATOM     58  H   UNL A   1      43.864  29.496  28.053  1.00  0.00     0.167 HD
ATOM     59  C   UNL A   1      43.105  31.787  29.554  1.00  0.00     0.074 A 
ATOM     60  C   UNL A   1      42.331  32.688  30.383  1.00  0.00     0.031 C 
ATOM     61  C   UNL A   1      44.338  32.074  29.063  1.00  0.00     0.034 A 
BRANCH  48  62
ATOM     62  C   UNL A   1      46.807  27.528  25.632  1.00  0.00     0.023 A 
ATOM     63  C   UNL A   1      47.065  27.954  24.317  1.00  0.00     0.031 A 
ATOM     64  C   UNL A   1      47.683  26.585  26.198  1.00  0.00     0.131 A 
ATOM     65  C   UNL A   1      48.119  27.383  23.588  1.00  0.00     0.055 A 
ATOM     66  C   UNL A   1      48.785  26.087  25.498  1.00  0.00     0.041 A 
ATOM     67  F   UNL A   1      47.479  26.121  27.442  1.00  0.00    -0.206 F 
ATOM     68  C   UNL A   1      48.998  26.473  24.178  1.00  0.00     0.022 A 
BRANCH  65  69
ATOM     69  S   UNL A   1      48.231  27.732  21.811  1.00  0.00     0.124 S 
ATOM     70  O   UNL A   1      49.370  28.646  21.761  1.00  0.00    -0.237 OA
ATOM     71  O   UNL A   1      48.450  26.407  21.242  1.00  0.00    -0.237 OA
ATOM     72  O   UNL A   1      46.940  28.340  21.499  1.00  0.00    -0.744 OA
ENDBRANCH  65  69
ENDBRANCH  48  62
BRANCH  49  73
ATOM     73  C   UNL A   1      38.864  30.370  31.054  1.00  0.00     0.023 A 
ATOM     74  C   UNL A   1      37.844  31.186  30.538  1.00  0.00     0.031 A 
ATOM     75  C   UNL A   1      38.784  29.993  32.406  1.00  0.00     0.131 A 
ATOM     76  C   UNL A   1      36.818  31.641  31.381  1.00  0.00     0.055 A 
ATOM     77  C   UNL A   1      37.728  30.397  33.224  1.00  0.00     0.041 A 
ATOM     78  F   UNL A   1      39.731  29.213  32.952  1.00  0.00    -0.206 F 
ATOM     79  C   UNL A   1      36.744  31.240  32.716  1.00  0.00     0.022 A 
BRANCH  76  80
ATOM     80  S   UNL A   1      35.631  32.850  30.731  1.00  0.00     0.124 S 
ATOM     81  O   UNL A   1      35.738  32.626  29.295  1.00  0.00    -0.237 OA
ATOM     82  O   UNL A   1      34.387  32.418  31.358  1.00  0.00    -0.237 OA
ATOM     83  O   UNL A   1      36.155  34.129  31.206  1.00  0.00    -0.744 OA
ENDBRANCH  76  80
ENDBRANCH  49  73
BRANCH  61  84
ATOM     84  C   UNL A   1      44.902  33.441  29.372  1.00  0.00     0.023 A 
ATOM     85  C   UNL A   1      45.680  33.684  30.518  1.00  0.00     0.031 A 
ATOM     86  C   UNL A   1      44.647  34.521  28.507  1.00  0.00     0.131 A 
ATOM     87  C   UNL A   1      46.124  34.984  30.800  1.00  0.00     0.055 A 
ATOM     88  C   UNL A   1      45.150  35.799  28.756  1.00  0.00     0.041 A 
ATOM     89  F   UNL A   1      43.906  34.352  27.400  1.00  0.00    -0.206 F 
ATOM     90  C   UNL A   1      45.881  36.039  29.915  1.00  0.00     0.022 A 
BRANCH  87  91
ATOM     91  S   UNL A   1      46.936  35.302  32.390  1.00  0.00     0.124 S 
ATOM     92  O   UNL A   1      46.123  34.512  33.309  1.00  0.00    -0.237 OA
ATOM     93  O   UNL A   1      48.290  34.810  32.153  1.00  0.00    -0.237 OA
ATOM     94  O   UNL A   1      46.824  36.751  32.549  1.00  0.00    -0.744 OA
ENDBRANCH  87  91
ENDBRANCH  61  84
ENDBRANCH  35  36
ENDBRANCH  27  30
ENDBRANCH  25  26
ENDBRANCH  24  25
ENDBRANCH   1  24
TORSDOF 18
ENDMDL
MODEL 3
REMARK VINA RESULT:     -11.5      6.188     12.135
REMARK SMILES CC(C)=CCc1cccc2c(C(=O)NCCCCCCNC(=O)c3ccc(-c4c5nc(c(-c6cc(S(=O)(=O)[O-])ccc6F)c6ccc([nH]6)c(-c6cc(S(=O)(=O)[O-])ccc6F)c6nc(c(-c7cc(S(=O)(=O)[O-])ccc7F)c7ccc4[nH]7)C=C6)C=C5)cc3)c[nH]c12
REMARK SMILES IDX 18 1 17 2 16 3 15 4 14 5 12 6 13 7 11 9 6 10 7 11 89 12 8 13
REMARK SMILES IDX 10 14 88 15 9 16 87 17 5 19 4 20 1 21 2 22 3 23 19 24 20 25
REMARK SMILES IDX 21 26 22 27 23 29 24 30 25 31 86 32 26 33 85 34 27 35 28 36
REMARK SMILES IDX 29 37 79 38 30 39 84 40 78 41 80 42 31 43 83 44 77 45 76 46
REMARK SMILES IDX 32 48 64 49 44 50 63 51 45 52 48 53 62 54 81 55 46 56 47 57
REMARK SMILES IDX 61 59 82 60 49 61 33 62 34 63 42 64 35 65 41 66 43 67 40 68
REMARK SMILES IDX 36 69 37 70 38 71 39 72 65 73 66 74 74 75 67 76 73 77 75 78
REMARK SMILES IDX 72 79 68 80 69 81 70 82 71 83 50 84 51 85 59 86 52 87 58 88
REMARK SMILES IDX 60 89 57 90 53 91 54 92 55 93 56 94
REMARK H PARENT 14 8 88 18 21 28 80 47 48 58
REMARK Flexibility Score: inf
ROOT
ATOM      1  C   UNL A   1      33.130  36.059  29.280  1.00  0.00     0.002 C 
ENDROOT
BRANCH   1   2
ATOM      2  C   UNL A   1      33.045  35.756  30.779  1.00  0.00     0.002 C 
BRANCH   2   3
ATOM      3  C   UNL A   1      33.226  36.935  31.736  1.00  0.00     0.021 C 
BRANCH   3   4
ATOM      4  C   UNL A   1      34.331  36.793  32.773  1.00  0.00     0.116 C 
BRANCH   4   5
ATOM      5  N   UNL A   1      34.242  35.631  33.618  1.00  0.00    -0.352 N 
ATOM      6  C   UNL A   1      35.124  34.586  33.754  1.00  0.00     0.253 C 
ATOM      7  O   UNL A   1      34.815  33.699  34.556  1.00  0.00    -0.269 OA
ATOM      8  H   UNL A   1      33.434  35.577  34.178  1.00  0.00     0.163 HD
BRANCH   6   9
ATOM      9  C   UNL A   1      36.326  34.463  32.919  1.00  0.00     0.065 A 
ATOM     10  C   UNL A   1      39.831  34.503  31.814  1.00  0.00    -0.020 A 
ATOM     11  C   UNL A   1      40.546  34.767  33.001  1.00  0.00     0.006 A 
ATOM     12  C   UNL A   1      38.421  34.427  31.947  1.00  0.00     0.050 A 
ATOM     13  C   UNL A   1      39.927  34.795  34.240  1.00  0.00     0.001 A 
ATOM     14  C   UNL A   1      37.749  34.502  33.179  1.00  0.00     0.012 A 
ATOM     15  N   UNL A   1      37.445  34.256  30.992  1.00  0.00    -0.360 N 
ATOM     16  C   UNL A   1      38.552  34.592  34.339  1.00  0.00     0.011 A 
ATOM     17  C   UNL A   1      36.207  34.244  31.555  1.00  0.00     0.097 A 
ATOM     18  H   UNL A   1      37.620  34.156  30.028  1.00  0.00     0.166 HD
BRANCH  10  19
ATOM     19  C   UNL A   1      40.656  34.365  30.543  1.00  0.00     0.065 C 
BRANCH  19  20
ATOM     20  C   UNL A   1      41.123  32.974  30.219  1.00  0.00    -0.024 C 
ATOM     21  C   UNL A   1      43.528  33.579  29.876  1.00  0.00     0.039 C 
ATOM     22  C   UNL A   1      42.378  32.610  29.885  1.00  0.00    -0.080 C 
ATOM     23  C   UNL A   1      42.670  31.198  29.464  1.00  0.00     0.039 C 
ENDBRANCH  19  20
ENDBRANCH  10  19
ENDBRANCH   6   9
ENDBRANCH   4   5
ENDBRANCH   3   4
ENDBRANCH   2   3
ENDBRANCH   1   2
BRANCH   1  24
ATOM     24  C   UNL A   1      33.928  35.074  28.419  1.00  0.00     0.021 C 
BRANCH  24  25
ATOM     25  C   UNL A   1      34.056  33.657  28.965  1.00  0.00     0.116 C 
BRANCH  25  26
ATOM     26  N   UNL A   1      33.612  32.649  28.020  1.00  0.00    -0.352 N 
ATOM     27  C   UNL A   1      34.224  31.487  27.624  1.00  0.00     0.251 C 
ATOM     28  H   UNL A   1      32.738  32.825  27.601  1.00  0.00     0.163 HD
ATOM     29  O   UNL A   1      33.751  30.849  26.683  1.00  0.00    -0.269 OA
BRANCH  27  30
ATOM     30  C   UNL A   1      35.456  31.018  28.294  1.00  0.00     0.039 A 
ATOM     31  C   UNL A   1      35.402  29.847  29.054  1.00  0.00     0.014 A 
ATOM     32  C   UNL A   1      36.656  31.728  28.194  1.00  0.00     0.014 A 
ATOM     33  C   UNL A   1      36.561  29.358  29.661  1.00  0.00     0.010 A 
ATOM     34  C   UNL A   1      37.827  31.198  28.735  1.00  0.00     0.010 A 
ATOM     35  C   UNL A   1      37.792  30.009  29.477  1.00  0.00    -0.014 A 
BRANCH  35  36
ATOM     36  C   UNL A   1      39.045  29.450  30.054  1.00  0.00     0.031 A 
ATOM     37  C   UNL A   1      39.558  29.942  31.382  1.00  0.00     0.074 A 
ATOM     38  C   UNL A   1      39.742  28.526  29.362  1.00  0.00     0.049 A 
ATOM     39  N   UNL A   1      40.644  29.601  32.027  1.00  0.00    -0.248 NA
ATOM     40  C   UNL A   1      38.758  30.973  32.059  1.00  0.00     0.031 C 
ATOM     41  C   UNL A   1      39.366  28.000  28.047  1.00  0.00     0.029 A 
ATOM     42  N   UNL A   1      40.907  27.866  29.660  1.00  0.00    -0.354 N 
ATOM     43  C   UNL A   1      40.662  30.378  33.180  1.00  0.00     0.074 A 
ATOM     44  C   UNL A   1      39.513  31.254  33.109  1.00  0.00     0.031 C 
ATOM     45  C   UNL A   1      40.264  27.075  27.671  1.00  0.00     0.029 A 
ATOM     46  C   UNL A   1      41.306  26.978  28.688  1.00  0.00     0.049 A 
ATOM     47  H   UNL A   1      41.411  28.014  30.492  1.00  0.00     0.167 HD
ATOM     48  C   UNL A   1      41.540  30.345  34.213  1.00  0.00     0.034 A 
ATOM     49  C   UNL A   1      42.392  26.181  28.615  1.00  0.00     0.034 A 
ATOM     50  C   UNL A   1      42.680  29.460  34.268  1.00  0.00     0.049 A 
ATOM     51  C   UNL A   1      43.374  26.190  29.760  1.00  0.00     0.074 A 
ATOM     52  C   UNL A   1      43.604  29.308  35.288  1.00  0.00     0.029 A 
ATOM     53  N   UNL A   1      43.060  28.585  33.258  1.00  0.00    -0.354 N 
ATOM     54  N   UNL A   1      43.346  26.892  30.870  1.00  0.00    -0.248 NA
ATOM     55  C   UNL A   1      44.530  25.289  29.647  1.00  0.00     0.031 C 
ATOM     56  C   UNL A   1      44.584  28.405  34.863  1.00  0.00     0.029 A 
ATOM     57  C   UNL A   1      44.224  27.921  33.616  1.00  0.00     0.049 A 
ATOM     58  H   UNL A   1      42.574  28.455  32.413  1.00  0.00     0.167 HD
ATOM     59  C   UNL A   1      44.461  26.490  31.601  1.00  0.00     0.074 A 
ATOM     60  C   UNL A   1      45.129  25.475  30.814  1.00  0.00     0.031 C 
ATOM     61  C   UNL A   1      44.890  26.918  32.816  1.00  0.00     0.034 A 
BRANCH  48  62
ATOM     62  C   UNL A   1      41.316  31.314  35.352  1.00  0.00     0.023 A 
ATOM     63  C   UNL A   1      40.132  31.302  36.112  1.00  0.00     0.031 A 
ATOM     64  C   UNL A   1      42.289  32.277  35.672  1.00  0.00     0.131 A 
ATOM     65  C   UNL A   1      39.920  32.279  37.096  1.00  0.00     0.055 A 
ATOM     66  C   UNL A   1      42.109  33.191  36.713  1.00  0.00     0.041 A 
ATOM     67  F   UNL A   1      43.431  32.356  34.970  1.00  0.00    -0.206 F 
ATOM     68  C   UNL A   1      40.912  33.206  37.422  1.00  0.00     0.022 A 
BRANCH  65  69
ATOM     69  S   UNL A   1      38.270  32.415  37.838  1.00  0.00     0.124 S 
ATOM     70  O   UNL A   1      37.500  31.481  37.019  1.00  0.00    -0.237 OA
ATOM     71  O   UNL A   1      38.509  32.008  39.218  1.00  0.00    -0.237 OA
ATOM     72  O   UNL A   1      37.926  33.823  37.652  1.00  0.00    -0.744 OA
ENDBRANCH  65  69
ENDBRANCH  48  62
BRANCH  49  73
ATOM     73  C   UNL A   1      42.620  25.318  27.420  1.00  0.00     0.023 A 
ATOM     74  C   UNL A   1      42.145  23.998  27.378  1.00  0.00     0.031 A 
ATOM     75  C   UNL A   1      43.358  25.787  26.318  1.00  0.00     0.131 A 
ATOM     76  C   UNL A   1      42.456  23.176  26.283  1.00  0.00     0.055 A 
ATOM     77  C   UNL A   1      43.612  24.985  25.205  1.00  0.00     0.041 A 
ATOM     78  F   UNL A   1      43.836  27.042  26.304  1.00  0.00    -0.206 F 
ATOM     79  C   UNL A   1      43.172  23.665  25.189  1.00  0.00     0.022 A 
BRANCH  76  80
ATOM     80  S   UNL A   1      41.995  21.422  26.353  1.00  0.00     0.124 S 
ATOM     81  O   UNL A   1      42.843  20.853  25.313  1.00  0.00    -0.237 OA
ATOM     82  O   UNL A   1      42.342  21.074  27.726  1.00  0.00    -0.237 OA
ATOM     83  O   UNL A   1      40.564  21.435  26.057  1.00  0.00    -0.744 OA
ENDBRANCH  76  80
ENDBRANCH  49  73
BRANCH  61  84
ATOM     84  C   UNL A   1      46.118  26.248  33.387  1.00  0.00     0.023 A 
ATOM     85  C   UNL A   1      46.057  24.992  34.015  1.00  0.00     0.031 A 
ATOM     86  C   UNL A   1      47.371  26.885  33.308  1.00  0.00     0.131 A 
ATOM     87  C   UNL A   1      47.211  24.440  34.592  1.00  0.00     0.055 A 
ATOM     88  C   UNL A   1      48.528  26.300  33.823  1.00  0.00     0.041 A 
ATOM     89  F   UNL A   1      47.490  28.089  32.725  1.00  0.00    -0.206 F 
ATOM     90  C   UNL A   1      48.450  25.077  34.481  1.00  0.00     0.022 A 
BRANCH  87  91
ATOM     91  S   UNL A   1      47.054  22.927  35.579  1.00  0.00     0.124 S 
ATOM     92  O   UNL A   1      48.354  22.859  36.239  1.00  0.00    -0.237 OA
ATOM     93  O   UNL A   1      45.917  23.234  36.442  1.00  0.00    -0.237 OA
ATOM     94  O   UNL A   1      46.809  21.888  34.579  1.00  0.00    -0.744 OA
ENDBRANCH  87  91
ENDBRANCH  61  84
ENDBRANCH  35  36
ENDBRANCH  27  30
ENDBRANCH  25  26
ENDBRANCH  24  25
ENDBRANCH   1  24
TORSDOF 18
ENDMDL
