MODEL 1
REMARK VINA RESULT:     -12.0      0.000      0.000
REMARK SMILES O=C(NCCCCCCNC(=O)[C@@H]1CN(C(=O)CCC(F)(F)F)C[C@H]1c1ccc2c(c1)OCO2)c1ccc(-c2c3nc(c(-c4cc(S(=O)(=O)[O-])ccc4F)c4ccc([nH]4)c(-c4cc(S(=O)(=O)[O-])ccc4F)c4nc(c(-c5cc(S(=O)(=O)[O-])ccc5F)c5ccc2[nH]5)C=C4)C=C3)cc1
REMARK SMILES IDX 7 1 6 2 5 3 4 4 3 5 1 6 2 7 35 9 36 10 97 11 37 12 96 13
REMARK SMILES IDX 38 14 39 15 40 16 90 17 41 18 95 19 89 20 91 21 42 22 94 23
REMARK SMILES IDX 88 24 87 25 43 27 75 28 55 29 74 30 56 31 59 32 73 33 92 34
REMARK SMILES IDX 57 35 58 36 72 38 93 39 60 40 44 41 45 42 53 43 46 44 52 45
REMARK SMILES IDX 54 46 51 47 47 48 48 49 49 50 50 51 76 52 77 53 85 54 78 55
REMARK SMILES IDX 84 56 86 57 83 58 79 59 80 60 81 61 82 62 61 63 62 64 70 65
REMARK SMILES IDX 63 66 69 67 71 68 68 69 64 70 65 71 66 72 67 73 8 74 9 75
REMARK SMILES IDX 10 76 11 77 12 79 13 80 14 81 25 82 15 83 24 84 26 85 27 86
REMARK SMILES IDX 31 87 28 88 30 89 29 90 32 91 34 92 33 93 16 94 17 95 18 96
REMARK SMILES IDX 19 97 20 98 21 99 22 100 23 101
REMARK H PARENT 3 8 91 26 59 37 10 78
REMARK Flexibility Score: inf
ROOT
ATOM      1  C   UNL A   1      31.778  29.641  26.973  1.00  0.00     0.002 C 
ENDROOT
BRANCH   1   2
ATOM      2  C   UNL A   1      31.490  30.778  25.989  1.00  0.00     0.002 C 
BRANCH   2   3
ATOM      3  C   UNL A   1      31.421  32.189  26.568  1.00  0.00     0.021 C 
BRANCH   3   4
ATOM      4  C   UNL A   1      32.694  32.697  27.223  1.00  0.00     0.116 C 
BRANCH   4   5
ATOM      5  N   UNL A   1      32.601  34.071  27.683  1.00  0.00    -0.352 N 
ATOM      6  O   UNL A   1      33.072  35.843  28.997  1.00  0.00    -0.269 OA
ATOM      7  C   UNL A   1      33.348  34.702  28.654  1.00  0.00     0.251 C 
ATOM      8  H   UNL A   1      31.915  34.624  27.243  1.00  0.00     0.163 HD
BRANCH   7   9
ATOM      9  C   UNL A   1      34.470  33.976  29.298  1.00  0.00     0.039 A 
ATOM     10  C   UNL A   1      34.231  33.087  30.347  1.00  0.00     0.014 A 
ATOM     11  C   UNL A   1      35.778  34.201  28.857  1.00  0.00     0.014 A 
ATOM     12  C   UNL A   1      35.299  32.548  31.053  1.00  0.00     0.010 A 
ATOM     13  C   UNL A   1      36.849  33.572  29.503  1.00  0.00     0.010 A 
ATOM     14  C   UNL A   1      36.621  32.759  30.623  1.00  0.00    -0.014 A 
BRANCH  14  15
ATOM     15  C   UNL A   1      37.718  32.037  31.321  1.00  0.00     0.031 A 
ATOM     16  C   UNL A   1      38.482  30.926  30.653  1.00  0.00     0.074 A 
ATOM     17  C   UNL A   1      38.055  32.445  32.561  1.00  0.00     0.049 A 
ATOM     18  N   UNL A   1      39.494  30.235  31.114  1.00  0.00    -0.248 NA
ATOM     19  C   UNL A   1      38.054  30.535  29.303  1.00  0.00     0.031 C 
ATOM     20  C   UNL A   1      37.368  33.504  33.310  1.00  0.00     0.029 A 
ATOM     21  N   UNL A   1      39.068  32.056  33.398  1.00  0.00    -0.354 N 
ATOM     22  C   UNL A   1      39.821  29.320  30.118  1.00  0.00     0.074 A 
ATOM     23  C   UNL A   1      38.874  29.526  29.040  1.00  0.00     0.031 C 
ATOM     24  C   UNL A   1      38.016  33.723  34.461  1.00  0.00     0.029 A 
ATOM     25  C   UNL A   1      39.113  32.771  34.573  1.00  0.00     0.049 A 
ATOM     26  H   UNL A   1      39.702  31.336  33.180  1.00  0.00     0.167 HD
ATOM     27  C   UNL A   1      40.821  28.404  30.105  1.00  0.00     0.034 A 
ATOM     28  C   UNL A   1      39.933  32.663  35.637  1.00  0.00     0.034 A 
ATOM     29  C   UNL A   1      41.754  28.212  31.192  1.00  0.00     0.049 A 
ATOM     30  C   UNL A   1      41.022  31.626  35.598  1.00  0.00     0.074 A 
ATOM     31  C   UNL A   1      42.805  27.315  31.281  1.00  0.00     0.029 A 
ATOM     32  N   UNL A   1      41.749  28.927  32.384  1.00  0.00    -0.354 N 
ATOM     33  N   UNL A   1      41.315  30.774  34.642  1.00  0.00    -0.248 NA
ATOM     34  C   UNL A   1      41.892  31.541  36.775  1.00  0.00     0.031 C 
ATOM     35  C   UNL A   1      43.397  27.449  32.542  1.00  0.00     0.029 A 
ATOM     36  C   UNL A   1      42.763  28.479  33.218  1.00  0.00     0.049 A 
ATOM     37  H   UNL A   1      41.117  29.650  32.604  1.00  0.00     0.167 HD
ATOM     38  C   UNL A   1      42.410  30.052  35.106  1.00  0.00     0.074 A 
ATOM     39  C   UNL A   1      42.748  30.603  36.403  1.00  0.00     0.031 C 
ATOM     40  C   UNL A   1      43.068  29.020  34.521  1.00  0.00     0.034 A 
BRANCH  27  41
ATOM     41  C   UNL A   1      40.939  27.513  28.891  1.00  0.00     0.023 A 
ATOM     42  C   UNL A   1      41.936  27.712  27.921  1.00  0.00     0.031 A 
ATOM     43  C   UNL A   1      40.045  26.441  28.704  1.00  0.00     0.131 A 
ATOM     44  C   UNL A   1      41.987  26.888  26.786  1.00  0.00     0.055 A 
ATOM     45  C   UNL A   1      40.142  25.582  27.606  1.00  0.00     0.041 A 
ATOM     46  F   UNL A   1      39.061  26.211  29.586  1.00  0.00    -0.206 F 
ATOM     47  C   UNL A   1      41.111  25.810  26.633  1.00  0.00     0.022 A 
BRANCH  44  48
ATOM     48  S   UNL A   1      43.148  27.308  25.457  1.00  0.00     0.124 S 
ATOM     49  O   UNL A   1      44.192  28.019  26.192  1.00  0.00    -0.237 OA
ATOM     50  O   UNL A   1      43.517  25.999  24.934  1.00  0.00    -0.237 OA
ATOM     51  O   UNL A   1      42.353  28.141  24.556  1.00  0.00    -0.744 OA
ENDBRANCH  44  48
ENDBRANCH  27  41
BRANCH  28  52
ATOM     52  C   UNL A   1      39.728  33.523  36.837  1.00  0.00     0.023 A 
ATOM     53  C   UNL A   1      40.537  34.643  37.077  1.00  0.00     0.031 A 
ATOM     54  C   UNL A   1      38.737  33.209  37.786  1.00  0.00     0.131 A 
ATOM     55  C   UNL A   1      40.373  35.382  38.259  1.00  0.00     0.055 A 
ATOM     56  C   UNL A   1      38.537  33.983  38.928  1.00  0.00     0.041 A 
ATOM     57  F   UNL A   1      37.933  32.149  37.603  1.00  0.00    -0.206 F 
ATOM     58  C   UNL A   1      39.368  35.068  39.178  1.00  0.00     0.022 A 
BRANCH  55  59
ATOM     59  S   UNL A   1      41.561  36.701  38.630  1.00  0.00     0.124 S 
ATOM     60  O   UNL A   1      42.425  36.056  39.614  1.00  0.00    -0.237 OA
ATOM     61  O   UNL A   1      42.154  36.948  37.320  1.00  0.00    -0.237 OA
ATOM     62  O   UNL A   1      40.722  37.779  39.147  1.00  0.00    -0.744 OA
ENDBRANCH  55  59
ENDBRANCH  28  52
BRANCH  40  63
ATOM     63  C   UNL A   1      44.229  28.445  35.294  1.00  0.00     0.023 A 
ATOM     64  C   UNL A   1      44.045  27.412  36.230  1.00  0.00     0.031 A 
ATOM     65  C   UNL A   1      45.521  28.975  35.137  1.00  0.00     0.131 A 
ATOM     66  C   UNL A   1      45.117  26.996  37.030  1.00  0.00     0.055 A 
ATOM     67  C   UNL A   1      46.600  28.510  35.890  1.00  0.00     0.041 A 
ATOM     68  F   UNL A   1      45.754  29.965  34.260  1.00  0.00    -0.206 F 
ATOM     69  C   UNL A   1      46.397  27.528  36.857  1.00  0.00     0.022 A 
BRANCH  66  70
ATOM     70  S   UNL A   1      44.790  25.836  38.386  1.00  0.00     0.124 S 
ATOM     71  O   UNL A   1      44.587  24.580  37.669  1.00  0.00    -0.237 OA
ATOM     72  O   UNL A   1      46.012  25.928  39.177  1.00  0.00    -0.237 OA
ATOM     73  O   UNL A   1      43.596  26.385  39.026  1.00  0.00    -0.744 OA
ENDBRANCH  66  70
ENDBRANCH  40  63
ENDBRANCH  14  15
ENDBRANCH   7   9
ENDBRANCH   4   5
ENDBRANCH   3   4
ENDBRANCH   2   3
ENDBRANCH   1   2
BRANCH   1  74
ATOM     74  C   UNL A   1      32.501  28.405  26.425  1.00  0.00     0.021 C 
BRANCH  74  75
ATOM     75  C   UNL A   1      34.015  28.520  26.293  1.00  0.00     0.116 C 
BRANCH  75  76
ATOM     76  N   UNL A   1      34.449  28.750  24.932  1.00  0.00    -0.356 N 
ATOM     77  C   UNL A   1      33.938  28.248  23.776  1.00  0.00     0.225 C 
ATOM     78  H   UNL A   1      35.220  29.352  24.829  1.00  0.00     0.163 HD
ATOM     79  O   UNL A   1      34.329  28.746  22.719  1.00  0.00    -0.275 OA
BRANCH  77  80
ATOM     80  C   UNL A   1      32.924  27.117  23.812  1.00  0.00     0.107 C 
ATOM     81  C   UNL A   1      33.664  25.788  23.770  1.00  0.00     0.133 C 
ATOM     82  C   UNL A   1      32.024  27.091  22.558  1.00  0.00     0.053 C 
ATOM     83  N   UNL A   1      32.781  24.871  23.080  1.00  0.00    -0.341 N 
ATOM     84  C   UNL A   1      31.829  25.593  22.248  1.00  0.00     0.128 C 
BRANCH  82  85
ATOM     85  C   UNL A   1      30.753  27.895  22.782  1.00  0.00    -0.038 A 
ATOM     86  C   UNL A   1      29.603  27.231  23.275  1.00  0.00     0.008 A 
ATOM     87  C   UNL A   1      30.647  29.252  22.422  1.00  0.00     0.054 A 
ATOM     88  C   UNL A   1      28.367  27.881  23.367  1.00  0.00     0.051 A 
ATOM     89  C   UNL A   1      29.420  29.874  22.546  1.00  0.00     0.166 A 
ATOM     90  C   UNL A   1      28.308  29.202  22.989  1.00  0.00     0.165 A 
ATOM     91  O   UNL A   1      29.149  31.168  22.226  1.00  0.00    -0.454 OA
ATOM     92  O   UNL A   1      27.193  29.977  22.977  1.00  0.00    -0.454 OA
ATOM     93  C   UNL A   1      27.747  31.248  22.577  1.00  0.00     0.468 C 
ENDBRANCH  82  85
BRANCH  83  94
ATOM     94  C   UNL A   1      32.872  23.501  23.021  1.00  0.00     0.222 C 
ATOM     95  O   UNL A   1      33.037  22.899  21.959  1.00  0.00    -0.275 OA
BRANCH  94  96
ATOM     96  C   UNL A   1      32.768  22.714  24.313  1.00  0.00     0.109 C 
BRANCH  96  97
ATOM     97  C   UNL A   1      31.350  22.700  24.871  1.00  0.00     0.125 C 
BRANCH  97  98
ATOM     98  C   UNL A   1      31.134  23.715  25.968  1.00  0.00     0.389 C 
ATOM     99  F   UNL A   1      32.283  23.947  26.642  1.00  0.00    -0.171 F 
ATOM    100  F   UNL A   1      30.729  24.894  25.445  1.00  0.00    -0.171 F 
ATOM    101  F   UNL A   1      30.198  23.319  26.850  1.00  0.00    -0.171 F 
ENDBRANCH  97  98
ENDBRANCH  96  97
ENDBRANCH  94  96
ENDBRANCH  83  94
ENDBRANCH  77  80
ENDBRANCH  75  76
ENDBRANCH  74  75
ENDBRANCH   1  74
TORSDOF 21
ENDMDL
MODEL 2
REMARK VINA RESULT:     -11.9      1.530      7.405
REMARK SMILES O=C(NCCCCCCNC(=O)[C@@H]1CN(C(=O)CCC(F)(F)F)C[C@H]1c1ccc2c(c1)OCO2)c1ccc(-c2c3nc(c(-c4cc(S(=O)(=O)[O-])ccc4F)c4ccc([nH]4)c(-c4cc(S(=O)(=O)[O-])ccc4F)c4nc(c(-c5cc(S(=O)(=O)[O-])ccc5F)c5ccc2[nH]5)C=C4)C=C3)cc1
REMARK SMILES IDX 7 1 6 2 5 3 4 4 3 5 1 6 2 7 35 9 36 10 97 11 37 12 96 13
REMARK SMILES IDX 38 14 39 15 40 16 90 17 41 18 95 19 89 20 91 21 42 22 94 23
REMARK SMILES IDX 88 24 87 25 43 27 75 28 55 29 74 30 56 31 59 32 73 33 92 34
REMARK SMILES IDX 57 35 58 36 72 38 93 39 60 40 44 41 45 42 53 43 46 44 52 45
REMARK SMILES IDX 54 46 51 47 47 48 48 49 49 50 50 51 76 52 77 53 85 54 78 55
REMARK SMILES IDX 84 56 86 57 83 58 79 59 80 60 81 61 82 62 61 63 62 64 70 65
REMARK SMILES IDX 63 66 69 67 71 68 68 69 64 70 65 71 66 72 67 73 8 74 9 75
REMARK SMILES IDX 10 76 11 77 12 79 13 80 14 81 25 82 15 83 24 84 26 85 27 86
REMARK SMILES IDX 31 87 28 88 30 89 29 90 32 91 34 92 33 93 16 94 17 95 18 96
REMARK SMILES IDX 19 97 20 98 21 99 22 100 23 101
REMARK H PARENT 3 8 91 26 59 37 10 78
REMARK Flexibility Score: inf
ROOT
ATOM      1  C   UNL A   1      31.968  29.851  27.227  1.00  0.00     0.002 C 
ENDROOT
BRANCH   1   2
ATOM      2  C   UNL A   1      31.594  30.837  26.116  1.00  0.00     0.002 C 
BRANCH   2   3
ATOM      3  C   UNL A   1      31.476  32.307  26.510  1.00  0.00     0.021 C 
BRANCH   3   4
ATOM      4  C   UNL A   1      32.637  32.871  27.310  1.00  0.00     0.116 C 
BRANCH   4   5
ATOM      5  N   UNL A   1      32.402  34.216  27.803  1.00  0.00    -0.352 N 
ATOM      6  O   UNL A   1      32.693  35.997  29.157  1.00  0.00    -0.269 OA
ATOM      7  C   UNL A   1      33.086  34.901  28.785  1.00  0.00     0.251 C 
ATOM      8  H   UNL A   1      31.658  34.703  27.380  1.00  0.00     0.163 HD
BRANCH   7   9
ATOM      9  C   UNL A   1      34.283  34.283  29.406  1.00  0.00     0.039 A 
ATOM     10  C   UNL A   1      34.147  33.354  30.439  1.00  0.00     0.014 A 
ATOM     11  C   UNL A   1      35.556  34.651  28.960  1.00  0.00     0.014 A 
ATOM     12  C   UNL A   1      35.273  32.916  31.126  1.00  0.00     0.010 A 
ATOM     13  C   UNL A   1      36.692  34.125  29.584  1.00  0.00     0.010 A 
ATOM     14  C   UNL A   1      36.561  33.271  30.690  1.00  0.00    -0.014 A 
BRANCH  14  15
ATOM     15  C   UNL A   1      37.734  32.654  31.365  1.00  0.00     0.031 A 
ATOM     16  C   UNL A   1      38.181  33.095  32.731  1.00  0.00     0.074 A 
ATOM     17  C   UNL A   1      38.360  31.636  30.739  1.00  0.00     0.049 A 
ATOM     18  N   UNL A   1      39.154  32.621  33.468  1.00  0.00    -0.248 NA
ATOM     19  C   UNL A   1      37.452  34.212  33.348  1.00  0.00     0.031 C 
ATOM     20  C   UNL A   1      38.019  31.140  29.401  1.00  0.00     0.029 A 
ATOM     21  N   UNL A   1      39.381  30.817  31.143  1.00  0.00    -0.354 N 
ATOM     22  C   UNL A   1      39.164  33.385  34.631  1.00  0.00     0.074 A 
ATOM     23  C   UNL A   1      38.117  34.375  34.485  1.00  0.00     0.031 C 
ATOM     24  C   UNL A   1      38.768  30.065  29.125  1.00  0.00     0.029 A 
ATOM     25  C   UNL A   1      39.698  29.843  30.224  1.00  0.00     0.049 A 
ATOM     26  H   UNL A   1      39.843  30.915  32.007  1.00  0.00     0.167 HD
ATOM     27  C   UNL A   1      39.966  33.261  35.718  1.00  0.00     0.034 A 
ATOM     28  C   UNL A   1      40.646  28.885  30.249  1.00  0.00     0.034 A 
ATOM     29  C   UNL A   1      41.008  32.268  35.844  1.00  0.00     0.049 A 
ATOM     30  C   UNL A   1      41.530  28.786  31.462  1.00  0.00     0.074 A 
ATOM     31  C   UNL A   1      41.875  32.054  36.903  1.00  0.00     0.029 A 
ATOM     32  N   UNL A   1      41.327  31.320  34.879  1.00  0.00    -0.354 N 
ATOM     33  N   UNL A   1      41.517  29.517  32.553  1.00  0.00    -0.248 NA
ATOM     34  C   UNL A   1      42.548  27.732  31.449  1.00  0.00     0.031 C 
ATOM     35  C   UNL A   1      42.751  31.019  36.556  1.00  0.00     0.029 A 
ATOM     36  C   UNL A   1      42.388  30.536  35.309  1.00  0.00     0.049 A 
ATOM     37  H   UNL A   1      40.866  31.218  34.015  1.00  0.00     0.167 HD
ATOM     38  C   UNL A   1      42.528  29.005  33.360  1.00  0.00     0.074 A 
ATOM     39  C   UNL A   1      43.093  27.877  32.647  1.00  0.00     0.031 C 
ATOM     40  C   UNL A   1      42.960  29.434  34.572  1.00  0.00     0.034 A 
BRANCH  27  41
ATOM     41  C   UNL A   1      39.773  34.248  36.846  1.00  0.00     0.023 A 
ATOM     42  C   UNL A   1      39.267  33.853  38.096  1.00  0.00     0.031 A 
ATOM     43  C   UNL A   1      40.109  35.604  36.672  1.00  0.00     0.131 A 
ATOM     44  C   UNL A   1      39.063  34.807  39.105  1.00  0.00     0.055 A 
ATOM     45  C   UNL A   1      39.968  36.537  37.703  1.00  0.00     0.041 A 
ATOM     46  F   UNL A   1      40.581  36.045  35.496  1.00  0.00    -0.206 F 
ATOM     47  C   UNL A   1      39.432  36.142  38.925  1.00  0.00     0.022 A 
BRANCH  44  48
ATOM     48  S   UNL A   1      38.211  34.299  40.623  1.00  0.00     0.124 S 
ATOM     49  O   UNL A   1      37.800  35.587  41.177  1.00  0.00    -0.237 OA
ATOM     50  O   UNL A   1      37.137  33.453  40.116  1.00  0.00    -0.237 OA
ATOM     51  O   UNL A   1      39.248  33.603  41.383  1.00  0.00    -0.744 OA
ENDBRANCH  44  48
ENDBRANCH  27  41
BRANCH  28  52
ATOM     52  C   UNL A   1      40.837  27.983  29.078  1.00  0.00     0.023 A 
ATOM     53  C   UNL A   1      41.864  28.202  28.149  1.00  0.00     0.031 A 
ATOM     54  C   UNL A   1      39.963  26.903  28.852  1.00  0.00     0.131 A 
ATOM     55  C   UNL A   1      41.964  27.385  27.012  1.00  0.00     0.055 A 
ATOM     56  C   UNL A   1      40.104  26.056  27.754  1.00  0.00     0.041 A 
ATOM     57  F   UNL A   1      38.964  26.646  29.712  1.00  0.00    -0.206 F 
ATOM     58  C   UNL A   1      41.100  26.305  26.817  1.00  0.00     0.022 A 
BRANCH  55  59
ATOM     59  S   UNL A   1      43.177  27.817  25.736  1.00  0.00     0.124 S 
ATOM     60  O   UNL A   1      43.980  26.601  25.663  1.00  0.00    -0.237 OA
ATOM     61  O   UNL A   1      42.321  28.088  24.586  1.00  0.00    -0.237 OA
ATOM     62  O   UNL A   1      43.858  28.983  26.294  1.00  0.00    -0.744 OA
ENDBRANCH  55  59
ENDBRANCH  28  52
BRANCH  40  63
ATOM     63  C   UNL A   1      44.092  28.653  35.193  1.00  0.00     0.023 A 
ATOM     64  C   UNL A   1      43.846  27.586  36.075  1.00  0.00     0.031 A 
ATOM     65  C   UNL A   1      45.426  29.018  34.948  1.00  0.00     0.131 A 
ATOM     66  C   UNL A   1      44.915  26.972  36.742  1.00  0.00     0.055 A 
ATOM     67  C   UNL A   1      46.490  28.357  35.565  1.00  0.00     0.041 A 
ATOM     68  F   UNL A   1      45.719  30.031  34.118  1.00  0.00    -0.206 F 
ATOM     69  C   UNL A   1      46.237  27.341  36.482  1.00  0.00     0.022 A 
BRANCH  66  70
ATOM     70  S   UNL A   1      44.546  25.767  38.047  1.00  0.00     0.124 S 
ATOM     71  O   UNL A   1      45.838  25.642  38.717  1.00  0.00    -0.237 OA
ATOM     72  O   UNL A   1      43.498  26.441  38.806  1.00  0.00    -0.237 OA
ATOM     73  O   UNL A   1      44.113  24.583  37.309  1.00  0.00    -0.744 OA
ENDBRANCH  66  70
ENDBRANCH  40  63
ENDBRANCH  14  15
ENDBRANCH   7   9
ENDBRANCH   4   5
ENDBRANCH   3   4
ENDBRANCH   2   3
ENDBRANCH   1   2
BRANCH   1  74
ATOM     74  C   UNL A   1      32.277  28.408  26.810  1.00  0.00     0.021 C 
BRANCH  74  75
ATOM     75  C   UNL A   1      33.749  28.074  26.602  1.00  0.00     0.116 C 
BRANCH  75  76
ATOM     76  N   UNL A   1      34.273  28.577  25.351  1.00  0.00    -0.356 N 
ATOM     77  C   UNL A   1      33.881  28.285  24.082  1.00  0.00     0.225 C 
ATOM     78  H   UNL A   1      35.015  29.218  25.429  1.00  0.00     0.163 HD
ATOM     79  O   UNL A   1      34.324  28.990  23.174  1.00  0.00    -0.275 OA
BRANCH  77  80
ATOM     80  C   UNL A   1      32.933  27.127  23.818  1.00  0.00     0.107 C 
ATOM     81  C   UNL A   1      33.748  25.862  23.592  1.00  0.00     0.133 C 
ATOM     82  C   UNL A   1      32.135  27.305  22.509  1.00  0.00     0.053 C 
ATOM     83  N   UNL A   1      32.974  25.058  22.670  1.00  0.00    -0.341 N 
ATOM     84  C   UNL A   1      32.049  25.886  21.909  1.00  0.00     0.128 C 
BRANCH  82  85
ATOM     85  C   UNL A   1      30.808  27.999  22.769  1.00  0.00    -0.038 A 
ATOM     86  C   UNL A   1      29.715  27.228  23.239  1.00  0.00     0.008 A 
ATOM     87  C   UNL A   1      30.595  29.356  22.463  1.00  0.00     0.054 A 
ATOM     88  C   UNL A   1      28.434  27.777  23.361  1.00  0.00     0.051 A 
ATOM     89  C   UNL A   1      29.324  29.876  22.616  1.00  0.00     0.166 A 
ATOM     90  C   UNL A   1      28.271  29.103  23.036  1.00  0.00     0.165 A 
ATOM     91  O   UNL A   1      28.953  31.157  22.349  1.00  0.00    -0.454 OA
ATOM     92  O   UNL A   1      27.099  29.790  23.059  1.00  0.00    -0.454 OA
ATOM     93  C   UNL A   1      27.551  31.115  22.708  1.00  0.00     0.468 C 
ENDBRANCH  82  85
BRANCH  83  94
ATOM     94  C   UNL A   1      33.146  23.730  22.363  1.00  0.00     0.222 C 
ATOM     95  O   UNL A   1      33.569  23.357  21.269  1.00  0.00    -0.275 OA
BRANCH  94  96
ATOM     96  C   UNL A   1      32.802  22.695  23.418  1.00  0.00     0.109 C 
BRANCH  96  97
ATOM     97  C   UNL A   1      32.379  21.365  22.809  1.00  0.00     0.125 C 
BRANCH  97  98
ATOM     98  C   UNL A   1      32.473  20.211  23.779  1.00  0.00     0.389 C 
ATOM     99  F   UNL A   1      31.753  20.460  24.895  1.00  0.00    -0.171 F 
ATOM    100  F   UNL A   1      31.974  19.085  23.221  1.00  0.00    -0.171 F 
ATOM    101  F   UNL A   1      33.743  19.955  24.142  1.00  0.00    -0.171 F 
ENDBRANCH  97  98
ENDBRANCH  96  97
ENDBRANCH  94  96
ENDBRANCH  83  94
ENDBRANCH  77  80
ENDBRANCH  75  76
ENDBRANCH  74  75
ENDBRANCH   1  74
TORSDOF 21
ENDMDL
MODEL 3
REMARK VINA RESULT:     -11.9      1.828      2.113
REMARK SMILES O=C(NCCCCCCNC(=O)[C@@H]1CN(C(=O)CCC(F)(F)F)C[C@H]1c1ccc2c(c1)OCO2)c1ccc(-c2c3nc(c(-c4cc(S(=O)(=O)[O-])ccc4F)c4ccc([nH]4)c(-c4cc(S(=O)(=O)[O-])ccc4F)c4nc(c(-c5cc(S(=O)(=O)[O-])ccc5F)c5ccc2[nH]5)C=C4)C=C3)cc1
REMARK SMILES IDX 7 1 6 2 5 3 4 4 3 5 1 6 2 7 35 9 36 10 97 11 37 12 96 13
REMARK SMILES IDX 38 14 39 15 40 16 90 17 41 18 95 19 89 20 91 21 42 22 94 23
REMARK SMILES IDX 88 24 87 25 43 27 75 28 55 29 74 30 56 31 59 32 73 33 92 34
REMARK SMILES IDX 57 35 58 36 72 38 93 39 60 40 44 41 45 42 53 43 46 44 52 45
REMARK SMILES IDX 54 46 51 47 47 48 48 49 49 50 50 51 76 52 77 53 85 54 78 55
REMARK SMILES IDX 84 56 86 57 83 58 79 59 80 60 81 61 82 62 61 63 62 64 70 65
REMARK SMILES IDX 63 66 69 67 71 68 68 69 64 70 65 71 66 72 67 73 8 74 9 75
REMARK SMILES IDX 10 76 11 77 12 79 13 80 14 81 25 82 15 83 24 84 26 85 27 86
REMARK SMILES IDX 31 87 28 88 30 89 29 90 32 91 34 92 33 93 16 94 17 95 18 96
REMARK SMILES IDX 19 97 20 98 21 99 22 100 23 101
REMARK H PARENT 3 8 91 26 59 37 10 78
REMARK Flexibility Score: inf
ROOT
ATOM      1  C   UNL A   1      31.916  29.656  27.115  1.00  0.00     0.002 C 
ENDROOT
BRANCH   1   2
ATOM      2  C   UNL A   1      31.382  30.648  26.077  1.00  0.00     0.002 C 
BRANCH   2   3
ATOM      3  C   UNL A   1      31.381  32.123  26.472  1.00  0.00     0.021 C 
BRANCH   3   4
ATOM      4  C   UNL A   1      32.676  32.648  27.066  1.00  0.00     0.116 C 
BRANCH   4   5
ATOM      5  N   UNL A   1      32.569  33.999  27.586  1.00  0.00    -0.352 N 
ATOM      6  O   UNL A   1      33.038  35.723  28.965  1.00  0.00    -0.269 OA
ATOM      7  C   UNL A   1      33.327  34.603  28.566  1.00  0.00     0.251 C 
ATOM      8  H   UNL A   1      31.863  34.557  27.186  1.00  0.00     0.163 HD
BRANCH   7   9
ATOM      9  C   UNL A   1      34.475  33.871  29.154  1.00  0.00     0.039 A 
ATOM     10  C   UNL A   1      34.265  32.760  29.973  1.00  0.00     0.014 A 
ATOM     11  C   UNL A   1      35.776  34.314  28.898  1.00  0.00     0.014 A 
ATOM     12  C   UNL A   1      35.334  32.192  30.653  1.00  0.00     0.010 A 
ATOM     13  C   UNL A   1      36.863  33.671  29.502  1.00  0.00     0.010 A 
ATOM     14  C   UNL A   1      36.650  32.619  30.406  1.00  0.00    -0.014 A 
BRANCH  14  15
ATOM     15  C   UNL A   1      37.771  31.877  31.045  1.00  0.00     0.031 A 
ATOM     16  C   UNL A   1      38.579  30.863  30.285  1.00  0.00     0.074 A 
ATOM     17  C   UNL A   1      38.085  32.183  32.320  1.00  0.00     0.049 A 
ATOM     18  N   UNL A   1      39.615  30.170  30.689  1.00  0.00    -0.248 NA
ATOM     19  C   UNL A   1      38.175  30.581  28.901  1.00  0.00     0.031 C 
ATOM     20  C   UNL A   1      37.353  33.141  33.156  1.00  0.00     0.029 A 
ATOM     21  N   UNL A   1      39.107  31.757  33.127  1.00  0.00    -0.354 N 
ATOM     22  C   UNL A   1      39.982  29.363  29.617  1.00  0.00     0.074 A 
ATOM     23  C   UNL A   1      39.034  29.632  28.554  1.00  0.00     0.031 C 
ATOM     24  C   UNL A   1      37.986  33.277  34.328  1.00  0.00     0.029 A 
ATOM     25  C   UNL A   1      39.118  32.361  34.363  1.00  0.00     0.049 A 
ATOM     26  H   UNL A   1      39.769  31.083  32.850  1.00  0.00     0.167 HD
ATOM     27  C   UNL A   1      41.017  28.490  29.530  1.00  0.00     0.034 A 
ATOM     28  C   UNL A   1      39.935  32.187  35.420  1.00  0.00     0.034 A 
ATOM     29  C   UNL A   1      41.949  28.235  30.603  1.00  0.00     0.049 A 
ATOM     30  C   UNL A   1      41.062  31.199  35.296  1.00  0.00     0.074 A 
ATOM     31  C   UNL A   1      43.034  27.373  30.619  1.00  0.00     0.029 A 
ATOM     32  N   UNL A   1      41.910  28.837  31.855  1.00  0.00    -0.354 N 
ATOM     33  N   UNL A   1      41.394  30.451  34.269  1.00  0.00    -0.248 NA
ATOM     34  C   UNL A   1      41.928  31.039  36.469  1.00  0.00     0.031 C 
ATOM     35  C   UNL A   1      43.613  27.413  31.893  1.00  0.00     0.029 A 
ATOM     36  C   UNL A   1      42.936  28.352  32.654  1.00  0.00     0.049 A 
ATOM     37  H   UNL A   1      41.250  29.512  32.135  1.00  0.00     0.167 HD
ATOM     38  C   UNL A   1      42.512  29.730  34.675  1.00  0.00     0.074 A 
ATOM     39  C   UNL A   1      42.822  30.172  36.020  1.00  0.00     0.031 C 
ATOM     40  C   UNL A   1      43.213  28.781  34.004  1.00  0.00     0.034 A 
BRANCH  27  41
ATOM     41  C   UNL A   1      41.175  27.720  28.240  1.00  0.00     0.023 A 
ATOM     42  C   UNL A   1      40.807  26.367  28.137  1.00  0.00     0.031 A 
ATOM     43  C   UNL A   1      41.693  28.349  27.093  1.00  0.00     0.131 A 
ATOM     44  C   UNL A   1      41.008  25.674  26.932  1.00  0.00     0.055 A 
ATOM     45  C   UNL A   1      41.827  27.673  25.877  1.00  0.00     0.041 A 
ATOM     46  F   UNL A   1      42.078  29.634  27.134  1.00  0.00    -0.206 F 
ATOM     47  C   UNL A   1      41.494  26.324  25.795  1.00  0.00     0.022 A 
BRANCH  44  48
ATOM     48  S   UNL A   1      40.723  23.884  26.902  1.00  0.00     0.124 S 
ATOM     49  O   UNL A   1      39.321  23.815  26.498  1.00  0.00    -0.237 OA
ATOM     50  O   UNL A   1      41.693  23.426  25.914  1.00  0.00    -0.237 OA
ATOM     51  O   UNL A   1      40.990  23.469  28.278  1.00  0.00    -0.744 OA
ENDBRANCH  44  48
ENDBRANCH  27  41
BRANCH  28  52
ATOM     52  C   UNL A   1      39.690  32.924  36.692  1.00  0.00     0.023 A 
ATOM     53  C   UNL A   1      38.792  32.438  37.654  1.00  0.00     0.031 A 
ATOM     54  C   UNL A   1      40.327  34.153  36.945  1.00  0.00     0.131 A 
ATOM     55  C   UNL A   1      38.520  33.199  38.802  1.00  0.00     0.055 A 
ATOM     56  C   UNL A   1      40.100  34.875  38.116  1.00  0.00     0.041 A 
ATOM     57  F   UNL A   1      41.198  34.662  36.059  1.00  0.00    -0.206 F 
ATOM     58  C   UNL A   1      39.180  34.407  39.046  1.00  0.00     0.022 A 
BRANCH  55  59
ATOM     59  S   UNL A   1      37.212  32.638  39.925  1.00  0.00     0.124 S 
ATOM     60  O   UNL A   1      37.746  31.362  40.391  1.00  0.00    -0.237 OA
ATOM     61  O   UNL A   1      37.178  33.715  40.909  1.00  0.00    -0.237 OA
ATOM     62  O   UNL A   1      36.037  32.546  39.062  1.00  0.00    -0.744 OA
ENDBRANCH  55  59
ENDBRANCH  28  52
BRANCH  40  63
ATOM     63  C   UNL A   1      44.390  28.182  34.731  1.00  0.00     0.023 A 
ATOM     64  C   UNL A   1      44.246  27.043  35.543  1.00  0.00     0.031 A 
ATOM     65  C   UNL A   1      45.655  28.790  34.661  1.00  0.00     0.131 A 
ATOM     66  C   UNL A   1      45.326  26.593  36.314  1.00  0.00     0.055 A 
ATOM     67  C   UNL A   1      46.745  28.297  35.380  1.00  0.00     0.041 A 
ATOM     68  F   UNL A   1      45.850  29.882  33.905  1.00  0.00    -0.206 F 
ATOM     69  C   UNL A   1      46.580  27.204  36.227  1.00  0.00     0.022 A 
BRANCH  66  70
ATOM     70  S   UNL A   1      45.039  25.274  37.526  1.00  0.00     0.124 S 
ATOM     71  O   UNL A   1      43.652  24.908  37.252  1.00  0.00    -0.237 OA
ATOM     72  O   UNL A   1      46.044  24.285  37.154  1.00  0.00    -0.237 OA
ATOM     73  O   UNL A   1      45.264  25.933  38.810  1.00  0.00    -0.744 OA
ENDBRANCH  66  70
ENDBRANCH  40  63
ENDBRANCH  14  15
ENDBRANCH   7   9
ENDBRANCH   4   5
ENDBRANCH   3   4
ENDBRANCH   2   3
ENDBRANCH   1   2
BRANCH   1  74
ATOM     74  C   UNL A   1      32.299  28.257  26.616  1.00  0.00     0.021 C 
BRANCH  74  75
ATOM     75  C   UNL A   1      33.789  28.000  26.429  1.00  0.00     0.116 C 
BRANCH  75  76
ATOM     76  N   UNL A   1      34.296  28.498  25.169  1.00  0.00    -0.356 N 
ATOM     77  C   UNL A   1      33.856  28.239  23.908  1.00  0.00     0.225 C 
ATOM     78  H   UNL A   1      35.064  29.109  25.232  1.00  0.00     0.163 HD
ATOM     79  O   UNL A   1      34.300  28.939  22.996  1.00  0.00    -0.275 OA
BRANCH  77  80
ATOM     80  C   UNL A   1      32.855  27.124  23.659  1.00  0.00     0.107 C 
ATOM     81  C   UNL A   1      33.612  25.828  23.405  1.00  0.00     0.133 C 
ATOM     82  C   UNL A   1      32.035  27.344  22.370  1.00  0.00     0.053 C 
ATOM     83  N   UNL A   1      32.784  25.064  22.496  1.00  0.00    -0.341 N 
ATOM     84  C   UNL A   1      31.877  25.935  21.762  1.00  0.00     0.128 C 
BRANCH  82  85
ATOM     85  C   UNL A   1      30.744  28.089  22.666  1.00  0.00    -0.038 A 
ATOM     86  C   UNL A   1      29.631  27.361  23.154  1.00  0.00     0.008 A 
ATOM     87  C   UNL A   1      30.580  29.457  22.376  1.00  0.00     0.054 A 
ATOM     88  C   UNL A   1      28.376  27.961  23.310  1.00  0.00     0.051 A 
ATOM     89  C   UNL A   1      29.336  30.028  22.562  1.00  0.00     0.166 A 
ATOM     90  C   UNL A   1      28.261  29.295  22.999  1.00  0.00     0.165 A 
ATOM     91  O   UNL A   1      29.012  31.325  22.314  1.00  0.00    -0.454 OA
ATOM     92  O   UNL A   1      27.120  30.030  23.055  1.00  0.00    -0.454 OA
ATOM     93  C   UNL A   1      27.618  31.337  22.705  1.00  0.00     0.468 C 
ENDBRANCH  82  85
BRANCH  83  94
ATOM     94  C   UNL A   1      32.894  23.732  22.176  1.00  0.00     0.222 C 
ATOM     95  O   UNL A   1      33.615  23.333  21.261  1.00  0.00    -0.275 OA
BRANCH  94  96
ATOM     96  C   UNL A   1      32.099  22.727  22.987  1.00  0.00     0.109 C 
BRANCH  96  97
ATOM     97  C   UNL A   1      30.862  23.346  23.625  1.00  0.00     0.125 C 
BRANCH  97  98
ATOM     98  C   UNL A   1      30.995  23.534  25.118  1.00  0.00     0.389 C 
ATOM     99  F   UNL A   1      30.377  22.534  25.786  1.00  0.00    -0.171 F 
ATOM    100  F   UNL A   1      32.297  23.515  25.480  1.00  0.00    -0.171 F 
ATOM    101  F   UNL A   1      30.475  24.704  25.531  1.00  0.00    -0.171 F 
ENDBRANCH  97  98
ENDBRANCH  96  97
ENDBRANCH  94  96
ENDBRANCH  83  94
ENDBRANCH  77  80
ENDBRANCH  75  76
ENDBRANCH  74  75
ENDBRANCH   1  74
TORSDOF 21
ENDMDL
