MODEL 1
REMARK VINA RESULT:     -11.2      0.000      0.000
REMARK SMILES COc1cc(/C=C2/N=C(c3ccccc3)OC2=O)ccc1OCC(=O)NCCCCCCNC(=O)c1ccc(-c2c3nc(c(-c4cc(S(=O)(=O)[O-])ccc4F)c4ccc([nH]4)c(-c4cc(S(=O)(=O)[O-])ccc4F)c4nc(c(-c5cc(S(=O)(=O)[O-])ccc5F)c5ccc2[nH]5)C=C4)C=C3)cc1
REMARK SMILES IDX 29 1 28 2 27 3 26 4 24 5 25 6 23 8 22 9 21 10 3 11 4 12 5 13
REMARK SMILES IDX 20 14 19 15 2 16 1 17 6 18 7 19 8 20 17 21 9 22 16 23 18 24
REMARK SMILES IDX 10 25 11 26 15 27 12 28 14 29 13 30 30 31 31 32 32 33 33 34
REMARK SMILES IDX 34 35 35 37 36 38 37 39 98 40 38 41 97 42 39 43 40 44 41 45
REMARK SMILES IDX 91 46 42 47 96 48 90 49 92 50 43 51 95 52 89 53 88 54 44 56
REMARK SMILES IDX 76 57 56 58 75 59 57 60 60 61 74 62 93 63 58 64 59 65 73 67
REMARK SMILES IDX 94 68 61 69 45 70 46 71 54 72 47 73 53 74 55 75 52 76 48 77
REMARK SMILES IDX 49 78 50 79 51 80 77 81 78 82 86 83 79 84 85 85 87 86 84 87
REMARK SMILES IDX 80 88 81 89 82 90 83 91 62 92 63 93 71 94 64 95 70 96 72 97
REMARK SMILES IDX 69 98 65 99 66 100 67 101 68 102
REMARK H PARENT 26 7 33 36 92 55 60 66
REMARK Flexibility Score: inf
ROOT
ATOM      1  C   UNL A   1      34.274  32.404  27.899  1.00  0.00     0.002 C 
ENDROOT
BRANCH   1   2
ATOM      2  C   UNL A   1      34.694  30.990  28.322  1.00  0.00     0.021 C 
BRANCH   2   3
ATOM      3  C   UNL A   1      34.623  29.927  27.227  1.00  0.00     0.116 C 
BRANCH   3   4
ATOM      4  N   UNL A   1      33.667  30.254  26.191  1.00  0.00    -0.353 N 
ATOM      5  C   UNL A   1      32.376  29.843  26.063  1.00  0.00     0.257 C 
ATOM      6  O   UNL A   1      31.657  30.462  25.272  1.00  0.00    -0.271 OA
ATOM      7  H   UNL A   1      33.995  30.854  25.483  1.00  0.00     0.163 HD
BRANCH   5   8
ATOM      8  C   UNL A   1      31.823  28.703  26.929  1.00  0.00     0.329 C 
BRANCH   8   9
ATOM      9  O   UNL A   1      31.076  27.683  26.302  1.00  0.00    -0.480 OA
BRANCH   9  10
ATOM     10  C   UNL A   1      31.665  26.661  25.620  1.00  0.00     0.161 A 
ATOM     11  C   UNL A   1      31.383  26.159  24.346  1.00  0.00     0.161 A 
ATOM     12  C   UNL A   1      32.065  25.023  23.868  1.00  0.00     0.058 A 
ATOM     13  C   UNL A   1      33.025  24.380  24.663  1.00  0.00    -0.019 A 
ATOM     14  C   UNL A   1      32.652  26.028  26.388  1.00  0.00     0.051 A 
ATOM     15  C   UNL A   1      33.330  24.902  25.920  1.00  0.00     0.012 A 
BRANCH  11  16
ATOM     16  O   UNL A   1      30.318  26.619  23.620  1.00  0.00    -0.493 OA
ATOM     17  C   UNL A   1      30.708  27.484  22.555  1.00  0.00     0.278 C 
ENDBRANCH  11  16
BRANCH  13  18
ATOM     18  C   UNL A   1      33.655  23.123  24.250  1.00  0.00     0.044 C 
ATOM     19  C   UNL A   1      33.275  21.907  24.669  1.00  0.00     0.153 C 
ATOM     20  N   UNL A   1      33.914  20.741  24.315  1.00  0.00    -0.205 NA
ATOM     21  C   UNL A   1      32.109  21.598  25.555  1.00  0.00     0.363 C 
ATOM     22  C   UNL A   1      33.180  19.837  24.878  1.00  0.00     0.231 C 
ATOM     23  O   UNL A   1      32.113  20.237  25.603  1.00  0.00    -0.402 OA
ATOM     24  O   UNL A   1      31.312  22.331  26.107  1.00  0.00    -0.244 OA
BRANCH  22  25
ATOM     25  C   UNL A   1      33.373  18.388  24.868  1.00  0.00     0.037 A 
ATOM     26  C   UNL A   1      32.412  17.563  25.456  1.00  0.00     0.014 A 
ATOM     27  C   UNL A   1      34.516  17.838  24.276  1.00  0.00     0.014 A 
ATOM     28  C   UNL A   1      32.592  16.179  25.442  1.00  0.00     0.001 A 
ATOM     29  C   UNL A   1      34.699  16.455  24.284  1.00  0.00     0.001 A 
ATOM     30  C   UNL A   1      33.736  15.627  24.862  1.00  0.00     0.000 A 
ENDBRANCH  22  25
ENDBRANCH  13  18
ENDBRANCH   9  10
ENDBRANCH   8   9
ENDBRANCH   5   8
ENDBRANCH   3   4
ENDBRANCH   2   3
ENDBRANCH   1   2
BRANCH   1  31
ATOM     31  C   UNL A   1      34.214  33.450  29.015  1.00  0.00     0.002 C 
BRANCH  31  32
ATOM     32  C   UNL A   1      33.241  34.606  28.787  1.00  0.00     0.021 C 
BRANCH  32  33
ATOM     33  C   UNL A   1      33.558  35.873  29.567  1.00  0.00     0.116 C 
BRANCH  33  34
ATOM     34  N   UNL A   1      32.594  36.121  30.625  1.00  0.00    -0.352 N 
ATOM     35  C   UNL A   1      32.600  35.661  31.920  1.00  0.00     0.251 C 
ATOM     36  H   UNL A   1      31.833  36.695  30.382  1.00  0.00     0.163 HD
ATOM     37  O   UNL A   1      31.601  35.796  32.620  1.00  0.00    -0.269 OA
BRANCH  35  38
ATOM     38  C   UNL A   1      33.802  34.978  32.448  1.00  0.00     0.039 A 
ATOM     39  C   UNL A   1      33.670  33.702  32.997  1.00  0.00     0.014 A 
ATOM     40  C   UNL A   1      35.058  35.589  32.388  1.00  0.00     0.014 A 
ATOM     41  C   UNL A   1      34.807  33.013  33.426  1.00  0.00     0.010 A 
ATOM     42  C   UNL A   1      36.198  34.870  32.736  1.00  0.00     0.010 A 
ATOM     43  C   UNL A   1      36.086  33.575  33.265  1.00  0.00    -0.014 A 
BRANCH  43  44
ATOM     44  C   UNL A   1      37.311  32.827  33.654  1.00  0.00     0.031 A 
ATOM     45  C   UNL A   1      38.074  33.222  34.891  1.00  0.00     0.074 A 
ATOM     46  C   UNL A   1      37.759  31.820  32.877  1.00  0.00     0.049 A 
ATOM     47  N   UNL A   1      39.198  32.743  35.359  1.00  0.00    -0.248 NA
ATOM     48  C   UNL A   1      37.509  34.320  35.692  1.00  0.00     0.031 C 
ATOM     49  C   UNL A   1      37.123  31.361  31.639  1.00  0.00     0.029 A 
ATOM     50  N   UNL A   1      38.854  31.002  33.005  1.00  0.00    -0.354 N 
ATOM     51  C   UNL A   1      39.471  33.474  36.511  1.00  0.00     0.074 A 
ATOM     52  C   UNL A   1      38.437  34.481  36.622  1.00  0.00     0.031 C 
ATOM     53  C   UNL A   1      37.819  30.327  31.144  1.00  0.00     0.029 A 
ATOM     54  C   UNL A   1      38.983  30.083  31.988  1.00  0.00     0.049 A 
ATOM     55  H   UNL A   1      39.489  31.068  33.755  1.00  0.00     0.167 HD
ATOM     56  C   UNL A   1      40.470  33.300  37.410  1.00  0.00     0.034 A 
ATOM     57  C   UNL A   1      39.940  29.161  31.755  1.00  0.00     0.034 A 
ATOM     58  C   UNL A   1      41.496  32.294  37.286  1.00  0.00     0.049 A 
ATOM     59  C   UNL A   1      41.084  29.038  32.734  1.00  0.00     0.074 A 
ATOM     60  C   UNL A   1      42.546  32.022  38.146  1.00  0.00     0.029 A 
ATOM     61  N   UNL A   1      41.605  31.395  36.233  1.00  0.00    -0.354 N 
ATOM     62  N   UNL A   1      41.305  29.715  33.838  1.00  0.00    -0.248 NA
ATOM     63  C   UNL A   1      42.101  28.019  32.443  1.00  0.00     0.031 C 
ATOM     64  C   UNL A   1      43.328  31.012  37.580  1.00  0.00     0.029 A 
ATOM     65  C   UNL A   1      42.720  30.590  36.409  1.00  0.00     0.049 A 
ATOM     66  H   UNL A   1      40.983  31.339  35.472  1.00  0.00     0.167 HD
ATOM     67  C   UNL A   1      42.463  29.171  34.390  1.00  0.00     0.074 A 
ATOM     68  C   UNL A   1      42.879  28.101  33.510  1.00  0.00     0.031 C 
ATOM     69  C   UNL A   1      43.122  29.522  35.524  1.00  0.00     0.034 A 
BRANCH  56  70
ATOM     70  C   UNL A   1      40.502  34.228  38.602  1.00  0.00     0.023 A 
ATOM     71  C   UNL A   1      39.827  33.913  39.794  1.00  0.00     0.031 A 
ATOM     72  C   UNL A   1      41.202  35.446  38.547  1.00  0.00     0.131 A 
ATOM     73  C   UNL A   1      39.804  34.831  40.853  1.00  0.00     0.055 A 
ATOM     74  C   UNL A   1      41.248  36.318  39.637  1.00  0.00     0.041 A 
ATOM     75  F   UNL A   1      41.846  35.815  37.429  1.00  0.00    -0.206 F 
ATOM     76  C   UNL A   1      40.535  36.020  40.794  1.00  0.00     0.022 A 
BRANCH  73  77
ATOM     77  S   UNL A   1      38.691  34.516  42.248  1.00  0.00     0.124 S 
ATOM     78  O   UNL A   1      39.492  34.986  43.376  1.00  0.00    -0.237 OA
ATOM     79  O   UNL A   1      37.525  35.324  41.912  1.00  0.00    -0.237 OA
ATOM     80  O   UNL A   1      38.484  33.070  42.201  1.00  0.00    -0.744 OA
ENDBRANCH  73  77
ENDBRANCH  56  70
BRANCH  57  81
ATOM     81  C   UNL A   1      39.887  28.290  30.543  1.00  0.00     0.023 A 
ATOM     82  C   UNL A   1      40.582  28.638  29.372  1.00  0.00     0.031 A 
ATOM     83  C   UNL A   1      39.073  27.144  30.505  1.00  0.00     0.131 A 
ATOM     84  C   UNL A   1      40.389  27.898  28.197  1.00  0.00     0.055 A 
ATOM     85  C   UNL A   1      38.943  26.367  29.352  1.00  0.00     0.041 A 
ATOM     86  F   UNL A   1      38.384  26.763  31.591  1.00  0.00    -0.206 F 
ATOM     87  C   UNL A   1      39.587  26.755  28.182  1.00  0.00     0.022 A 
BRANCH  84  88
ATOM     88  S   UNL A   1      41.087  28.537  26.648  1.00  0.00     0.124 S 
ATOM     89  O   UNL A   1      41.408  27.303  25.940  1.00  0.00    -0.237 OA
ATOM     90  O   UNL A   1      39.975  29.315  26.113  1.00  0.00    -0.237 OA
ATOM     91  O   UNL A   1      42.238  29.319  27.094  1.00  0.00    -0.744 OA
ENDBRANCH  84  88
ENDBRANCH  57  81
BRANCH  69  92
ATOM     92  C   UNL A   1      44.328  28.695  35.905  1.00  0.00     0.023 A 
ATOM     93  C   UNL A   1      44.205  27.458  36.560  1.00  0.00     0.031 A 
ATOM     94  C   UNL A   1      45.623  29.162  35.615  1.00  0.00     0.131 A 
ATOM     95  C   UNL A   1      45.354  26.761  36.961  1.00  0.00     0.055 A 
ATOM     96  C   UNL A   1      46.762  28.431  35.952  1.00  0.00     0.041 A 
ATOM     97  F   UNL A   1      45.803  30.338  34.993  1.00  0.00    -0.206 F 
ATOM     98  C   UNL A   1      46.632  27.229  36.643  1.00  0.00     0.022 A 
BRANCH  95  99
ATOM     99  S   UNL A   1      45.162  25.284  37.996  1.00  0.00     0.124 S 
ATOM    100  O   UNL A   1      44.217  24.489  37.216  1.00  0.00    -0.237 OA
ATOM    101  O   UNL A   1      46.525  24.769  38.062  1.00  0.00    -0.237 OA
ATOM    102  O   UNL A   1      44.637  25.812  39.254  1.00  0.00    -0.744 OA
ENDBRANCH  95  99
ENDBRANCH  69  92
ENDBRANCH  43  44
ENDBRANCH  35  38
ENDBRANCH  33  34
ENDBRANCH  32  33
ENDBRANCH  31  32
ENDBRANCH   1  31
TORSDOF 21
ENDMDL
MODEL 2
REMARK VINA RESULT:     -11.2      6.002     11.538
REMARK SMILES COc1cc(/C=C2/N=C(c3ccccc3)OC2=O)ccc1OCC(=O)NCCCCCCNC(=O)c1ccc(-c2c3nc(c(-c4cc(S(=O)(=O)[O-])ccc4F)c4ccc([nH]4)c(-c4cc(S(=O)(=O)[O-])ccc4F)c4nc(c(-c5cc(S(=O)(=O)[O-])ccc5F)c5ccc2[nH]5)C=C4)C=C3)cc1
REMARK SMILES IDX 29 1 28 2 27 3 26 4 24 5 25 6 23 8 22 9 21 10 3 11 4 12 5 13
REMARK SMILES IDX 20 14 19 15 2 16 1 17 6 18 7 19 8 20 17 21 9 22 16 23 18 24
REMARK SMILES IDX 10 25 11 26 15 27 12 28 14 29 13 30 30 31 31 32 32 33 33 34
REMARK SMILES IDX 34 35 35 37 36 38 37 39 98 40 38 41 97 42 39 43 40 44 41 45
REMARK SMILES IDX 91 46 42 47 96 48 90 49 92 50 43 51 95 52 89 53 88 54 44 56
REMARK SMILES IDX 76 57 56 58 75 59 57 60 60 61 74 62 93 63 58 64 59 65 73 67
REMARK SMILES IDX 94 68 61 69 45 70 46 71 54 72 47 73 53 74 55 75 52 76 48 77
REMARK SMILES IDX 49 78 50 79 51 80 77 81 78 82 86 83 79 84 85 85 87 86 84 87
REMARK SMILES IDX 80 88 81 89 82 90 83 91 62 92 63 93 71 94 64 95 70 96 72 97
REMARK SMILES IDX 69 98 65 99 66 100 67 101 68 102
REMARK H PARENT 26 7 33 36 92 55 60 66
REMARK Flexibility Score: inf
ROOT
ATOM      1  C   UNL A   1      35.282  21.235  24.625  1.00  0.00     0.002 C 
ENDROOT
BRANCH   1   2
ATOM      2  C   UNL A   1      34.374  20.039  24.941  1.00  0.00     0.021 C 
BRANCH   2   3
ATOM      3  C   UNL A   1      32.902  20.216  24.574  1.00  0.00     0.116 C 
BRANCH   3   4
ATOM      4  N   UNL A   1      32.155  20.933  25.586  1.00  0.00    -0.353 N 
ATOM      5  C   UNL A   1      31.730  22.226  25.575  1.00  0.00     0.257 C 
ATOM      6  O   UNL A   1      30.870  22.549  26.400  1.00  0.00    -0.271 OA
ATOM      7  H   UNL A   1      31.925  20.416  26.391  1.00  0.00     0.163 HD
BRANCH   5   8
ATOM      8  C   UNL A   1      32.248  23.216  24.523  1.00  0.00     0.329 C 
BRANCH   8   9
ATOM      9  O   UNL A   1      31.345  24.155  23.979  1.00  0.00    -0.480 OA
BRANCH   9  10
ATOM     10  C   UNL A   1      31.483  25.496  24.173  1.00  0.00     0.161 A 
ATOM     11  C   UNL A   1      32.229  26.431  23.450  1.00  0.00     0.161 A 
ATOM     12  C   UNL A   1      32.301  27.768  23.887  1.00  0.00     0.058 A 
ATOM     13  C   UNL A   1      31.635  28.175  25.051  1.00  0.00    -0.019 A 
ATOM     14  C   UNL A   1      30.794  25.927  25.316  1.00  0.00     0.051 A 
ATOM     15  C   UNL A   1      30.862  27.249  25.753  1.00  0.00     0.012 A 
BRANCH  11  16
ATOM     16  O   UNL A   1      33.060  26.043  22.433  1.00  0.00    -0.493 OA
ATOM     17  C   UNL A   1      32.362  25.796  21.214  1.00  0.00     0.278 C 
ENDBRANCH  11  16
BRANCH  13  18
ATOM     18  C   UNL A   1      31.796  29.522  25.604  1.00  0.00     0.044 C 
ATOM     19  C   UNL A   1      32.766  29.885  26.456  1.00  0.00     0.153 C 
ATOM     20  N   UNL A   1      32.870  31.141  27.009  1.00  0.00    -0.205 NA
ATOM     21  C   UNL A   1      33.896  29.026  26.931  1.00  0.00     0.363 C 
ATOM     22  C   UNL A   1      33.966  31.057  27.691  1.00  0.00     0.231 C 
ATOM     23  O   UNL A   1      34.630  29.881  27.696  1.00  0.00    -0.402 OA
ATOM     24  O   UNL A   1      34.156  27.859  26.712  1.00  0.00    -0.244 OA
BRANCH  22  25
ATOM     25  C   UNL A   1      34.589  32.088  28.518  1.00  0.00     0.037 A 
ATOM     26  C   UNL A   1      34.743  31.869  29.889  1.00  0.00     0.014 A 
ATOM     27  C   UNL A   1      35.023  33.285  27.936  1.00  0.00     0.014 A 
ATOM     28  C   UNL A   1      35.344  32.850  30.679  1.00  0.00     0.001 A 
ATOM     29  C   UNL A   1      35.605  34.269  28.736  1.00  0.00     0.001 A 
ATOM     30  C   UNL A   1      35.769  34.050  30.104  1.00  0.00     0.000 A 
ENDBRANCH  22  25
ENDBRANCH  13  18
ENDBRANCH   9  10
ENDBRANCH   8   9
ENDBRANCH   5   8
ENDBRANCH   3   4
ENDBRANCH   2   3
ENDBRANCH   1   2
BRANCH   1  31
ATOM     31  C   UNL A   1      36.529  21.383  25.502  1.00  0.00     0.002 C 
BRANCH  31  32
ATOM     32  C   UNL A   1      37.648  20.378  25.236  1.00  0.00     0.021 C 
BRANCH  32  33
ATOM     33  C   UNL A   1      39.025  20.809  25.720  1.00  0.00     0.116 C 
BRANCH  33  34
ATOM     34  N   UNL A   1      39.941  19.688  25.835  1.00  0.00    -0.352 N 
ATOM     35  C   UNL A   1      41.303  19.704  26.020  1.00  0.00     0.251 C 
ATOM     36  H   UNL A   1      39.531  18.795  25.771  1.00  0.00     0.163 HD
ATOM     37  O   UNL A   1      41.949  18.670  25.887  1.00  0.00    -0.269 OA
BRANCH  35  38
ATOM     38  C   UNL A   1      41.981  20.978  26.347  1.00  0.00     0.039 A 
ATOM     39  C   UNL A   1      42.387  21.815  25.307  1.00  0.00     0.014 A 
ATOM     40  C   UNL A   1      42.202  21.352  27.676  1.00  0.00     0.014 A 
ATOM     41  C   UNL A   1      42.957  23.056  25.602  1.00  0.00     0.010 A 
ATOM     42  C   UNL A   1      42.690  22.623  27.968  1.00  0.00     0.010 A 
ATOM     43  C   UNL A   1      43.078  23.489  26.934  1.00  0.00    -0.014 A 
BRANCH  43  44
ATOM     44  C   UNL A   1      43.620  24.834  27.261  1.00  0.00     0.031 A 
ATOM     45  C   UNL A   1      42.702  25.909  27.782  1.00  0.00     0.074 A 
ATOM     46  C   UNL A   1      44.925  25.102  27.055  1.00  0.00     0.049 A 
ATOM     47  N   UNL A   1      42.965  27.160  28.058  1.00  0.00    -0.248 NA
ATOM     48  C   UNL A   1      41.296  25.531  27.995  1.00  0.00     0.031 C 
ATOM     49  C   UNL A   1      45.909  24.153  26.529  1.00  0.00     0.029 A 
ATOM     50  N   UNL A   1      45.651  26.250  27.256  1.00  0.00    -0.354 N 
ATOM     51  C   UNL A   1      41.763  27.716  28.484  1.00  0.00     0.074 A 
ATOM     52  C   UNL A   1      40.756  26.686  28.350  1.00  0.00     0.031 C 
ATOM     53  C   UNL A   1      47.111  24.746  26.480  1.00  0.00     0.029 A 
ATOM     54  C   UNL A   1      46.980  26.133  26.913  1.00  0.00     0.049 A 
ATOM     55  H   UNL A   1      45.258  27.079  27.611  1.00  0.00     0.167 HD
ATOM     56  C   UNL A   1      41.527  28.958  28.973  1.00  0.00     0.034 A 
ATOM     57  C   UNL A   1      47.974  27.045  26.929  1.00  0.00     0.034 A 
ATOM     58  C   UNL A   1      42.540  29.977  29.099  1.00  0.00     0.049 A 
ATOM     59  C   UNL A   1      47.667  28.445  27.408  1.00  0.00     0.074 A 
ATOM     60  C   UNL A   1      42.412  31.264  29.593  1.00  0.00     0.029 A 
ATOM     61  N   UNL A   1      43.868  29.829  28.722  1.00  0.00    -0.354 N 
ATOM     62  N   UNL A   1      46.530  28.941  27.841  1.00  0.00    -0.248 NA
ATOM     63  C   UNL A   1      48.779  29.404  27.412  1.00  0.00     0.031 C 
ATOM     64  C   UNL A   1      43.641  31.915  29.449  1.00  0.00     0.029 A 
ATOM     65  C   UNL A   1      44.561  31.009  28.948  1.00  0.00     0.049 A 
ATOM     66  H   UNL A   1      44.261  29.007  28.348  1.00  0.00     0.167 HD
ATOM     67  C   UNL A   1      46.806  30.256  28.207  1.00  0.00     0.074 A 
ATOM     68  C   UNL A   1      48.217  30.467  27.963  1.00  0.00     0.031 C 
ATOM     69  C   UNL A   1      45.971  31.205  28.703  1.00  0.00     0.034 A 
BRANCH  56  70
ATOM     70  C   UNL A   1      40.114  29.281  29.398  1.00  0.00     0.023 A 
ATOM     71  C   UNL A   1      39.729  29.243  30.749  1.00  0.00     0.031 A 
ATOM     72  C   UNL A   1      39.135  29.619  28.446  1.00  0.00     0.131 A 
ATOM     73  C   UNL A   1      38.392  29.465  31.106  1.00  0.00     0.055 A 
ATOM     74  C   UNL A   1      37.824  29.925  28.816  1.00  0.00     0.041 A 
ATOM     75  F   UNL A   1      39.435  29.649  27.139  1.00  0.00    -0.206 F 
ATOM     76  C   UNL A   1      37.441  29.835  30.152  1.00  0.00     0.022 A 
BRANCH  73  77
ATOM     77  S   UNL A   1      37.883  29.122  32.812  1.00  0.00     0.124 S 
ATOM     78  O   UNL A   1      36.630  29.869  32.901  1.00  0.00    -0.237 OA
ATOM     79  O   UNL A   1      37.762  27.670  32.821  1.00  0.00    -0.237 OA
ATOM     80  O   UNL A   1      38.980  29.663  33.612  1.00  0.00    -0.744 OA
ENDBRANCH  73  77
ENDBRANCH  56  70
BRANCH  57  81
ATOM     81  C   UNL A   1      49.348  26.692  26.463  1.00  0.00     0.023 A 
ATOM     82  C   UNL A   1      49.851  27.191  25.250  1.00  0.00     0.031 A 
ATOM     83  C   UNL A   1      50.146  25.780  27.177  1.00  0.00     0.131 A 
ATOM     84  C   UNL A   1      51.073  26.718  24.750  1.00  0.00     0.055 A 
ATOM     85  C   UNL A   1      51.398  25.371  26.712  1.00  0.00     0.041 A 
ATOM     86  F   UNL A   1      49.719  25.268  28.342  1.00  0.00    -0.206 F 
ATOM     87  C   UNL A   1      51.858  25.824  25.480  1.00  0.00     0.022 A 
BRANCH  84  88
ATOM     88  S   UNL A   1      51.554  27.179  23.062  1.00  0.00     0.124 S 
ATOM     89  O   UNL A   1      50.372  26.787  22.303  1.00  0.00    -0.237 OA
ATOM     90  O   UNL A   1      51.785  28.613  23.195  1.00  0.00    -0.237 OA
ATOM     91  O   UNL A   1      52.749  26.374  22.819  1.00  0.00    -0.744 OA
ENDBRANCH  84  88
ENDBRANCH  57  81
BRANCH  69  92
ATOM     92  C   UNL A   1      46.581  32.537  29.072  1.00  0.00     0.023 A 
ATOM     93  C   UNL A   1      46.641  33.606  28.162  1.00  0.00     0.031 A 
ATOM     94  C   UNL A   1      47.120  32.734  30.357  1.00  0.00     0.131 A 
ATOM     95  C   UNL A   1      47.283  34.799  28.525  1.00  0.00     0.055 A 
ATOM     96  C   UNL A   1      47.693  33.947  30.737  1.00  0.00     0.041 A 
ATOM     97  F   UNL A   1      47.093  31.748  31.268  1.00  0.00    -0.206 F 
ATOM     98  C   UNL A   1      47.791  34.983  29.814  1.00  0.00     0.022 A 
BRANCH  95  99
ATOM     99  S   UNL A   1      47.540  36.072  27.259  1.00  0.00     0.124 S 
ATOM    100  O   UNL A   1      46.797  35.526  26.126  1.00  0.00    -0.237 OA
ATOM    101  O   UNL A   1      46.964  37.257  27.886  1.00  0.00    -0.237 OA
ATOM    102  O   UNL A   1      48.991  36.103  27.092  1.00  0.00    -0.744 OA
ENDBRANCH  95  99
ENDBRANCH  69  92
ENDBRANCH  43  44
ENDBRANCH  35  38
ENDBRANCH  33  34
ENDBRANCH  32  33
ENDBRANCH  31  32
ENDBRANCH   1  31
TORSDOF 21
ENDMDL
MODEL 3
REMARK VINA RESULT:     -11.1      0.688      7.408
REMARK SMILES COc1cc(/C=C2/N=C(c3ccccc3)OC2=O)ccc1OCC(=O)NCCCCCCNC(=O)c1ccc(-c2c3nc(c(-c4cc(S(=O)(=O)[O-])ccc4F)c4ccc([nH]4)c(-c4cc(S(=O)(=O)[O-])ccc4F)c4nc(c(-c5cc(S(=O)(=O)[O-])ccc5F)c5ccc2[nH]5)C=C4)C=C3)cc1
REMARK SMILES IDX 29 1 28 2 27 3 26 4 24 5 25 6 23 8 22 9 21 10 3 11 4 12 5 13
REMARK SMILES IDX 20 14 19 15 2 16 1 17 6 18 7 19 8 20 17 21 9 22 16 23 18 24
REMARK SMILES IDX 10 25 11 26 15 27 12 28 14 29 13 30 30 31 31 32 32 33 33 34
REMARK SMILES IDX 34 35 35 37 36 38 37 39 98 40 38 41 97 42 39 43 40 44 41 45
REMARK SMILES IDX 91 46 42 47 96 48 90 49 92 50 43 51 95 52 89 53 88 54 44 56
REMARK SMILES IDX 76 57 56 58 75 59 57 60 60 61 74 62 93 63 58 64 59 65 73 67
REMARK SMILES IDX 94 68 61 69 45 70 46 71 54 72 47 73 53 74 55 75 52 76 48 77
REMARK SMILES IDX 49 78 50 79 51 80 77 81 78 82 86 83 79 84 85 85 87 86 84 87
REMARK SMILES IDX 80 88 81 89 82 90 83 91 62 92 63 93 71 94 64 95 70 96 72 97
REMARK SMILES IDX 69 98 65 99 66 100 67 101 68 102
REMARK H PARENT 26 7 33 36 92 55 60 66
REMARK Flexibility Score: inf
ROOT
ATOM      1  C   UNL A   1      33.908  32.340  28.057  1.00  0.00     0.002 C 
ENDROOT
BRANCH   1   2
ATOM      2  C   UNL A   1      35.056  31.364  27.768  1.00  0.00     0.021 C 
BRANCH   2   3
ATOM      3  C   UNL A   1      34.636  29.934  27.433  1.00  0.00     0.116 C 
BRANCH   3   4
ATOM      4  N   UNL A   1      34.236  29.777  26.051  1.00  0.00    -0.353 N 
ATOM      5  C   UNL A   1      33.015  29.443  25.550  1.00  0.00     0.257 C 
ATOM      6  O   UNL A   1      32.820  29.644  24.347  1.00  0.00    -0.271 OA
ATOM      7  H   UNL A   1      34.943  29.932  25.384  1.00  0.00     0.163 HD
BRANCH   5   8
ATOM      8  C   UNL A   1      31.907  28.910  26.467  1.00  0.00     0.329 C 
BRANCH   8   9
ATOM      9  O   UNL A   1      31.194  27.761  26.064  1.00  0.00    -0.480 OA
BRANCH   9  10
ATOM     10  C   UNL A   1      31.800  26.701  25.459  1.00  0.00     0.161 A 
ATOM     11  C   UNL A   1      31.557  26.130  24.206  1.00  0.00     0.161 A 
ATOM     12  C   UNL A   1      32.248  24.967  23.815  1.00  0.00     0.058 A 
ATOM     13  C   UNL A   1      33.178  24.366  24.675  1.00  0.00    -0.019 A 
ATOM     14  C   UNL A   1      32.758  26.108  26.293  1.00  0.00     0.051 A 
ATOM     15  C   UNL A   1      33.444  24.956  25.911  1.00  0.00     0.012 A 
BRANCH  11  16
ATOM     16  O   UNL A   1      30.518  26.553  23.422  1.00  0.00    -0.493 OA
ATOM     17  C   UNL A   1      30.955  27.245  22.253  1.00  0.00     0.278 C 
ENDBRANCH  11  16
BRANCH  13  18
ATOM     18  C   UNL A   1      33.815  23.085  24.353  1.00  0.00     0.044 C 
ATOM     19  C   UNL A   1      33.303  21.883  24.654  1.00  0.00     0.153 C 
ATOM     20  N   UNL A   1      33.941  20.692  24.394  1.00  0.00    -0.205 NA
ATOM     21  C   UNL A   1      31.973  21.619  25.288  1.00  0.00     0.363 C 
ATOM     22  C   UNL A   1      33.069  19.817  24.777  1.00  0.00     0.231 C 
ATOM     23  O   UNL A   1      31.902  20.258  25.295  1.00  0.00    -0.402 OA
ATOM     24  O   UNL A   1      31.121  22.382  25.699  1.00  0.00    -0.244 OA
BRANCH  22  25
ATOM     25  C   UNL A   1      33.191  18.361  24.760  1.00  0.00     0.037 A 
ATOM     26  C   UNL A   1      34.080  17.756  23.868  1.00  0.00     0.014 A 
ATOM     27  C   UNL A   1      32.417  17.583  25.629  1.00  0.00     0.014 A 
ATOM     28  C   UNL A   1      34.202  16.366  23.855  1.00  0.00     0.001 A 
ATOM     29  C   UNL A   1      32.529  16.193  25.595  1.00  0.00     0.001 A 
ATOM     30  C   UNL A   1      33.424  15.586  24.712  1.00  0.00     0.000 A 
ENDBRANCH  22  25
ENDBRANCH  13  18
ENDBRANCH   9  10
ENDBRANCH   8   9
ENDBRANCH   5   8
ENDBRANCH   3   4
ENDBRANCH   2   3
ENDBRANCH   1   2
BRANCH   1  31
ATOM     31  C   UNL A   1      34.304  33.807  28.247  1.00  0.00     0.002 C 
BRANCH  31  32
ATOM     32  C   UNL A   1      33.147  34.783  28.453  1.00  0.00     0.021 C 
BRANCH  32  33
ATOM     33  C   UNL A   1      33.452  35.953  29.377  1.00  0.00     0.116 C 
BRANCH  33  34
ATOM     34  N   UNL A   1      32.553  36.002  30.515  1.00  0.00    -0.352 N 
ATOM     35  C   UNL A   1      32.673  35.380  31.735  1.00  0.00     0.251 C 
ATOM     36  H   UNL A   1      31.747  36.554  30.398  1.00  0.00     0.163 HD
ATOM     37  O   UNL A   1      31.720  35.362  32.507  1.00  0.00    -0.269 OA
BRANCH  35  38
ATOM     38  C   UNL A   1      33.944  34.711  32.092  1.00  0.00     0.039 A 
ATOM     39  C   UNL A   1      35.089  35.487  32.276  1.00  0.00     0.014 A 
ATOM     40  C   UNL A   1      34.002  33.324  32.258  1.00  0.00     0.014 A 
ATOM     41  C   UNL A   1      36.277  34.879  32.690  1.00  0.00     0.010 A 
ATOM     42  C   UNL A   1      35.162  32.732  32.752  1.00  0.00     0.010 A 
ATOM     43  C   UNL A   1      36.315  33.501  32.969  1.00  0.00    -0.014 A 
BRANCH  43  44
ATOM     44  C   UNL A   1      37.552  32.851  33.475  1.00  0.00     0.031 A 
ATOM     45  C   UNL A   1      38.215  31.764  32.672  1.00  0.00     0.074 A 
ATOM     46  C   UNL A   1      38.058  33.210  34.673  1.00  0.00     0.049 A 
ATOM     47  N   UNL A   1      39.255  31.029  32.971  1.00  0.00    -0.248 NA
ATOM     48  C   UNL A   1      37.610  31.444  31.369  1.00  0.00     0.031 C 
ATOM     49  C   UNL A   1      37.491  34.231  35.557  1.00  0.00     0.029 A 
ATOM     50  N   UNL A   1      39.158  32.757  35.358  1.00  0.00    -0.354 N 
ATOM     51  C   UNL A   1      39.434  30.167  31.894  1.00  0.00     0.074 A 
ATOM     52  C   UNL A   1      38.345  30.416  30.974  1.00  0.00     0.031 C 
ATOM     53  C   UNL A   1      38.264  34.347  36.648  1.00  0.00     0.029 A 
ATOM     54  C   UNL A   1      39.348  33.373  36.575  1.00  0.00     0.049 A 
ATOM     55  H   UNL A   1      39.756  32.055  35.011  1.00  0.00     0.167 HD
ATOM     56  C   UNL A   1      40.431  29.275  31.676  1.00  0.00     0.034 A 
ATOM     57  C   UNL A   1      40.277  33.163  37.529  1.00  0.00     0.034 A 
ATOM     58  C   UNL A   1      41.509  29.034  32.603  1.00  0.00     0.049 A 
ATOM     59  C   UNL A   1      41.334  32.109  37.294  1.00  0.00     0.074 A 
ATOM     60  C   UNL A   1      42.578  28.163  32.476  1.00  0.00     0.029 A 
ATOM     61  N   UNL A   1      41.656  29.661  33.834  1.00  0.00    -0.354 N 
ATOM     62  N   UNL A   1      41.507  31.328  36.252  1.00  0.00    -0.248 NA
ATOM     63  C   UNL A   1      42.329  31.917  38.358  1.00  0.00     0.031 C 
ATOM     64  C   UNL A   1      43.327  28.211  33.655  1.00  0.00     0.029 A 
ATOM     65  C   UNL A   1      42.780  29.176  34.484  1.00  0.00     0.049 A 
ATOM     66  H   UNL A   1      41.050  30.349  34.192  1.00  0.00     0.167 HD
ATOM     67  C   UNL A   1      42.655  30.586  36.522  1.00  0.00     0.074 A 
ATOM     68  C   UNL A   1      43.140  31.026  37.812  1.00  0.00     0.031 C 
ATOM     69  C   UNL A   1      43.255  29.627  35.772  1.00  0.00     0.034 A 
BRANCH  56  70
ATOM     70  C   UNL A   1      40.391  28.488  30.387  1.00  0.00     0.023 A 
ATOM     71  C   UNL A   1      41.261  28.783  29.323  1.00  0.00     0.031 A 
ATOM     72  C   UNL A   1      39.469  27.442  30.211  1.00  0.00     0.131 A 
ATOM     73  C   UNL A   1      41.144  28.093  28.108  1.00  0.00     0.055 A 
ATOM     74  C   UNL A   1      39.417  26.699  29.029  1.00  0.00     0.041 A 
ATOM     75  F   UNL A   1      38.597  27.128  31.181  1.00  0.00    -0.206 F 
ATOM     76  C   UNL A   1      40.248  27.032  27.963  1.00  0.00     0.022 A 
BRANCH  73  77
ATOM     77  S   UNL A   1      42.079  28.696  26.677  1.00  0.00     0.124 S 
ATOM     78  O   UNL A   1      42.910  27.537  26.359  1.00  0.00    -0.237 OA
ATOM     79  O   UNL A   1      41.026  29.008  25.719  1.00  0.00    -0.237 OA
ATOM     80  O   UNL A   1      42.806  29.849  27.203  1.00  0.00    -0.744 OA
ENDBRANCH  73  77
ENDBRANCH  56  70
BRANCH  57  81
ATOM     81  C   UNL A   1      40.255  33.938  38.806  1.00  0.00     0.023 A 
ATOM     82  C   UNL A   1      39.357  33.610  39.835  1.00  0.00     0.031 A 
ATOM     83  C   UNL A   1      41.068  35.072  38.983  1.00  0.00     0.131 A 
ATOM     84  C   UNL A   1      39.237  34.447  40.954  1.00  0.00     0.055 A 
ATOM     85  C   UNL A   1      40.999  35.859  40.134  1.00  0.00     0.041 A 
ATOM     86  F   UNL A   1      41.945  35.435  38.034  1.00  0.00    -0.206 F 
ATOM     87  C   UNL A   1      40.063  35.561  41.119  1.00  0.00     0.022 A 
BRANCH  84  88
ATOM     88  S   UNL A   1      37.883  34.140  42.123  1.00  0.00     0.124 S 
ATOM     89  O   UNL A   1      37.720  35.454  42.735  1.00  0.00    -0.237 OA
ATOM     90  O   UNL A   1      36.810  33.707  41.236  1.00  0.00    -0.237 OA
ATOM     91  O   UNL A   1      38.423  33.104  43.001  1.00  0.00    -0.744 OA
ENDBRANCH  84  88
ENDBRANCH  57  81
BRANCH  69  92
ATOM     92  C   UNL A   1      44.541  29.038  36.304  1.00  0.00     0.023 A 
ATOM     93  C   UNL A   1      44.547  27.977  37.225  1.00  0.00     0.031 A 
ATOM     94  C   UNL A   1      45.780  29.557  35.887  1.00  0.00     0.131 A 
ATOM     95  C   UNL A   1      45.763  27.512  37.748  1.00  0.00     0.055 A 
ATOM     96  C   UNL A   1      46.989  29.044  36.356  1.00  0.00     0.041 A 
ATOM     97  F   UNL A   1      45.836  30.573  35.011  1.00  0.00    -0.206 F 
ATOM     98  C   UNL A   1      46.985  28.025  37.304  1.00  0.00     0.022 A 
BRANCH  95  99
ATOM     99  S   UNL A   1      45.725  26.298  39.095  1.00  0.00     0.124 S 
ATOM    100  O   UNL A   1      45.651  25.037  38.364  1.00  0.00    -0.237 OA
ATOM    101  O   UNL A   1      46.984  26.560  39.787  1.00  0.00    -0.237 OA
ATOM    102  O   UNL A   1      44.522  26.653  39.844  1.00  0.00    -0.744 OA
ENDBRANCH  95  99
ENDBRANCH  69  92
ENDBRANCH  43  44
ENDBRANCH  35  38
ENDBRANCH  33  34
ENDBRANCH  32  33
ENDBRANCH  31  32
ENDBRANCH   1  31
TORSDOF 21
ENDMDL
