MODEL 1
REMARK VINA RESULT:     -11.5      0.000      0.000
REMARK SMILES COc1cccc(-c2cccnc2C(=O)NCCCCCCNC(=O)c2ccc(-c3c4nc(c(-c5cc(S(=O)(=O)[O-])ccc5F)c5ccc([nH]5)c(-c5cc(S(=O)(=O)[O-])ccc5F)c5nc(c(-c6cc(S(=O)(=O)[O-])ccc6F)c6ccc3[nH]6)C=C5)C=C4)cc2)c1F
REMARK SMILES IDX 20 1 19 2 18 3 17 4 16 5 14 6 15 7 13 9 8 10 9 11 10 12
REMARK SMILES IDX 12 13 11 14 7 15 3 16 4 17 89 18 5 19 90 20 6 21 2 22 1 23
REMARK SMILES IDX 21 24 22 25 23 26 24 27 25 29 26 30 27 31 88 32 28 33 87 34
REMARK SMILES IDX 29 35 30 36 31 37 81 38 32 39 86 40 80 41 82 42 33 43 85 44
REMARK SMILES IDX 79 45 78 46 34 48 66 49 46 50 65 51 47 52 50 53 64 54 83 55
REMARK SMILES IDX 48 56 49 57 63 59 84 60 51 61 35 62 36 63 44 64 37 65 43 66
REMARK SMILES IDX 45 67 42 68 38 69 39 70 40 71 41 72 67 73 68 74 76 75 69 76
REMARK SMILES IDX 75 77 77 78 74 79 70 80 71 81 72 82 73 83 52 84 53 85 61 86
REMARK SMILES IDX 54 87 60 88 62 89 59 90 55 91 56 92 57 93 58 94
REMARK H PARENT 16 8 23 28 82 47 50 58
REMARK Flexibility Score: inf
ROOT
ATOM      1  C   UNL A   1      33.310  27.038  26.108  1.00  0.00     0.002 C 
ENDROOT
BRANCH   1   2
ATOM      2  C   UNL A   1      33.276  25.541  25.784  1.00  0.00     0.002 C 
BRANCH   2   3
ATOM      3  C   UNL A   1      32.268  24.642  26.504  1.00  0.00     0.021 C 
BRANCH   3   4
ATOM      4  C   UNL A   1      32.682  23.221  26.868  1.00  0.00     0.116 C 
BRANCH   4   5
ATOM      5  N   UNL A   1      34.023  22.823  26.548  1.00  0.00    -0.351 N 
ATOM      6  C   UNL A   1      34.490  21.959  25.575  1.00  0.00     0.270 C 
ATOM      7  O   UNL A   1      35.722  21.916  25.463  1.00  0.00    -0.267 OA
ATOM      8  H   UNL A   1      34.722  23.230  27.111  1.00  0.00     0.163 HD
BRANCH   6   9
ATOM      9  C   UNL A   1      33.653  21.027  24.704  1.00  0.00     0.136 A 
ATOM     10  C   UNL A   1      32.754  21.351  23.672  1.00  0.00     0.016 A 
ATOM     11  C   UNL A   1      32.202  20.268  22.942  1.00  0.00     0.013 A 
ATOM     12  C   UNL A   1      32.530  18.950  23.227  1.00  0.00     0.021 A 
ATOM     13  N   UNL A   1      33.967  19.717  24.985  1.00  0.00    -0.250 NA
ATOM     14  C   UNL A   1      33.412  18.728  24.257  1.00  0.00     0.112 A 
BRANCH  10  15
ATOM     15  C   UNL A   1      32.303  22.681  23.251  1.00  0.00     0.024 A 
ATOM     16  C   UNL A   1      32.834  24.823  22.178  1.00  0.00     0.155 A 
ATOM     17  C   UNL A   1      31.550  25.274  22.474  1.00  0.00     0.049 A 
ATOM     18  C   UNL A   1      33.215  23.554  22.616  1.00  0.00     0.172 A 
ATOM     19  C   UNL A   1      30.639  24.439  23.130  1.00  0.00     0.005 A 
ATOM     20  F   UNL A   1      34.465  23.115  22.392  1.00  0.00    -0.202 F 
ATOM     21  C   UNL A   1      31.009  23.146  23.511  1.00  0.00     0.012 A 
BRANCH  16  22
ATOM     22  O   UNL A   1      33.630  25.696  21.488  1.00  0.00    -0.494 OA
ATOM     23  C   UNL A   1      33.654  27.028  21.997  1.00  0.00     0.278 C 
ENDBRANCH  16  22
ENDBRANCH  10  15
ENDBRANCH   6   9
ENDBRANCH   4   5
ENDBRANCH   3   4
ENDBRANCH   2   3
ENDBRANCH   1   2
BRANCH   1  24
ATOM     24  C   UNL A   1      32.441  27.990  25.282  1.00  0.00     0.021 C 
BRANCH  24  25
ATOM     25  C   UNL A   1      33.039  29.331  24.867  1.00  0.00     0.116 C 
BRANCH  25  26
ATOM     26  N   UNL A   1      32.396  30.462  25.504  1.00  0.00    -0.352 N 
ATOM     27  C   UNL A   1      32.707  31.150  26.652  1.00  0.00     0.251 C 
ATOM     28  H   UNL A   1      31.598  30.795  25.032  1.00  0.00     0.163 HD
ATOM     29  O   UNL A   1      31.909  31.999  27.052  1.00  0.00    -0.269 OA
BRANCH  27  30
ATOM     30  C   UNL A   1      33.947  30.890  27.432  1.00  0.00     0.039 A 
ATOM     31  C   UNL A   1      34.108  29.626  28.010  1.00  0.00     0.014 A 
ATOM     32  C   UNL A   1      34.913  31.872  27.674  1.00  0.00     0.014 A 
ATOM     33  C   UNL A   1      35.237  29.335  28.785  1.00  0.00     0.010 A 
ATOM     34  C   UNL A   1      36.074  31.563  28.392  1.00  0.00     0.010 A 
ATOM     35  C   UNL A   1      36.247  30.293  28.964  1.00  0.00    -0.014 A 
BRANCH  35  36
ATOM     36  C   UNL A   1      37.466  29.977  29.761  1.00  0.00     0.031 A 
ATOM     37  C   UNL A   1      38.568  29.132  29.175  1.00  0.00     0.074 A 
ATOM     38  C   UNL A   1      37.582  30.438  31.023  1.00  0.00     0.049 A 
ATOM     39  N   UNL A   1      39.685  28.731  29.728  1.00  0.00    -0.248 NA
ATOM     40  C   UNL A   1      38.382  28.662  27.794  1.00  0.00     0.031 C 
ATOM     41  C   UNL A   1      36.584  31.254  31.716  1.00  0.00     0.029 A 
ATOM     42  N   UNL A   1      38.591  30.297  31.946  1.00  0.00    -0.354 N 
ATOM     43  C   UNL A   1      40.330  27.955  28.770  1.00  0.00     0.074 A 
ATOM     44  C   UNL A   1      39.454  27.902  27.619  1.00  0.00     0.031 C 
ATOM     45  C   UNL A   1      37.045  31.571  32.937  1.00  0.00     0.029 A 
ATOM     46  C   UNL A   1      38.350  30.947  33.135  1.00  0.00     0.049 A 
ATOM     47  H   UNL A   1      39.409  29.777  31.773  1.00  0.00     0.167 HD
ATOM     48  C   UNL A   1      41.546  27.361  28.834  1.00  0.00     0.034 A 
ATOM     49  C   UNL A   1      39.089  31.031  34.260  1.00  0.00     0.034 A 
ATOM     50  C   UNL A   1      42.426  27.441  29.974  1.00  0.00     0.049 A 
ATOM     51  C   UNL A   1      40.420  30.332  34.325  1.00  0.00     0.074 A 
ATOM     52  C   UNL A   1      43.704  26.925  30.109  1.00  0.00     0.029 A 
ATOM     53  N   UNL A   1      42.123  28.070  31.172  1.00  0.00    -0.354 N 
ATOM     54  N   UNL A   1      41.016  29.613  33.403  1.00  0.00    -0.248 NA
ATOM     55  C   UNL A   1      41.176  30.448  35.580  1.00  0.00     0.031 C 
ATOM     56  C   UNL A   1      44.147  27.185  31.409  1.00  0.00     0.029 A 
ATOM     57  C   UNL A   1      43.174  27.923  32.063  1.00  0.00     0.049 A 
ATOM     58  H   UNL A   1      41.284  28.549  31.362  1.00  0.00     0.167 HD
ATOM     59  C   UNL A   1      42.224  29.208  33.960  1.00  0.00     0.074 A 
ATOM     60  C   UNL A   1      42.274  29.759  35.299  1.00  0.00     0.031 C 
ATOM     61  C   UNL A   1      43.207  28.458  33.403  1.00  0.00     0.034 A 
BRANCH  48  62
ATOM     62  C   UNL A   1      41.996  26.553  27.643  1.00  0.00     0.023 A 
ATOM     63  C   UNL A   1      41.729  25.178  27.543  1.00  0.00     0.031 A 
ATOM     64  C   UNL A   1      42.686  27.172  26.585  1.00  0.00     0.131 A 
ATOM     65  C   UNL A   1      42.195  24.454  26.435  1.00  0.00     0.055 A 
ATOM     66  C   UNL A   1      43.087  26.460  25.454  1.00  0.00     0.041 A 
ATOM     67  F   UNL A   1      42.980  28.480  26.634  1.00  0.00    -0.206 F 
ATOM     68  C   UNL A   1      42.852  25.090  25.378  1.00  0.00     0.022 A 
BRANCH  65  69
ATOM     69  S   UNL A   1      42.020  22.650  26.437  1.00  0.00     0.124 S 
ATOM     70  O   UNL A   1      42.761  22.285  27.642  1.00  0.00    -0.237 OA
ATOM     71  O   UNL A   1      40.571  22.474  26.502  1.00  0.00    -0.237 OA
ATOM     72  O   UNL A   1      42.641  22.242  25.182  1.00  0.00    -0.744 OA
ENDBRANCH  65  69
ENDBRANCH  48  62
BRANCH  49  73
ATOM     73  C   UNL A   1      38.573  31.808  35.420  1.00  0.00     0.023 A 
ATOM     74  C   UNL A   1      38.012  31.159  36.530  1.00  0.00     0.031 A 
ATOM     75  C   UNL A   1      38.665  33.211  35.446  1.00  0.00     0.131 A 
ATOM     76  C   UNL A   1      37.555  31.916  37.622  1.00  0.00     0.055 A 
ATOM     77  C   UNL A   1      38.240  33.956  36.546  1.00  0.00     0.041 A 
ATOM     78  F   UNL A   1      39.206  33.873  34.410  1.00  0.00    -0.206 F 
ATOM     79  C   UNL A   1      37.678  33.308  37.642  1.00  0.00     0.022 A 
BRANCH  76  80
ATOM     80  S   UNL A   1      36.791  31.056  39.023  1.00  0.00     0.124 S 
ATOM     81  O   UNL A   1      36.651  29.702  38.500  1.00  0.00    -0.237 OA
ATOM     82  O   UNL A   1      37.786  31.239  40.075  1.00  0.00    -0.237 OA
ATOM     83  O   UNL A   1      35.538  31.781  39.225  1.00  0.00    -0.744 OA
ENDBRANCH  76  80
ENDBRANCH  49  73
BRANCH  61  84
ATOM     84  C   UNL A   1      44.442  28.196  34.223  1.00  0.00     0.023 A 
ATOM     85  C   UNL A   1      45.521  29.094  34.230  1.00  0.00     0.031 A 
ATOM     86  C   UNL A   1      44.498  27.077  35.072  1.00  0.00     0.131 A 
ATOM     87  C   UNL A   1      46.623  28.850  35.065  1.00  0.00     0.055 A 
ATOM     88  C   UNL A   1      45.578  26.860  35.928  1.00  0.00     0.041 A 
ATOM     89  F   UNL A   1      43.486  26.195  35.105  1.00  0.00    -0.206 F 
ATOM     90  C   UNL A   1      46.649  27.750  35.927  1.00  0.00     0.022 A 
BRANCH  87  91
ATOM     91  S   UNL A   1      48.030  29.994  35.017  1.00  0.00     0.124 S 
ATOM     92  O   UNL A   1      49.162  29.074  34.948  1.00  0.00    -0.237 OA
ATOM     93  O   UNL A   1      47.768  30.772  33.810  1.00  0.00    -0.237 OA
ATOM     94  O   UNL A   1      47.911  30.737  36.269  1.00  0.00    -0.744 OA
ENDBRANCH  87  91
ENDBRANCH  61  84
ENDBRANCH  35  36
ENDBRANCH  27  30
ENDBRANCH  25  26
ENDBRANCH  24  25
ENDBRANCH   1  24
TORSDOF 18
ENDMDL
MODEL 2
REMARK VINA RESULT:     -11.2      1.531      7.613
REMARK SMILES COc1cccc(-c2cccnc2C(=O)NCCCCCCNC(=O)c2ccc(-c3c4nc(c(-c5cc(S(=O)(=O)[O-])ccc5F)c5ccc([nH]5)c(-c5cc(S(=O)(=O)[O-])ccc5F)c5nc(c(-c6cc(S(=O)(=O)[O-])ccc6F)c6ccc3[nH]6)C=C5)C=C4)cc2)c1F
REMARK SMILES IDX 20 1 19 2 18 3 17 4 16 5 14 6 15 7 13 9 8 10 9 11 10 12
REMARK SMILES IDX 12 13 11 14 7 15 3 16 4 17 89 18 5 19 90 20 6 21 2 22 1 23
REMARK SMILES IDX 21 24 22 25 23 26 24 27 25 29 26 30 27 31 88 32 28 33 87 34
REMARK SMILES IDX 29 35 30 36 31 37 81 38 32 39 86 40 80 41 82 42 33 43 85 44
REMARK SMILES IDX 79 45 78 46 34 48 66 49 46 50 65 51 47 52 50 53 64 54 83 55
REMARK SMILES IDX 48 56 49 57 63 59 84 60 51 61 35 62 36 63 44 64 37 65 43 66
REMARK SMILES IDX 45 67 42 68 38 69 39 70 40 71 41 72 67 73 68 74 76 75 69 76
REMARK SMILES IDX 75 77 77 78 74 79 70 80 71 81 72 82 73 83 52 84 53 85 61 86
REMARK SMILES IDX 54 87 60 88 62 89 59 90 55 91 56 92 57 93 58 94
REMARK H PARENT 16 8 23 28 82 47 50 58
REMARK Flexibility Score: inf
ROOT
ATOM      1  C   UNL A   1      33.832  26.927  26.037  1.00  0.00     0.002 C 
ENDROOT
BRANCH   1   2
ATOM      2  C   UNL A   1      33.664  25.482  25.556  1.00  0.00     0.002 C 
BRANCH   2   3
ATOM      3  C   UNL A   1      33.012  24.455  26.485  1.00  0.00     0.021 C 
BRANCH   3   4
ATOM      4  C   UNL A   1      33.810  23.221  26.888  1.00  0.00     0.116 C 
BRANCH   4   5
ATOM      5  N   UNL A   1      34.964  22.895  26.099  1.00  0.00    -0.351 N 
ATOM      6  C   UNL A   1      35.089  22.066  25.000  1.00  0.00     0.270 C 
ATOM      7  O   UNL A   1      36.199  22.088  24.453  1.00  0.00    -0.267 OA
ATOM      8  H   UNL A   1      35.799  23.332  26.385  1.00  0.00     0.163 HD
BRANCH   6   9
ATOM      9  C   UNL A   1      34.038  21.100  24.460  1.00  0.00     0.136 A 
ATOM     10  C   UNL A   1      32.897  21.377  23.685  1.00  0.00     0.016 A 
ATOM     11  C   UNL A   1      32.157  20.263  23.217  1.00  0.00     0.013 A 
ATOM     12  C   UNL A   1      32.535  18.959  23.505  1.00  0.00     0.021 A 
ATOM     13  N   UNL A   1      34.402  19.805  24.748  1.00  0.00    -0.250 NA
ATOM     14  C   UNL A   1      33.660  18.784  24.274  1.00  0.00     0.112 A 
BRANCH  10  15
ATOM     15  C   UNL A   1      32.363  22.687  23.299  1.00  0.00     0.024 A 
ATOM     16  C   UNL A   1      32.615  24.735  21.971  1.00  0.00     0.155 A 
ATOM     17  C   UNL A   1      31.456  25.240  22.555  1.00  0.00     0.049 A 
ATOM     18  C   UNL A   1      33.086  23.489  22.387  1.00  0.00     0.172 A 
ATOM     19  C   UNL A   1      30.740  24.478  23.484  1.00  0.00     0.005 A 
ATOM     20  F   UNL A   1      34.231  23.001  21.880  1.00  0.00    -0.202 F 
ATOM     21  C   UNL A   1      31.185  23.204  23.851  1.00  0.00     0.012 A 
BRANCH  16  22
ATOM     22  O   UNL A   1      33.212  25.536  21.036  1.00  0.00    -0.494 OA
ATOM     23  C   UNL A   1      32.656  25.455  19.724  1.00  0.00     0.278 C 
ENDBRANCH  16  22
ENDBRANCH  10  15
ENDBRANCH   6   9
ENDBRANCH   4   5
ENDBRANCH   3   4
ENDBRANCH   2   3
ENDBRANCH   1   2
BRANCH   1  24
ATOM     24  C   UNL A   1      32.874  27.996  25.505  1.00  0.00     0.021 C 
BRANCH  24  25
ATOM     25  C   UNL A   1      33.467  29.319  25.029  1.00  0.00     0.116 C 
BRANCH  25  26
ATOM     26  N   UNL A   1      32.886  30.472  25.687  1.00  0.00    -0.352 N 
ATOM     27  C   UNL A   1      33.264  31.153  26.818  1.00  0.00     0.251 C 
ATOM     28  H   UNL A   1      32.080  30.828  25.246  1.00  0.00     0.163 HD
ATOM     29  O   UNL A   1      32.510  32.029  27.246  1.00  0.00    -0.269 OA
BRANCH  27  30
ATOM     30  C   UNL A   1      34.526  30.858  27.548  1.00  0.00     0.039 A 
ATOM     31  C   UNL A   1      34.619  29.642  28.236  1.00  0.00     0.014 A 
ATOM     32  C   UNL A   1      35.583  31.769  27.640  1.00  0.00     0.014 A 
ATOM     33  C   UNL A   1      35.769  29.324  28.969  1.00  0.00     0.010 A 
ATOM     34  C   UNL A   1      36.758  31.425  28.318  1.00  0.00     0.010 A 
ATOM     35  C   UNL A   1      36.863  30.202  28.999  1.00  0.00    -0.014 A 
BRANCH  35  36
ATOM     36  C   UNL A   1      38.101  29.854  29.752  1.00  0.00     0.031 A 
ATOM     37  C   UNL A   1      38.337  30.403  31.136  1.00  0.00     0.074 A 
ATOM     38  C   UNL A   1      39.027  29.051  29.190  1.00  0.00     0.049 A 
ATOM     39  N   UNL A   1      39.365  30.234  31.929  1.00  0.00    -0.248 NA
ATOM     40  C   UNL A   1      37.289  31.271  31.694  1.00  0.00     0.031 C 
ATOM     41  C   UNL A   1      38.930  28.463  27.853  1.00  0.00     0.029 A 
ATOM     42  N   UNL A   1      40.226  28.582  29.670  1.00  0.00    -0.354 N 
ATOM     43  C   UNL A   1      39.095  30.979  33.072  1.00  0.00     0.074 A 
ATOM     44  C   UNL A   1      37.827  31.641  32.847  1.00  0.00     0.031 C 
ATOM     45  C   UNL A   1      40.002  27.684  27.636  1.00  0.00     0.029 A 
ATOM     46  C   UNL A   1      40.887  27.750  28.796  1.00  0.00     0.049 A 
ATOM     47  H   UNL A   1      40.581  28.821  30.557  1.00  0.00     0.167 HD
ATOM     48  C   UNL A   1      39.823  31.084  34.210  1.00  0.00     0.034 A 
ATOM     49  C   UNL A   1      42.070  27.113  28.907  1.00  0.00     0.034 A 
ATOM     50  C   UNL A   1      41.071  30.400  34.439  1.00  0.00     0.049 A 
ATOM     51  C   UNL A   1      42.882  27.275  30.164  1.00  0.00     0.074 A 
ATOM     52  C   UNL A   1      41.850  30.395  35.583  1.00  0.00     0.029 A 
ATOM     53  N   UNL A   1      41.725  29.605  33.509  1.00  0.00    -0.354 N 
ATOM     54  N   UNL A   1      42.602  27.974  31.238  1.00  0.00    -0.248 NA
ATOM     55  C   UNL A   1      44.169  26.567  30.225  1.00  0.00     0.031 C 
ATOM     56  C   UNL A   1      43.006  29.652  35.324  1.00  0.00     0.029 A 
ATOM     57  C   UNL A   1      42.916  29.135  34.042  1.00  0.00     0.049 A 
ATOM     58  H   UNL A   1      41.394  29.405  32.604  1.00  0.00     0.167 HD
ATOM     59  C   UNL A   1      43.668  27.776  32.109  1.00  0.00     0.074 A 
ATOM     60  C   UNL A   1      44.600  26.894  31.437  1.00  0.00     0.031 C 
ATOM     61  C   UNL A   1      43.849  28.273  33.358  1.00  0.00     0.034 A 
BRANCH  48  62
ATOM     62  C   UNL A   1      39.297  31.988  35.296  1.00  0.00     0.023 A 
ATOM     63  C   UNL A   1      38.652  31.475  36.434  1.00  0.00     0.031 A 
ATOM     64  C   UNL A   1      39.460  33.382  35.201  1.00  0.00     0.131 A 
ATOM     65  C   UNL A   1      38.145  32.351  37.405  1.00  0.00     0.055 A 
ATOM     66  C   UNL A   1      39.014  34.244  36.204  1.00  0.00     0.041 A 
ATOM     67  F   UNL A   1      40.055  33.928  34.130  1.00  0.00    -0.206 F 
ATOM     68  C   UNL A   1      38.343  33.731  37.310  1.00  0.00     0.022 A 
BRANCH  65  69
ATOM     69  S   UNL A   1      37.137  31.671  38.750  1.00  0.00     0.124 S 
ATOM     70  O   UNL A   1      36.924  30.300  38.292  1.00  0.00    -0.237 OA
ATOM     71  O   UNL A   1      38.011  31.828  39.910  1.00  0.00    -0.237 OA
ATOM     72  O   UNL A   1      35.947  32.515  38.748  1.00  0.00    -0.744 OA
ENDBRANCH  65  69
ENDBRANCH  48  62
BRANCH  49  73
ATOM     73  C   UNL A   1      42.557  26.268  27.783  1.00  0.00     0.023 A 
ATOM     74  C   UNL A   1      42.318  24.886  27.763  1.00  0.00     0.031 A 
ATOM     75  C   UNL A   1      43.242  26.840  26.696  1.00  0.00     0.131 A 
ATOM     76  C   UNL A   1      42.769  24.117  26.677  1.00  0.00     0.055 A 
ATOM     77  C   UNL A   1      43.659  26.078  25.605  1.00  0.00     0.041 A 
ATOM     78  F   UNL A   1      43.483  28.161  26.668  1.00  0.00    -0.206 F 
ATOM     79  C   UNL A   1      43.425  24.706  25.593  1.00  0.00     0.022 A 
BRANCH  76  80
ATOM     80  S   UNL A   1      42.488  22.325  26.698  1.00  0.00     0.124 S 
ATOM     81  O   UNL A   1      42.527  22.036  28.128  1.00  0.00    -0.237 OA
ATOM     82  O   UNL A   1      41.184  22.211  26.055  1.00  0.00    -0.237 OA
ATOM     83  O   UNL A   1      43.609  21.797  25.923  1.00  0.00    -0.744 OA
ENDBRANCH  76  80
ENDBRANCH  49  73
BRANCH  61  84
ATOM     84  C   UNL A   1      45.090  27.864  34.104  1.00  0.00     0.023 A 
ATOM     85  C   UNL A   1      45.116  26.714  34.909  1.00  0.00     0.031 A 
ATOM     86  C   UNL A   1      46.282  28.590  33.936  1.00  0.00     0.131 A 
ATOM     87  C   UNL A   1      46.314  26.327  35.530  1.00  0.00     0.055 A 
ATOM     88  C   UNL A   1      47.479  28.179  34.524  1.00  0.00     0.041 A 
ATOM     89  F   UNL A   1      46.307  29.693  33.170  1.00  0.00    -0.206 F 
ATOM     90  C   UNL A   1      47.499  27.042  35.326  1.00  0.00     0.022 A 
BRANCH  87  91
ATOM     91  S   UNL A   1      46.312  24.870  36.610  1.00  0.00     0.124 S 
ATOM     92  O   UNL A   1      47.442  24.107  36.087  1.00  0.00    -0.237 OA
ATOM     93  O   UNL A   1      46.496  25.454  37.934  1.00  0.00    -0.237 OA
ATOM     94  O   UNL A   1      44.999  24.272  36.375  1.00  0.00    -0.744 OA
ENDBRANCH  87  91
ENDBRANCH  61  84
ENDBRANCH  35  36
ENDBRANCH  27  30
ENDBRANCH  25  26
ENDBRANCH  24  25
ENDBRANCH   1  24
TORSDOF 18
ENDMDL
MODEL 3
REMARK VINA RESULT:     -11.2      2.087      7.723
REMARK SMILES COc1cccc(-c2cccnc2C(=O)NCCCCCCNC(=O)c2ccc(-c3c4nc(c(-c5cc(S(=O)(=O)[O-])ccc5F)c5ccc([nH]5)c(-c5cc(S(=O)(=O)[O-])ccc5F)c5nc(c(-c6cc(S(=O)(=O)[O-])ccc6F)c6ccc3[nH]6)C=C5)C=C4)cc2)c1F
REMARK SMILES IDX 20 1 19 2 18 3 17 4 16 5 14 6 15 7 13 9 8 10 9 11 10 12
REMARK SMILES IDX 12 13 11 14 7 15 3 16 4 17 89 18 5 19 90 20 6 21 2 22 1 23
REMARK SMILES IDX 21 24 22 25 23 26 24 27 25 29 26 30 27 31 88 32 28 33 87 34
REMARK SMILES IDX 29 35 30 36 31 37 81 38 32 39 86 40 80 41 82 42 33 43 85 44
REMARK SMILES IDX 79 45 78 46 34 48 66 49 46 50 65 51 47 52 50 53 64 54 83 55
REMARK SMILES IDX 48 56 49 57 63 59 84 60 51 61 35 62 36 63 44 64 37 65 43 66
REMARK SMILES IDX 45 67 42 68 38 69 39 70 40 71 41 72 67 73 68 74 76 75 69 76
REMARK SMILES IDX 75 77 77 78 74 79 70 80 71 81 72 82 73 83 52 84 53 85 61 86
REMARK SMILES IDX 54 87 60 88 62 89 59 90 55 91 56 92 57 93 58 94
REMARK H PARENT 16 8 23 28 82 47 50 58
REMARK Flexibility Score: inf
ROOT
ATOM      1  C   UNL A   1      33.830  26.921  26.107  1.00  0.00     0.002 C 
ENDROOT
BRANCH   1   2
ATOM      2  C   UNL A   1      33.649  25.485  25.605  1.00  0.00     0.002 C 
BRANCH   2   3
ATOM      3  C   UNL A   1      32.971  24.454  26.511  1.00  0.00     0.021 C 
BRANCH   3   4
ATOM      4  C   UNL A   1      33.750  23.210  26.920  1.00  0.00     0.116 C 
BRANCH   4   5
ATOM      5  N   UNL A   1      34.924  22.889  26.159  1.00  0.00    -0.351 N 
ATOM      6  C   UNL A   1      35.081  22.052  25.070  1.00  0.00     0.270 C 
ATOM      7  O   UNL A   1      36.203  22.080  24.547  1.00  0.00    -0.267 OA
ATOM      8  H   UNL A   1      35.749  23.335  26.460  1.00  0.00     0.163 HD
BRANCH   6   9
ATOM      9  C   UNL A   1      34.050  21.073  24.514  1.00  0.00     0.136 A 
ATOM     10  C   UNL A   1      32.919  21.336  23.721  1.00  0.00     0.016 A 
ATOM     11  C   UNL A   1      32.200  20.212  23.243  1.00  0.00     0.013 A 
ATOM     12  C   UNL A   1      32.589  18.913  23.538  1.00  0.00     0.021 A 
ATOM     13  N   UNL A   1      34.426  19.783  24.809  1.00  0.00    -0.250 NA
ATOM     14  C   UNL A   1      33.704  18.752  24.325  1.00  0.00     0.112 A 
BRANCH  10  15
ATOM     15  C   UNL A   1      32.375  22.638  23.325  1.00  0.00     0.024 A 
ATOM     16  C   UNL A   1      32.636  24.700  22.020  1.00  0.00     0.155 A 
ATOM     17  C   UNL A   1      31.448  25.181  22.567  1.00  0.00     0.049 A 
ATOM     18  C   UNL A   1      33.114  23.460  22.444  1.00  0.00     0.172 A 
ATOM     19  C   UNL A   1      30.714  24.399  23.466  1.00  0.00     0.005 A 
ATOM     20  F   UNL A   1      34.285  22.996  21.975  1.00  0.00    -0.202 F 
ATOM     21  C   UNL A   1      31.169  23.131  23.839  1.00  0.00     0.012 A 
BRANCH  16  22
ATOM     22  O   UNL A   1      33.250  25.519  21.112  1.00  0.00    -0.494 OA
ATOM     23  C   UNL A   1      32.668  25.524  19.810  1.00  0.00     0.278 C 
ENDBRANCH  16  22
ENDBRANCH  10  15
ENDBRANCH   6   9
ENDBRANCH   4   5
ENDBRANCH   3   4
ENDBRANCH   2   3
ENDBRANCH   1   2
BRANCH   1  24
ATOM     24  C   UNL A   1      32.890  28.008  25.579  1.00  0.00     0.021 C 
BRANCH  24  25
ATOM     25  C   UNL A   1      33.506  29.320  25.101  1.00  0.00     0.116 C 
BRANCH  25  26
ATOM     26  N   UNL A   1      32.932  30.485  25.743  1.00  0.00    -0.352 N 
ATOM     27  C   UNL A   1      33.313  31.178  26.867  1.00  0.00     0.251 C 
ATOM     28  H   UNL A   1      32.129  30.841  25.297  1.00  0.00     0.163 HD
ATOM     29  O   UNL A   1      32.565  32.064  27.282  1.00  0.00    -0.269 OA
BRANCH  27  30
ATOM     30  C   UNL A   1      34.572  30.882  27.602  1.00  0.00     0.039 A 
ATOM     31  C   UNL A   1      34.656  29.672  28.302  1.00  0.00     0.014 A 
ATOM     32  C   UNL A   1      35.634  31.788  27.688  1.00  0.00     0.014 A 
ATOM     33  C   UNL A   1      35.802  29.355  29.042  1.00  0.00     0.010 A 
ATOM     34  C   UNL A   1      36.805  31.443  28.372  1.00  0.00     0.010 A 
ATOM     35  C   UNL A   1      36.901  30.226  29.066  1.00  0.00    -0.014 A 
BRANCH  35  36
ATOM     36  C   UNL A   1      38.135  29.879  29.826  1.00  0.00     0.031 A 
ATOM     37  C   UNL A   1      38.376  30.447  31.200  1.00  0.00     0.074 A 
ATOM     38  C   UNL A   1      39.054  29.057  29.276  1.00  0.00     0.049 A 
ATOM     39  N   UNL A   1      39.402  30.281  31.997  1.00  0.00    -0.248 NA
ATOM     40  C   UNL A   1      37.335  31.334  31.743  1.00  0.00     0.031 C 
ATOM     41  C   UNL A   1      38.952  28.449  27.949  1.00  0.00     0.029 A 
ATOM     42  N   UNL A   1      40.248  28.585  29.766  1.00  0.00    -0.354 N 
ATOM     43  C   UNL A   1      39.138  31.046  33.127  1.00  0.00     0.074 A 
ATOM     44  C   UNL A   1      37.877  31.717  32.891  1.00  0.00     0.031 C 
ATOM     45  C   UNL A   1      40.017  27.657  27.745  1.00  0.00     0.029 A 
ATOM     46  C   UNL A   1      40.901  27.732  28.905  1.00  0.00     0.049 A 
ATOM     47  H   UNL A   1      40.604  28.834  30.649  1.00  0.00     0.167 HD
ATOM     48  C   UNL A   1      39.866  31.163  34.265  1.00  0.00     0.034 A 
ATOM     49  C   UNL A   1      42.078  27.086  29.028  1.00  0.00     0.034 A 
ATOM     50  C   UNL A   1      41.107  30.470  34.505  1.00  0.00     0.049 A 
ATOM     51  C   UNL A   1      42.890  27.260  30.283  1.00  0.00     0.074 A 
ATOM     52  C   UNL A   1      41.886  30.476  35.650  1.00  0.00     0.029 A 
ATOM     53  N   UNL A   1      41.755  29.655  33.588  1.00  0.00    -0.354 N 
ATOM     54  N   UNL A   1      42.617  27.979  31.345  1.00  0.00    -0.248 NA
ATOM     55  C   UNL A   1      44.171  26.541  30.356  1.00  0.00     0.031 C 
ATOM     56  C   UNL A   1      43.034  29.717  35.404  1.00  0.00     0.029 A 
ATOM     57  C   UNL A   1      42.940  29.182  34.130  1.00  0.00     0.049 A 
ATOM     58  H   UNL A   1      41.422  29.443  32.686  1.00  0.00     0.167 HD
ATOM     59  C   UNL A   1      43.681  27.785  32.219  1.00  0.00     0.074 A 
ATOM     60  C   UNL A   1      44.604  26.883  31.562  1.00  0.00     0.031 C 
ATOM     61  C   UNL A   1      43.865  28.300  33.460  1.00  0.00     0.034 A 
BRANCH  48  62
ATOM     62  C   UNL A   1      39.349  32.089  35.336  1.00  0.00     0.023 A 
ATOM     63  C   UNL A   1      39.774  33.425  35.423  1.00  0.00     0.031 A 
ATOM     64  C   UNL A   1      38.403  31.634  36.273  1.00  0.00     0.131 A 
ATOM     65  C   UNL A   1      39.296  34.245  36.457  1.00  0.00     0.055 A 
ATOM     66  C   UNL A   1      37.880  32.474  37.257  1.00  0.00     0.041 A 
ATOM     67  F   UNL A   1      37.973  30.363  36.246  1.00  0.00    -0.206 F 
ATOM     68  C   UNL A   1      38.334  33.786  37.360  1.00  0.00     0.022 A 
BRANCH  65  69
ATOM     69  S   UNL A   1      40.023  35.893  36.667  1.00  0.00     0.124 S 
ATOM     70  O   UNL A   1      41.440  35.572  36.815  1.00  0.00    -0.237 OA
ATOM     71  O   UNL A   1      39.647  36.564  35.424  1.00  0.00    -0.237 OA
ATOM     72  O   UNL A   1      39.375  36.404  37.870  1.00  0.00    -0.744 OA
ENDBRANCH  65  69
ENDBRANCH  48  62
BRANCH  49  73
ATOM     73  C   UNL A   1      42.558  26.219  27.918  1.00  0.00     0.023 A 
ATOM     74  C   UNL A   1      42.215  24.859  27.863  1.00  0.00     0.031 A 
ATOM     75  C   UNL A   1      43.341  26.748  26.876  1.00  0.00     0.131 A 
ATOM     76  C   UNL A   1      42.663  24.070  26.791  1.00  0.00     0.055 A 
ATOM     77  C   UNL A   1      43.755  25.968  25.797  1.00  0.00     0.041 A 
ATOM     78  F   UNL A   1      43.684  28.047  26.881  1.00  0.00    -0.206 F 
ATOM     79  C   UNL A   1      43.418  24.619  25.752  1.00  0.00     0.022 A 
BRANCH  76  80
ATOM     80  S   UNL A   1      42.245  22.305  26.770  1.00  0.00     0.124 S 
ATOM     81  O   UNL A   1      42.314  21.968  28.188  1.00  0.00    -0.237 OA
ATOM     82  O   UNL A   1      40.912  22.313  26.176  1.00  0.00    -0.237 OA
ATOM     83  O   UNL A   1      43.291  21.719  25.936  1.00  0.00    -0.744 OA
ENDBRANCH  76  80
ENDBRANCH  49  73
BRANCH  61  84
ATOM     84  C   UNL A   1      45.102  27.891  34.214  1.00  0.00     0.023 A 
ATOM     85  C   UNL A   1      45.124  26.740  35.018  1.00  0.00     0.031 A 
ATOM     86  C   UNL A   1      46.295  28.618  34.055  1.00  0.00     0.131 A 
ATOM     87  C   UNL A   1      46.318  26.353  35.646  1.00  0.00     0.055 A 
ATOM     88  C   UNL A   1      47.488  28.207  34.650  1.00  0.00     0.041 A 
ATOM     89  F   UNL A   1      46.324  29.721  33.290  1.00  0.00    -0.206 F 
ATOM     90  C   UNL A   1      47.503  27.069  35.451  1.00  0.00     0.022 A 
BRANCH  87  91
ATOM     91  S   UNL A   1      46.310  24.894  36.724  1.00  0.00     0.124 S 
ATOM     92  O   UNL A   1      47.435  24.127  36.200  1.00  0.00    -0.237 OA
ATOM     93  O   UNL A   1      46.498  25.476  38.049  1.00  0.00    -0.237 OA
ATOM     94  O   UNL A   1      44.993  24.303  36.491  1.00  0.00    -0.744 OA
ENDBRANCH  87  91
ENDBRANCH  61  84
ENDBRANCH  35  36
ENDBRANCH  27  30
ENDBRANCH  25  26
ENDBRANCH  24  25
ENDBRANCH   1  24
TORSDOF 18
ENDMDL
