MODEL 1
REMARK VINA RESULT:     -11.0      0.000      0.000
REMARK SMILES CC[C@H](C)[C@@H](NC(=O)c1csc(NC(C)=O)n1)C(=O)NCCCCCCNC(=O)c1ccc(-c2c3nc(c(-c4cc(S(=O)(=O)[O-])ccc4F)c4ccc([nH]4)c(-c4cc(S(=O)(=O)[O-])ccc4F)c4nc(c(-c5cc(S(=O)(=O)[O-])ccc5F)c5ccc2[nH]5)C=C4)C=C3)cc1
REMARK SMILES IDX 23 1 22 2 21 3 20 4 18 5 19 6 5 8 3 9 4 10 2 11 1 12 6 13
REMARK SMILES IDX 7 14 8 16 9 17 10 18 17 19 11 20 12 21 13 22 14 23 15 25
REMARK SMILES IDX 16 26 24 27 25 28 26 29 27 30 28 31 29 33 30 34 31 35 92 36
REMARK SMILES IDX 32 37 91 38 33 39 34 40 35 41 85 42 36 43 90 44 84 45 86 46
REMARK SMILES IDX 37 47 89 48 83 49 82 50 38 52 70 53 50 54 69 55 51 56 54 57
REMARK SMILES IDX 68 58 87 59 52 60 53 61 67 63 88 64 55 65 39 66 40 67 48 68
REMARK SMILES IDX 41 69 47 70 49 71 46 72 42 73 43 74 44 75 45 76 71 77 72 78
REMARK SMILES IDX 80 79 73 80 79 81 81 82 78 83 74 84 75 85 76 86 77 87 56 88
REMARK SMILES IDX 57 89 65 90 58 91 64 92 66 93 63 94 59 95 60 96 61 97 62 98
REMARK H PARENT 20 7 6 15 13 24 27 32 86 51 54 62
REMARK Flexibility Score: inf
ROOT
ATOM      1  C   UNL A   1      37.578  22.774  25.801  1.00  0.00     0.002 C 
ENDROOT
BRANCH   1   2
ATOM      2  C   UNL A   1      36.805  22.792  24.477  1.00  0.00     0.021 C 
BRANCH   2   3
ATOM      3  C   UNL A   1      35.455  22.085  24.528  1.00  0.00     0.116 C 
BRANCH   3   4
ATOM      4  N   UNL A   1      35.182  21.605  25.866  1.00  0.00    -0.354 N 
ATOM      5  C   UNL A   1      33.996  21.432  26.509  1.00  0.00     0.242 C 
ATOM      6  O   UNL A   1      34.046  21.100  27.701  1.00  0.00    -0.273 OA
ATOM      7  H   UNL A   1      35.979  21.365  26.393  1.00  0.00     0.163 HD
BRANCH   5   8
ATOM      8  C   UNL A   1      32.646  21.795  25.835  1.00  0.00     0.174 C 
BRANCH   8   9
ATOM      9  C   UNL A   1      32.192  20.568  24.953  1.00  0.00     0.018 C 
ATOM     10  C   UNL A   1      32.358  20.812  23.445  1.00  0.00     0.010 C 
BRANCH   9  11
ATOM     11  C   UNL A   1      32.882  19.259  25.435  1.00  0.00     0.002 C 
ATOM     12  C   UNL A   1      33.745  18.516  24.424  1.00  0.00     0.004 C 
ENDBRANCH   9  11
ENDBRANCH   8   9
BRANCH   8  13
ATOM     13  N   UNL A   1      31.572  22.220  26.757  1.00  0.00    -0.339 N 
ATOM     14  C   UNL A   1      30.696  23.277  26.709  1.00  0.00     0.271 C 
ATOM     15  H   UNL A   1      31.466  21.642  27.547  1.00  0.00     0.164 HD
ATOM     16  O   UNL A   1      29.702  23.223  27.434  1.00  0.00    -0.267 OA
BRANCH  14  17
ATOM     17  C   UNL A   1      31.021  24.480  25.950  1.00  0.00     0.141 A 
ATOM     18  C   UNL A   1      30.603  24.658  24.641  1.00  0.00     0.102 A 
ATOM     19  N   UNL A   1      31.718  25.561  26.470  1.00  0.00    -0.215 NA
ATOM     20  S   UNL A   1      30.946  26.253  24.128  1.00  0.00    -0.104 S 
ATOM     21  C   UNL A   1      31.646  26.577  25.642  1.00  0.00     0.190 A 
BRANCH  21  22
ATOM     22  N   UNL A   1      32.099  27.815  26.017  1.00  0.00    -0.302 N 
ATOM     23  C   UNL A   1      31.762  28.510  27.152  1.00  0.00     0.223 C 
ATOM     24  H   UNL A   1      32.736  28.254  25.406  1.00  0.00     0.172 HD
ATOM     25  C   UNL A   1      32.429  29.861  27.233  1.00  0.00     0.114 C 
ATOM     26  O   UNL A   1      31.023  28.143  28.060  1.00  0.00    -0.275 OA
ENDBRANCH  21  22
ENDBRANCH  14  17
ENDBRANCH   8  13
ENDBRANCH   5   8
ENDBRANCH   3   4
ENDBRANCH   2   3
ENDBRANCH   1   2
BRANCH   1  27
ATOM     27  C   UNL A   1      38.988  22.182  25.727  1.00  0.00     0.002 C 
BRANCH  27  28
ATOM     28  C   UNL A   1      39.054  20.689  25.396  1.00  0.00     0.021 C 
BRANCH  28  29
ATOM     29  C   UNL A   1      39.698  19.813  26.468  1.00  0.00     0.116 C 
BRANCH  29  30
ATOM     30  N   UNL A   1      40.899  19.141  26.001  1.00  0.00    -0.352 N 
ATOM     31  C   UNL A   1      42.160  19.660  25.833  1.00  0.00     0.251 C 
ATOM     32  H   UNL A   1      40.795  18.189  25.775  1.00  0.00     0.163 HD
ATOM     33  O   UNL A   1      43.045  18.985  25.319  1.00  0.00    -0.269 OA
BRANCH  31  34
ATOM     34  C   UNL A   1      42.425  21.055  26.245  1.00  0.00     0.039 A 
ATOM     35  C   UNL A   1      42.582  21.337  27.604  1.00  0.00     0.014 A 
ATOM     36  C   UNL A   1      42.555  22.067  25.289  1.00  0.00     0.014 A 
ATOM     37  C   UNL A   1      42.944  22.625  28.004  1.00  0.00     0.010 A 
ATOM     38  C   UNL A   1      42.958  23.340  25.686  1.00  0.00     0.010 A 
ATOM     39  C   UNL A   1      43.170  23.626  27.044  1.00  0.00    -0.014 A 
BRANCH  39  40
ATOM     40  C   UNL A   1      43.666  24.969  27.433  1.00  0.00     0.031 A 
ATOM     41  C   UNL A   1      42.709  25.997  27.967  1.00  0.00     0.074 A 
ATOM     42  C   UNL A   1      44.954  25.290  27.202  1.00  0.00     0.049 A 
ATOM     43  N   UNL A   1      42.921  27.259  28.240  1.00  0.00    -0.248 NA
ATOM     44  C   UNL A   1      41.326  25.553  28.202  1.00  0.00     0.031 C 
ATOM     45  C   UNL A   1      45.963  24.386  26.644  1.00  0.00     0.029 A 
ATOM     46  N   UNL A   1      45.630  26.472  27.377  1.00  0.00    -0.354 N 
ATOM     47  C   UNL A   1      41.696  27.768  28.652  1.00  0.00     0.074 A 
ATOM     48  C   UNL A   1      40.740  26.684  28.568  1.00  0.00     0.031 C 
ATOM     49  C   UNL A   1      47.123  25.050  26.511  1.00  0.00     0.029 A 
ATOM     50  C   UNL A   1      46.932  26.432  26.937  1.00  0.00     0.049 A 
ATOM     51  H   UNL A   1      45.221  27.272  27.780  1.00  0.00     0.167 HD
ATOM     52  C   UNL A   1      41.402  29.024  29.069  1.00  0.00     0.034 A 
ATOM     53  C   UNL A   1      47.859  27.408  26.855  1.00  0.00     0.034 A 
ATOM     54  C   UNL A   1      42.373  30.082  29.183  1.00  0.00     0.049 A 
ATOM     55  C   UNL A   1      47.501  28.796  27.315  1.00  0.00     0.074 A 
ATOM     56  C   UNL A   1      42.210  31.346  29.724  1.00  0.00     0.029 A 
ATOM     57  N   UNL A   1      43.684  30.006  28.734  1.00  0.00    -0.354 N 
ATOM     58  N   UNL A   1      46.359  29.238  27.786  1.00  0.00    -0.248 NA
ATOM     59  C   UNL A   1      48.555  29.816  27.233  1.00  0.00     0.031 C 
ATOM     60  C   UNL A   1      43.405  32.055  29.549  1.00  0.00     0.029 A 
ATOM     61  C   UNL A   1      44.328  31.215  28.944  1.00  0.00     0.049 A 
ATOM     62  H   UNL A   1      44.096  29.211  28.327  1.00  0.00     0.167 HD
ATOM     63  C   UNL A   1      46.563  30.584  28.072  1.00  0.00     0.074 A 
ATOM     64  C   UNL A   1      47.940  30.878  27.732  1.00  0.00     0.031 C 
ATOM     65  C   UNL A   1      45.693  31.495  28.575  1.00  0.00     0.034 A 
BRANCH  52  66
ATOM     66  C   UNL A   1      39.966  29.329  29.405  1.00  0.00     0.023 A 
ATOM     67  C   UNL A   1      39.522  29.434  30.734  1.00  0.00     0.031 A 
ATOM     68  C   UNL A   1      39.029  29.520  28.375  1.00  0.00     0.131 A 
ATOM     69  C   UNL A   1      38.165  29.670  30.999  1.00  0.00     0.055 A 
ATOM     70  C   UNL A   1      37.691  29.814  28.644  1.00  0.00     0.041 A 
ATOM     71  F   UNL A   1      39.397  29.414  27.089  1.00  0.00    -0.206 F 
ATOM     72  C   UNL A   1      37.251  29.882  29.964  1.00  0.00     0.022 A 
BRANCH  69  73
ATOM     73  S   UNL A   1      37.591  29.609  32.718  1.00  0.00     0.124 S 
ATOM     74  O   UNL A   1      36.335  30.350  32.634  1.00  0.00    -0.237 OA
ATOM     75  O   UNL A   1      37.473  28.176  32.962  1.00  0.00    -0.237 OA
ATOM     76  O   UNL A   1      38.656  30.282  33.458  1.00  0.00    -0.744 OA
ENDBRANCH  69  73
ENDBRANCH  52  66
BRANCH  53  77
ATOM     77  C   UNL A   1      49.200  27.129  26.269  1.00  0.00     0.023 A 
ATOM     78  C   UNL A   1      49.496  27.473  24.941  1.00  0.00     0.031 A 
ATOM     79  C   UNL A   1      50.187  26.464  27.017  1.00  0.00     0.131 A 
ATOM     80  C   UNL A   1      50.734  27.113  24.387  1.00  0.00     0.055 A 
ATOM     81  C   UNL A   1      51.433  26.147  26.475  1.00  0.00     0.041 A 
ATOM     82  F   UNL A   1      49.954  26.119  28.294  1.00  0.00    -0.206 F 
ATOM     83  C   UNL A   1      51.707  26.459  25.146  1.00  0.00     0.022 A 
BRANCH  80  84
ATOM     84  S   UNL A   1      51.022  27.434  22.625  1.00  0.00     0.124 S 
ATOM     85  O   UNL A   1      50.998  28.892  22.577  1.00  0.00    -0.237 OA
ATOM     86  O   UNL A   1      52.323  26.808  22.416  1.00  0.00    -0.237 OA
ATOM     87  O   UNL A   1      49.898  26.770  21.970  1.00  0.00    -0.744 OA
ENDBRANCH  80  84
ENDBRANCH  53  77
BRANCH  65  88
ATOM     88  C   UNL A   1      46.224  32.885  28.801  1.00  0.00     0.023 A 
ATOM     89  C   UNL A   1      46.066  33.893  27.836  1.00  0.00     0.031 A 
ATOM     90  C   UNL A   1      46.908  33.198  29.988  1.00  0.00     0.131 A 
ATOM     91  C   UNL A   1      46.622  35.161  28.056  1.00  0.00     0.055 A 
ATOM     92  C   UNL A   1      47.420  34.474  30.222  1.00  0.00     0.041 A 
ATOM     93  F   UNL A   1      47.086  32.267  30.940  1.00  0.00    -0.206 F 
ATOM     94  C   UNL A   1      47.286  35.461  29.249  1.00  0.00     0.022 A 
BRANCH  91  95
ATOM     95  S   UNL A   1      46.513  36.402  26.739  1.00  0.00     0.124 S 
ATOM     96  O   UNL A   1      46.652  35.584  25.540  1.00  0.00    -0.237 OA
ATOM     97  O   UNL A   1      45.193  36.985  26.964  1.00  0.00    -0.237 OA
ATOM     98  O   UNL A   1      47.636  37.295  27.016  1.00  0.00    -0.744 OA
ENDBRANCH  91  95
ENDBRANCH  65  88
ENDBRANCH  39  40
ENDBRANCH  31  34
ENDBRANCH  29  30
ENDBRANCH  28  29
ENDBRANCH  27  28
ENDBRANCH   1  27
TORSDOF 21
ENDMDL
MODEL 2
REMARK VINA RESULT:     -10.9      5.706     11.050
REMARK SMILES CC[C@H](C)[C@@H](NC(=O)c1csc(NC(C)=O)n1)C(=O)NCCCCCCNC(=O)c1ccc(-c2c3nc(c(-c4cc(S(=O)(=O)[O-])ccc4F)c4ccc([nH]4)c(-c4cc(S(=O)(=O)[O-])ccc4F)c4nc(c(-c5cc(S(=O)(=O)[O-])ccc5F)c5ccc2[nH]5)C=C4)C=C3)cc1
REMARK SMILES IDX 23 1 22 2 21 3 20 4 18 5 19 6 5 8 3 9 4 10 2 11 1 12 6 13
REMARK SMILES IDX 7 14 8 16 9 17 10 18 17 19 11 20 12 21 13 22 14 23 15 25
REMARK SMILES IDX 16 26 24 27 25 28 26 29 27 30 28 31 29 33 30 34 31 35 92 36
REMARK SMILES IDX 32 37 91 38 33 39 34 40 35 41 85 42 36 43 90 44 84 45 86 46
REMARK SMILES IDX 37 47 89 48 83 49 82 50 38 52 70 53 50 54 69 55 51 56 54 57
REMARK SMILES IDX 68 58 87 59 52 60 53 61 67 63 88 64 55 65 39 66 40 67 48 68
REMARK SMILES IDX 41 69 47 70 49 71 46 72 42 73 43 74 44 75 45 76 71 77 72 78
REMARK SMILES IDX 80 79 73 80 79 81 81 82 78 83 74 84 75 85 76 86 77 87 56 88
REMARK SMILES IDX 57 89 65 90 58 91 64 92 66 93 63 94 59 95 60 96 61 97 62 98
REMARK H PARENT 20 7 6 15 13 24 27 32 86 51 54 62
REMARK Flexibility Score: inf
ROOT
ATOM      1  C   UNL A   1      32.509  28.834  27.296  1.00  0.00     0.002 C 
ENDROOT
BRANCH   1   2
ATOM      2  C   UNL A   1      32.114  27.408  26.897  1.00  0.00     0.021 C 
BRANCH   2   3
ATOM      3  C   UNL A   1      33.181  26.659  26.106  1.00  0.00     0.116 C 
BRANCH   3   4
ATOM      4  N   UNL A   1      32.909  25.237  26.103  1.00  0.00    -0.354 N 
ATOM      5  C   UNL A   1      33.423  24.249  25.323  1.00  0.00     0.242 C 
ATOM      6  O   UNL A   1      32.939  23.117  25.458  1.00  0.00    -0.273 OA
ATOM      7  H   UNL A   1      32.249  24.939  26.771  1.00  0.00     0.163 HD
BRANCH   5   8
ATOM      8  C   UNL A   1      34.447  24.553  24.196  1.00  0.00     0.174 C 
BRANCH   8   9
ATOM      9  C   UNL A   1      35.819  23.878  24.587  1.00  0.00     0.018 C 
ATOM     10  C   UNL A   1      36.035  23.781  26.104  1.00  0.00     0.010 C 
BRANCH   9  11
ATOM     11  C   UNL A   1      35.987  22.511  23.862  1.00  0.00     0.002 C 
ATOM     12  C   UNL A   1      36.074  21.268  24.735  1.00  0.00     0.004 C 
ENDBRANCH   9  11
ENDBRANCH   8   9
BRANCH   8  13
ATOM     13  N   UNL A   1      34.025  24.163  22.835  1.00  0.00    -0.339 N 
ATOM     14  C   UNL A   1      33.049  24.662  22.006  1.00  0.00     0.271 C 
ATOM     15  H   UNL A   1      34.534  23.411  22.454  1.00  0.00     0.164 HD
ATOM     16  O   UNL A   1      33.115  24.368  20.812  1.00  0.00    -0.267 OA
BRANCH  14  17
ATOM     17  C   UNL A   1      31.900  25.376  22.553  1.00  0.00     0.141 A 
ATOM     18  C   UNL A   1      30.859  24.715  23.185  1.00  0.00     0.102 A 
ATOM     19  N   UNL A   1      31.767  26.756  22.543  1.00  0.00    -0.215 NA
ATOM     20  S   UNL A   1      29.800  25.847  23.909  1.00  0.00    -0.104 S 
ATOM     21  C   UNL A   1      30.764  27.113  23.311  1.00  0.00     0.190 A 
BRANCH  21  22
ATOM     22  N   UNL A   1      30.548  28.433  23.607  1.00  0.00    -0.302 N 
ATOM     23  C   UNL A   1      29.483  29.205  23.213  1.00  0.00     0.223 C 
ATOM     24  H   UNL A   1      31.229  28.877  24.163  1.00  0.00     0.172 HD
ATOM     25  C   UNL A   1      29.580  30.631  23.699  1.00  0.00     0.114 C 
ATOM     26  O   UNL A   1      28.509  28.853  22.554  1.00  0.00    -0.275 OA
ENDBRANCH  21  22
ENDBRANCH  14  17
ENDBRANCH   8  13
ENDBRANCH   5   8
ENDBRANCH   3   4
ENDBRANCH   2   3
ENDBRANCH   1   2
BRANCH   1  27
ATOM     27  C   UNL A   1      32.308  29.896  26.211  1.00  0.00     0.002 C 
BRANCH  27  28
ATOM     28  C   UNL A   1      31.921  31.287  26.720  1.00  0.00     0.021 C 
BRANCH  28  29
ATOM     29  C   UNL A   1      33.056  32.089  27.350  1.00  0.00     0.116 C 
BRANCH  29  30
ATOM     30  N   UNL A   1      32.702  33.480  27.581  1.00  0.00    -0.352 N 
ATOM     31  C   UNL A   1      33.253  34.366  28.474  1.00  0.00     0.251 C 
ATOM     32  H   UNL A   1      31.971  33.833  27.024  1.00  0.00     0.163 HD
ATOM     33  O   UNL A   1      32.763  35.480  28.626  1.00  0.00    -0.269 OA
BRANCH  31  34
ATOM     34  C   UNL A   1      34.423  33.947  29.277  1.00  0.00     0.039 A 
ATOM     35  C   UNL A   1      34.238  33.011  30.297  1.00  0.00     0.014 A 
ATOM     36  C   UNL A   1      35.696  34.448  28.994  1.00  0.00     0.014 A 
ATOM     37  C   UNL A   1      35.345  32.519  30.990  1.00  0.00     0.010 A 
ATOM     38  C   UNL A   1      36.804  33.925  29.656  1.00  0.00     0.010 A 
ATOM     39  C   UNL A   1      36.640  32.946  30.649  1.00  0.00    -0.014 A 
BRANCH  39  40
ATOM     40  C   UNL A   1      37.841  32.355  31.290  1.00  0.00     0.031 A 
ATOM     41  C   UNL A   1      38.568  31.223  30.623  1.00  0.00     0.074 A 
ATOM     42  C   UNL A   1      38.206  32.773  32.519  1.00  0.00     0.049 A 
ATOM     43  N   UNL A   1      39.553  30.492  31.079  1.00  0.00    -0.248 NA
ATOM     44  C   UNL A   1      38.109  30.845  29.278  1.00  0.00     0.031 C 
ATOM     45  C   UNL A   1      37.545  33.835  33.281  1.00  0.00     0.029 A 
ATOM     46  N   UNL A   1      39.201  32.334  33.356  1.00  0.00    -0.354 N 
ATOM     47  C   UNL A   1      39.815  29.552  30.091  1.00  0.00     0.074 A 
ATOM     48  C   UNL A   1      38.868  29.788  29.022  1.00  0.00     0.031 C 
ATOM     49  C   UNL A   1      38.144  33.955  34.477  1.00  0.00     0.029 A 
ATOM     50  C   UNL A   1      39.204  32.957  34.582  1.00  0.00     0.049 A 
ATOM     51  H   UNL A   1      39.851  31.639  33.103  1.00  0.00     0.167 HD
ATOM     52  C   UNL A   1      40.767  28.587  30.077  1.00  0.00     0.034 A 
ATOM     53  C   UNL A   1      39.953  32.729  35.679  1.00  0.00     0.034 A 
ATOM     54  C   UNL A   1      41.728  28.389  31.132  1.00  0.00     0.049 A 
ATOM     55  C   UNL A   1      40.995  31.642  35.639  1.00  0.00     0.074 A 
ATOM     56  C   UNL A   1      42.816  27.534  31.156  1.00  0.00     0.029 A 
ATOM     57  N   UNL A   1      41.706  29.041  32.356  1.00  0.00    -0.354 N 
ATOM     58  N   UNL A   1      41.289  30.820  34.659  1.00  0.00    -0.248 NA
ATOM     59  C   UNL A   1      41.806  31.453  36.850  1.00  0.00     0.031 C 
ATOM     60  C   UNL A   1      43.418  27.626  32.417  1.00  0.00     0.029 A 
ATOM     61  C   UNL A   1      42.734  28.575  33.161  1.00  0.00     0.049 A 
ATOM     62  H   UNL A   1      41.056  29.733  32.616  1.00  0.00     0.167 HD
ATOM     63  C   UNL A   1      42.330  30.027  35.131  1.00  0.00     0.074 A 
ATOM     64  C   UNL A   1      42.620  30.477  36.477  1.00  0.00     0.031 C 
ATOM     65  C   UNL A   1      42.991  29.020  34.508  1.00  0.00     0.034 A 
BRANCH  52  66
ATOM     66  C   UNL A   1      40.796  27.653  28.895  1.00  0.00     0.023 A 
ATOM     67  C   UNL A   1      41.752  27.782  27.873  1.00  0.00     0.031 A 
ATOM     68  C   UNL A   1      39.852  26.617  28.796  1.00  0.00     0.131 A 
ATOM     69  C   UNL A   1      41.708  26.919  26.767  1.00  0.00     0.055 A 
ATOM     70  C   UNL A   1      39.851  25.725  27.722  1.00  0.00     0.041 A 
ATOM     71  F   UNL A   1      38.907  26.462  29.736  1.00  0.00    -0.206 F 
ATOM     72  C   UNL A   1      40.779  25.879  26.695  1.00  0.00     0.022 A 
BRANCH  69  73
ATOM     73  S   UNL A   1      42.832  27.231  25.378  1.00  0.00     0.124 S 
ATOM     74  O   UNL A   1      44.073  27.564  26.073  1.00  0.00    -0.237 OA
ATOM     75  O   UNL A   1      42.819  25.957  24.669  1.00  0.00    -0.237 OA
ATOM     76  O   UNL A   1      42.202  28.344  24.671  1.00  0.00    -0.744 OA
ENDBRANCH  69  73
ENDBRANCH  52  66
BRANCH  53  77
ATOM     77  C   UNL A   1      39.719  33.504  36.929  1.00  0.00     0.023 A 
ATOM     78  C   UNL A   1      38.972  32.963  37.987  1.00  0.00     0.031 A 
ATOM     79  C   UNL A   1      40.195  34.820  37.059  1.00  0.00     0.131 A 
ATOM     80  C   UNL A   1      38.687  33.750  39.114  1.00  0.00     0.055 A 
ATOM     81  C   UNL A   1      39.946  35.585  38.200  1.00  0.00     0.041 A 
ATOM     82  F   UNL A   1      40.919  35.380  36.077  1.00  0.00    -0.206 F 
ATOM     83  C   UNL A   1      39.174  35.055  39.230  1.00  0.00     0.022 A 
BRANCH  80  84
ATOM     84  S   UNL A   1      37.590  33.074  40.391  1.00  0.00     0.124 S 
ATOM     85  O   UNL A   1      38.337  31.903  40.839  1.00  0.00    -0.237 OA
ATOM     86  O   UNL A   1      37.510  34.183  41.334  1.00  0.00    -0.237 OA
ATOM     87  O   UNL A   1      36.358  32.785  39.662  1.00  0.00    -0.744 OA
ENDBRANCH  80  84
ENDBRANCH  53  77
BRANCH  65  88
ATOM     88  C   UNL A   1      44.102  28.361  35.279  1.00  0.00     0.023 A 
ATOM     89  C   UNL A   1      45.405  28.887  35.276  1.00  0.00     0.031 A 
ATOM     90  C   UNL A   1      43.858  27.187  36.011  1.00  0.00     0.131 A 
ATOM     91  C   UNL A   1      46.428  28.216  35.960  1.00  0.00     0.055 A 
ATOM     92  C   UNL A   1      44.869  26.548  36.728  1.00  0.00     0.041 A 
ATOM     93  F   UNL A   1      42.629  26.645  36.043  1.00  0.00    -0.206 F 
ATOM     94  C   UNL A   1      46.165  27.058  36.697  1.00  0.00     0.022 A 
BRANCH  91  95
ATOM     95  S   UNL A   1      48.123  28.848  35.833  1.00  0.00     0.124 S 
ATOM     96  O   UNL A   1      48.029  29.736  34.680  1.00  0.00    -0.237 OA
ATOM     97  O   UNL A   1      48.315  29.499  37.125  1.00  0.00    -0.237 OA
ATOM     98  O   UNL A   1      48.923  27.642  35.625  1.00  0.00    -0.744 OA
ENDBRANCH  91  95
ENDBRANCH  65  88
ENDBRANCH  39  40
ENDBRANCH  31  34
ENDBRANCH  29  30
ENDBRANCH  28  29
ENDBRANCH  27  28
ENDBRANCH   1  27
TORSDOF 21
ENDMDL
MODEL 3
REMARK VINA RESULT:     -10.7      5.830     11.213
REMARK SMILES CC[C@H](C)[C@@H](NC(=O)c1csc(NC(C)=O)n1)C(=O)NCCCCCCNC(=O)c1ccc(-c2c3nc(c(-c4cc(S(=O)(=O)[O-])ccc4F)c4ccc([nH]4)c(-c4cc(S(=O)(=O)[O-])ccc4F)c4nc(c(-c5cc(S(=O)(=O)[O-])ccc5F)c5ccc2[nH]5)C=C4)C=C3)cc1
REMARK SMILES IDX 23 1 22 2 21 3 20 4 18 5 19 6 5 8 3 9 4 10 2 11 1 12 6 13
REMARK SMILES IDX 7 14 8 16 9 17 10 18 17 19 11 20 12 21 13 22 14 23 15 25
REMARK SMILES IDX 16 26 24 27 25 28 26 29 27 30 28 31 29 33 30 34 31 35 92 36
REMARK SMILES IDX 32 37 91 38 33 39 34 40 35 41 85 42 36 43 90 44 84 45 86 46
REMARK SMILES IDX 37 47 89 48 83 49 82 50 38 52 70 53 50 54 69 55 51 56 54 57
REMARK SMILES IDX 68 58 87 59 52 60 53 61 67 63 88 64 55 65 39 66 40 67 48 68
REMARK SMILES IDX 41 69 47 70 49 71 46 72 42 73 43 74 44 75 45 76 71 77 72 78
REMARK SMILES IDX 80 79 73 80 79 81 81 82 78 83 74 84 75 85 76 86 77 87 56 88
REMARK SMILES IDX 57 89 65 90 58 91 64 92 66 93 63 94 59 95 60 96 61 97 62 98
REMARK H PARENT 20 7 6 15 13 24 27 32 86 51 54 62
REMARK Flexibility Score: inf
ROOT
ATOM      1  C   UNL A   1      32.846  28.163  26.662  1.00  0.00     0.002 C 
ENDROOT
BRANCH   1   2
ATOM      2  C   UNL A   1      33.214  28.151  25.174  1.00  0.00     0.021 C 
BRANCH   2   3
ATOM      3  C   UNL A   1      33.938  26.889  24.716  1.00  0.00     0.116 C 
BRANCH   3   4
ATOM      4  N   UNL A   1      33.859  26.750  23.277  1.00  0.00    -0.354 N 
ATOM      5  C   UNL A   1      33.121  25.894  22.521  1.00  0.00     0.242 C 
ATOM      6  O   UNL A   1      33.318  25.913  21.298  1.00  0.00    -0.273 OA
ATOM      7  H   UNL A   1      34.427  27.371  22.767  1.00  0.00     0.163 HD
BRANCH   5   8
ATOM      8  C   UNL A   1      32.200  24.824  23.167  1.00  0.00     0.174 C 
BRANCH   8   9
ATOM      9  C   UNL A   1      30.782  25.476  23.400  1.00  0.00     0.018 C 
ATOM     10  C   UNL A   1      30.385  25.549  24.883  1.00  0.00     0.010 C 
BRANCH   9  11
ATOM     11  C   UNL A   1      30.682  26.850  22.678  1.00  0.00     0.002 C 
ATOM     12  C   UNL A   1      29.989  27.980  23.426  1.00  0.00     0.004 C 
ENDBRANCH   9  11
ENDBRANCH   8   9
BRANCH   8  13
ATOM     13  N   UNL A   1      32.091  23.551  22.426  1.00  0.00    -0.339 N 
ATOM     14  C   UNL A   1      32.235  22.246  22.831  1.00  0.00     0.271 C 
ATOM     15  H   UNL A   1      31.877  23.657  21.471  1.00  0.00     0.164 HD
ATOM     16  O   UNL A   1      31.785  21.370  22.092  1.00  0.00    -0.267 OA
BRANCH  14  17
ATOM     17  C   UNL A   1      33.033  21.915  24.007  1.00  0.00     0.141 A 
ATOM     18  C   UNL A   1      32.454  21.482  25.189  1.00  0.00     0.102 A 
ATOM     19  N   UNL A   1      34.419  21.950  24.039  1.00  0.00    -0.215 NA
ATOM     20  S   UNL A   1      33.665  20.962  26.279  1.00  0.00    -0.104 S 
ATOM     21  C   UNL A   1      34.854  21.376  25.137  1.00  0.00     0.190 A 
BRANCH  21  22
ATOM     22  N   UNL A   1      36.190  21.123  25.310  1.00  0.00    -0.302 N 
ATOM     23  C   UNL A   1      37.187  22.047  25.503  1.00  0.00     0.223 C 
ATOM     24  H   UNL A   1      36.465  20.178  25.294  1.00  0.00     0.172 HD
ATOM     25  C   UNL A   1      38.553  21.418  25.630  1.00  0.00     0.114 C 
ATOM     26  O   UNL A   1      37.069  23.265  25.593  1.00  0.00    -0.275 OA
ENDBRANCH  21  22
ENDBRANCH  14  17
ENDBRANCH   8  13
ENDBRANCH   5   8
ENDBRANCH   3   4
ENDBRANCH   2   3
ENDBRANCH   1   2
BRANCH   1  27
ATOM     27  C   UNL A   1      31.794  29.200  27.066  1.00  0.00     0.002 C 
BRANCH  27  28
ATOM     28  C   UNL A   1      31.973  30.589  26.447  1.00  0.00     0.021 C 
BRANCH  28  29
ATOM     29  C   UNL A   1      33.031  31.466  27.111  1.00  0.00     0.116 C 
BRANCH  29  30
ATOM     30  N   UNL A   1      32.606  32.848  27.261  1.00  0.00    -0.352 N 
ATOM     31  C   UNL A   1      33.110  33.813  28.098  1.00  0.00     0.251 C 
ATOM     32  H   UNL A   1      31.858  33.128  26.685  1.00  0.00     0.163 HD
ATOM     33  O   UNL A   1      32.561  34.906  28.184  1.00  0.00    -0.269 OA
BRANCH  31  34
ATOM     34  C   UNL A   1      34.299  33.503  28.920  1.00  0.00     0.039 A 
ATOM     35  C   UNL A   1      34.153  32.659  30.023  1.00  0.00     0.014 A 
ATOM     36  C   UNL A   1      35.553  34.015  28.578  1.00  0.00     0.014 A 
ATOM     37  C   UNL A   1      35.282  32.264  30.744  1.00  0.00     0.010 A 
ATOM     38  C   UNL A   1      36.683  33.588  29.272  1.00  0.00     0.010 A 
ATOM     39  C   UNL A   1      36.559  32.698  30.350  1.00  0.00    -0.014 A 
BRANCH  39  40
ATOM     40  C   UNL A   1      37.784  32.205  31.027  1.00  0.00     0.031 A 
ATOM     41  C   UNL A   1      38.657  31.186  30.351  1.00  0.00     0.074 A 
ATOM     42  C   UNL A   1      38.044  32.598  32.290  1.00  0.00     0.049 A 
ATOM     43  N   UNL A   1      39.691  30.540  30.826  1.00  0.00    -0.248 NA
ATOM     44  C   UNL A   1      38.305  30.829  28.969  1.00  0.00     0.031 C 
ATOM     45  C   UNL A   1      37.240  33.549  33.062  1.00  0.00     0.029 A 
ATOM     46  N   UNL A   1      39.040  32.225  33.159  1.00  0.00    -0.354 N 
ATOM     47  C   UNL A   1      40.098  29.681  29.814  1.00  0.00     0.074 A 
ATOM     48  C   UNL A   1      39.182  29.869  28.708  1.00  0.00     0.031 C 
ATOM     49  C   UNL A   1      37.766  33.673  34.291  1.00  0.00     0.029 A 
ATOM     50  C   UNL A   1      38.918  32.786  34.409  1.00  0.00     0.049 A 
ATOM     51  H   UNL A   1      39.770  31.614  32.910  1.00  0.00     0.167 HD
ATOM     52  C   UNL A   1      41.145  28.820  29.808  1.00  0.00     0.034 A 
ATOM     53  C   UNL A   1      39.635  32.583  35.532  1.00  0.00     0.034 A 
ATOM     54  C   UNL A   1      42.071  28.672  30.902  1.00  0.00     0.049 A 
ATOM     55  C   UNL A   1      40.786  31.613  35.500  1.00  0.00     0.074 A 
ATOM     56  C   UNL A   1      43.241  27.934  30.946  1.00  0.00     0.029 A 
ATOM     57  N   UNL A   1      41.922  29.260  32.150  1.00  0.00    -0.354 N 
ATOM     58  N   UNL A   1      41.211  30.874  34.502  1.00  0.00    -0.248 NA
ATOM     59  C   UNL A   1      41.554  31.451  36.742  1.00  0.00     0.031 C 
ATOM     60  C   UNL A   1      43.769  28.028  32.240  1.00  0.00     0.029 A 
ATOM     61  C   UNL A   1      42.954  28.864  32.987  1.00  0.00     0.049 A 
ATOM     62  H   UNL A   1      41.191  29.867  32.405  1.00  0.00     0.167 HD
ATOM     63  C   UNL A   1      42.307  30.171  34.993  1.00  0.00     0.074 A 
ATOM     64  C   UNL A   1      42.484  30.584  36.371  1.00  0.00     0.031 C 
ATOM     65  C   UNL A   1      43.099  29.268  34.363  1.00  0.00     0.034 A 
BRANCH  52  66
ATOM     66  C   UNL A   1      41.329  27.953  28.591  1.00  0.00     0.023 A 
ATOM     67  C   UNL A   1      40.946  26.601  28.580  1.00  0.00     0.031 A 
ATOM     68  C   UNL A   1      41.893  28.493  27.422  1.00  0.00     0.131 A 
ATOM     69  C   UNL A   1      41.183  25.819  27.439  1.00  0.00     0.055 A 
ATOM     70  C   UNL A   1      42.071  27.725  26.270  1.00  0.00     0.041 A 
ATOM     71  F   UNL A   1      42.292  29.774  27.385  1.00  0.00    -0.206 F 
ATOM     72  C   UNL A   1      41.722  26.377  26.278  1.00  0.00     0.022 A 
BRANCH  69  73
ATOM     73  S   UNL A   1      40.855  24.037  27.523  1.00  0.00     0.124 S 
ATOM     74  O   UNL A   1      39.405  24.014  27.702  1.00  0.00    -0.237 OA
ATOM     75  O   UNL A   1      41.348  23.564  26.235  1.00  0.00    -0.237 OA
ATOM     76  O   UNL A   1      41.627  23.602  28.685  1.00  0.00    -0.744 OA
ENDBRANCH  69  73
ENDBRANCH  52  66
BRANCH  53  77
ATOM     77  C   UNL A   1      39.261  33.270  36.801  1.00  0.00     0.023 A 
ATOM     78  C   UNL A   1      39.810  34.516  37.137  1.00  0.00     0.031 A 
ATOM     79  C   UNL A   1      38.389  32.659  37.718  1.00  0.00     0.131 A 
ATOM     80  C   UNL A   1      39.513  35.096  38.381  1.00  0.00     0.055 A 
ATOM     81  C   UNL A   1      38.063  33.259  38.936  1.00  0.00     0.041 A 
ATOM     82  F   UNL A   1      37.835  31.469  37.439  1.00  0.00    -0.206 F 
ATOM     83  C   UNL A   1      38.639  34.479  39.279  1.00  0.00     0.022 A 
BRANCH  80  84
ATOM     84  S   UNL A   1      40.361  36.630  38.848  1.00  0.00     0.124 S 
ATOM     85  O   UNL A   1      39.248  37.568  38.955  1.00  0.00    -0.237 OA
ATOM     86  O   UNL A   1      41.000  36.249  40.102  1.00  0.00    -0.237 OA
ATOM     87  O   UNL A   1      41.272  36.869  37.731  1.00  0.00    -0.744 OA
ENDBRANCH  80  84
ENDBRANCH  53  77
BRANCH  65  88
ATOM     88  C   UNL A   1      44.236  28.691  35.162  1.00  0.00     0.023 A 
ATOM     89  C   UNL A   1      44.038  27.610  36.037  1.00  0.00     0.031 A 
ATOM     90  C   UNL A   1      45.526  29.238  35.056  1.00  0.00     0.131 A 
ATOM     91  C   UNL A   1      45.109  27.134  36.807  1.00  0.00     0.055 A 
ATOM     92  C   UNL A   1      46.598  28.731  35.792  1.00  0.00     0.041 A 
ATOM     93  F   UNL A   1      45.763  30.273  34.235  1.00  0.00    -0.206 F 
ATOM     94  C   UNL A   1      46.389  27.678  36.680  1.00  0.00     0.022 A 
BRANCH  91  95
ATOM     95  S   UNL A   1      44.795  25.823  38.020  1.00  0.00     0.124 S 
ATOM     96  O   UNL A   1      46.146  25.389  38.354  1.00  0.00    -0.237 OA
ATOM     97  O   UNL A   1      44.075  26.533  39.073  1.00  0.00    -0.237 OA
ATOM     98  O   UNL A   1      43.996  24.851  37.275  1.00  0.00    -0.744 OA
ENDBRANCH  91  95
ENDBRANCH  65  88
ENDBRANCH  39  40
ENDBRANCH  31  34
ENDBRANCH  29  30
ENDBRANCH  28  29
ENDBRANCH  27  28
ENDBRANCH   1  27
TORSDOF 21
ENDMDL
