MODEL 1
REMARK VINA RESULT:     -11.0      0.000      0.000
REMARK SMILES C[C@@](NC(=O)[C@H]1COc2ccccc21)(C(=O)NCCCCCCNC(=O)c1ccc(-c2c3nc(c(-c4cc(S(=O)(=O)[O-])ccc4F)c4ccc([nH]4)c(-c4cc(S(=O)(=O)[O-])ccc4F)c4nc(c(-c5cc(S(=O)(=O)[O-])ccc5F)c5ccc2[nH]5)C=C4)C=C3)cc1)C(F)(F)F
REMARK SMILES IDX 21 1 20 2 19 3 18 4 17 5 15 6 16 7 2 9 1 10 3 11 4 12 5 14
REMARK SMILES IDX 6 15 7 16 14 17 8 18 9 19 13 20 10 21 12 22 11 23 90 24
REMARK SMILES IDX 91 25 92 26 93 27 22 28 23 29 24 30 25 31 26 33 27 34 28 35
REMARK SMILES IDX 89 36 29 37 88 38 30 39 31 40 32 41 82 42 33 43 87 44 81 45
REMARK SMILES IDX 83 46 34 47 86 48 80 49 79 50 35 52 67 53 47 54 66 55 48 56
REMARK SMILES IDX 51 57 65 58 84 59 49 60 50 61 64 63 85 64 52 65 36 66 37 67
REMARK SMILES IDX 45 68 38 69 44 70 46 71 43 72 39 73 40 74 41 75 42 76 68 77
REMARK SMILES IDX 69 78 77 79 70 80 76 81 78 82 75 83 71 84 72 85 73 86 74 87
REMARK SMILES IDX 53 88 54 89 62 90 55 91 61 92 63 93 60 94 56 95 57 96 58 97
REMARK SMILES IDX 59 98
REMARK H PARENT 17 8 3 13 24 32 83 51 51 62
REMARK Flexibility Score: inf
ROOT
ATOM      1  C   UNL A   1      41.502  21.214  27.848  1.00  0.00     0.002 C 
ENDROOT
BRANCH   1   2
ATOM      2  C   UNL A   1      41.015  22.207  26.785  1.00  0.00     0.002 C 
BRANCH   2   3
ATOM      3  C   UNL A   1      39.899  23.157  27.236  1.00  0.00     0.021 C 
BRANCH   3   4
ATOM      4  C   UNL A   1      38.603  23.018  26.446  1.00  0.00     0.116 C 
BRANCH   4   5
ATOM      5  N   UNL A   1      38.442  21.679  25.915  1.00  0.00    -0.354 N 
ATOM      6  C   UNL A   1      37.387  21.100  25.272  1.00  0.00     0.254 C 
ATOM      7  O   UNL A   1      37.580  19.963  24.834  1.00  0.00    -0.272 OA
ATOM      8  H   UNL A   1      39.221  21.090  26.038  1.00  0.00     0.163 HD
BRANCH   6   9
ATOM      9  C   UNL A   1      36.017  21.791  25.190  1.00  0.00     0.212 C 
ATOM     10  C   UNL A   1      34.972  20.708  24.830  1.00  0.00     0.056 C 
BRANCH   9  11
ATOM     11  N   UNL A   1      35.573  22.466  26.461  1.00  0.00    -0.334 N 
ATOM     12  C   UNL A   1      34.302  22.644  26.945  1.00  0.00     0.232 C 
ATOM     13  H   UNL A   1      36.296  22.829  27.022  1.00  0.00     0.164 HD
ATOM     14  O   UNL A   1      34.151  22.481  28.157  1.00  0.00    -0.274 OA
BRANCH  12  15
ATOM     15  C   UNL A   1      33.184  23.144  26.048  1.00  0.00     0.150 C 
ATOM     16  C   UNL A   1      31.790  22.793  26.572  1.00  0.00     0.248 C 
ATOM     17  C   UNL A   1      33.041  24.633  26.019  1.00  0.00     0.010 A 
ATOM     18  O   UNL A   1      30.873  23.872  26.252  1.00  0.00    -0.492 OA
ATOM     19  C   UNL A   1      31.693  24.956  26.075  1.00  0.00     0.123 A 
ATOM     20  C   UNL A   1      33.990  25.632  25.865  1.00  0.00     0.008 A 
ATOM     21  C   UNL A   1      31.242  26.255  25.934  1.00  0.00     0.047 A 
ATOM     22  C   UNL A   1      33.556  26.954  25.723  1.00  0.00     0.001 A 
ATOM     23  C   UNL A   1      32.189  27.263  25.744  1.00  0.00     0.004 A 
ENDBRANCH  12  15
ENDBRANCH   9  11
BRANCH   9  24
ATOM     24  C   UNL A   1      36.063  22.776  23.997  1.00  0.00     0.420 C 
ATOM     25  F   UNL A   1      36.933  22.405  23.032  1.00  0.00    -0.168 F 
ATOM     26  F   UNL A   1      34.840  22.829  23.400  1.00  0.00    -0.168 F 
ATOM     27  F   UNL A   1      36.357  24.037  24.383  1.00  0.00    -0.168 F 
ENDBRANCH   9  24
ENDBRANCH   6   9
ENDBRANCH   4   5
ENDBRANCH   3   4
ENDBRANCH   2   3
ENDBRANCH   1   2
BRANCH   1  28
ATOM     28  C   UNL A   1      41.896  19.837  27.314  1.00  0.00     0.021 C 
BRANCH  28  29
ATOM     29  C   UNL A   1      41.767  19.685  25.805  1.00  0.00     0.116 C 
BRANCH  29  30
ATOM     30  N   UNL A   1      42.998  19.193  25.212  1.00  0.00    -0.352 N 
ATOM     31  C   UNL A   1      44.122  19.884  24.828  1.00  0.00     0.251 C 
ATOM     32  H   UNL A   1      43.032  18.220  25.064  1.00  0.00     0.163 HD
ATOM     33  O   UNL A   1      44.950  19.328  24.113  1.00  0.00    -0.269 OA
BRANCH  31  34
ATOM     34  C   UNL A   1      44.326  21.288  25.258  1.00  0.00     0.039 A 
ATOM     35  C   UNL A   1      43.907  22.322  24.416  1.00  0.00     0.014 A 
ATOM     36  C   UNL A   1      44.964  21.594  26.463  1.00  0.00     0.014 A 
ATOM     37  C   UNL A   1      44.093  23.653  24.798  1.00  0.00     0.010 A 
ATOM     38  C   UNL A   1      45.058  22.917  26.889  1.00  0.00     0.010 A 
ATOM     39  C   UNL A   1      44.649  23.963  26.050  1.00  0.00    -0.014 A 
BRANCH  39  40
ATOM     40  C   UNL A   1      44.876  25.371  26.476  1.00  0.00     0.031 A 
ATOM     41  C   UNL A   1      46.246  25.983  26.327  1.00  0.00     0.074 A 
ATOM     42  C   UNL A   1      43.876  26.076  27.043  1.00  0.00     0.049 A 
ATOM     43  N   UNL A   1      46.687  27.146  26.736  1.00  0.00    -0.248 NA
ATOM     44  C   UNL A   1      47.266  25.157  25.663  1.00  0.00     0.031 C 
ATOM     45  C   UNL A   1      42.518  25.581  27.278  1.00  0.00     0.029 A 
ATOM     46  N   UNL A   1      43.848  27.358  27.532  1.00  0.00    -0.354 N 
ATOM     47  C   UNL A   1      48.037  27.180  26.396  1.00  0.00     0.074 A 
ATOM     48  C   UNL A   1      48.356  25.891  25.824  1.00  0.00     0.031 C 
ATOM     49  C   UNL A   1      41.784  26.554  27.840  1.00  0.00     0.029 A 
ATOM     50  C   UNL A   1      42.628  27.727  28.051  1.00  0.00     0.049 A 
ATOM     51  H   UNL A   1      44.629  27.958  27.513  1.00  0.00     0.167 HD
ATOM     52  C   UNL A   1      48.920  28.203  26.515  1.00  0.00     0.034 A 
ATOM     53  C   UNL A   1      42.238  28.876  28.638  1.00  0.00     0.034 A 
ATOM     54  C   UNL A   1      48.577  29.492  27.065  1.00  0.00     0.049 A 
ATOM     55  C   UNL A   1      43.238  29.999  28.766  1.00  0.00     0.074 A 
ATOM     56  C   UNL A   1      49.379  30.610  27.215  1.00  0.00     0.029 A 
ATOM     57  N   UNL A   1      47.321  29.838  27.551  1.00  0.00    -0.354 N 
ATOM     58  N   UNL A   1      44.504  30.024  28.414  1.00  0.00    -0.248 NA
ATOM     59  C   UNL A   1      42.752  31.254  29.352  1.00  0.00     0.031 C 
ATOM     60  C   UNL A   1      48.626  31.611  27.838  1.00  0.00     0.029 A 
ATOM     61  C   UNL A   1      47.331  31.145  28.010  1.00  0.00     0.049 A 
ATOM     62  H   UNL A   1      46.539  29.240  27.567  1.00  0.00     0.167 HD
ATOM     63  C   UNL A   1      44.952  31.310  28.702  1.00  0.00     0.074 A 
ATOM     64  C   UNL A   1      43.817  32.034  29.237  1.00  0.00     0.031 C 
ATOM     65  C   UNL A   1      46.187  31.849  28.539  1.00  0.00     0.034 A 
BRANCH  52  66
ATOM     66  C   UNL A   1      50.336  27.954  26.048  1.00  0.00     0.023 A 
ATOM     67  C   UNL A   1      50.666  27.932  24.681  1.00  0.00     0.031 A 
ATOM     68  C   UNL A   1      51.363  27.698  26.973  1.00  0.00     0.131 A 
ATOM     69  C   UNL A   1      51.960  27.574  24.276  1.00  0.00     0.055 A 
ATOM     70  C   UNL A   1      52.673  27.433  26.565  1.00  0.00     0.041 A 
ATOM     71  F   UNL A   1      51.110  27.684  28.291  1.00  0.00    -0.206 F 
ATOM     72  C   UNL A   1      52.974  27.351  25.209  1.00  0.00     0.022 A 
BRANCH  69  73
ATOM     73  S   UNL A   1      52.255  27.250  22.515  1.00  0.00     0.124 S 
ATOM     74  O   UNL A   1      52.794  28.532  22.069  1.00  0.00    -0.237 OA
ATOM     75  O   UNL A   1      53.197  26.138  22.552  1.00  0.00    -0.237 OA
ATOM     76  O   UNL A   1      50.926  26.925  22.000  1.00  0.00    -0.744 OA
ENDBRANCH  69  73
ENDBRANCH  52  66
BRANCH  53  77
ATOM     77  C   UNL A   1      40.846  29.034  29.155  1.00  0.00     0.023 A 
ATOM     78  C   UNL A   1      40.577  28.988  30.532  1.00  0.00     0.031 A 
ATOM     79  C   UNL A   1      39.756  29.173  28.276  1.00  0.00     0.131 A 
ATOM     80  C   UNL A   1      39.251  29.018  30.988  1.00  0.00     0.055 A 
ATOM     81  C   UNL A   1      38.443  29.266  28.739  1.00  0.00     0.041 A 
ATOM     82  F   UNL A   1      39.956  29.229  26.950  1.00  0.00    -0.206 F 
ATOM     83  C   UNL A   1      38.182  29.170  30.102  1.00  0.00     0.022 A 
BRANCH  80  84
ATOM     84  S   UNL A   1      38.935  28.744  32.753  1.00  0.00     0.124 S 
ATOM     85  O   UNL A   1      39.850  27.647  33.051  1.00  0.00    -0.237 OA
ATOM     86  O   UNL A   1      39.280  30.041  33.327  1.00  0.00    -0.237 OA
ATOM     87  O   UNL A   1      37.515  28.402  32.796  1.00  0.00    -0.744 OA
ENDBRANCH  80  84
ENDBRANCH  53  77
BRANCH  65  88
ATOM     88  C   UNL A   1      46.348  33.309  28.889  1.00  0.00     0.023 A 
ATOM     89  C   UNL A   1      46.185  34.324  27.930  1.00  0.00     0.031 A 
ATOM     90  C   UNL A   1      46.693  33.685  30.198  1.00  0.00     0.131 A 
ATOM     91  C   UNL A   1      46.434  35.659  28.279  1.00  0.00     0.055 A 
ATOM     92  C   UNL A   1      46.876  35.021  30.556  1.00  0.00     0.041 A 
ATOM     93  F   UNL A   1      46.862  32.757  31.154  1.00  0.00    -0.206 F 
ATOM     94  C   UNL A   1      46.761  36.017  29.589  1.00  0.00     0.022 A 
BRANCH  91  95
ATOM     95  S   UNL A   1      46.427  36.915  26.969  1.00  0.00     0.124 S 
ATOM     96  O   UNL A   1      45.205  37.656  27.266  1.00  0.00    -0.237 OA
ATOM     97  O   UNL A   1      47.678  37.627  27.215  1.00  0.00    -0.237 OA
ATOM     98  O   UNL A   1      46.393  36.128  25.739  1.00  0.00    -0.744 OA
ENDBRANCH  91  95
ENDBRANCH  65  88
ENDBRANCH  39  40
ENDBRANCH  31  34
ENDBRANCH  29  30
ENDBRANCH  28  29
ENDBRANCH   1  28
TORSDOF 19
ENDMDL
MODEL 2
REMARK VINA RESULT:     -10.8      6.074     10.520
REMARK SMILES C[C@@](NC(=O)[C@H]1COc2ccccc21)(C(=O)NCCCCCCNC(=O)c1ccc(-c2c3nc(c(-c4cc(S(=O)(=O)[O-])ccc4F)c4ccc([nH]4)c(-c4cc(S(=O)(=O)[O-])ccc4F)c4nc(c(-c5cc(S(=O)(=O)[O-])ccc5F)c5ccc2[nH]5)C=C4)C=C3)cc1)C(F)(F)F
REMARK SMILES IDX 21 1 20 2 19 3 18 4 17 5 15 6 16 7 2 9 1 10 3 11 4 12 5 14
REMARK SMILES IDX 6 15 7 16 14 17 8 18 9 19 13 20 10 21 12 22 11 23 90 24
REMARK SMILES IDX 91 25 92 26 93 27 22 28 23 29 24 30 25 31 26 33 27 34 28 35
REMARK SMILES IDX 89 36 29 37 88 38 30 39 31 40 32 41 82 42 33 43 87 44 81 45
REMARK SMILES IDX 83 46 34 47 86 48 80 49 79 50 35 52 67 53 47 54 66 55 48 56
REMARK SMILES IDX 51 57 65 58 84 59 49 60 50 61 64 63 85 64 52 65 36 66 37 67
REMARK SMILES IDX 45 68 38 69 44 70 46 71 43 72 39 73 40 74 41 75 42 76 68 77
REMARK SMILES IDX 69 78 77 79 70 80 76 81 78 82 75 83 71 84 72 85 73 86 74 87
REMARK SMILES IDX 53 88 54 89 62 90 55 91 61 92 63 93 60 94 56 95 57 96 58 97
REMARK SMILES IDX 59 98
REMARK H PARENT 17 8 3 13 24 32 83 51 51 62
REMARK Flexibility Score: inf
ROOT
ATOM      1  C   UNL A   1      31.511  30.609  26.003  1.00  0.00     0.002 C 
ENDROOT
BRANCH   1   2
ATOM      2  C   UNL A   1      32.267  29.580  26.852  1.00  0.00     0.002 C 
BRANCH   2   3
ATOM      3  C   UNL A   1      31.447  28.362  27.294  1.00  0.00     0.021 C 
BRANCH   3   4
ATOM      4  C   UNL A   1      31.951  27.035  26.738  1.00  0.00     0.116 C 
BRANCH   4   5
ATOM      5  N   UNL A   1      31.279  26.682  25.504  1.00  0.00    -0.354 N 
ATOM      6  C   UNL A   1      31.784  26.325  24.288  1.00  0.00     0.254 C 
ATOM      7  O   UNL A   1      30.958  25.972  23.442  1.00  0.00    -0.272 OA
ATOM      8  H   UNL A   1      30.296  26.704  25.549  1.00  0.00     0.163 HD
BRANCH   6   9
ATOM      9  C   UNL A   1      33.283  26.452  23.970  1.00  0.00     0.212 C 
ATOM     10  C   UNL A   1      34.058  26.194  25.284  1.00  0.00     0.056 C 
BRANCH   9  11
ATOM     11  N   UNL A   1      33.790  25.489  22.930  1.00  0.00    -0.334 N 
ATOM     12  C   UNL A   1      33.532  24.148  22.796  1.00  0.00     0.232 C 
ATOM     13  H   UNL A   1      34.391  25.875  22.253  1.00  0.00     0.164 HD
ATOM     14  O   UNL A   1      33.352  23.739  21.648  1.00  0.00    -0.274 OA
BRANCH  12  15
ATOM     15  C   UNL A   1      33.599  23.213  23.989  1.00  0.00     0.150 C 
ATOM     16  C   UNL A   1      32.806  21.920  23.786  1.00  0.00     0.248 C 
ATOM     17  C   UNL A   1      34.949  22.610  24.221  1.00  0.00     0.010 A 
ATOM     18  O   UNL A   1      33.500  20.826  24.441  1.00  0.00    -0.492 OA
ATOM     19  C   UNL A   1      34.795  21.268  24.533  1.00  0.00     0.123 A 
ATOM     20  C   UNL A   1      36.208  23.192  24.250  1.00  0.00     0.008 A 
ATOM     21  C   UNL A   1      35.858  20.478  24.926  1.00  0.00     0.047 A 
ATOM     22  C   UNL A   1      37.298  22.409  24.643  1.00  0.00     0.001 A 
ATOM     23  C   UNL A   1      37.124  21.062  24.992  1.00  0.00     0.004 A 
ENDBRANCH  12  15
ENDBRANCH   9  11
BRANCH   9  24
ATOM     24  C   UNL A   1      33.553  27.924  23.579  1.00  0.00     0.420 C 
ATOM     25  F   UNL A   1      32.426  28.660  23.458  1.00  0.00    -0.168 F 
ATOM     26  F   UNL A   1      34.293  28.528  24.550  1.00  0.00    -0.168 F 
ATOM     27  F   UNL A   1      34.264  28.029  22.434  1.00  0.00    -0.168 F 
ENDBRANCH   9  24
ENDBRANCH   6   9
ENDBRANCH   4   5
ENDBRANCH   3   4
ENDBRANCH   2   3
ENDBRANCH   1   2
BRANCH   1  28
ATOM     28  C   UNL A   1      31.425  32.010  26.609  1.00  0.00     0.021 C 
BRANCH  28  29
ATOM     29  C   UNL A   1      32.723  32.511  27.227  1.00  0.00     0.116 C 
BRANCH  29  30
ATOM     30  N   UNL A   1      32.636  33.916  27.583  1.00  0.00    -0.352 N 
ATOM     31  C   UNL A   1      33.270  34.605  28.588  1.00  0.00     0.251 C 
ATOM     32  H   UNL A   1      32.033  34.454  27.020  1.00  0.00     0.163 HD
ATOM     33  O   UNL A   1      32.870  35.726  28.888  1.00  0.00    -0.269 OA
BRANCH  31  34
ATOM     34  C   UNL A   1      34.413  33.998  29.312  1.00  0.00     0.039 A 
ATOM     35  C   UNL A   1      34.156  33.089  30.342  1.00  0.00     0.014 A 
ATOM     36  C   UNL A   1      35.732  34.350  29.013  1.00  0.00     0.014 A 
ATOM     37  C   UNL A   1      35.218  32.508  31.041  1.00  0.00     0.010 A 
ATOM     38  C   UNL A   1      36.789  33.696  29.641  1.00  0.00     0.010 A 
ATOM     39  C   UNL A   1      36.546  32.788  30.681  1.00  0.00    -0.014 A 
BRANCH  39  40
ATOM     40  C   UNL A   1      37.696  32.198  31.419  1.00  0.00     0.031 A 
ATOM     41  C   UNL A   1      38.503  31.096  30.781  1.00  0.00     0.074 A 
ATOM     42  C   UNL A   1      37.979  32.608  32.671  1.00  0.00     0.049 A 
ATOM     43  N   UNL A   1      39.465  30.368  31.289  1.00  0.00    -0.248 NA
ATOM     44  C   UNL A   1      38.149  30.737  29.399  1.00  0.00     0.031 C 
ATOM     45  C   UNL A   1      37.246  33.639  33.411  1.00  0.00     0.029 A 
ATOM     46  N   UNL A   1      38.954  32.204  33.549  1.00  0.00    -0.354 N 
ATOM     47  C   UNL A   1      39.817  29.458  30.296  1.00  0.00     0.074 A 
ATOM     48  C   UNL A   1      38.908  29.673  29.191  1.00  0.00     0.031 C 
ATOM     49  C   UNL A   1      37.814  33.804  34.617  1.00  0.00     0.029 A 
ATOM     50  C   UNL A   1      38.918  32.860  34.758  1.00  0.00     0.049 A 
ATOM     51  H   UNL A   1      39.617  31.509  33.333  1.00  0.00     0.167 HD
ATOM     52  C   UNL A   1      40.826  28.551  30.289  1.00  0.00     0.034 A 
ATOM     53  C   UNL A   1      39.684  32.711  35.858  1.00  0.00     0.034 A 
ATOM     54  C   UNL A   1      41.740  28.368  31.390  1.00  0.00     0.049 A 
ATOM     55  C   UNL A   1      40.798  31.692  35.832  1.00  0.00     0.074 A 
ATOM     56  C   UNL A   1      42.813  27.499  31.490  1.00  0.00     0.029 A 
ATOM     57  N   UNL A   1      41.691  29.074  32.587  1.00  0.00    -0.354 N 
ATOM     58  N   UNL A   1      41.133  30.858  34.873  1.00  0.00    -0.248 NA
ATOM     59  C   UNL A   1      41.646  31.609  37.025  1.00  0.00     0.031 C 
ATOM     60  C   UNL A   1      43.379  27.642  32.761  1.00  0.00     0.029 A 
ATOM     61  C   UNL A   1      42.707  28.653  33.430  1.00  0.00     0.049 A 
ATOM     62  H   UNL A   1      41.031  29.773  32.803  1.00  0.00     0.167 HD
ATOM     63  C   UNL A   1      42.257  30.179  35.338  1.00  0.00     0.074 A 
ATOM     64  C   UNL A   1      42.550  30.716  36.651  1.00  0.00     0.031 C 
ATOM     65  C   UNL A   1      42.983  29.203  34.736  1.00  0.00     0.034 A 
BRANCH  52  66
ATOM     66  C   UNL A   1      40.978  27.692  29.055  1.00  0.00     0.023 A 
ATOM     67  C   UNL A   1      41.988  27.939  28.107  1.00  0.00     0.031 A 
ATOM     68  C   UNL A   1      40.085  26.637  28.799  1.00  0.00     0.131 A 
ATOM     69  C   UNL A   1      42.025  27.206  26.913  1.00  0.00     0.055 A 
ATOM     70  C   UNL A   1      40.184  25.850  27.648  1.00  0.00     0.041 A 
ATOM     71  F   UNL A   1      39.086  26.363  29.653  1.00  0.00    -0.206 F 
ATOM     72  C   UNL A   1      41.147  26.144  26.688  1.00  0.00     0.022 A 
BRANCH  69  73
ATOM     73  S   UNL A   1      43.135  27.764  25.590  1.00  0.00     0.124 S 
ATOM     74  O   UNL A   1      43.981  28.718  26.302  1.00  0.00    -0.237 OA
ATOM     75  O   UNL A   1      43.779  26.525  25.174  1.00  0.00    -0.237 OA
ATOM     76  O   UNL A   1      42.228  28.356  24.609  1.00  0.00    -0.744 OA
ENDBRANCH  69  73
ENDBRANCH  52  66
BRANCH  53  77
ATOM     77  C   UNL A   1      39.433  33.532  37.078  1.00  0.00     0.023 A 
ATOM     78  C   UNL A   1      40.131  34.729  37.300  1.00  0.00     0.031 A 
ATOM     79  C   UNL A   1      38.533  33.103  38.070  1.00  0.00     0.131 A 
ATOM     80  C   UNL A   1      39.967  35.423  38.509  1.00  0.00     0.055 A 
ATOM     81  C   UNL A   1      38.326  33.830  39.244  1.00  0.00     0.041 A 
ATOM     82  F   UNL A   1      37.833  31.969  37.908  1.00  0.00    -0.206 F 
ATOM     83  C   UNL A   1      39.060  34.989  39.477  1.00  0.00     0.022 A 
BRANCH  80  84
ATOM     84  S   UNL A   1      41.042  36.845  38.845  1.00  0.00     0.124 S 
ATOM     85  O   UNL A   1      41.810  36.936  37.607  1.00  0.00    -0.237 OA
ATOM     86  O   UNL A   1      40.071  37.910  39.077  1.00  0.00    -0.237 OA
ATOM     87  O   UNL A   1      41.801  36.427  40.022  1.00  0.00    -0.744 OA
ENDBRANCH  80  84
ENDBRANCH  53  77
BRANCH  65  88
ATOM     88  C   UNL A   1      44.200  28.703  35.476  1.00  0.00     0.023 A 
ATOM     89  C   UNL A   1      44.108  27.717  36.474  1.00  0.00     0.031 A 
ATOM     90  C   UNL A   1      45.468  29.240  35.192  1.00  0.00     0.131 A 
ATOM     91  C   UNL A   1      45.251  27.349  37.199  1.00  0.00     0.055 A 
ATOM     92  C   UNL A   1      46.613  28.822  35.871  1.00  0.00     0.041 A 
ATOM     93  F   UNL A   1      45.614  30.183  34.248  1.00  0.00    -0.206 F 
ATOM     94  C   UNL A   1      46.506  27.882  36.892  1.00  0.00     0.022 A 
BRANCH  91  95
ATOM     95  S   UNL A   1      45.059  26.239  38.621  1.00  0.00     0.124 S 
ATOM     96  O   UNL A   1      43.653  26.425  38.963  1.00  0.00    -0.237 OA
ATOM     97  O   UNL A   1      45.410  24.941  38.053  1.00  0.00    -0.237 OA
ATOM     98  O   UNL A   1      46.010  26.766  39.598  1.00  0.00    -0.744 OA
ENDBRANCH  91  95
ENDBRANCH  65  88
ENDBRANCH  39  40
ENDBRANCH  31  34
ENDBRANCH  29  30
ENDBRANCH  28  29
ENDBRANCH   1  28
TORSDOF 19
ENDMDL
MODEL 3
REMARK VINA RESULT:     -10.8      6.152     10.459
REMARK SMILES C[C@@](NC(=O)[C@H]1COc2ccccc21)(C(=O)NCCCCCCNC(=O)c1ccc(-c2c3nc(c(-c4cc(S(=O)(=O)[O-])ccc4F)c4ccc([nH]4)c(-c4cc(S(=O)(=O)[O-])ccc4F)c4nc(c(-c5cc(S(=O)(=O)[O-])ccc5F)c5ccc2[nH]5)C=C4)C=C3)cc1)C(F)(F)F
REMARK SMILES IDX 21 1 20 2 19 3 18 4 17 5 15 6 16 7 2 9 1 10 3 11 4 12 5 14
REMARK SMILES IDX 6 15 7 16 14 17 8 18 9 19 13 20 10 21 12 22 11 23 90 24
REMARK SMILES IDX 91 25 92 26 93 27 22 28 23 29 24 30 25 31 26 33 27 34 28 35
REMARK SMILES IDX 89 36 29 37 88 38 30 39 31 40 32 41 82 42 33 43 87 44 81 45
REMARK SMILES IDX 83 46 34 47 86 48 80 49 79 50 35 52 67 53 47 54 66 55 48 56
REMARK SMILES IDX 51 57 65 58 84 59 49 60 50 61 64 63 85 64 52 65 36 66 37 67
REMARK SMILES IDX 45 68 38 69 44 70 46 71 43 72 39 73 40 74 41 75 42 76 68 77
REMARK SMILES IDX 69 78 77 79 70 80 76 81 78 82 75 83 71 84 72 85 73 86 74 87
REMARK SMILES IDX 53 88 54 89 62 90 55 91 61 92 63 93 60 94 56 95 57 96 58 97
REMARK SMILES IDX 59 98
REMARK H PARENT 17 8 3 13 24 32 83 51 51 62
REMARK Flexibility Score: inf
ROOT
ATOM      1  C   UNL A   1      31.479  30.527  26.203  1.00  0.00     0.002 C 
ENDROOT
BRANCH   1   2
ATOM      2  C   UNL A   1      32.395  29.648  27.063  1.00  0.00     0.002 C 
BRANCH   2   3
ATOM      3  C   UNL A   1      31.753  28.365  27.607  1.00  0.00     0.021 C 
BRANCH   3   4
ATOM      4  C   UNL A   1      31.636  27.243  26.582  1.00  0.00     0.116 C 
BRANCH   4   5
ATOM      5  N   UNL A   1      32.798  27.182  25.719  1.00  0.00    -0.354 N 
ATOM      6  C   UNL A   1      32.916  26.802  24.414  1.00  0.00     0.254 C 
ATOM      7  O   UNL A   1      34.028  26.958  23.905  1.00  0.00    -0.272 OA
ATOM      8  H   UNL A   1      33.641  27.460  26.143  1.00  0.00     0.163 HD
BRANCH   6   9
ATOM      9  C   UNL A   1      31.755  26.132  23.662  1.00  0.00     0.212 C 
ATOM     10  C   UNL A   1      32.282  25.719  22.268  1.00  0.00     0.056 C 
BRANCH   9  11
ATOM     11  N   UNL A   1      31.193  24.907  24.333  1.00  0.00    -0.334 N 
ATOM     12  C   UNL A   1      31.849  23.942  25.056  1.00  0.00     0.232 C 
ATOM     13  H   UNL A   1      30.222  24.780  24.240  1.00  0.00     0.164 HD
ATOM     14  O   UNL A   1      31.279  23.536  26.070  1.00  0.00    -0.274 OA
BRANCH  12  15
ATOM     15  C   UNL A   1      33.140  23.325  24.550  1.00  0.00     0.150 C 
ATOM     16  C   UNL A   1      34.324  23.546  25.495  1.00  0.00     0.248 C 
ATOM     17  C   UNL A   1      33.142  21.828  24.540  1.00  0.00     0.010 A 
ATOM     18  O   UNL A   1      35.186  22.379  25.461  1.00  0.00    -0.492 OA
ATOM     19  C   UNL A   1      34.365  21.377  25.013  1.00  0.00     0.123 A 
ATOM     20  C   UNL A   1      32.199  20.924  24.074  1.00  0.00     0.008 A 
ATOM     21  C   UNL A   1      34.711  20.039  24.998  1.00  0.00     0.047 A 
ATOM     22  C   UNL A   1      32.528  19.565  24.052  1.00  0.00     0.001 A 
ATOM     23  C   UNL A   1      33.782  19.125  24.499  1.00  0.00     0.004 A 
ENDBRANCH  12  15
ENDBRANCH   9  11
BRANCH   9  24
ATOM     24  C   UNL A   1      30.671  27.210  23.424  1.00  0.00     0.420 C 
ATOM     25  F   UNL A   1      31.097  28.465  23.692  1.00  0.00    -0.168 F 
ATOM     26  F   UNL A   1      30.305  27.210  22.112  1.00  0.00    -0.168 F 
ATOM     27  F   UNL A   1      29.546  26.974  24.136  1.00  0.00    -0.168 F 
ENDBRANCH   9  24
ENDBRANCH   6   9
ENDBRANCH   4   5
ENDBRANCH   3   4
ENDBRANCH   2   3
ENDBRANCH   1   2
BRANCH   1  28
ATOM     28  C   UNL A   1      31.492  32.014  26.556  1.00  0.00     0.021 C 
BRANCH  28  29
ATOM     29  C   UNL A   1      32.756  32.484  27.262  1.00  0.00     0.116 C 
BRANCH  29  30
ATOM     30  N   UNL A   1      32.673  33.887  27.626  1.00  0.00    -0.352 N 
ATOM     31  C   UNL A   1      33.313  34.570  28.631  1.00  0.00     0.251 C 
ATOM     32  H   UNL A   1      32.067  34.429  27.069  1.00  0.00     0.163 HD
ATOM     33  O   UNL A   1      32.916  35.690  28.940  1.00  0.00    -0.269 OA
BRANCH  31  34
ATOM     34  C   UNL A   1      34.458  33.958  29.346  1.00  0.00     0.039 A 
ATOM     35  C   UNL A   1      34.208  32.990  30.322  1.00  0.00     0.014 A 
ATOM     36  C   UNL A   1      35.772  34.361  29.093  1.00  0.00     0.014 A 
ATOM     37  C   UNL A   1      35.273  32.403  31.012  1.00  0.00     0.010 A 
ATOM     38  C   UNL A   1      36.836  33.704  29.707  1.00  0.00     0.010 A 
ATOM     39  C   UNL A   1      36.599  32.738  30.694  1.00  0.00    -0.014 A 
BRANCH  39  40
ATOM     40  C   UNL A   1      37.751  32.142  31.424  1.00  0.00     0.031 A 
ATOM     41  C   UNL A   1      38.546  31.034  30.781  1.00  0.00     0.074 A 
ATOM     42  C   UNL A   1      38.046  32.552  32.673  1.00  0.00     0.049 A 
ATOM     43  N   UNL A   1      39.509  30.301  31.282  1.00  0.00    -0.248 NA
ATOM     44  C   UNL A   1      38.180  30.676  29.402  1.00  0.00     0.031 C 
ATOM     45  C   UNL A   1      37.326  33.588  33.418  1.00  0.00     0.029 A 
ATOM     46  N   UNL A   1      39.025  32.143  33.544  1.00  0.00    -0.354 N 
ATOM     47  C   UNL A   1      39.847  29.388  30.288  1.00  0.00     0.074 A 
ATOM     48  C   UNL A   1      38.931  29.606  29.190  1.00  0.00     0.031 C 
ATOM     49  C   UNL A   1      37.903  33.751  34.618  1.00  0.00     0.029 A 
ATOM     50  C   UNL A   1      39.004  32.800  34.752  1.00  0.00     0.049 A 
ATOM     51  H   UNL A   1      39.683  31.443  33.323  1.00  0.00     0.167 HD
ATOM     52  C   UNL A   1      40.851  28.475  30.275  1.00  0.00     0.034 A 
ATOM     53  C   UNL A   1      39.777  32.648  35.846  1.00  0.00     0.034 A 
ATOM     54  C   UNL A   1      41.772  28.288  31.369  1.00  0.00     0.049 A 
ATOM     55  C   UNL A   1      40.884  31.623  35.813  1.00  0.00     0.074 A 
ATOM     56  C   UNL A   1      42.841  27.413  31.461  1.00  0.00     0.029 A 
ATOM     57  N   UNL A   1      41.737  28.996  32.565  1.00  0.00    -0.354 N 
ATOM     58  N   UNL A   1      41.207  30.786  34.853  1.00  0.00    -0.248 NA
ATOM     59  C   UNL A   1      41.742  31.536  37.000  1.00  0.00     0.031 C 
ATOM     60  C   UNL A   1      43.417  27.554  32.728  1.00  0.00     0.029 A 
ATOM     61  C   UNL A   1      42.756  28.570  33.401  1.00  0.00     0.049 A 
ATOM     62  H   UNL A   1      41.083  29.698  32.785  1.00  0.00     0.167 HD
ATOM     63  C   UNL A   1      42.330  30.101  35.310  1.00  0.00     0.074 A 
ATOM     64  C   UNL A   1      42.637  30.637  36.620  1.00  0.00     0.031 C 
ATOM     65  C   UNL A   1      43.046  29.120  34.704  1.00  0.00     0.034 A 
BRANCH  52  66
ATOM     66  C   UNL A   1      40.988  27.613  29.041  1.00  0.00     0.023 A 
ATOM     67  C   UNL A   1      42.019  27.825  28.107  1.00  0.00     0.031 A 
ATOM     68  C   UNL A   1      40.060  26.593  28.770  1.00  0.00     0.131 A 
ATOM     69  C   UNL A   1      42.046  27.093  26.911  1.00  0.00     0.055 A 
ATOM     70  C   UNL A   1      40.147  25.805  27.619  1.00  0.00     0.041 A 
ATOM     71  F   UNL A   1      39.041  26.354  29.609  1.00  0.00    -0.206 F 
ATOM     72  C   UNL A   1      41.132  26.065  26.672  1.00  0.00     0.022 A 
BRANCH  69  73
ATOM     73  S   UNL A   1      43.193  27.613  25.606  1.00  0.00     0.124 S 
ATOM     74  O   UNL A   1      42.278  28.193  24.626  1.00  0.00    -0.237 OA
ATOM     75  O   UNL A   1      44.062  28.553  26.304  1.00  0.00    -0.237 OA
ATOM     76  O   UNL A   1      43.830  26.364  25.192  1.00  0.00    -0.744 OA
ENDBRANCH  69  73
ENDBRANCH  52  66
BRANCH  53  77
ATOM     77  C   UNL A   1      39.540  33.473  37.068  1.00  0.00     0.023 A 
ATOM     78  C   UNL A   1      38.848  32.949  38.171  1.00  0.00     0.031 A 
ATOM     79  C   UNL A   1      39.951  34.817  37.128  1.00  0.00     0.131 A 
ATOM     80  C   UNL A   1      38.532  33.777  39.258  1.00  0.00     0.055 A 
ATOM     81  C   UNL A   1      39.689  35.620  38.239  1.00  0.00     0.041 A 
ATOM     82  F   UNL A   1      40.622  35.368  36.104  1.00  0.00    -0.206 F 
ATOM     83  C   UNL A   1      38.959  35.106  39.307  1.00  0.00     0.022 A 
BRANCH  80  84
ATOM     84  S   UNL A   1      37.457  33.121  40.564  1.00  0.00     0.124 S 
ATOM     85  O   UNL A   1      36.399  32.485  39.786  1.00  0.00    -0.237 OA
ATOM     86  O   UNL A   1      38.359  32.221  41.275  1.00  0.00    -0.237 OA
ATOM     87  O   UNL A   1      37.056  34.315  41.306  1.00  0.00    -0.744 OA
ENDBRANCH  80  84
ENDBRANCH  53  77
BRANCH  65  88
ATOM     88  C   UNL A   1      44.266  28.614  35.435  1.00  0.00     0.023 A 
ATOM     89  C   UNL A   1      44.180  27.612  36.418  1.00  0.00     0.031 A 
ATOM     90  C   UNL A   1      45.531  29.160  35.158  1.00  0.00     0.131 A 
ATOM     91  C   UNL A   1      45.325  27.237  37.135  1.00  0.00     0.055 A 
ATOM     92  C   UNL A   1      46.679  28.737  35.830  1.00  0.00     0.041 A 
ATOM     93  F   UNL A   1      45.673  30.120  34.230  1.00  0.00    -0.206 F 
ATOM     94  C   UNL A   1      46.577  27.781  36.836  1.00  0.00     0.022 A 
BRANCH  91  95
ATOM     95  S   UNL A   1      45.139  26.104  38.540  1.00  0.00     0.124 S 
ATOM     96  O   UNL A   1      45.335  24.803  37.908  1.00  0.00    -0.237 OA
ATOM     97  O   UNL A   1      46.203  26.543  39.437  1.00  0.00    -0.237 OA
ATOM     98  O   UNL A   1      43.781  26.366  39.014  1.00  0.00    -0.744 OA
ENDBRANCH  91  95
ENDBRANCH  65  88
ENDBRANCH  39  40
ENDBRANCH  31  34
ENDBRANCH  29  30
ENDBRANCH  28  29
ENDBRANCH   1  28
TORSDOF 19
ENDMDL
