MODEL 1
REMARK VINA RESULT:     -12.0      0.000      0.000
REMARK SMILES Cc1ccc(C)c(S(=O)(=O)[C@H](C)C(=O)NCCCCCCNC(=O)c2ccc(-c3c4nc(c(-c5cc(S(=O)(=O)[O-])ccc5F)c5ccc([nH]5)c(-c5cc(S(=O)(=O)[O-])ccc5F)c5nc(c(-c6cc(S(=O)(=O)[O-])ccc6F)c6ccc3[nH]6)C=C5)C=C4)cc2)c1
REMARK SMILES IDX 19 1 18 2 17 3 16 4 15 5 13 6 14 7 11 9 12 10 8 11 9 12
REMARK SMILES IDX 10 13 7 14 1 15 2 16 3 17 88 18 4 19 5 20 6 21 20 22 21 23
REMARK SMILES IDX 22 24 23 25 24 27 25 28 26 29 87 30 27 31 86 32 28 33 29 34
REMARK SMILES IDX 30 35 80 36 31 37 85 38 79 39 81 40 32 41 84 42 78 43 77 44
REMARK SMILES IDX 33 46 65 47 45 48 64 49 46 50 49 51 63 52 82 53 47 54 48 55
REMARK SMILES IDX 62 57 83 58 50 59 34 60 35 61 43 62 36 63 42 64 44 65 41 66
REMARK SMILES IDX 37 67 38 68 39 69 40 70 66 71 67 72 75 73 68 74 74 75 76 76
REMARK SMILES IDX 73 77 69 78 70 79 71 80 72 81 51 82 52 83 60 84 53 85 59 86
REMARK SMILES IDX 61 87 58 88 54 89 55 90 56 91 57 92
REMARK H PARENT 15 8 22 26 81 45 49 56
REMARK Flexibility Score: inf
ROOT
ATOM      1  C   UNL A   1      32.777  28.389  26.026  1.00  0.00     0.002 C 
ENDROOT
BRANCH   1   2
ATOM      2  C   UNL A   1      32.334  26.932  26.224  1.00  0.00     0.002 C 
BRANCH   2   3
ATOM      3  C   UNL A   1      30.884  26.568  25.896  1.00  0.00     0.021 C 
BRANCH   3   4
ATOM      4  C   UNL A   1      30.705  25.317  25.046  1.00  0.00     0.116 C 
BRANCH   4   5
ATOM      5  N   UNL A   1      30.156  24.180  25.769  1.00  0.00    -0.355 N 
ATOM      6  C   UNL A   1      30.792  23.317  26.615  1.00  0.00     0.238 C 
ATOM      7  O   UNL A   1      30.098  22.692  27.426  1.00  0.00    -0.274 OA
ATOM      8  H   UNL A   1      29.196  24.011  25.631  1.00  0.00     0.163 HD
BRANCH   6   9
ATOM      9  C   UNL A   1      32.280  23.065  26.568  1.00  0.00     0.199 C 
ATOM     10  C   UNL A   1      32.889  22.649  27.904  1.00  0.00     0.036 C 
BRANCH   9  11
ATOM     11  S   UNL A   1      32.709  22.011  25.209  1.00  0.00     0.190 S 
ATOM     12  O   UNL A   1      32.073  22.501  23.997  1.00  0.00    -0.223 OA
ATOM     13  O   UNL A   1      32.477  20.640  25.633  1.00  0.00    -0.223 OA
BRANCH  11  14
ATOM     14  C   UNL A   1      34.469  22.076  24.868  1.00  0.00     0.071 A 
ATOM     15  C   UNL A   1      37.498  19.753  24.849  1.00  0.00     0.044 C 
ATOM     16  C   UNL A   1      36.637  20.974  24.700  1.00  0.00    -0.050 A 
ATOM     17  C   UNL A   1      37.184  22.147  24.178  1.00  0.00     0.004 A 
ATOM     18  C   UNL A   1      35.281  20.947  25.056  1.00  0.00     0.024 A 
ATOM     19  C   UNL A   1      36.391  23.280  24.015  1.00  0.00     0.005 A 
ATOM     20  C   UNL A   1      35.025  23.265  24.345  1.00  0.00    -0.032 A 
ATOM     21  C   UNL A   1      34.271  24.551  24.129  1.00  0.00     0.046 C 
ENDBRANCH  11  14
ENDBRANCH   9  11
ENDBRANCH   6   9
ENDBRANCH   4   5
ENDBRANCH   3   4
ENDBRANCH   2   3
ENDBRANCH   1   2
BRANCH   1  22
ATOM     22  C   UNL A   1      33.350  29.198  27.199  1.00  0.00     0.021 C 
BRANCH  22  23
ATOM     23  C   UNL A   1      34.861  29.207  27.407  1.00  0.00     0.116 C 
BRANCH  23  24
ATOM     24  N   UNL A   1      35.335  30.214  28.360  1.00  0.00    -0.352 N 
ATOM     25  C   UNL A   1      36.431  30.292  29.214  1.00  0.00     0.251 C 
ATOM     26  H   UNL A   1      34.753  31.008  28.405  1.00  0.00     0.163 HD
ATOM     27  O   UNL A   1      36.426  31.118  30.108  1.00  0.00    -0.269 OA
BRANCH  25  28
ATOM     28  C   UNL A   1      37.602  29.395  29.048  1.00  0.00     0.039 A 
ATOM     29  C   UNL A   1      37.905  28.341  29.914  1.00  0.00     0.014 A 
ATOM     30  C   UNL A   1      38.537  29.725  28.095  1.00  0.00     0.014 A 
ATOM     31  C   UNL A   1      39.200  27.797  29.872  1.00  0.00     0.010 A 
ATOM     32  C   UNL A   1      39.551  28.884  27.788  1.00  0.00     0.010 A 
ATOM     33  C   UNL A   1      40.061  28.169  28.837  1.00  0.00    -0.014 A 
BRANCH  33  34
ATOM     34  C   UNL A   1      41.439  27.755  28.673  1.00  0.00     0.031 A 
ATOM     35  C   UNL A   1      41.576  26.519  27.893  1.00  0.00     0.074 A 
ATOM     36  C   UNL A   1      42.497  28.584  28.833  1.00  0.00     0.049 A 
ATOM     37  N   UNL A   1      41.644  25.314  28.347  1.00  0.00    -0.248 NA
ATOM     38  C   UNL A   1      41.353  26.601  26.436  1.00  0.00     0.031 C 
ATOM     39  C   UNL A   1      42.481  30.025  29.118  1.00  0.00     0.029 A 
ATOM     40  N   UNL A   1      43.829  28.320  28.677  1.00  0.00    -0.354 N 
ATOM     41  C   UNL A   1      41.801  24.540  27.208  1.00  0.00     0.074 A 
ATOM     42  C   UNL A   1      41.241  25.307  26.134  1.00  0.00     0.031 C 
ATOM     43  C   UNL A   1      43.723  30.536  28.942  1.00  0.00     0.029 A 
ATOM     44  C   UNL A   1      44.648  29.443  28.689  1.00  0.00     0.049 A 
ATOM     45  H   UNL A   1      44.180  27.407  28.565  1.00  0.00     0.167 HD
ATOM     46  C   UNL A   1      42.748  23.562  27.161  1.00  0.00     0.034 A 
ATOM     47  C   UNL A   1      45.994  29.479  28.499  1.00  0.00     0.034 A 
ATOM     48  C   UNL A   1      43.341  23.376  28.469  1.00  0.00     0.049 A 
ATOM     49  C   UNL A   1      46.524  28.130  28.815  1.00  0.00     0.074 A 
ATOM     50  C   UNL A   1      42.950  22.844  29.679  1.00  0.00     0.029 A 
ATOM     51  N   UNL A   1      44.440  24.165  28.709  1.00  0.00    -0.354 N 
ATOM     52  N   UNL A   1      46.424  27.585  29.999  1.00  0.00    -0.248 NA
ATOM     53  C   UNL A   1      46.842  27.199  27.737  1.00  0.00     0.031 C 
ATOM     54  C   UNL A   1      43.745  23.487  30.675  1.00  0.00     0.029 A 
ATOM     55  C   UNL A   1      44.625  24.373  30.055  1.00  0.00     0.049 A 
ATOM     56  H   UNL A   1      45.021  24.535  28.006  1.00  0.00     0.167 HD
ATOM     57  C   UNL A   1      46.231  26.241  29.750  1.00  0.00     0.074 A 
ATOM     58  C   UNL A   1      46.671  26.038  28.378  1.00  0.00     0.031 C 
ATOM     59  C   UNL A   1      45.422  25.486  30.549  1.00  0.00     0.034 A 
BRANCH  46  60
ATOM     60  C   UNL A   1      43.473  23.083  25.918  1.00  0.00     0.023 A 
ATOM     61  C   UNL A   1      43.467  21.695  25.684  1.00  0.00     0.031 A 
ATOM     62  C   UNL A   1      44.348  23.835  25.100  1.00  0.00     0.131 A 
ATOM     63  C   UNL A   1      44.329  21.113  24.740  1.00  0.00     0.055 A 
ATOM     64  C   UNL A   1      45.162  23.259  24.122  1.00  0.00     0.041 A 
ATOM     65  F   UNL A   1      44.547  25.149  25.249  1.00  0.00    -0.206 F 
ATOM     66  C   UNL A   1      45.175  21.887  23.953  1.00  0.00     0.022 A 
BRANCH  63  67
ATOM     67  S   UNL A   1      44.426  19.308  24.655  1.00  0.00     0.124 S 
ATOM     68  O   UNL A   1      45.598  19.029  25.478  1.00  0.00    -0.237 OA
ATOM     69  O   UNL A   1      43.136  18.915  25.212  1.00  0.00    -0.237 OA
ATOM     70  O   UNL A   1      44.593  19.048  23.226  1.00  0.00    -0.744 OA
ENDBRANCH  63  67
ENDBRANCH  46  60
BRANCH  47  71
ATOM     71  C   UNL A   1      46.789  30.536  27.822  1.00  0.00     0.023 A 
ATOM     72  C   UNL A   1      46.202  31.602  27.111  1.00  0.00     0.031 A 
ATOM     73  C   UNL A   1      48.173  30.633  28.087  1.00  0.00     0.131 A 
ATOM     74  C   UNL A   1      46.989  32.708  26.710  1.00  0.00     0.055 A 
ATOM     75  C   UNL A   1      48.947  31.725  27.687  1.00  0.00     0.041 A 
ATOM     76  F   UNL A   1      48.803  29.701  28.820  1.00  0.00    -0.206 F 
ATOM     77  C   UNL A   1      48.353  32.775  27.004  1.00  0.00     0.022 A 
BRANCH  74  78
ATOM     78  S   UNL A   1      46.218  34.126  25.864  1.00  0.00     0.124 S 
ATOM     79  O   UNL A   1      45.135  33.493  25.121  1.00  0.00    -0.237 OA
ATOM     80  O   UNL A   1      45.829  34.978  26.981  1.00  0.00    -0.237 OA
ATOM     81  O   UNL A   1      47.300  34.658  25.035  1.00  0.00    -0.744 OA
ENDBRANCH  74  78
ENDBRANCH  47  71
BRANCH  59  82
ATOM     82  C   UNL A   1      45.261  25.917  31.989  1.00  0.00     0.023 A 
ATOM     83  C   UNL A   1      44.120  26.547  32.532  1.00  0.00     0.031 A 
ATOM     84  C   UNL A   1      46.330  25.640  32.859  1.00  0.00     0.131 A 
ATOM     85  C   UNL A   1      44.088  26.879  33.902  1.00  0.00     0.055 A 
ATOM     86  C   UNL A   1      46.287  25.951  34.217  1.00  0.00     0.041 A 
ATOM     87  F   UNL A   1      47.441  25.039  32.401  1.00  0.00    -0.206 F 
ATOM     88  C   UNL A   1      45.165  26.578  34.743  1.00  0.00     0.022 A 
BRANCH  85  89
ATOM     89  S   UNL A   1      42.645  27.736  34.615  1.00  0.00     0.124 S 
ATOM     90  O   UNL A   1      41.625  26.696  34.671  1.00  0.00    -0.237 OA
ATOM     91  O   UNL A   1      43.159  28.197  35.902  1.00  0.00    -0.237 OA
ATOM     92  O   UNL A   1      42.375  28.805  33.651  1.00  0.00    -0.744 OA
ENDBRANCH  85  89
ENDBRANCH  59  82
ENDBRANCH  33  34
ENDBRANCH  25  28
ENDBRANCH  23  24
ENDBRANCH  22  23
ENDBRANCH   1  22
TORSDOF 18
ENDMDL
MODEL 2
REMARK VINA RESULT:     -11.7      3.125      8.284
REMARK SMILES Cc1ccc(C)c(S(=O)(=O)[C@H](C)C(=O)NCCCCCCNC(=O)c2ccc(-c3c4nc(c(-c5cc(S(=O)(=O)[O-])ccc5F)c5ccc([nH]5)c(-c5cc(S(=O)(=O)[O-])ccc5F)c5nc(c(-c6cc(S(=O)(=O)[O-])ccc6F)c6ccc3[nH]6)C=C5)C=C4)cc2)c1
REMARK SMILES IDX 19 1 18 2 17 3 16 4 15 5 13 6 14 7 11 9 12 10 8 11 9 12
REMARK SMILES IDX 10 13 7 14 1 15 2 16 3 17 88 18 4 19 5 20 6 21 20 22 21 23
REMARK SMILES IDX 22 24 23 25 24 27 25 28 26 29 87 30 27 31 86 32 28 33 29 34
REMARK SMILES IDX 30 35 80 36 31 37 85 38 79 39 81 40 32 41 84 42 78 43 77 44
REMARK SMILES IDX 33 46 65 47 45 48 64 49 46 50 49 51 63 52 82 53 47 54 48 55
REMARK SMILES IDX 62 57 83 58 50 59 34 60 35 61 43 62 36 63 42 64 44 65 41 66
REMARK SMILES IDX 37 67 38 68 39 69 40 70 66 71 67 72 75 73 68 74 74 75 76 76
REMARK SMILES IDX 73 77 69 78 70 79 71 80 72 81 51 82 52 83 60 84 53 85 59 86
REMARK SMILES IDX 61 87 58 88 54 89 55 90 56 91 57 92
REMARK H PARENT 15 8 22 26 81 45 49 56
REMARK Flexibility Score: inf
ROOT
ATOM      1  C   UNL A   1      35.648  20.018  25.049  1.00  0.00     0.002 C 
ENDROOT
BRANCH   1   2
ATOM      2  C   UNL A   1      34.222  19.742  24.553  1.00  0.00     0.002 C 
BRANCH   2   3
ATOM      3  C   UNL A   1      33.062  19.986  25.521  1.00  0.00     0.021 C 
BRANCH   3   4
ATOM      4  C   UNL A   1      32.070  21.058  25.090  1.00  0.00     0.116 C 
BRANCH   4   5
ATOM      5  N   UNL A   1      31.390  21.718  26.195  1.00  0.00    -0.355 N 
ATOM      6  C   UNL A   1      31.564  22.986  26.671  1.00  0.00     0.238 C 
ATOM      7  O   UNL A   1      30.640  23.487  27.321  1.00  0.00    -0.274 OA
ATOM      8  H   UNL A   1      30.712  21.178  26.661  1.00  0.00     0.163 HD
BRANCH   6   9
ATOM      9  C   UNL A   1      32.840  23.770  26.476  1.00  0.00     0.199 C 
ATOM     10  C   UNL A   1      34.096  23.062  26.975  1.00  0.00     0.036 C 
BRANCH   9  11
ATOM     11  S   UNL A   1      32.962  24.396  24.823  1.00  0.00     0.190 S 
ATOM     12  O   UNL A   1      31.673  24.270  24.161  1.00  0.00    -0.223 OA
ATOM     13  O   UNL A   1      34.137  23.792  24.216  1.00  0.00    -0.223 OA
BRANCH  11  14
ATOM     14  C   UNL A   1      33.317  26.154  24.818  1.00  0.00     0.071 A 
ATOM     15  C   UNL A   1      34.086  28.955  27.294  1.00  0.00     0.044 C 
ATOM     16  C   UNL A   1      33.854  28.211  26.011  1.00  0.00    -0.050 A 
ATOM     17  C   UNL A   1      34.030  28.864  24.790  1.00  0.00     0.004 A 
ATOM     18  C   UNL A   1      33.484  26.859  26.019  1.00  0.00     0.024 A 
ATOM     19  C   UNL A   1      33.838  28.179  23.593  1.00  0.00     0.005 A 
ATOM     20  C   UNL A   1      33.490  26.817  23.582  1.00  0.00    -0.032 A 
ATOM     21  C   UNL A   1      33.306  26.185  22.227  1.00  0.00     0.046 C 
ENDBRANCH  11  14
ENDBRANCH   9  11
ENDBRANCH   6   9
ENDBRANCH   4   5
ENDBRANCH   3   4
ENDBRANCH   2   3
ENDBRANCH   1   2
BRANCH   1  22
ATOM     22  C   UNL A   1      36.415  21.261  24.571  1.00  0.00     0.021 C 
BRANCH  22  23
ATOM     23  C   UNL A   1      37.822  21.498  25.107  1.00  0.00     0.116 C 
BRANCH  23  24
ATOM     24  N   UNL A   1      38.607  20.277  25.309  1.00  0.00    -0.352 N 
ATOM     25  C   UNL A   1      39.905  20.027  25.746  1.00  0.00     0.251 C 
ATOM     26  H   UNL A   1      38.109  19.457  25.089  1.00  0.00     0.163 HD
ATOM     27  O   UNL A   1      40.395  18.932  25.544  1.00  0.00    -0.269 OA
BRANCH  25  28
ATOM     28  C   UNL A   1      40.691  21.065  26.457  1.00  0.00     0.039 A 
ATOM     29  C   UNL A   1      41.318  20.861  27.690  1.00  0.00     0.014 A 
ATOM     30  C   UNL A   1      40.657  22.350  25.966  1.00  0.00     0.014 A 
ATOM     31  C   UNL A   1      41.722  21.987  28.426  1.00  0.00     0.010 A 
ATOM     32  C   UNL A   1      41.458  23.315  26.473  1.00  0.00     0.010 A 
ATOM     33  C   UNL A   1      41.684  23.244  27.820  1.00  0.00    -0.014 A 
BRANCH  33  34
ATOM     34  C   UNL A   1      42.006  24.511  28.446  1.00  0.00     0.031 A 
ATOM     35  C   UNL A   1      40.936  25.506  28.306  1.00  0.00     0.074 A 
ATOM     36  C   UNL A   1      42.958  24.660  29.395  1.00  0.00     0.049 A 
ATOM     37  N   UNL A   1      40.819  26.400  27.384  1.00  0.00    -0.248 NA
ATOM     38  C   UNL A   1      39.723  25.328  29.128  1.00  0.00     0.031 C 
ATOM     39  C   UNL A   1      43.780  23.615  30.023  1.00  0.00     0.029 A 
ATOM     40  N   UNL A   1      43.329  25.786  30.075  1.00  0.00    -0.354 N 
ATOM     41  C   UNL A   1      39.669  27.090  27.736  1.00  0.00     0.074 A 
ATOM     42  C   UNL A   1      38.892  26.178  28.524  1.00  0.00     0.031 C 
ATOM     43  C   UNL A   1      44.419  24.128  31.102  1.00  0.00     0.029 A 
ATOM     44  C   UNL A   1      44.180  25.561  31.151  1.00  0.00     0.049 A 
ATOM     45  H   UNL A   1      43.016  26.685  29.823  1.00  0.00     0.167 HD
ATOM     46  C   UNL A   1      39.651  28.452  27.735  1.00  0.00     0.034 A 
ATOM     47  C   UNL A   1      44.655  26.485  32.028  1.00  0.00     0.034 A 
ATOM     48  C   UNL A   1      40.871  28.968  27.149  1.00  0.00     0.049 A 
ATOM     49  C   UNL A   1      44.578  27.810  31.364  1.00  0.00     0.074 A 
ATOM     50  C   UNL A   1      41.423  29.042  25.889  1.00  0.00     0.029 A 
ATOM     51  N   UNL A   1      41.889  29.172  28.050  1.00  0.00    -0.354 N 
ATOM     52  N   UNL A   1      45.236  28.098  30.273  1.00  0.00    -0.248 NA
ATOM     53  C   UNL A   1      43.485  28.722  31.679  1.00  0.00     0.031 C 
ATOM     54  C   UNL A   1      42.836  29.118  26.074  1.00  0.00     0.029 A 
ATOM     55  C   UNL A   1      43.119  29.120  27.439  1.00  0.00     0.049 A 
ATOM     56  H   UNL A   1      41.754  29.334  29.011  1.00  0.00     0.167 HD
ATOM     57  C   UNL A   1      44.389  28.926  29.562  1.00  0.00     0.074 A 
ATOM     58  C   UNL A   1      43.424  29.413  30.536  1.00  0.00     0.031 C 
ATOM     59  C   UNL A   1      44.335  28.875  28.199  1.00  0.00     0.034 A 
BRANCH  46  60
ATOM     60  C   UNL A   1      38.801  29.332  28.630  1.00  0.00     0.023 A 
ATOM     61  C   UNL A   1      39.047  29.242  30.014  1.00  0.00     0.031 A 
ATOM     62  C   UNL A   1      37.639  30.051  28.264  1.00  0.00     0.131 A 
ATOM     63  C   UNL A   1      38.149  29.784  30.949  1.00  0.00     0.055 A 
ATOM     64  C   UNL A   1      36.779  30.638  29.195  1.00  0.00     0.041 A 
ATOM     65  F   UNL A   1      37.206  30.154  27.003  1.00  0.00    -0.206 F 
ATOM     66  C   UNL A   1      37.017  30.486  30.547  1.00  0.00     0.022 A 
BRANCH  63  67
ATOM     67  S   UNL A   1      38.414  29.436  32.704  1.00  0.00     0.124 S 
ATOM     68  O   UNL A   1      38.041  30.703  33.323  1.00  0.00    -0.237 OA
ATOM     69  O   UNL A   1      37.506  28.316  32.925  1.00  0.00    -0.237 OA
ATOM     70  O   UNL A   1      39.836  29.107  32.770  1.00  0.00    -0.744 OA
ENDBRANCH  63  67
ENDBRANCH  46  60
BRANCH  47  71
ATOM     71  C   UNL A   1      44.925  26.308  33.478  1.00  0.00     0.023 A 
ATOM     72  C   UNL A   1      43.962  26.560  34.476  1.00  0.00     0.031 A 
ATOM     73  C   UNL A   1      46.100  25.635  33.883  1.00  0.00     0.131 A 
ATOM     74  C   UNL A   1      44.188  26.133  35.806  1.00  0.00     0.055 A 
ATOM     75  C   UNL A   1      46.320  25.217  35.197  1.00  0.00     0.041 A 
ATOM     76  F   UNL A   1      47.040  25.287  32.988  1.00  0.00    -0.206 F 
ATOM     77  C   UNL A   1      45.357  25.457  36.165  1.00  0.00     0.022 A 
BRANCH  74  78
ATOM     78  S   UNL A   1      42.910  26.384  37.081  1.00  0.00     0.124 S 
ATOM     79  O   UNL A   1      42.119  25.164  36.971  1.00  0.00    -0.237 OA
ATOM     80  O   UNL A   1      43.708  26.534  38.292  1.00  0.00    -0.237 OA
ATOM     81  O   UNL A   1      42.226  27.601  36.643  1.00  0.00    -0.744 OA
ENDBRANCH  74  78
ENDBRANCH  47  71
BRANCH  59  82
ATOM     82  C   UNL A   1      45.575  28.419  27.466  1.00  0.00     0.023 A 
ATOM     83  C   UNL A   1      45.761  27.147  26.882  1.00  0.00     0.031 A 
ATOM     84  C   UNL A   1      46.617  29.355  27.334  1.00  0.00     0.131 A 
ATOM     85  C   UNL A   1      46.961  26.855  26.203  1.00  0.00     0.055 A 
ATOM     86  C   UNL A   1      47.794  29.070  26.646  1.00  0.00     0.041 A 
ATOM     87  F   UNL A   1      46.498  30.583  27.866  1.00  0.00    -0.206 F 
ATOM     88  C   UNL A   1      47.973  27.813  26.081  1.00  0.00     0.022 A 
BRANCH  85  89
ATOM     89  S   UNL A   1      47.242  25.203  25.484  1.00  0.00     0.124 S 
ATOM     90  O   UNL A   1      47.417  24.349  26.652  1.00  0.00    -0.237 OA
ATOM     91  O   UNL A   1      46.022  24.986  24.711  1.00  0.00    -0.237 OA
ATOM     92  O   UNL A   1      48.449  25.385  24.675  1.00  0.00    -0.744 OA
ENDBRANCH  85  89
ENDBRANCH  59  82
ENDBRANCH  33  34
ENDBRANCH  25  28
ENDBRANCH  23  24
ENDBRANCH  22  23
ENDBRANCH   1  22
TORSDOF 18
ENDMDL
MODEL 3
REMARK VINA RESULT:     -11.4      2.475      7.188
REMARK SMILES Cc1ccc(C)c(S(=O)(=O)[C@H](C)C(=O)NCCCCCCNC(=O)c2ccc(-c3c4nc(c(-c5cc(S(=O)(=O)[O-])ccc5F)c5ccc([nH]5)c(-c5cc(S(=O)(=O)[O-])ccc5F)c5nc(c(-c6cc(S(=O)(=O)[O-])ccc6F)c6ccc3[nH]6)C=C5)C=C4)cc2)c1
REMARK SMILES IDX 19 1 18 2 17 3 16 4 15 5 13 6 14 7 11 9 12 10 8 11 9 12
REMARK SMILES IDX 10 13 7 14 1 15 2 16 3 17 88 18 4 19 5 20 6 21 20 22 21 23
REMARK SMILES IDX 22 24 23 25 24 27 25 28 26 29 87 30 27 31 86 32 28 33 29 34
REMARK SMILES IDX 30 35 80 36 31 37 85 38 79 39 81 40 32 41 84 42 78 43 77 44
REMARK SMILES IDX 33 46 65 47 45 48 64 49 46 50 49 51 63 52 82 53 47 54 48 55
REMARK SMILES IDX 62 57 83 58 50 59 34 60 35 61 43 62 36 63 42 64 44 65 41 66
REMARK SMILES IDX 37 67 38 68 39 69 40 70 66 71 67 72 75 73 68 74 74 75 76 76
REMARK SMILES IDX 73 77 69 78 70 79 71 80 72 81 51 82 52 83 60 84 53 85 59 86
REMARK SMILES IDX 61 87 58 88 54 89 55 90 56 91 57 92
REMARK H PARENT 15 8 22 26 81 45 49 56
REMARK Flexibility Score: inf
ROOT
ATOM      1  C   UNL A   1      31.947  28.899  26.288  1.00  0.00     0.002 C 
ENDROOT
BRANCH   1   2
ATOM      2  C   UNL A   1      31.912  29.423  24.846  1.00  0.00     0.002 C 
BRANCH   2   3
ATOM      3  C   UNL A   1      30.725  29.030  23.965  1.00  0.00     0.021 C 
BRANCH   3   4
ATOM      4  C   UNL A   1      30.882  27.715  23.212  1.00  0.00     0.116 C 
BRANCH   4   5
ATOM      5  N   UNL A   1      30.420  26.549  23.949  1.00  0.00    -0.355 N 
ATOM      6  C   UNL A   1      31.132  25.713  24.760  1.00  0.00     0.238 C 
ATOM      7  O   UNL A   1      30.505  25.050  25.595  1.00  0.00    -0.274 OA
ATOM      8  H   UNL A   1      29.464  26.335  23.851  1.00  0.00     0.163 HD
BRANCH   6   9
ATOM      9  C   UNL A   1      32.627  25.533  24.647  1.00  0.00     0.199 C 
ATOM     10  C   UNL A   1      33.330  25.269  25.976  1.00  0.00     0.036 C 
BRANCH   9  11
ATOM     11  S   UNL A   1      33.040  24.386  23.361  1.00  0.00     0.190 S 
ATOM     12  O   UNL A   1      34.001  24.997  22.458  1.00  0.00    -0.223 OA
ATOM     13  O   UNL A   1      31.793  23.862  22.829  1.00  0.00    -0.223 OA
BRANCH  11  14
ATOM     14  C   UNL A   1      33.877  22.944  24.023  1.00  0.00     0.071 A 
ATOM     15  C   UNL A   1      37.430  21.656  24.562  1.00  0.00     0.044 C 
ATOM     16  C   UNL A   1      35.932  21.751  24.570  1.00  0.00    -0.050 A 
ATOM     17  C   UNL A   1      35.179  20.761  25.204  1.00  0.00     0.004 A 
ATOM     18  C   UNL A   1      35.275  22.834  23.970  1.00  0.00     0.024 A 
ATOM     19  C   UNL A   1      33.790  20.847  25.236  1.00  0.00     0.005 A 
ATOM     20  C   UNL A   1      33.115  21.938  24.659  1.00  0.00    -0.032 A 
ATOM     21  C   UNL A   1      31.612  21.920  24.753  1.00  0.00     0.046 C 
ENDBRANCH  11  14
ENDBRANCH   9  11
ENDBRANCH   6   9
ENDBRANCH   4   5
ENDBRANCH   3   4
ENDBRANCH   2   3
ENDBRANCH   1   2
BRANCH   1  22
ATOM     22  C   UNL A   1      32.961  29.458  27.299  1.00  0.00     0.021 C 
BRANCH  22  23
ATOM     23  C   UNL A   1      33.721  30.730  26.939  1.00  0.00     0.116 C 
BRANCH  23  24
ATOM     24  N   UNL A   1      34.008  31.607  28.077  1.00  0.00    -0.352 N 
ATOM     25  C   UNL A   1      35.036  31.665  29.014  1.00  0.00     0.251 C 
ATOM     26  H   UNL A   1      33.328  32.306  28.208  1.00  0.00     0.163 HD
ATOM     27  O   UNL A   1      34.875  32.318  30.028  1.00  0.00    -0.269 OA
BRANCH  25  28
ATOM     28  C   UNL A   1      36.320  30.954  28.794  1.00  0.00     0.039 A 
ATOM     29  C   UNL A   1      36.415  29.653  28.293  1.00  0.00     0.014 A 
ATOM     30  C   UNL A   1      37.471  31.538  29.271  1.00  0.00     0.014 A 
ATOM     31  C   UNL A   1      37.627  28.962  28.459  1.00  0.00     0.010 A 
ATOM     32  C   UNL A   1      38.688  31.023  28.983  1.00  0.00     0.010 A 
ATOM     33  C   UNL A   1      38.749  29.658  28.914  1.00  0.00    -0.014 A 
BRANCH  33  34
ATOM     34  C   UNL A   1      40.054  29.096  29.196  1.00  0.00     0.031 A 
ATOM     35  C   UNL A   1      40.296  28.906  30.632  1.00  0.00     0.074 A 
ATOM     36  C   UNL A   1      40.801  28.434  28.282  1.00  0.00     0.049 A 
ATOM     37  N   UNL A   1      40.872  29.728  31.441  1.00  0.00    -0.248 NA
ATOM     38  C   UNL A   1      39.595  27.793  31.302  1.00  0.00     0.031 C 
ATOM     39  C   UNL A   1      40.442  28.090  26.899  1.00  0.00     0.029 A 
ATOM     40  N   UNL A   1      42.021  27.839  28.436  1.00  0.00    -0.354 N 
ATOM     41  C   UNL A   1      40.875  29.053  32.652  1.00  0.00     0.074 A 
ATOM     42  C   UNL A   1      39.789  28.119  32.581  1.00  0.00     0.031 C 
ATOM     43  C   UNL A   1      41.340  27.206  26.404  1.00  0.00     0.029 A 
ATOM     44  C   UNL A   1      42.417  27.041  27.368  1.00  0.00     0.049 A 
ATOM     45  H   UNL A   1      42.576  27.964  29.240  1.00  0.00     0.167 HD
ATOM     46  C   UNL A   1      42.004  29.000  33.412  1.00  0.00     0.034 A 
ATOM     47  C   UNL A   1      43.547  26.292  27.278  1.00  0.00     0.034 A 
ATOM     48  C   UNL A   1      43.019  29.873  32.862  1.00  0.00     0.049 A 
ATOM     49  C   UNL A   1      44.535  26.862  28.227  1.00  0.00     0.074 A 
ATOM     50  C   UNL A   1      43.228  31.232  32.770  1.00  0.00     0.029 A 
ATOM     51  N   UNL A   1      43.842  29.274  31.938  1.00  0.00    -0.354 N 
ATOM     52  N   UNL A   1      45.000  28.078  28.126  1.00  0.00    -0.248 NA
ATOM     53  C   UNL A   1      44.750  26.229  29.524  1.00  0.00     0.031 C 
ATOM     54  C   UNL A   1      44.070  31.433  31.635  1.00  0.00     0.029 A 
ATOM     55  C   UNL A   1      44.384  30.196  31.075  1.00  0.00     0.049 A 
ATOM     56  H   UNL A   1      44.019  28.307  31.898  1.00  0.00     0.167 HD
ATOM     57  C   UNL A   1      45.154  28.503  29.431  1.00  0.00     0.074 A 
ATOM     58  C   UNL A   1      45.159  27.287  30.231  1.00  0.00     0.031 C 
ATOM     59  C   UNL A   1      44.921  29.802  29.781  1.00  0.00     0.034 A 
BRANCH  46  60
ATOM     60  C   UNL A   1      42.390  27.876  34.354  1.00  0.00     0.023 A 
ATOM     61  C   UNL A   1      43.134  26.818  33.797  1.00  0.00     0.031 A 
ATOM     62  C   UNL A   1      41.895  27.651  35.660  1.00  0.00     0.131 A 
ATOM     63  C   UNL A   1      43.304  25.606  34.486  1.00  0.00     0.055 A 
ATOM     64  C   UNL A   1      42.116  26.465  36.365  1.00  0.00     0.041 A 
ATOM     65  F   UNL A   1      41.095  28.509  36.300  1.00  0.00    -0.206 F 
ATOM     66  C   UNL A   1      42.802  25.424  35.771  1.00  0.00     0.022 A 
BRANCH  63  67
ATOM     67  S   UNL A   1      44.075  24.219  33.619  1.00  0.00     0.124 S 
ATOM     68  O   UNL A   1      44.123  24.709  32.246  1.00  0.00    -0.237 OA
ATOM     69  O   UNL A   1      45.355  24.110  34.311  1.00  0.00    -0.237 OA
ATOM     70  O   UNL A   1      43.145  23.117  33.854  1.00  0.00    -0.744 OA
ENDBRANCH  63  67
ENDBRANCH  46  60
BRANCH  47  71
ATOM     71  C   UNL A   1      43.715  24.976  26.609  1.00  0.00     0.023 A 
ATOM     72  C   UNL A   1      42.919  23.853  26.911  1.00  0.00     0.031 A 
ATOM     73  C   UNL A   1      44.530  24.888  25.458  1.00  0.00     0.131 A 
ATOM     74  C   UNL A   1      42.949  22.713  26.072  1.00  0.00     0.055 A 
ATOM     75  C   UNL A   1      44.559  23.761  24.634  1.00  0.00     0.041 A 
ATOM     76  F   UNL A   1      45.266  25.934  25.051  1.00  0.00    -0.206 F 
ATOM     77  C   UNL A   1      43.758  22.669  24.934  1.00  0.00     0.022 A 
BRANCH  74  78
ATOM     78  S   UNL A   1      41.861  21.292  26.414  1.00  0.00     0.124 S 
ATOM     79  O   UNL A   1      42.264  20.339  25.387  1.00  0.00    -0.237 OA
ATOM     80  O   UNL A   1      42.213  20.956  27.788  1.00  0.00    -0.237 OA
ATOM     81  O   UNL A   1      40.516  21.845  26.243  1.00  0.00    -0.744 OA
ENDBRANCH  74  78
ENDBRANCH  47  71
BRANCH  59  82
ATOM     82  C   UNL A   1      45.118  30.859  28.719  1.00  0.00     0.023 A 
ATOM     83  C   UNL A   1      46.360  31.402  28.325  1.00  0.00     0.031 A 
ATOM     84  C   UNL A   1      43.966  31.315  28.055  1.00  0.00     0.131 A 
ATOM     85  C   UNL A   1      46.409  32.370  27.301  1.00  0.00     0.055 A 
ATOM     86  C   UNL A   1      44.019  32.257  27.029  1.00  0.00     0.041 A 
ATOM     87  F   UNL A   1      42.755  30.833  28.384  1.00  0.00    -0.206 F 
ATOM     88  C   UNL A   1      45.244  32.793  26.652  1.00  0.00     0.022 A 
BRANCH  85  89
ATOM     89  S   UNL A   1      47.996  33.121  26.809  1.00  0.00     0.124 S 
ATOM     90  O   UNL A   1      47.640  33.945  25.661  1.00  0.00    -0.237 OA
ATOM     91  O   UNL A   1      48.389  33.842  28.016  1.00  0.00    -0.237 OA
ATOM     92  O   UNL A   1      48.836  31.964  26.493  1.00  0.00    -0.744 OA
ENDBRANCH  85  89
ENDBRANCH  59  82
ENDBRANCH  33  34
ENDBRANCH  25  28
ENDBRANCH  23  24
ENDBRANCH  22  23
ENDBRANCH   1  22
TORSDOF 18
ENDMDL
