MODEL 1
REMARK VINA RESULT:     -11.6      0.000      0.000
REMARK SMILES O=C(COc1cc(-c2ccccc2)nc(Nc2ccccc2Br)n1)NCCCCCCNC(=O)c1ccc(-c2c3nc(c(-c4cc(S(=O)(=O)[O-])ccc4F)c4ccc([nH]4)c(-c4cc(S(=O)(=O)[O-])ccc4F)c4nc(c(-c5cc(S(=O)(=O)[O-])ccc5F)c5ccc2[nH]5)C=C4)C=C3)cc1
REMARK SMILES IDX 28 1 27 2 26 3 25 4 1 5 2 6 3 8 4 9 5 10 6 11 24 12 7 13
REMARK SMILES IDX 15 14 14 15 8 16 9 17 13 18 10 19 12 20 11 21 16 22 17 24
REMARK SMILES IDX 18 25 22 26 19 27 21 28 23 29 20 30 29 31 30 32 31 33 32 34
REMARK SMILES IDX 33 35 34 37 35 38 36 39 97 40 37 41 96 42 38 43 39 44 40 45
REMARK SMILES IDX 90 46 41 47 95 48 89 49 91 50 42 51 94 52 88 53 87 54 43 56
REMARK SMILES IDX 75 57 55 58 74 59 56 60 59 61 73 62 92 63 57 64 58 65 72 67
REMARK SMILES IDX 93 68 60 69 44 70 45 71 53 72 46 73 52 74 54 75 51 76 47 77
REMARK SMILES IDX 48 78 49 79 50 80 76 81 77 82 85 83 78 84 84 85 86 86 83 87
REMARK SMILES IDX 79 88 80 89 81 90 82 91 61 92 62 93 70 94 63 95 69 96 71 97
REMARK SMILES IDX 68 98 64 99 65 100 66 101 67 102
REMARK H PARENT 25 7 16 23 32 36 91 55 59 66
REMARK Flexibility Score: inf
ROOT
ATOM      1  C   UNL A   1      30.748  27.328  24.728  1.00  0.00     0.002 C 
ENDROOT
BRANCH   1   2
ATOM      2  C   UNL A   1      30.922  27.942  23.332  1.00  0.00     0.021 C 
BRANCH   2   3
ATOM      3  C   UNL A   1      31.154  26.924  22.224  1.00  0.00     0.116 C 
BRANCH   3   4
ATOM      4  N   UNL A   1      31.869  25.755  22.696  1.00  0.00    -0.353 N 
ATOM      5  O   UNL A   1      33.873  26.203  21.656  1.00  0.00    -0.271 OA
ATOM      6  C   UNL A   1      33.208  25.536  22.439  1.00  0.00     0.258 C 
ATOM      7  H   UNL A   1      31.377  25.085  23.225  1.00  0.00     0.163 HD
BRANCH   6   8
ATOM      8  C   UNL A   1      33.808  24.391  23.261  1.00  0.00     0.331 C 
BRANCH   8   9
ATOM      9  O   UNL A   1      35.162  24.084  22.923  1.00  0.00    -0.467 OA
BRANCH   9  10
ATOM     10  C   UNL A   1      35.754  23.242  23.832  1.00  0.00     0.219 A 
ATOM     11  C   UNL A   1      36.891  23.606  24.503  1.00  0.00     0.097 A 
ATOM     12  N   UNL A   1      35.068  22.132  24.114  1.00  0.00    -0.177 NA
ATOM     13  C   UNL A   1      37.326  22.747  25.484  1.00  0.00     0.080 A 
ATOM     14  C   UNL A   1      35.565  21.334  25.073  1.00  0.00     0.231 A 
ATOM     15  N   UNL A   1      36.676  21.606  25.777  1.00  0.00    -0.212 NA
BRANCH  13  16
ATOM     16  C   UNL A   1      38.536  23.070  26.251  1.00  0.00     0.000 A 
ATOM     17  C   UNL A   1      38.744  24.355  26.771  1.00  0.00     0.010 A 
ATOM     18  C   UNL A   1      39.473  22.067  26.568  1.00  0.00     0.010 A 
ATOM     19  C   UNL A   1      39.833  24.621  27.606  1.00  0.00     0.001 A 
ATOM     20  C   UNL A   1      40.563  22.331  27.398  1.00  0.00     0.001 A 
ATOM     21  C   UNL A   1      40.736  23.608  27.924  1.00  0.00     0.000 A 
ENDBRANCH  13  16
BRANCH  14  22
ATOM     22  N   UNL A   1      34.881  20.181  25.447  1.00  0.00    -0.323 N 
ATOM     23  H   UNL A   1      34.783  20.048  26.418  1.00  0.00     0.170 HD
BRANCH  22  24
ATOM     24  C   UNL A   1      34.311  19.181  24.649  1.00  0.00     0.055 A 
ATOM     25  C   UNL A   1      35.033  17.988  24.474  1.00  0.00     0.027 A 
ATOM     26  C   UNL A   1      33.037  19.271  24.056  1.00  0.00     0.041 A 
ATOM     27  C   UNL A   1      34.504  16.916  23.749  1.00  0.00     0.002 A 
ATOM     28  C   UNL A   1      32.510  18.197  23.326  1.00  0.00     0.018 A 
ATOM     29  Br  UNL A   1      32.011  20.877  24.063  1.00  0.00    -0.049 Br
ATOM     30  C   UNL A   1      33.240  17.020  23.179  1.00  0.00     0.001 A 
ENDBRANCH  22  24
ENDBRANCH  14  22
ENDBRANCH   9  10
ENDBRANCH   8   9
ENDBRANCH   6   8
ENDBRANCH   3   4
ENDBRANCH   2   3
ENDBRANCH   1   2
BRANCH   1  31
ATOM     31  C   UNL A   1      31.693  27.866  25.807  1.00  0.00     0.002 C 
BRANCH  31  32
ATOM     32  C   UNL A   1      33.170  27.513  25.620  1.00  0.00     0.021 C 
BRANCH  32  33
ATOM     33  C   UNL A   1      34.133  28.693  25.718  1.00  0.00     0.116 C 
BRANCH  33  34
ATOM     34  N   UNL A   1      33.453  29.939  26.036  1.00  0.00    -0.352 N 
ATOM     35  C   UNL A   1      33.724  30.848  27.030  1.00  0.00     0.251 C 
ATOM     36  H   UNL A   1      32.691  30.164  25.455  1.00  0.00     0.163 HD
ATOM     37  O   UNL A   1      32.927  31.755  27.258  1.00  0.00    -0.269 OA
BRANCH  35  38
ATOM     38  C   UNL A   1      34.954  30.712  27.842  1.00  0.00     0.039 A 
ATOM     39  C   UNL A   1      35.172  29.526  28.545  1.00  0.00     0.014 A 
ATOM     40  C   UNL A   1      35.893  31.746  27.903  1.00  0.00     0.014 A 
ATOM     41  C   UNL A   1      36.363  29.351  29.255  1.00  0.00     0.010 A 
ATOM     42  C   UNL A   1      37.111  31.538  28.544  1.00  0.00     0.010 A 
ATOM     43  C   UNL A   1      37.362  30.338  29.227  1.00  0.00    -0.014 A 
BRANCH  43  44
ATOM     44  C   UNL A   1      38.670  30.130  29.902  1.00  0.00     0.031 A 
ATOM     45  C   UNL A   1      38.926  30.722  31.261  1.00  0.00     0.074 A 
ATOM     46  C   UNL A   1      39.650  29.458  29.265  1.00  0.00     0.049 A 
ATOM     47  N   UNL A   1      40.020  30.707  31.980  1.00  0.00    -0.248 NA
ATOM     48  C   UNL A   1      37.813  31.458  31.877  1.00  0.00     0.031 C 
ATOM     49  C   UNL A   1      39.538  28.873  27.927  1.00  0.00     0.029 A 
ATOM     50  N   UNL A   1      40.933  29.161  29.650  1.00  0.00    -0.354 N 
ATOM     51  C   UNL A   1      39.730  31.436  33.127  1.00  0.00     0.074 A 
ATOM     52  C   UNL A   1      38.382  31.940  32.970  1.00  0.00     0.031 C 
ATOM     53  C   UNL A   1      40.693  28.265  27.615  1.00  0.00     0.029 A 
ATOM     54  C   UNL A   1      41.646  28.460  28.703  1.00  0.00     0.049 A 
ATOM     55  H   UNL A   1      41.309  29.424  30.521  1.00  0.00     0.167 HD
ATOM     56  C   UNL A   1      40.506  31.646  34.222  1.00  0.00     0.034 A 
ATOM     57  C   UNL A   1      42.926  28.037  28.702  1.00  0.00     0.034 A 
ATOM     58  C   UNL A   1      41.851  31.138  34.357  1.00  0.00     0.049 A 
ATOM     59  C   UNL A   1      43.787  28.314  29.908  1.00  0.00     0.074 A 
ATOM     60  C   UNL A   1      42.708  31.244  35.440  1.00  0.00     0.029 A 
ATOM     61  N   UNL A   1      42.543  30.441  33.374  1.00  0.00    -0.354 N 
ATOM     62  N   UNL A   1      43.481  28.958  31.011  1.00  0.00    -0.248 NA
ATOM     63  C   UNL A   1      45.160  27.799  29.873  1.00  0.00     0.031 C 
ATOM     64  C   UNL A   1      43.941  30.689  35.080  1.00  0.00     0.029 A 
ATOM     65  C   UNL A   1      43.829  30.149  33.808  1.00  0.00     0.049 A 
ATOM     66  H   UNL A   1      42.175  30.191  32.496  1.00  0.00     0.167 HD
ATOM     67  C   UNL A   1      44.616  28.898  31.814  1.00  0.00     0.074 A 
ATOM     68  C   UNL A   1      45.607  28.144  31.072  1.00  0.00     0.031 C 
ATOM     69  C   UNL A   1      44.820  29.414  33.054  1.00  0.00     0.034 A 
BRANCH  56  70
ATOM     70  C   UNL A   1      39.921  32.488  35.334  1.00  0.00     0.023 A 
ATOM     71  C   UNL A   1      39.231  31.911  36.415  1.00  0.00     0.031 A 
ATOM     72  C   UNL A   1      40.009  33.892  35.289  1.00  0.00     0.131 A 
ATOM     73  C   UNL A   1      38.573  32.728  37.346  1.00  0.00     0.055 A 
ATOM     74  C   UNL A   1      39.436  34.698  36.276  1.00  0.00     0.041 A 
ATOM     75  F   UNL A   1      40.635  34.507  34.275  1.00  0.00    -0.206 F 
ATOM     76  C   UNL A   1      38.694  34.118  37.301  1.00  0.00     0.022 A 
BRANCH  73  77
ATOM     77  S   UNL A   1      37.408  31.955  38.502  1.00  0.00     0.124 S 
ATOM     78  O   UNL A   1      37.225  30.637  37.896  1.00  0.00    -0.237 OA
ATOM     79  O   UNL A   1      38.145  31.983  39.760  1.00  0.00    -0.237 OA
ATOM     80  O   UNL A   1      36.236  32.826  38.442  1.00  0.00    -0.744 OA
ENDBRANCH  73  77
ENDBRANCH  56  70
BRANCH  57  81
ATOM     81  C   UNL A   1      43.474  27.320  27.515  1.00  0.00     0.023 A 
ATOM     82  C   UNL A   1      43.552  25.919  27.481  1.00  0.00     0.031 A 
ATOM     83  C   UNL A   1      43.945  28.033  26.397  1.00  0.00     0.131 A 
ATOM     84  C   UNL A   1      44.118  25.276  26.370  1.00  0.00     0.055 A 
ATOM     85  C   UNL A   1      44.458  27.387  25.271  1.00  0.00     0.041 A 
ATOM     86  F   UNL A   1      43.890  29.374  26.374  1.00  0.00    -0.206 F 
ATOM     87  C   UNL A   1      44.556  25.999  25.257  1.00  0.00     0.022 A 
BRANCH  84  88
ATOM     88  S   UNL A   1      44.338  23.476  26.423  1.00  0.00     0.124 S 
ATOM     89  O   UNL A   1      44.054  23.184  27.823  1.00  0.00    -0.237 OA
ATOM     90  O   UNL A   1      43.345  23.020  25.456  1.00  0.00    -0.237 OA
ATOM     91  O   UNL A   1      45.730  23.292  26.017  1.00  0.00    -0.744 OA
ENDBRANCH  84  88
ENDBRANCH  57  81
BRANCH  69  92
ATOM     92  C   UNL A   1      46.155  29.139  33.704  1.00  0.00     0.023 A 
ATOM     93  C   UNL A   1      46.371  28.010  34.513  1.00  0.00     0.031 A 
ATOM     94  C   UNL A   1      47.228  30.029  33.516  1.00  0.00     0.131 A 
ATOM     95  C   UNL A   1      47.609  27.830  35.149  1.00  0.00     0.055 A 
ATOM     96  C   UNL A   1      48.478  29.810  34.095  1.00  0.00     0.041 A 
ATOM     97  F   UNL A   1      47.080  31.129  32.759  1.00  0.00    -0.206 F 
ATOM     98  C   UNL A   1      48.671  28.713  34.929  1.00  0.00     0.022 A 
BRANCH  95  99
ATOM     99  S   UNL A   1      47.786  26.486  36.353  1.00  0.00     0.124 S 
ATOM    100  O   UNL A   1      47.064  27.015  37.506  1.00  0.00    -0.237 OA
ATOM    101  O   UNL A   1      47.153  25.364  35.666  1.00  0.00    -0.237 OA
ATOM    102  O   UNL A   1      49.232  26.368  36.529  1.00  0.00    -0.744 OA
ENDBRANCH  95  99
ENDBRANCH  69  92
ENDBRANCH  43  44
ENDBRANCH  35  38
ENDBRANCH  33  34
ENDBRANCH  32  33
ENDBRANCH  31  32
ENDBRANCH   1  31
TORSDOF 21
ENDMDL
MODEL 2
REMARK VINA RESULT:     -11.3      1.661      3.558
REMARK SMILES O=C(COc1cc(-c2ccccc2)nc(Nc2ccccc2Br)n1)NCCCCCCNC(=O)c1ccc(-c2c3nc(c(-c4cc(S(=O)(=O)[O-])ccc4F)c4ccc([nH]4)c(-c4cc(S(=O)(=O)[O-])ccc4F)c4nc(c(-c5cc(S(=O)(=O)[O-])ccc5F)c5ccc2[nH]5)C=C4)C=C3)cc1
REMARK SMILES IDX 28 1 27 2 26 3 25 4 1 5 2 6 3 8 4 9 5 10 6 11 24 12 7 13
REMARK SMILES IDX 15 14 14 15 8 16 9 17 13 18 10 19 12 20 11 21 16 22 17 24
REMARK SMILES IDX 18 25 22 26 19 27 21 28 23 29 20 30 29 31 30 32 31 33 32 34
REMARK SMILES IDX 33 35 34 37 35 38 36 39 97 40 37 41 96 42 38 43 39 44 40 45
REMARK SMILES IDX 90 46 41 47 95 48 89 49 91 50 42 51 94 52 88 53 87 54 43 56
REMARK SMILES IDX 75 57 55 58 74 59 56 60 59 61 73 62 92 63 57 64 58 65 72 67
REMARK SMILES IDX 93 68 60 69 44 70 45 71 53 72 46 73 52 74 54 75 51 76 47 77
REMARK SMILES IDX 48 78 49 79 50 80 76 81 77 82 85 83 78 84 84 85 86 86 83 87
REMARK SMILES IDX 79 88 80 89 81 90 82 91 61 92 62 93 70 94 63 95 69 96 71 97
REMARK SMILES IDX 68 98 64 99 65 100 66 101 67 102
REMARK H PARENT 25 7 16 23 32 36 91 55 59 66
REMARK Flexibility Score: inf
ROOT
ATOM      1  C   UNL A   1      30.610  28.734  23.890  1.00  0.00     0.002 C 
ENDROOT
BRANCH   1   2
ATOM      2  C   UNL A   1      31.134  27.678  22.907  1.00  0.00     0.021 C 
BRANCH   2   3
ATOM      3  C   UNL A   1      30.592  26.276  23.144  1.00  0.00     0.116 C 
BRANCH   3   4
ATOM      4  N   UNL A   1      31.457  25.493  24.003  1.00  0.00    -0.353 N 
ATOM      5  O   UNL A   1      30.265  25.776  25.952  1.00  0.00    -0.271 OA
ATOM      6  C   UNL A   1      31.171  25.235  25.329  1.00  0.00     0.258 C 
ATOM      7  H   UNL A   1      32.288  25.126  23.623  1.00  0.00     0.163 HD
BRANCH   6   8
ATOM      8  C   UNL A   1      32.076  24.168  25.953  1.00  0.00     0.331 C 
BRANCH   8   9
ATOM      9  O   UNL A   1      31.630  22.829  25.731  1.00  0.00    -0.467 OA
BRANCH   9  10
ATOM     10  C   UNL A   1      32.664  21.970  25.450  1.00  0.00     0.219 A 
ATOM     11  C   UNL A   1      32.461  20.620  25.354  1.00  0.00     0.097 A 
ATOM     12  N   UNL A   1      33.824  22.554  25.139  1.00  0.00    -0.177 NA
ATOM     13  C   UNL A   1      33.532  19.865  24.941  1.00  0.00     0.080 A 
ATOM     14  C   UNL A   1      34.830  21.750  24.759  1.00  0.00     0.231 A 
ATOM     15  N   UNL A   1      34.724  20.415  24.644  1.00  0.00    -0.212 NA
BRANCH  13  16
ATOM     16  C   UNL A   1      33.392  18.409  24.809  1.00  0.00     0.000 A 
ATOM     17  C   UNL A   1      34.098  17.699  23.828  1.00  0.00     0.010 A 
ATOM     18  C   UNL A   1      32.619  17.676  25.732  1.00  0.00     0.010 A 
ATOM     19  C   UNL A   1      34.059  16.301  23.791  1.00  0.00     0.001 A 
ATOM     20  C   UNL A   1      32.577  16.282  25.693  1.00  0.00     0.001 A 
ATOM     21  C   UNL A   1      33.305  15.596  24.726  1.00  0.00     0.000 A 
ENDBRANCH  13  16
BRANCH  14  22
ATOM     22  N   UNL A   1      36.054  22.293  24.381  1.00  0.00    -0.323 N 
ATOM     23  H   UNL A   1      36.154  22.469  23.417  1.00  0.00     0.170 HD
BRANCH  22  24
ATOM     24  C   UNL A   1      37.165  22.625  25.165  1.00  0.00     0.055 A 
ATOM     25  C   UNL A   1      37.279  23.952  25.617  1.00  0.00     0.027 A 
ATOM     26  C   UNL A   1      38.148  21.705  25.578  1.00  0.00     0.041 A 
ATOM     27  C   UNL A   1      38.321  24.347  26.460  1.00  0.00     0.002 A 
ATOM     28  C   UNL A   1      39.194  22.104  26.420  1.00  0.00     0.018 A 
ATOM     29  Br  UNL A   1      38.224  19.919  24.919  1.00  0.00    -0.049 Br
ATOM     30  C   UNL A   1      39.277  23.422  26.865  1.00  0.00     0.001 A 
ENDBRANCH  22  24
ENDBRANCH  14  22
ENDBRANCH   9  10
ENDBRANCH   8   9
ENDBRANCH   6   8
ENDBRANCH   3   4
ENDBRANCH   2   3
ENDBRANCH   1   2
BRANCH   1  31
ATOM     31  C   UNL A   1      31.498  28.999  25.109  1.00  0.00     0.002 C 
BRANCH  31  32
ATOM     32  C   UNL A   1      32.938  28.497  24.993  1.00  0.00     0.021 C 
BRANCH  32  33
ATOM     33  C   UNL A   1      33.957  29.256  25.838  1.00  0.00     0.116 C 
BRANCH  33  34
ATOM     34  N   UNL A   1      33.472  30.563  26.251  1.00  0.00    -0.352 N 
ATOM     35  C   UNL A   1      33.895  31.360  27.288  1.00  0.00     0.251 C 
ATOM     36  H   UNL A   1      32.735  30.930  25.711  1.00  0.00     0.163 HD
ATOM     37  O   UNL A   1      33.242  32.354  27.596  1.00  0.00    -0.269 OA
BRANCH  35  38
ATOM     38  C   UNL A   1      35.113  31.000  28.048  1.00  0.00     0.039 A 
ATOM     39  C   UNL A   1      35.123  29.815  28.786  1.00  0.00     0.014 A 
ATOM     40  C   UNL A   1      36.243  31.822  28.026  1.00  0.00     0.014 A 
ATOM     41  C   UNL A   1      36.290  29.422  29.448  1.00  0.00     0.010 A 
ATOM     42  C   UNL A   1      37.426  31.389  28.618  1.00  0.00     0.010 A 
ATOM     43  C   UNL A   1      37.465  30.184  29.336  1.00  0.00    -0.014 A 
BRANCH  43  44
ATOM     44  C   UNL A   1      38.737  29.733  29.959  1.00  0.00     0.031 A 
ATOM     45  C   UNL A   1      39.154  30.263  31.304  1.00  0.00     0.074 A 
ATOM     46  C   UNL A   1      39.549  28.893  29.285  1.00  0.00     0.049 A 
ATOM     47  N   UNL A   1      40.254  30.042  31.978  1.00  0.00    -0.248 NA
ATOM     48  C   UNL A   1      38.223  31.191  31.960  1.00  0.00     0.031 C 
ATOM     49  C   UNL A   1      39.276  28.344  27.955  1.00  0.00     0.029 A 
ATOM     50  N   UNL A   1      40.769  28.361  29.619  1.00  0.00    -0.354 N 
ATOM     51  C   UNL A   1      40.151  30.809  33.133  1.00  0.00     0.074 A 
ATOM     52  C   UNL A   1      38.915  31.555  33.028  1.00  0.00     0.031 C 
ATOM     53  C   UNL A   1      40.284  27.532  27.600  1.00  0.00     0.029 A 
ATOM     54  C   UNL A   1      41.300  27.543  28.648  1.00  0.00     0.049 A 
ATOM     55  H   UNL A   1      41.222  28.547  30.473  1.00  0.00     0.167 HD
ATOM     56  C   UNL A   1      40.996  30.866  34.195  1.00  0.00     0.034 A 
ATOM     57  C   UNL A   1      42.478  26.889  28.597  1.00  0.00     0.034 A 
ATOM     58  C   UNL A   1      42.227  30.116  34.278  1.00  0.00     0.049 A 
ATOM     59  C   UNL A   1      43.423  26.997  29.766  1.00  0.00     0.074 A 
ATOM     60  C   UNL A   1      43.132  30.058  35.324  1.00  0.00     0.029 A 
ATOM     61  N   UNL A   1      42.738  29.306  33.270  1.00  0.00    -0.354 N 
ATOM     62  N   UNL A   1      43.287  27.683  30.878  1.00  0.00    -0.248 NA
ATOM     63  C   UNL A   1      44.674  26.235  29.677  1.00  0.00     0.031 C 
ATOM     64  C   UNL A   1      44.225  29.284  34.918  1.00  0.00     0.029 A 
ATOM     65  C   UNL A   1      43.964  28.779  33.654  1.00  0.00     0.049 A 
ATOM     66  H   UNL A   1      42.295  29.132  32.409  1.00  0.00     0.167 HD
ATOM     67  C   UNL A   1      44.423  27.410  31.634  1.00  0.00     0.074 A 
ATOM     68  C   UNL A   1      45.225  26.487  30.856  1.00  0.00     0.031 C 
ATOM     69  C   UNL A   1      44.768  27.874  32.863  1.00  0.00     0.034 A 
BRANCH  56  70
ATOM     70  C   UNL A   1      40.624  31.799  35.325  1.00  0.00     0.023 A 
ATOM     71  C   UNL A   1      39.615  31.474  36.251  1.00  0.00     0.031 A 
ATOM     72  C   UNL A   1      41.248  33.053  35.454  1.00  0.00     0.131 A 
ATOM     73  C   UNL A   1      39.193  32.424  37.193  1.00  0.00     0.055 A 
ATOM     74  C   UNL A   1      40.890  33.956  36.458  1.00  0.00     0.041 A 
ATOM     75  F   UNL A   1      42.203  33.434  34.591  1.00  0.00    -0.206 F 
ATOM     76  C   UNL A   1      39.843  33.653  37.322  1.00  0.00     0.022 A 
BRANCH  73  77
ATOM     77  S   UNL A   1      37.665  32.102  38.117  1.00  0.00     0.124 S 
ATOM     78  O   UNL A   1      36.767  33.112  37.560  1.00  0.00    -0.237 OA
ATOM     79  O   UNL A   1      37.369  30.719  37.766  1.00  0.00    -0.237 OA
ATOM     80  O   UNL A   1      38.053  32.326  39.509  1.00  0.00    -0.744 OA
ENDBRANCH  73  77
ENDBRANCH  56  70
BRANCH  57  81
ATOM     81  C   UNL A   1      42.835  26.087  27.391  1.00  0.00     0.023 A 
ATOM     82  C   UNL A   1      42.737  24.687  27.393  1.00  0.00     0.031 A 
ATOM     83  C   UNL A   1      43.296  26.715  26.219  1.00  0.00     0.131 A 
ATOM     84  C   UNL A   1      43.127  23.957  26.259  1.00  0.00     0.055 A 
ATOM     85  C   UNL A   1      43.632  25.987  25.076  1.00  0.00     0.041 A 
ATOM     86  F   UNL A   1      43.405  28.051  26.162  1.00  0.00    -0.206 F 
ATOM     87  C   UNL A   1      43.557  24.599  25.095  1.00  0.00     0.022 A 
BRANCH  84  88
ATOM     88  S   UNL A   1      43.129  22.145  26.348  1.00  0.00     0.124 S 
ATOM     89  O   UNL A   1      42.678  21.915  27.715  1.00  0.00    -0.237 OA
ATOM     90  O   UNL A   1      42.187  21.789  25.291  1.00  0.00    -0.237 OA
ATOM     91  O   UNL A   1      44.522  21.793  26.081  1.00  0.00    -0.744 OA
ENDBRANCH  84  88
ENDBRANCH  57  81
BRANCH  69  92
ATOM     92  C   UNL A   1      46.055  27.354  33.460  1.00  0.00     0.023 A 
ATOM     93  C   UNL A   1      46.080  26.237  34.314  1.00  0.00     0.031 A 
ATOM     94  C   UNL A   1      47.275  27.993  33.175  1.00  0.00     0.131 A 
ATOM     95  C   UNL A   1      47.291  25.829  34.897  1.00  0.00     0.055 A 
ATOM     96  C   UNL A   1      48.485  27.541  33.702  1.00  0.00     0.041 A 
ATOM     97  F   UNL A   1      47.312  29.068  32.371  1.00  0.00    -0.206 F 
ATOM     98  C   UNL A   1      48.496  26.462  34.580  1.00  0.00     0.022 A 
BRANCH  95  99
ATOM     99  S   UNL A   1      47.257  24.527  36.158  1.00  0.00     0.124 S 
ATOM    100  O   UNL A   1      47.670  25.253  37.355  1.00  0.00    -0.237 OA
ATOM    101  O   UNL A   1      45.863  24.095  36.125  1.00  0.00    -0.237 OA
ATOM    102  O   UNL A   1      48.221  23.545  35.665  1.00  0.00    -0.744 OA
ENDBRANCH  95  99
ENDBRANCH  69  92
ENDBRANCH  43  44
ENDBRANCH  35  38
ENDBRANCH  33  34
ENDBRANCH  32  33
ENDBRANCH  31  32
ENDBRANCH   1  31
TORSDOF 21
ENDMDL
MODEL 3
REMARK VINA RESULT:     -11.3      1.214      7.910
REMARK SMILES O=C(COc1cc(-c2ccccc2)nc(Nc2ccccc2Br)n1)NCCCCCCNC(=O)c1ccc(-c2c3nc(c(-c4cc(S(=O)(=O)[O-])ccc4F)c4ccc([nH]4)c(-c4cc(S(=O)(=O)[O-])ccc4F)c4nc(c(-c5cc(S(=O)(=O)[O-])ccc5F)c5ccc2[nH]5)C=C4)C=C3)cc1
REMARK SMILES IDX 28 1 27 2 26 3 25 4 1 5 2 6 3 8 4 9 5 10 6 11 24 12 7 13
REMARK SMILES IDX 15 14 14 15 8 16 9 17 13 18 10 19 12 20 11 21 16 22 17 24
REMARK SMILES IDX 18 25 22 26 19 27 21 28 23 29 20 30 29 31 30 32 31 33 32 34
REMARK SMILES IDX 33 35 34 37 35 38 36 39 97 40 37 41 96 42 38 43 39 44 40 45
REMARK SMILES IDX 90 46 41 47 95 48 89 49 91 50 42 51 94 52 88 53 87 54 43 56
REMARK SMILES IDX 75 57 55 58 74 59 56 60 59 61 73 62 92 63 57 64 58 65 72 67
REMARK SMILES IDX 93 68 60 69 44 70 45 71 53 72 46 73 52 74 54 75 51 76 47 77
REMARK SMILES IDX 48 78 49 79 50 80 76 81 77 82 85 83 78 84 84 85 86 86 83 87
REMARK SMILES IDX 79 88 80 89 81 90 82 91 61 92 62 93 70 94 63 95 69 96 71 97
REMARK SMILES IDX 68 98 64 99 65 100 66 101 67 102
REMARK H PARENT 25 7 16 23 32 36 91 55 59 66
REMARK Flexibility Score: inf
ROOT
ATOM      1  C   UNL A   1      30.817  26.867  25.211  1.00  0.00     0.002 C 
ENDROOT
BRANCH   1   2
ATOM      2  C   UNL A   1      30.564  27.550  23.861  1.00  0.00     0.021 C 
BRANCH   2   3
ATOM      3  C   UNL A   1      31.341  26.949  22.698  1.00  0.00     0.116 C 
BRANCH   3   4
ATOM      4  N   UNL A   1      32.093  25.775  23.091  1.00  0.00    -0.353 N 
ATOM      5  O   UNL A   1      34.058  26.317  22.023  1.00  0.00    -0.271 OA
ATOM      6  C   UNL A   1      33.428  25.597  22.788  1.00  0.00     0.258 C 
ATOM      7  H   UNL A   1      31.629  25.069  23.598  1.00  0.00     0.163 HD
BRANCH   6   8
ATOM      8  C   UNL A   1      34.074  24.426  23.536  1.00  0.00     0.331 C 
BRANCH   8   9
ATOM      9  O   UNL A   1      33.467  23.162  23.265  1.00  0.00    -0.467 OA
BRANCH   9  10
ATOM     10  C   UNL A   1      34.135  22.119  23.859  1.00  0.00     0.219 A 
ATOM     11  C   UNL A   1      33.549  20.891  24.009  1.00  0.00     0.097 A 
ATOM     12  N   UNL A   1      35.421  22.349  24.138  1.00  0.00    -0.177 NA
ATOM     13  C   UNL A   1      34.347  19.884  24.495  1.00  0.00     0.080 A 
ATOM     14  C   UNL A   1      36.133  21.320  24.625  1.00  0.00     0.231 A 
ATOM     15  N   UNL A   1      35.640  20.084  24.812  1.00  0.00    -0.212 NA
BRANCH  13  16
ATOM     16  C   UNL A   1      33.792  18.537  24.680  1.00  0.00     0.000 A 
ATOM     17  C   UNL A   1      34.193  17.470  23.863  1.00  0.00     0.010 A 
ATOM     18  C   UNL A   1      32.915  18.263  25.748  1.00  0.00     0.010 A 
ATOM     19  C   UNL A   1      33.758  16.167  24.126  1.00  0.00     0.001 A 
ATOM     20  C   UNL A   1      32.477  16.963  26.008  1.00  0.00     0.001 A 
ATOM     21  C   UNL A   1      32.907  15.915  25.201  1.00  0.00     0.000 A 
ENDBRANCH  13  16
BRANCH  14  22
ATOM     22  N   UNL A   1      37.489  21.476  24.899  1.00  0.00    -0.323 N 
ATOM     23  H   UNL A   1      38.083  20.828  24.456  1.00  0.00     0.170 HD
BRANCH  22  24
ATOM     24  C   UNL A   1      38.135  22.417  25.709  1.00  0.00     0.055 A 
ATOM     25  C   UNL A   1      37.538  23.682  25.853  1.00  0.00     0.027 A 
ATOM     26  C   UNL A   1      39.314  22.162  26.435  1.00  0.00     0.041 A 
ATOM     27  C   UNL A   1      38.084  24.653  26.698  1.00  0.00     0.002 A 
ATOM     28  C   UNL A   1      39.862  23.137  27.279  1.00  0.00     0.018 A 
ATOM     29  Br  UNL A   1      40.327  20.562  26.219  1.00  0.00    -0.049 Br
ATOM     30  C   UNL A   1      39.243  24.378  27.415  1.00  0.00     0.001 A 
ENDBRANCH  22  24
ENDBRANCH  14  22
ENDBRANCH   9  10
ENDBRANCH   8   9
ENDBRANCH   6   8
ENDBRANCH   3   4
ENDBRANCH   2   3
ENDBRANCH   1   2
BRANCH   1  31
ATOM     31  C   UNL A   1      31.728  27.631  26.177  1.00  0.00     0.002 C 
BRANCH  31  32
ATOM     32  C   UNL A   1      33.227  27.500  25.907  1.00  0.00     0.021 C 
BRANCH  32  33
ATOM     33  C   UNL A   1      33.915  28.781  25.443  1.00  0.00     0.116 C 
BRANCH  33  34
ATOM     34  N   UNL A   1      33.151  29.973  25.778  1.00  0.00    -0.352 N 
ATOM     35  C   UNL A   1      33.345  30.871  26.800  1.00  0.00     0.251 C 
ATOM     36  H   UNL A   1      32.387  30.164  25.187  1.00  0.00     0.163 HD
ATOM     37  O   UNL A   1      32.488  31.719  27.034  1.00  0.00    -0.269 OA
BRANCH  35  38
ATOM     38  C   UNL A   1      34.565  30.791  27.633  1.00  0.00     0.039 A 
ATOM     39  C   UNL A   1      34.800  29.635  28.380  1.00  0.00     0.014 A 
ATOM     40  C   UNL A   1      35.480  31.847  27.672  1.00  0.00     0.014 A 
ATOM     41  C   UNL A   1      35.984  29.511  29.112  1.00  0.00     0.010 A 
ATOM     42  C   UNL A   1      36.693  31.690  28.336  1.00  0.00     0.010 A 
ATOM     43  C   UNL A   1      36.960  30.520  29.064  1.00  0.00    -0.014 A 
BRANCH  43  44
ATOM     44  C   UNL A   1      38.263  30.365  29.764  1.00  0.00     0.031 A 
ATOM     45  C   UNL A   1      39.352  29.518  29.163  1.00  0.00     0.074 A 
ATOM     46  C   UNL A   1      38.444  30.937  30.972  1.00  0.00     0.049 A 
ATOM     47  N   UNL A   1      40.526  29.209  29.650  1.00  0.00    -0.248 NA
ATOM     48  C   UNL A   1      39.065  28.913  27.854  1.00  0.00     0.031 C 
ATOM     49  C   UNL A   1      37.449  31.746  31.679  1.00  0.00     0.029 A 
ATOM     50  N   UNL A   1      39.522  30.920  31.821  1.00  0.00    -0.354 N 
ATOM     51  C   UNL A   1      41.116  28.368  28.713  1.00  0.00     0.074 A 
ATOM     52  C   UNL A   1      40.137  28.159  27.667  1.00  0.00     0.031 C 
ATOM     53  C   UNL A   1      37.972  32.170  32.840  1.00  0.00     0.029 A 
ATOM     54  C   UNL A   1      39.316  31.622  32.988  1.00  0.00     0.049 A 
ATOM     55  H   UNL A   1      40.362  30.450  31.617  1.00  0.00     0.167 HD
ATOM     56  C   UNL A   1      42.367  27.838  28.712  1.00  0.00     0.034 A 
ATOM     57  C   UNL A   1      40.112  31.791  34.063  1.00  0.00     0.034 A 
ATOM     58  C   UNL A   1      43.327  28.055  29.767  1.00  0.00     0.049 A 
ATOM     59  C   UNL A   1      41.481  31.162  34.064  1.00  0.00     0.074 A 
ATOM     60  C   UNL A   1      44.637  27.612  29.845  1.00  0.00     0.029 A 
ATOM     61  N   UNL A   1      43.080  28.762  30.938  1.00  0.00    -0.354 N 
ATOM     62  N   UNL A   1      42.047  30.413  33.144  1.00  0.00    -0.248 NA
ATOM     63  C   UNL A   1      42.322  31.409  35.241  1.00  0.00     0.031 C 
ATOM     64  C   UNL A   1      45.150  27.977  31.095  1.00  0.00     0.029 A 
ATOM     65  C   UNL A   1      44.198  28.731  31.762  1.00  0.00     0.049 A 
ATOM     66  H   UNL A   1      42.235  29.219  31.153  1.00  0.00     0.167 HD
ATOM     67  C   UNL A   1      43.323  30.125  33.621  1.00  0.00     0.074 A 
ATOM     68  C   UNL A   1      43.446  30.792  34.901  1.00  0.00     0.031 C 
ATOM     69  C   UNL A   1      44.306  29.382  33.048  1.00  0.00     0.034 A 
BRANCH  56  70
ATOM     70  C   UNL A   1      42.740  26.948  27.547  1.00  0.00     0.023 A 
ATOM     71  C   UNL A   1      42.860  25.554  27.690  1.00  0.00     0.031 A 
ATOM     72  C   UNL A   1      43.028  27.503  26.287  1.00  0.00     0.131 A 
ATOM     73  C   UNL A   1      43.353  24.778  26.630  1.00  0.00     0.055 A 
ATOM     74  C   UNL A   1      43.423  26.711  25.206  1.00  0.00     0.041 A 
ATOM     75  F   UNL A   1      42.953  28.828  26.088  1.00  0.00    -0.206 F 
ATOM     76  C   UNL A   1      43.609  25.343  25.379  1.00  0.00     0.022 A 
BRANCH  73  77
ATOM     77  S   UNL A   1      43.831  23.060  26.966  1.00  0.00     0.124 S 
ATOM     78  O   UNL A   1      45.264  23.198  27.216  1.00  0.00    -0.237 OA
ATOM     79  O   UNL A   1      43.009  22.725  28.124  1.00  0.00    -0.237 OA
ATOM     80  O   UNL A   1      43.487  22.361  25.730  1.00  0.00    -0.744 OA
ENDBRANCH  73  77
ENDBRANCH  56  70
BRANCH  57  81
ATOM     81  C   UNL A   1      39.627  32.578  35.233  1.00  0.00     0.023 A 
ATOM     82  C   UNL A   1      38.931  31.964  36.287  1.00  0.00     0.031 A 
ATOM     83  C   UNL A   1      39.842  33.967  35.306  1.00  0.00     0.131 A 
ATOM     84  C   UNL A   1      38.445  32.740  37.350  1.00  0.00     0.055 A 
ATOM     85  C   UNL A   1      39.403  34.726  36.392  1.00  0.00     0.041 A 
ATOM     86  F   UNL A   1      40.505  34.604  34.328  1.00  0.00    -0.206 F 
ATOM     87  C   UNL A   1      38.691  34.114  37.419  1.00  0.00     0.022 A 
BRANCH  84  88
ATOM     88  S   UNL A   1      37.423  31.940  38.617  1.00  0.00     0.124 S 
ATOM     89  O   UNL A   1      38.271  32.055  39.798  1.00  0.00    -0.237 OA
ATOM     90  O   UNL A   1      36.221  32.767  38.604  1.00  0.00    -0.237 OA
ATOM     91  O   UNL A   1      37.247  30.582  38.104  1.00  0.00    -0.744 OA
ENDBRANCH  84  88
ENDBRANCH  57  81
BRANCH  69  92
ATOM     92  C   UNL A   1      45.619  29.290  33.788  1.00  0.00     0.023 A 
ATOM     93  C   UNL A   1      45.869  28.284  34.738  1.00  0.00     0.031 A 
ATOM     94  C   UNL A   1      46.636  30.230  33.543  1.00  0.00     0.131 A 
ATOM     95  C   UNL A   1      47.080  28.276  35.449  1.00  0.00     0.055 A 
ATOM     96  C   UNL A   1      47.865  30.177  34.201  1.00  0.00     0.041 A 
ATOM     97  F   UNL A   1      46.454  31.218  32.651  1.00  0.00    -0.206 F 
ATOM     98  C   UNL A   1      48.087  29.204  35.171  1.00  0.00     0.022 A 
BRANCH  95  99
ATOM     99  S   UNL A   1      47.283  27.101  36.815  1.00  0.00     0.124 S 
ATOM    100  O   UNL A   1      47.261  27.983  37.978  1.00  0.00    -0.237 OA
ATOM    101  O   UNL A   1      46.123  26.230  36.654  1.00  0.00    -0.237 OA
ATOM    102  O   UNL A   1      48.573  26.472  36.540  1.00  0.00    -0.744 OA
ENDBRANCH  95  99
ENDBRANCH  69  92
ENDBRANCH  43  44
ENDBRANCH  35  38
ENDBRANCH  33  34
ENDBRANCH  32  33
ENDBRANCH  31  32
ENDBRANCH   1  31
TORSDOF 21
ENDMDL
