MODEL 1
REMARK VINA RESULT:     -10.7      0.000      0.000
REMARK SMILES Cc1ccc([C@H]2C[C@]2([NH3+])C(=O)NCCCCCCNC(=O)c2ccc(-c3c4nc(c(-c5cc(S(=O)(=O)[O-])ccc5F)c5ccc([nH]5)c(-c5cc(S(=O)(=O)[O-])ccc5F)c5nc(c(-c6cc(S(=O)(=O)[O-])ccc6F)c6ccc3[nH]6)C=C5)C=C4)cc2)cc1C
REMARK SMILES IDX 16 1 15 2 14 3 13 4 12 5 10 6 11 7 8 9 6 10 7 11 5 12 1 13
REMARK SMILES IDX 2 14 3 15 86 16 4 17 85 18 87 19 9 20 17 24 18 25 19 26
REMARK SMILES IDX 20 27 21 29 22 30 23 31 84 32 24 33 83 34 25 35 26 36 27 37
REMARK SMILES IDX 77 38 28 39 82 40 76 41 78 42 29 43 81 44 75 45 74 46 30 48
REMARK SMILES IDX 62 49 42 50 61 51 43 52 46 53 60 54 79 55 44 56 45 57 59 59
REMARK SMILES IDX 80 60 47 61 31 62 32 63 40 64 33 65 39 66 41 67 38 68 34 69
REMARK SMILES IDX 35 70 36 71 37 72 63 73 64 74 72 75 65 76 71 77 73 78 70 79
REMARK SMILES IDX 66 80 67 81 68 82 69 83 48 84 49 85 57 86 50 87 56 88 58 89
REMARK SMILES IDX 55 90 51 91 52 92 53 93 54 94
REMARK H PARENT 12 8 9 21 9 22 9 23 19 28 78 47 46 58
REMARK Flexibility Score: inf
ROOT
ATOM      1  C   UNL A   1      34.699  23.784  25.847  1.00  0.00     0.002 C 
ENDROOT
BRANCH   1   2
ATOM      2  C   UNL A   1      34.272  22.739  24.812  1.00  0.00     0.002 C 
BRANCH   2   3
ATOM      3  C   UNL A   1      33.268  23.213  23.755  1.00  0.00     0.021 C 
BRANCH   3   4
ATOM      4  C   UNL A   1      33.697  24.428  22.934  1.00  0.00     0.116 C 
BRANCH   4   5
ATOM      5  N   UNL A   1      32.873  24.634  21.762  1.00  0.00    -0.351 N 
ATOM      6  C   UNL A   1      32.278  25.782  21.307  1.00  0.00     0.281 C 
ATOM      7  O   UNL A   1      31.652  25.760  20.249  1.00  0.00    -0.268 OA
ATOM      8  H   UNL A   1      32.717  23.833  21.211  1.00  0.00     0.163 HD
BRANCH   6   9
ATOM      9  C   UNL A   1      32.381  27.061  22.123  1.00  0.00     0.181 C 
ATOM     10  C   UNL A   1      31.806  27.012  23.532  1.00  0.00     0.097 C 
ATOM     11  C   UNL A   1      31.097  27.794  22.461  1.00  0.00     0.095 C 
BRANCH  10  12
ATOM     12  C   UNL A   1      32.357  27.735  24.739  1.00  0.00    -0.038 A 
ATOM     13  C   UNL A   1      34.343  29.983  27.897  1.00  0.00     0.044 C 
ATOM     14  C   UNL A   1      33.611  29.216  26.832  1.00  0.00    -0.048 A 
ATOM     15  C   UNL A   1      34.123  27.981  26.414  1.00  0.00     0.004 A 
ATOM     16  C   UNL A   1      32.444  29.706  26.222  1.00  0.00    -0.048 A 
ATOM     17  C   UNL A   1      33.505  27.259  25.390  1.00  0.00     0.004 A 
ATOM     18  C   UNL A   1      31.844  28.963  25.183  1.00  0.00     0.008 A 
ATOM     19  C   UNL A   1      31.804  31.013  26.606  1.00  0.00     0.044 C 
ENDBRANCH  10  12
BRANCH   9  20
ATOM     20  N   UNL A   1      33.487  27.967  21.715  1.00  0.00    -0.344 N 
ATOM     21  H   UNL A   1      34.050  27.514  20.994  1.00  0.00     0.345 HD
ATOM     22  H   UNL A   1      34.074  28.174  22.524  1.00  0.00     0.345 HD
ATOM     23  H   UNL A   1      33.097  28.836  21.348  1.00  0.00     0.345 HD
ENDBRANCH   9  20
ENDBRANCH   6   9
ENDBRANCH   4   5
ENDBRANCH   3   4
ENDBRANCH   2   3
ENDBRANCH   1   2
BRANCH   1  24
ATOM     24  C   UNL A   1      36.177  24.182  25.825  1.00  0.00     0.021 C 
BRANCH  24  25
ATOM     25  C   UNL A   1      37.041  23.454  24.800  1.00  0.00     0.116 C 
BRANCH  25  26
ATOM     26  N   UNL A   1      37.914  22.463  25.404  1.00  0.00    -0.352 N 
ATOM     27  C   UNL A   1      39.026  22.633  26.193  1.00  0.00     0.251 C 
ATOM     28  H   UNL A   1      37.672  21.527  25.220  1.00  0.00     0.163 HD
ATOM     29  O   UNL A   1      39.719  21.658  26.470  1.00  0.00    -0.269 OA
BRANCH  27  30
ATOM     30  C   UNL A   1      39.409  23.979  26.681  1.00  0.00     0.039 A 
ATOM     31  C   UNL A   1      39.125  24.315  28.009  1.00  0.00     0.014 A 
ATOM     32  C   UNL A   1      40.018  24.918  25.843  1.00  0.00     0.014 A 
ATOM     33  C   UNL A   1      39.503  25.564  28.509  1.00  0.00     0.010 A 
ATOM     34  C   UNL A   1      40.457  26.137  26.362  1.00  0.00     0.010 A 
ATOM     35  C   UNL A   1      40.202  26.475  27.700  1.00  0.00    -0.014 A 
BRANCH  35  36
ATOM     36  C   UNL A   1      40.666  27.781  28.245  1.00  0.00     0.031 A 
ATOM     37  C   UNL A   1      42.137  28.085  28.345  1.00  0.00     0.074 A 
ATOM     38  C   UNL A   1      39.761  28.675  28.690  1.00  0.00     0.049 A 
ATOM     39  N   UNL A   1      42.733  29.148  28.823  1.00  0.00    -0.248 NA
ATOM     40  C   UNL A   1      43.059  27.043  27.870  1.00  0.00     0.031 C 
ATOM     41  C   UNL A   1      38.310  28.480  28.689  1.00  0.00     0.029 A 
ATOM     42  N   UNL A   1      39.925  29.925  29.233  1.00  0.00    -0.354 N 
ATOM     43  C   UNL A   1      44.098  28.901  28.714  1.00  0.00     0.074 A 
ATOM     44  C   UNL A   1      44.237  27.560  28.185  1.00  0.00     0.031 C 
ATOM     45  C   UNL A   1      37.717  29.580  29.179  1.00  0.00     0.029 A 
ATOM     46  C   UNL A   1      38.742  30.543  29.568  1.00  0.00     0.049 A 
ATOM     47  H   UNL A   1      40.807  30.341  29.369  1.00  0.00     0.167 HD
ATOM     48  C   UNL A   1      45.137  29.723  29.005  1.00  0.00     0.034 A 
ATOM     49  C   UNL A   1      38.508  31.746  30.130  1.00  0.00     0.034 A 
ATOM     50  C   UNL A   1      44.983  31.062  29.524  1.00  0.00     0.049 A 
ATOM     51  C   UNL A   1      39.679  32.636  30.459  1.00  0.00     0.074 A 
ATOM     52  C   UNL A   1      45.963  31.999  29.800  1.00  0.00     0.029 A 
ATOM     53  N   UNL A   1      43.769  31.654  29.853  1.00  0.00    -0.354 N 
ATOM     54  N   UNL A   1      40.963  32.409  30.296  1.00  0.00    -0.248 NA
ATOM     55  C   UNL A   1      39.367  33.950  31.034  1.00  0.00     0.031 C 
ATOM     56  C   UNL A   1      45.351  33.127  30.357  1.00  0.00     0.029 A 
ATOM     57  C   UNL A   1      43.980  32.928  30.360  1.00  0.00     0.049 A 
ATOM     58  H   UNL A   1      42.887  31.230  29.743  1.00  0.00     0.167 HD
ATOM     59  C   UNL A   1      41.609  33.564  30.726  1.00  0.00     0.074 A 
ATOM     60  C   UNL A   1      40.572  34.492  31.131  1.00  0.00     0.031 C 
ATOM     61  C   UNL A   1      42.939  33.836  30.782  1.00  0.00     0.034 A 
BRANCH  48  62
ATOM     62  C   UNL A   1      46.532  29.182  28.791  1.00  0.00     0.023 A 
ATOM     63  C   UNL A   1      47.071  29.017  27.502  1.00  0.00     0.031 A 
ATOM     64  C   UNL A   1      47.326  28.798  29.886  1.00  0.00     0.131 A 
ATOM     65  C   UNL A   1      48.324  28.410  27.336  1.00  0.00     0.055 A 
ATOM     66  C   UNL A   1      48.610  28.273  29.719  1.00  0.00     0.041 A 
ATOM     67  F   UNL A   1      46.862  28.913  31.140  1.00  0.00    -0.206 F 
ATOM     68  C   UNL A   1      49.109  28.060  28.438  1.00  0.00     0.022 A 
BRANCH  65  69
ATOM     69  S   UNL A   1      48.849  27.946  25.664  1.00  0.00     0.124 S 
ATOM     70  O   UNL A   1      50.097  28.693  25.530  1.00  0.00    -0.237 OA
ATOM     71  O   UNL A   1      48.978  26.497  25.763  1.00  0.00    -0.237 OA
ATOM     72  O   UNL A   1      47.755  28.418  24.817  1.00  0.00    -0.744 OA
ENDBRANCH  65  69
ENDBRANCH  48  62
BRANCH  49  73
ATOM     73  C   UNL A   1      37.114  32.184  30.427  1.00  0.00     0.023 A 
ATOM     74  C   UNL A   1      36.336  32.830  29.454  1.00  0.00     0.031 A 
ATOM     75  C   UNL A   1      36.555  32.001  31.704  1.00  0.00     0.131 A 
ATOM     76  C   UNL A   1      35.061  33.315  29.787  1.00  0.00     0.055 A 
ATOM     77  C   UNL A   1      35.267  32.438  32.015  1.00  0.00     0.041 A 
ATOM     78  F   UNL A   1      37.255  31.382  32.670  1.00  0.00    -0.206 F 
ATOM     79  C   UNL A   1      34.516  33.112  31.057  1.00  0.00     0.022 A 
BRANCH  76  80
ATOM     80  S   UNL A   1      34.156  34.294  28.556  1.00  0.00     0.124 S 
ATOM     81  O   UNL A   1      34.962  35.507  28.489  1.00  0.00    -0.237 OA
ATOM     82  O   UNL A   1      34.205  33.424  27.385  1.00  0.00    -0.237 OA
ATOM     83  O   UNL A   1      32.833  34.454  29.156  1.00  0.00    -0.744 OA
ENDBRANCH  76  80
ENDBRANCH  49  73
BRANCH  61  84
ATOM     84  C   UNL A   1      43.333  35.209  31.272  1.00  0.00     0.023 A 
ATOM     85  C   UNL A   1      43.448  35.499  32.644  1.00  0.00     0.031 A 
ATOM     86  C   UNL A   1      43.565  36.251  30.356  1.00  0.00     0.131 A 
ATOM     87  C   UNL A   1      43.715  36.810  33.062  1.00  0.00     0.055 A 
ATOM     88  C   UNL A   1      43.896  37.540  30.777  1.00  0.00     0.041 A 
ATOM     89  F   UNL A   1      43.468  36.034  29.035  1.00  0.00    -0.206 F 
ATOM     90  C   UNL A   1      43.958  37.830  32.137  1.00  0.00     0.022 A 
BRANCH  87  91
ATOM     91  S   UNL A   1      43.634  37.193  34.833  1.00  0.00     0.124 S 
ATOM     92  O   UNL A   1      44.421  38.419  34.915  1.00  0.00    -0.237 OA
ATOM     93  O   UNL A   1      42.198  37.341  35.055  1.00  0.00    -0.237 OA
ATOM     94  O   UNL A   1      44.240  36.023  35.466  1.00  0.00    -0.744 OA
ENDBRANCH  87  91
ENDBRANCH  61  84
ENDBRANCH  35  36
ENDBRANCH  27  30
ENDBRANCH  25  26
ENDBRANCH  24  25
ENDBRANCH   1  24
TORSDOF 18
ENDMDL
MODEL 2
REMARK VINA RESULT:     -10.6      4.659      8.106
REMARK SMILES Cc1ccc([C@H]2C[C@]2([NH3+])C(=O)NCCCCCCNC(=O)c2ccc(-c3c4nc(c(-c5cc(S(=O)(=O)[O-])ccc5F)c5ccc([nH]5)c(-c5cc(S(=O)(=O)[O-])ccc5F)c5nc(c(-c6cc(S(=O)(=O)[O-])ccc6F)c6ccc3[nH]6)C=C5)C=C4)cc2)cc1C
REMARK SMILES IDX 16 1 15 2 14 3 13 4 12 5 10 6 11 7 8 9 6 10 7 11 5 12 1 13
REMARK SMILES IDX 2 14 3 15 86 16 4 17 85 18 87 19 9 20 17 24 18 25 19 26
REMARK SMILES IDX 20 27 21 29 22 30 23 31 84 32 24 33 83 34 25 35 26 36 27 37
REMARK SMILES IDX 77 38 28 39 82 40 76 41 78 42 29 43 81 44 75 45 74 46 30 48
REMARK SMILES IDX 62 49 42 50 61 51 43 52 46 53 60 54 79 55 44 56 45 57 59 59
REMARK SMILES IDX 80 60 47 61 31 62 32 63 40 64 33 65 39 66 41 67 38 68 34 69
REMARK SMILES IDX 35 70 36 71 37 72 63 73 64 74 72 75 65 76 71 77 73 78 70 79
REMARK SMILES IDX 66 80 67 81 68 82 69 83 48 84 49 85 57 86 50 87 56 88 58 89
REMARK SMILES IDX 55 90 51 91 52 92 53 93 54 94
REMARK H PARENT 12 8 9 21 9 22 9 23 19 28 78 47 46 58
REMARK Flexibility Score: inf
ROOT
ATOM      1  C   UNL A   1      31.513  30.408  26.650  1.00  0.00     0.002 C 
ENDROOT
BRANCH   1   2
ATOM      2  C   UNL A   1      32.186  29.834  25.400  1.00  0.00     0.002 C 
BRANCH   2   3
ATOM      3  C   UNL A   1      33.002  28.552  25.605  1.00  0.00     0.021 C 
BRANCH   3   4
ATOM      4  C   UNL A   1      32.186  27.280  25.828  1.00  0.00     0.116 C 
BRANCH   4   5
ATOM      5  N   UNL A   1      30.963  27.253  25.054  1.00  0.00    -0.351 N 
ATOM      6  C   UNL A   1      30.305  26.185  24.500  1.00  0.00     0.281 C 
ATOM      7  O   UNL A   1      29.240  26.369  23.916  1.00  0.00    -0.268 OA
ATOM      8  H   UNL A   1      30.542  28.131  24.903  1.00  0.00     0.163 HD
BRANCH   6   9
ATOM      9  C   UNL A   1      30.909  24.793  24.599  1.00  0.00     0.181 C 
ATOM     10  C   UNL A   1      32.012  24.463  23.601  1.00  0.00     0.097 C 
ATOM     11  C   UNL A   1      30.657  23.827  23.456  1.00  0.00     0.095 C 
BRANCH  10  12
ATOM     12  C   UNL A   1      33.217  23.592  23.870  1.00  0.00    -0.038 A 
ATOM     13  C   UNL A   1      36.674  21.270  25.146  1.00  0.00     0.044 C 
ATOM     14  C   UNL A   1      35.470  22.034  24.669  1.00  0.00    -0.048 A 
ATOM     15  C   UNL A   1      35.592  23.407  24.423  1.00  0.00     0.004 A 
ATOM     16  C   UNL A   1      34.218  21.422  24.486  1.00  0.00    -0.048 A 
ATOM     17  C   UNL A   1      34.487  24.166  24.031  1.00  0.00     0.004 A 
ATOM     18  C   UNL A   1      33.115  22.212  24.099  1.00  0.00     0.008 A 
ATOM     19  C   UNL A   1      33.982  19.952  24.709  1.00  0.00     0.044 C 
ENDBRANCH  10  12
BRANCH   9  20
ATOM     20  N   UNL A   1      30.795  24.163  25.940  1.00  0.00    -0.344 N 
ATOM     21  H   UNL A   1      29.945  23.600  25.980  1.00  0.00     0.345 HD
ATOM     22  H   UNL A   1      30.755  24.890  26.655  1.00  0.00     0.345 HD
ATOM     23  H   UNL A   1      31.607  23.567  26.106  1.00  0.00     0.345 HD
ENDBRANCH   9  20
ENDBRANCH   6   9
ENDBRANCH   4   5
ENDBRANCH   3   4
ENDBRANCH   2   3
ENDBRANCH   1   2
BRANCH   1  24
ATOM     24  C   UNL A   1      31.438  31.935  26.726  1.00  0.00     0.021 C 
BRANCH  24  25
ATOM     25  C   UNL A   1      32.769  32.651  26.939  1.00  0.00     0.116 C 
BRANCH  25  26
ATOM     26  N   UNL A   1      32.608  33.969  27.528  1.00  0.00    -0.352 N 
ATOM     27  C   UNL A   1      33.234  34.530  28.616  1.00  0.00     0.251 C 
ATOM     28  H   UNL A   1      31.952  34.549  27.080  1.00  0.00     0.163 HD
ATOM     29  O   UNL A   1      32.834  35.608  29.046  1.00  0.00    -0.269 OA
BRANCH  27  30
ATOM     30  C   UNL A   1      34.358  33.833  29.285  1.00  0.00     0.039 A 
ATOM     31  C   UNL A   1      35.664  34.241  28.998  1.00  0.00     0.014 A 
ATOM     32  C   UNL A   1      34.141  32.771  30.167  1.00  0.00     0.014 A 
ATOM     33  C   UNL A   1      36.743  33.627  29.638  1.00  0.00     0.010 A 
ATOM     34  C   UNL A   1      35.214  32.205  30.857  1.00  0.00     0.010 A 
ATOM     35  C   UNL A   1      36.528  32.624  30.598  1.00  0.00    -0.014 A 
BRANCH  35  36
ATOM     36  C   UNL A   1      37.669  32.011  31.332  1.00  0.00     0.031 A 
ATOM     37  C   UNL A   1      38.491  30.925  30.692  1.00  0.00     0.074 A 
ATOM     38  C   UNL A   1      37.937  32.404  32.594  1.00  0.00     0.049 A 
ATOM     39  N   UNL A   1      39.497  30.247  31.184  1.00  0.00    -0.248 NA
ATOM     40  C   UNL A   1      38.112  30.530  29.327  1.00  0.00     0.031 C 
ATOM     41  C   UNL A   1      37.186  33.415  33.340  1.00  0.00     0.029 A 
ATOM     42  N   UNL A   1      38.910  32.000  33.473  1.00  0.00    -0.354 N 
ATOM     43  C   UNL A   1      39.867  29.341  30.195  1.00  0.00     0.074 A 
ATOM     44  C   UNL A   1      38.933  29.514  29.102  1.00  0.00     0.031 C 
ATOM     45  C   UNL A   1      37.742  33.571  34.552  1.00  0.00     0.029 A 
ATOM     46  C   UNL A   1      38.862  32.646  34.687  1.00  0.00     0.049 A 
ATOM     47  H   UNL A   1      39.581  31.312  33.255  1.00  0.00     0.167 HD
ATOM     48  C   UNL A   1      40.902  28.464  30.188  1.00  0.00     0.034 A 
ATOM     49  C   UNL A   1      39.629  32.506  35.787  1.00  0.00     0.034 A 
ATOM     50  C   UNL A   1      41.831  28.308  31.283  1.00  0.00     0.049 A 
ATOM     51  C   UNL A   1      40.764  31.514  35.762  1.00  0.00     0.074 A 
ATOM     52  C   UNL A   1      42.946  27.492  31.359  1.00  0.00     0.029 A 
ATOM     53  N   UNL A   1      41.750  28.979  32.498  1.00  0.00    -0.354 N 
ATOM     54  N   UNL A   1      41.135  30.705  34.796  1.00  0.00    -0.248 NA
ATOM     55  C   UNL A   1      41.591  31.428  36.972  1.00  0.00     0.031 C 
ATOM     56  C   UNL A   1      43.498  27.617  32.639  1.00  0.00     0.029 A 
ATOM     57  C   UNL A   1      42.775  28.568  33.340  1.00  0.00     0.049 A 
ATOM     58  H   UNL A   1      41.065  29.646  32.728  1.00  0.00     0.167 HD
ATOM     59  C   UNL A   1      42.256  30.032  35.275  1.00  0.00     0.074 A 
ATOM     60  C   UNL A   1      42.512  30.549  36.604  1.00  0.00     0.031 C 
ATOM     61  C   UNL A   1      43.007  29.074  34.673  1.00  0.00     0.034 A 
BRANCH  48  62
ATOM     62  C   UNL A   1      41.063  27.589  28.967  1.00  0.00     0.023 A 
ATOM     63  C   UNL A   1      42.071  27.827  28.016  1.00  0.00     0.031 A 
ATOM     64  C   UNL A   1      40.180  26.520  28.732  1.00  0.00     0.131 A 
ATOM     65  C   UNL A   1      42.123  27.063  26.840  1.00  0.00     0.055 A 
ATOM     66  C   UNL A   1      40.290  25.708  27.600  1.00  0.00     0.041 A 
ATOM     67  F   UNL A   1      39.186  26.253  29.592  1.00  0.00    -0.206 F 
ATOM     68  C   UNL A   1      41.255  25.988  26.637  1.00  0.00     0.022 A 
BRANCH  65  69
ATOM     69  S   UNL A   1      43.242  27.589  25.513  1.00  0.00     0.124 S 
ATOM     70  O   UNL A   1      44.167  28.457  26.236  1.00  0.00    -0.237 OA
ATOM     71  O   UNL A   1      43.789  26.322  25.040  1.00  0.00    -0.237 OA
ATOM     72  O   UNL A   1      42.359  28.277  24.572  1.00  0.00    -0.744 OA
ENDBRANCH  65  69
ENDBRANCH  48  62
BRANCH  49  73
ATOM     73  C   UNL A   1      39.353  33.314  37.009  1.00  0.00     0.023 A 
ATOM     74  C   UNL A   1      39.996  34.544  37.224  1.00  0.00     0.031 A 
ATOM     75  C   UNL A   1      38.476  32.846  38.003  1.00  0.00     0.131 A 
ATOM     76  C   UNL A   1      39.790  35.240  38.425  1.00  0.00     0.055 A 
ATOM     77  C   UNL A   1      38.233  33.569  39.172  1.00  0.00     0.041 A 
ATOM     78  F   UNL A   1      37.830  31.679  37.845  1.00  0.00    -0.206 F 
ATOM     79  C   UNL A   1      38.903  34.768  39.395  1.00  0.00     0.022 A 
BRANCH  76  80
ATOM     80  S   UNL A   1      40.765  36.737  38.739  1.00  0.00     0.124 S 
ATOM     81  O   UNL A   1      41.547  36.344  39.905  1.00  0.00    -0.237 OA
ATOM     82  O   UNL A   1      41.505  36.882  37.489  1.00  0.00    -0.237 OA
ATOM     83  O   UNL A   1      39.750  37.760  38.982  1.00  0.00    -0.744 OA
ENDBRANCH  76  80
ENDBRANCH  49  73
BRANCH  61  84
ATOM     84  C   UNL A   1      44.195  28.554  35.446  1.00  0.00     0.023 A 
ATOM     85  C   UNL A   1      44.074  27.487  36.354  1.00  0.00     0.031 A 
ATOM     86  C   UNL A   1      45.457  29.154  35.297  1.00  0.00     0.131 A 
ATOM     87  C   UNL A   1      45.177  27.100  37.129  1.00  0.00     0.055 A 
ATOM     88  C   UNL A   1      46.569  28.721  36.023  1.00  0.00     0.041 A 
ATOM     89  F   UNL A   1      45.632  30.178  34.446  1.00  0.00    -0.206 F 
ATOM     90  C   UNL A   1      46.429  27.698  36.957  1.00  0.00     0.022 A 
BRANCH  87  91
ATOM     91  S   UNL A   1      44.930  25.876  38.445  1.00  0.00     0.124 S 
ATOM     92  O   UNL A   1      46.231  25.876  39.108  1.00  0.00    -0.237 OA
ATOM     93  O   UNL A   1      43.827  26.456  39.207  1.00  0.00    -0.237 OA
ATOM     94  O   UNL A   1      44.604  24.651  37.719  1.00  0.00    -0.744 OA
ENDBRANCH  87  91
ENDBRANCH  61  84
ENDBRANCH  35  36
ENDBRANCH  27  30
ENDBRANCH  25  26
ENDBRANCH  24  25
ENDBRANCH   1  24
TORSDOF 18
ENDMDL
MODEL 3
REMARK VINA RESULT:     -10.5      3.724      9.572
REMARK SMILES Cc1ccc([C@H]2C[C@]2([NH3+])C(=O)NCCCCCCNC(=O)c2ccc(-c3c4nc(c(-c5cc(S(=O)(=O)[O-])ccc5F)c5ccc([nH]5)c(-c5cc(S(=O)(=O)[O-])ccc5F)c5nc(c(-c6cc(S(=O)(=O)[O-])ccc6F)c6ccc3[nH]6)C=C5)C=C4)cc2)cc1C
REMARK SMILES IDX 16 1 15 2 14 3 13 4 12 5 10 6 11 7 8 9 6 10 7 11 5 12 1 13
REMARK SMILES IDX 2 14 3 15 86 16 4 17 85 18 87 19 9 20 17 24 18 25 19 26
REMARK SMILES IDX 20 27 21 29 22 30 23 31 84 32 24 33 83 34 25 35 26 36 27 37
REMARK SMILES IDX 77 38 28 39 82 40 76 41 78 42 29 43 81 44 75 45 74 46 30 48
REMARK SMILES IDX 62 49 42 50 61 51 43 52 46 53 60 54 79 55 44 56 45 57 59 59
REMARK SMILES IDX 80 60 47 61 31 62 32 63 40 64 33 65 39 66 41 67 38 68 34 69
REMARK SMILES IDX 35 70 36 71 37 72 63 73 64 74 72 75 65 76 71 77 73 78 70 79
REMARK SMILES IDX 66 80 67 81 68 82 69 83 48 84 49 85 57 86 50 87 56 88 58 89
REMARK SMILES IDX 55 90 51 91 52 92 53 93 54 94
REMARK H PARENT 12 8 9 21 9 22 9 23 19 28 78 47 46 58
REMARK Flexibility Score: inf
ROOT
ATOM      1  C   UNL A   1      31.541  29.725  25.255  1.00  0.00     0.002 C 
ENDROOT
BRANCH   1   2
ATOM      2  C   UNL A   1      30.572  29.347  24.131  1.00  0.00     0.002 C 
BRANCH   2   3
ATOM      3  C   UNL A   1      31.216  28.901  22.813  1.00  0.00     0.021 C 
BRANCH   3   4
ATOM      4  C   UNL A   1      30.863  27.488  22.351  1.00  0.00     0.116 C 
BRANCH   4   5
ATOM      5  N   UNL A   1      30.351  26.659  23.422  1.00  0.00    -0.351 N 
ATOM      6  C   UNL A   1      30.914  25.560  24.018  1.00  0.00     0.281 C 
ATOM      7  O   UNL A   1      30.334  25.019  24.958  1.00  0.00    -0.268 OA
ATOM      8  H   UNL A   1      29.470  26.923  23.774  1.00  0.00     0.163 HD
BRANCH   6   9
ATOM      9  C   UNL A   1      32.233  25.012  23.498  1.00  0.00     0.181 C 
ATOM     10  C   UNL A   1      33.308  24.734  24.542  1.00  0.00     0.097 C 
ATOM     11  C   UNL A   1      33.460  25.898  23.603  1.00  0.00     0.095 C 
BRANCH  10  12
ATOM     12  C   UNL A   1      34.313  23.607  24.499  1.00  0.00    -0.038 A 
ATOM     13  C   UNL A   1      37.308  20.469  24.891  1.00  0.00     0.044 C 
ATOM     14  C   UNL A   1      36.250  21.523  24.718  1.00  0.00    -0.048 A 
ATOM     15  C   UNL A   1      36.640  22.865  24.621  1.00  0.00     0.004 A 
ATOM     16  C   UNL A   1      34.880  21.211  24.676  1.00  0.00    -0.048 A 
ATOM     17  C   UNL A   1      35.689  23.881  24.513  1.00  0.00     0.004 A 
ATOM     18  C   UNL A   1      33.939  22.257  24.576  1.00  0.00     0.008 A 
ATOM     19  C   UNL A   1      34.355  19.803  24.758  1.00  0.00     0.044 C 
ENDBRANCH  10  12
BRANCH   9  20
ATOM     20  N   UNL A   1      32.137  24.289  22.203  1.00  0.00    -0.344 N 
ATOM     21  H   UNL A   1      31.156  24.206  21.932  1.00  0.00     0.345 HD
ATOM     22  H   UNL A   1      32.541  23.357  22.302  1.00  0.00     0.345 HD
ATOM     23  H   UNL A   1      32.646  24.806  21.486  1.00  0.00     0.345 HD
ENDBRANCH   9  20
ENDBRANCH   6   9
ENDBRANCH   4   5
ENDBRANCH   3   4
ENDBRANCH   2   3
ENDBRANCH   1   2
BRANCH   1  24
ATOM     24  C   UNL A   1      32.277  28.561  25.923  1.00  0.00     0.021 C 
BRANCH  24  25
ATOM     25  C   UNL A   1      33.459  28.947  26.806  1.00  0.00     0.116 C 
BRANCH  25  26
ATOM     26  N   UNL A   1      33.490  30.366  27.114  1.00  0.00    -0.352 N 
ATOM     27  C   UNL A   1      34.404  31.090  27.842  1.00  0.00     0.251 C 
ATOM     28  H   UNL A   1      32.741  30.889  26.747  1.00  0.00     0.163 HD
ATOM     29  O   UNL A   1      34.156  32.260  28.120  1.00  0.00    -0.269 OA
BRANCH  27  30
ATOM     30  C   UNL A   1      35.661  30.463  28.316  1.00  0.00     0.039 A 
ATOM     31  C   UNL A   1      36.799  30.552  27.508  1.00  0.00     0.014 A 
ATOM     32  C   UNL A   1      35.723  29.770  29.528  1.00  0.00     0.014 A 
ATOM     33  C   UNL A   1      38.007  30.001  27.941  1.00  0.00     0.010 A 
ATOM     34  C   UNL A   1      36.946  29.282  29.991  1.00  0.00     0.010 A 
ATOM     35  C   UNL A   1      38.101  29.389  29.202  1.00  0.00    -0.014 A 
BRANCH  35  36
ATOM     36  C   UNL A   1      39.400  28.858  29.698  1.00  0.00     0.031 A 
ATOM     37  C   UNL A   1      40.112  29.532  30.841  1.00  0.00     0.074 A 
ATOM     38  C   UNL A   1      39.960  27.793  29.090  1.00  0.00     0.049 A 
ATOM     39  N   UNL A   1      41.265  29.238  31.387  1.00  0.00    -0.248 NA
ATOM     40  C   UNL A   1      39.452  30.708  31.426  1.00  0.00     0.031 C 
ATOM     41  C   UNL A   1      39.391  27.079  27.944  1.00  0.00     0.029 A 
ATOM     42  N   UNL A   1      41.131  27.125  29.346  1.00  0.00    -0.354 N 
ATOM     43  C   UNL A   1      41.473  30.197  32.375  1.00  0.00     0.074 A 
ATOM     44  C   UNL A   1      40.356  31.116  32.304  1.00  0.00     0.031 C 
ATOM     45  C   UNL A   1      40.199  26.060  27.615  1.00  0.00     0.029 A 
ATOM     46  C   UNL A   1      41.363  26.067  28.495  1.00  0.00     0.049 A 
ATOM     47  H   UNL A   1      41.749  27.378  30.070  1.00  0.00     0.167 HD
ATOM     48  C   UNL A   1      42.487  30.288  33.271  1.00  0.00     0.034 A 
ATOM     49  C   UNL A   1      42.397  25.205  28.428  1.00  0.00     0.034 A 
ATOM     50  C   UNL A   1      43.591  29.359  33.335  1.00  0.00     0.049 A 
ATOM     51  C   UNL A   1      43.520  25.335  29.425  1.00  0.00     0.074 A 
ATOM     52  C   UNL A   1      44.640  29.325  34.238  1.00  0.00     0.029 A 
ATOM     53  N   UNL A   1      43.793  28.300  32.457  1.00  0.00    -0.354 N 
ATOM     54  N   UNL A   1      43.672  26.214  30.390  1.00  0.00    -0.248 NA
ATOM     55  C   UNL A   1      44.603  24.348  29.332  1.00  0.00     0.031 C 
ATOM     56  C   UNL A   1      45.509  28.293  33.865  1.00  0.00     0.029 A 
ATOM     57  C   UNL A   1      44.966  27.631  32.776  1.00  0.00     0.049 A 
ATOM     58  H   UNL A   1      43.192  28.061  31.715  1.00  0.00     0.167 HD
ATOM     59  C   UNL A   1      44.857  25.867  31.034  1.00  0.00     0.074 A 
ATOM     60  C   UNL A   1      45.363  24.687  30.363  1.00  0.00     0.031 C 
ATOM     61  C   UNL A   1      45.473  26.468  32.085  1.00  0.00     0.034 A 
BRANCH  48  62
ATOM     62  C   UNL A   1      42.458  31.451  34.236  1.00  0.00     0.023 A 
ATOM     63  C   UNL A   1      41.621  31.452  35.366  1.00  0.00     0.031 A 
ATOM     64  C   UNL A   1      43.256  32.587  34.011  1.00  0.00     0.131 A 
ATOM     65  C   UNL A   1      41.539  32.593  36.179  1.00  0.00     0.055 A 
ATOM     66  C   UNL A   1      43.233  33.687  34.873  1.00  0.00     0.041 A 
ATOM     67  F   UNL A   1      44.062  32.655  32.941  1.00  0.00    -0.206 F 
ATOM     68  C   UNL A   1      42.359  33.701  35.955  1.00  0.00     0.022 A 
BRANCH  65  69
ATOM     69  S   UNL A   1      40.239  32.666  37.441  1.00  0.00     0.124 S 
ATOM     70  O   UNL A   1      39.711  34.013  37.242  1.00  0.00    -0.237 OA
ATOM     71  O   UNL A   1      39.359  31.569  37.052  1.00  0.00    -0.237 OA
ATOM     72  O   UNL A   1      40.965  32.468  38.694  1.00  0.00    -0.744 OA
ENDBRANCH  65  69
ENDBRANCH  48  62
BRANCH  49  73
ATOM     73  C   UNL A   1      42.432  24.146  27.380  1.00  0.00     0.023 A 
ATOM     74  C   UNL A   1      41.878  22.877  27.614  1.00  0.00     0.031 A 
ATOM     75  C   UNL A   1      43.059  24.373  26.142  1.00  0.00     0.131 A 
ATOM     76  C   UNL A   1      42.005  21.868  26.647  1.00  0.00     0.055 A 
ATOM     77  C   UNL A   1      43.136  23.382  25.162  1.00  0.00     0.041 A 
ATOM     78  F   UNL A   1      43.599  25.570  25.864  1.00  0.00    -0.206 F 
ATOM     79  C   UNL A   1      42.619  22.116  25.417  1.00  0.00     0.022 A 
BRANCH  76  80
ATOM     80  S   UNL A   1      41.429  20.197  27.054  1.00  0.00     0.124 S 
ATOM     81  O   UNL A   1      40.490  19.933  25.969  1.00  0.00    -0.237 OA
ATOM     82  O   UNL A   1      42.672  19.434  27.027  1.00  0.00    -0.237 OA
ATOM     83  O   UNL A   1      40.827  20.358  28.376  1.00  0.00    -0.744 OA
ENDBRANCH  76  80
ENDBRANCH  49  73
BRANCH  61  84
ATOM     84  C   UNL A   1      46.746  25.829  32.585  1.00  0.00     0.023 A 
ATOM     85  C   UNL A   1      47.979  26.036  31.939  1.00  0.00     0.031 A 
ATOM     86  C   UNL A   1      46.721  24.975  33.701  1.00  0.00     0.131 A 
ATOM     87  C   UNL A   1      49.119  25.344  32.371  1.00  0.00     0.055 A 
ATOM     88  C   UNL A   1      47.874  24.340  34.168  1.00  0.00     0.041 A 
ATOM     89  F   UNL A   1      45.573  24.738  34.356  1.00  0.00    -0.206 F 
ATOM     90  C   UNL A   1      49.079  24.510  33.492  1.00  0.00     0.022 A 
BRANCH  87  91
ATOM     91  S   UNL A   1      50.635  25.461  31.382  1.00  0.00     0.124 S 
ATOM     92  O   UNL A   1      50.131  25.247  30.029  1.00  0.00    -0.237 OA
ATOM     93  O   UNL A   1      51.100  26.812  31.683  1.00  0.00    -0.237 OA
ATOM     94  O   UNL A   1      51.474  24.387  31.909  1.00  0.00    -0.744 OA
ENDBRANCH  87  91
ENDBRANCH  61  84
ENDBRANCH  35  36
ENDBRANCH  27  30
ENDBRANCH  25  26
ENDBRANCH  24  25
ENDBRANCH   1  24
TORSDOF 18
ENDMDL
