MODEL 1
REMARK VINA RESULT:     -10.9      0.000      0.000
REMARK SMILES CC(C)[C@H]([NH2+]Cc1ccc(O)cn1)C(=O)NCCCCCCNC(=O)c1ccc(-c2c3nc(c(-c4cc(S(=O)(=O)[O-])ccc4F)c4ccc([nH]4)c(-c4cc(S(=O)(=O)[O-])ccc4F)c4nc(c(-c5cc(S(=O)(=O)[O-])ccc5F)c5ccc2[nH]5)C=C4)C=C3)cc1
REMARK SMILES IDX 19 1 18 2 17 3 16 4 14 5 15 6 4 8 2 9 1 10 3 11 5 12 6 15
REMARK SMILES IDX 7 16 8 17 13 18 9 19 12 20 10 21 11 22 20 24 21 25 22 26
REMARK SMILES IDX 23 27 24 28 25 30 26 31 27 32 88 33 28 34 87 35 29 36 30 37
REMARK SMILES IDX 31 38 81 39 32 40 86 41 80 42 82 43 33 44 85 45 79 46 78 47
REMARK SMILES IDX 34 49 66 50 46 51 65 52 47 53 50 54 64 55 83 56 48 57 49 58
REMARK SMILES IDX 63 60 84 61 51 62 35 63 36 64 44 65 37 66 43 67 45 68 42 69
REMARK SMILES IDX 38 70 39 71 40 72 41 73 67 74 68 75 76 76 69 77 75 78 77 79
REMARK SMILES IDX 74 80 70 81 71 82 72 83 73 84 52 85 53 86 61 87 54 88 60 89
REMARK SMILES IDX 62 90 59 91 55 92 56 93 57 94 58 95
REMARK H PARENT 16 7 5 13 5 14 11 23 23 29 82 48 50 59
REMARK Flexibility Score: inf
ROOT
ATOM      1  C   UNL A   1      32.540  30.025  27.006  1.00  0.00     0.002 C 
ENDROOT
BRANCH   1   2
ATOM      2  C   UNL A   1      33.494  29.360  26.012  1.00  0.00     0.021 C 
BRANCH   2   3
ATOM      3  C   UNL A   1      33.550  27.843  26.130  1.00  0.00     0.116 C 
BRANCH   3   4
ATOM      4  N   UNL A   1      32.273  27.267  26.481  1.00  0.00    -0.351 N 
ATOM      5  C   UNL A   1      31.301  26.748  25.678  1.00  0.00     0.278 C 
ATOM      6  O   UNL A   1      30.323  26.229  26.230  1.00  0.00    -0.268 OA
ATOM      7  H   UNL A   1      32.075  27.246  27.445  1.00  0.00     0.163 HD
BRANCH   5   8
ATOM      8  C   UNL A   1      31.424  26.753  24.129  1.00  0.00     0.275 C 
BRANCH   8   9
ATOM      9  C   UNL A   1      32.765  26.157  23.575  1.00  0.00     0.051 C 
ATOM     10  C   UNL A   1      33.037  24.669  23.841  1.00  0.00     0.014 C 
ATOM     11  C   UNL A   1      32.994  26.438  22.083  1.00  0.00     0.014 C 
ENDBRANCH   8   9
BRANCH   8  12
ATOM     12  N   UNL A   1      31.045  28.091  23.639  1.00  0.00    -0.331 N 
ATOM     13  H   UNL A   1      31.817  28.450  23.079  1.00  0.00     0.347 HD
ATOM     14  H   UNL A   1      30.846  28.646  24.472  1.00  0.00     0.347 HD
BRANCH  12  15
ATOM     15  C   UNL A   1      29.832  28.146  22.823  1.00  0.00     0.318 C 
BRANCH  15  16
ATOM     16  C   UNL A   1      29.344  29.579  22.611  1.00  0.00     0.095 A 
ATOM     17  C   UNL A   1      29.238  30.477  23.681  1.00  0.00     0.033 A 
ATOM     18  N   UNL A   1      29.043  29.950  21.340  1.00  0.00    -0.251 NA
ATOM     19  C   UNL A   1      28.758  31.765  23.460  1.00  0.00     0.050 A 
ATOM     20  C   UNL A   1      28.590  31.215  21.153  1.00  0.00     0.157 A 
ATOM     21  C   UNL A   1      28.425  32.139  22.171  1.00  0.00     0.133 A 
BRANCH  21  22
ATOM     22  O   UNL A   1      27.948  33.381  21.887  1.00  0.00    -0.506 OA
ATOM     23  H   UNL A   1      27.943  33.690  21.003  1.00  0.00     0.293 HD
ENDBRANCH  21  22
ENDBRANCH  15  16
ENDBRANCH  12  15
ENDBRANCH   8  12
ENDBRANCH   5   8
ENDBRANCH   3   4
ENDBRANCH   2   3
ENDBRANCH   1   2
BRANCH   1  24
ATOM     24  C   UNL A   1      31.415  30.848  26.369  1.00  0.00     0.002 C 
BRANCH  24  25
ATOM     25  C   UNL A   1      31.450  32.349  26.672  1.00  0.00     0.021 C 
BRANCH  25  26
ATOM     26  C   UNL A   1      32.774  32.860  27.229  1.00  0.00     0.116 C 
BRANCH  26  27
ATOM     27  N   UNL A   1      32.669  34.223  27.717  1.00  0.00    -0.352 N 
ATOM     28  C   UNL A   1      33.314  34.825  28.768  1.00  0.00     0.251 C 
ATOM     29  H   UNL A   1      32.044  34.799  27.222  1.00  0.00     0.163 HD
ATOM     30  O   UNL A   1      32.939  35.925  29.158  1.00  0.00    -0.269 OA
BRANCH  28  31
ATOM     31  C   UNL A   1      34.441  34.137  29.436  1.00  0.00     0.039 A 
ATOM     32  C   UNL A   1      35.744  34.452  29.049  1.00  0.00     0.014 A 
ATOM     33  C   UNL A   1      34.215  33.175  30.425  1.00  0.00     0.014 A 
ATOM     34  C   UNL A   1      36.823  33.834  29.685  1.00  0.00     0.010 A 
ATOM     35  C   UNL A   1      35.292  32.620  31.112  1.00  0.00     0.010 A 
ATOM     36  C   UNL A   1      36.607  32.934  30.741  1.00  0.00    -0.014 A 
BRANCH  36  37
ATOM     37  C   UNL A   1      37.750  32.300  31.452  1.00  0.00     0.031 A 
ATOM     38  C   UNL A   1      38.496  31.159  30.813  1.00  0.00     0.074 A 
ATOM     39  C   UNL A   1      38.087  32.726  32.685  1.00  0.00     0.049 A 
ATOM     40  N   UNL A   1      39.484  30.446  31.290  1.00  0.00    -0.248 NA
ATOM     41  C   UNL A   1      38.052  30.747  29.473  1.00  0.00     0.031 C 
ATOM     42  C   UNL A   1      37.415  33.799  33.421  1.00  0.00     0.029 A 
ATOM     43  N   UNL A   1      39.077  32.310  33.540  1.00  0.00    -0.354 N 
ATOM     44  C   UNL A   1      39.774  29.498  30.315  1.00  0.00     0.074 A 
ATOM     45  C   UNL A   1      38.809  29.684  29.252  1.00  0.00     0.031 C 
ATOM     46  C   UNL A   1      38.032  33.978  34.599  1.00  0.00     0.029 A 
ATOM     47  C   UNL A   1      39.110  33.003  34.728  1.00  0.00     0.049 A 
ATOM     48  H   UNL A   1      39.706  31.583  33.323  1.00  0.00     0.167 HD
ATOM     49  C   UNL A   1      40.768  28.575  30.295  1.00  0.00     0.034 A 
ATOM     50  C   UNL A   1      39.911  32.862  35.803  1.00  0.00     0.034 A 
ATOM     51  C   UNL A   1      41.727  28.410  31.361  1.00  0.00     0.049 A 
ATOM     52  C   UNL A   1      40.992  31.810  35.771  1.00  0.00     0.074 A 
ATOM     53  C   UNL A   1      42.800  27.538  31.428  1.00  0.00     0.029 A 
ATOM     54  N   UNL A   1      41.726  29.126  32.553  1.00  0.00    -0.354 N 
ATOM     55  N   UNL A   1      41.281  30.951  34.820  1.00  0.00    -0.248 NA
ATOM     56  C   UNL A   1      41.862  31.721  36.949  1.00  0.00     0.031 C 
ATOM     57  C   UNL A   1      43.400  27.673  32.685  1.00  0.00     0.029 A 
ATOM     58  C   UNL A   1      42.759  28.693  33.371  1.00  0.00     0.049 A 
ATOM     59  H   UNL A   1      41.086  29.837  32.782  1.00  0.00     0.167 HD
ATOM     60  C   UNL A   1      42.393  30.245  35.274  1.00  0.00     0.074 A 
ATOM     61  C   UNL A   1      42.728  30.791  36.573  1.00  0.00     0.031 C 
ATOM     62  C   UNL A   1      43.079  29.240  34.669  1.00  0.00     0.034 A 
BRANCH  49  63
ATOM     63  C   UNL A   1      40.846  27.659  29.095  1.00  0.00     0.023 A 
ATOM     64  C   UNL A   1      41.775  27.870  28.061  1.00  0.00     0.031 A 
ATOM     65  C   UNL A   1      39.961  26.573  28.969  1.00  0.00     0.131 A 
ATOM     66  C   UNL A   1      41.747  27.062  26.915  1.00  0.00     0.055 A 
ATOM     67  C   UNL A   1      39.999  25.716  27.866  1.00  0.00     0.041 A 
ATOM     68  F   UNL A   1      39.036  26.331  29.909  1.00  0.00    -0.206 F 
ATOM     69  C   UNL A   1      40.884  25.969  26.823  1.00  0.00     0.022 A 
BRANCH  66  70
ATOM     70  S   UNL A   1      42.744  27.555  25.483  1.00  0.00     0.124 S 
ATOM     71  O   UNL A   1      43.997  27.955  26.120  1.00  0.00    -0.237 OA
ATOM     72  O   UNL A   1      42.791  26.330  24.694  1.00  0.00    -0.237 OA
ATOM     73  O   UNL A   1      41.978  28.651  24.892  1.00  0.00    -0.744 OA
ENDBRANCH  66  70
ENDBRANCH  49  63
BRANCH  50  74
ATOM     74  C   UNL A   1      39.726  33.728  37.004  1.00  0.00     0.023 A 
ATOM     75  C   UNL A   1      39.113  33.233  38.167  1.00  0.00     0.031 A 
ATOM     76  C   UNL A   1      40.117  35.079  36.991  1.00  0.00     0.131 A 
ATOM     77  C   UNL A   1      38.859  34.096  39.244  1.00  0.00     0.055 A 
ATOM     78  C   UNL A   1      39.917  35.918  38.090  1.00  0.00     0.041 A 
ATOM     79  F   UNL A   1      40.712  35.604  35.908  1.00  0.00    -0.206 F 
ATOM     80  C   UNL A   1      39.270  35.430  39.220  1.00  0.00     0.022 A 
BRANCH  77  81
ATOM     81  S   UNL A   1      37.889  33.471  40.645  1.00  0.00     0.124 S 
ATOM     82  O   UNL A   1      36.652  33.062  39.990  1.00  0.00    -0.237 OA
ATOM     83  O   UNL A   1      38.739  32.395  41.144  1.00  0.00    -0.237 OA
ATOM     84  O   UNL A   1      37.776  34.632  41.525  1.00  0.00    -0.744 OA
ENDBRANCH  77  81
ENDBRANCH  50  74
BRANCH  62  85
ATOM     85  C   UNL A   1      44.295  28.709  35.390  1.00  0.00     0.023 A 
ATOM     86  C   UNL A   1      44.205  27.681  36.345  1.00  0.00     0.031 A 
ATOM     87  C   UNL A   1      45.564  29.258  35.130  1.00  0.00     0.131 A 
ATOM     88  C   UNL A   1      45.349  27.283  37.054  1.00  0.00     0.055 A 
ATOM     89  C   UNL A   1      46.710  28.808  35.788  1.00  0.00     0.041 A 
ATOM     90  F   UNL A   1      45.712  30.245  34.231  1.00  0.00    -0.206 F 
ATOM     91  C   UNL A   1      46.604  27.825  36.767  1.00  0.00     0.022 A 
BRANCH  88  92
ATOM     92  S   UNL A   1      45.155  26.127  38.439  1.00  0.00     0.124 S 
ATOM     93  O   UNL A   1      45.258  24.834  37.772  1.00  0.00    -0.237 OA
ATOM     94  O   UNL A   1      46.273  26.489  39.305  1.00  0.00    -0.237 OA
ATOM     95  O   UNL A   1      43.831  26.448  38.970  1.00  0.00    -0.744 OA
ENDBRANCH  88  92
ENDBRANCH  62  85
ENDBRANCH  36  37
ENDBRANCH  28  31
ENDBRANCH  26  27
ENDBRANCH  25  26
ENDBRANCH  24  25
ENDBRANCH   1  24
TORSDOF 21
ENDMDL
MODEL 2
REMARK VINA RESULT:     -10.8      5.483      8.380
REMARK SMILES CC(C)[C@H]([NH2+]Cc1ccc(O)cn1)C(=O)NCCCCCCNC(=O)c1ccc(-c2c3nc(c(-c4cc(S(=O)(=O)[O-])ccc4F)c4ccc([nH]4)c(-c4cc(S(=O)(=O)[O-])ccc4F)c4nc(c(-c5cc(S(=O)(=O)[O-])ccc5F)c5ccc2[nH]5)C=C4)C=C3)cc1
REMARK SMILES IDX 19 1 18 2 17 3 16 4 14 5 15 6 4 8 2 9 1 10 3 11 5 12 6 15
REMARK SMILES IDX 7 16 8 17 13 18 9 19 12 20 10 21 11 22 20 24 21 25 22 26
REMARK SMILES IDX 23 27 24 28 25 30 26 31 27 32 88 33 28 34 87 35 29 36 30 37
REMARK SMILES IDX 31 38 81 39 32 40 86 41 80 42 82 43 33 44 85 45 79 46 78 47
REMARK SMILES IDX 34 49 66 50 46 51 65 52 47 53 50 54 64 55 83 56 48 57 49 58
REMARK SMILES IDX 63 60 84 61 51 62 35 63 36 64 44 65 37 66 43 67 45 68 42 69
REMARK SMILES IDX 38 70 39 71 40 72 41 73 67 74 68 75 76 76 69 77 75 78 77 79
REMARK SMILES IDX 74 80 70 81 71 82 72 83 73 84 52 85 53 86 61 87 54 88 60 89
REMARK SMILES IDX 62 90 59 91 55 92 56 93 57 94 58 95
REMARK H PARENT 16 7 5 13 5 14 11 23 23 29 82 48 50 59
REMARK Flexibility Score: inf
ROOT
ATOM      1  C   UNL A   1      33.163  22.748  23.615  1.00  0.00     0.002 C 
ENDROOT
BRANCH   1   2
ATOM      2  C   UNL A   1      32.338  23.856  22.961  1.00  0.00     0.021 C 
BRANCH   2   3
ATOM      3  C   UNL A   1      30.887  23.899  23.420  1.00  0.00     0.116 C 
BRANCH   3   4
ATOM      4  N   UNL A   1      30.738  24.468  24.739  1.00  0.00    -0.351 N 
ATOM      5  C   UNL A   1      30.817  25.769  25.140  1.00  0.00     0.278 C 
ATOM      6  O   UNL A   1      30.564  26.015  26.325  1.00  0.00    -0.268 OA
ATOM      7  H   UNL A   1      30.553  23.819  25.455  1.00  0.00     0.163 HD
BRANCH   5   8
ATOM      8  C   UNL A   1      31.159  26.916  24.149  1.00  0.00     0.275 C 
BRANCH   8   9
ATOM      9  C   UNL A   1      32.538  27.618  24.409  1.00  0.00     0.051 C 
ATOM     10  C   UNL A   1      33.680  26.747  24.951  1.00  0.00     0.014 C 
ATOM     11  C   UNL A   1      33.059  28.416  23.204  1.00  0.00     0.014 C 
ENDBRANCH   8   9
BRANCH   8  12
ATOM     12  N   UNL A   1      29.982  27.797  24.037  1.00  0.00    -0.331 N 
ATOM     13  H   UNL A   1      30.204  28.678  24.500  1.00  0.00     0.347 HD
ATOM     14  H   UNL A   1      29.210  27.287  24.468  1.00  0.00     0.347 HD
BRANCH  12  15
ATOM     15  C   UNL A   1      29.546  28.101  22.673  1.00  0.00     0.318 C 
BRANCH  15  16
ATOM     16  C   UNL A   1      29.155  29.569  22.507  1.00  0.00     0.095 A 
ATOM     17  C   UNL A   1      29.189  30.458  23.589  1.00  0.00     0.033 A 
ATOM     18  N   UNL A   1      28.798  29.978  21.262  1.00  0.00    -0.251 NA
ATOM     19  C   UNL A   1      28.793  31.781  23.412  1.00  0.00     0.050 A 
ATOM     20  C   UNL A   1      28.430  31.276  21.116  1.00  0.00     0.157 A 
ATOM     21  C   UNL A   1      28.404  32.196  22.151  1.00  0.00     0.133 A 
BRANCH  21  22
ATOM     22  O   UNL A   1      28.004  33.474  21.911  1.00  0.00    -0.506 OA
ATOM     23  H   UNL A   1      27.170  33.637  21.516  1.00  0.00     0.293 HD
ENDBRANCH  21  22
ENDBRANCH  15  16
ENDBRANCH  12  15
ENDBRANCH   8  12
ENDBRANCH   5   8
ENDBRANCH   3   4
ENDBRANCH   2   3
ENDBRANCH   1   2
BRANCH   1  24
ATOM     24  C   UNL A   1      34.439  23.221  24.319  1.00  0.00     0.002 C 
BRANCH  24  25
ATOM     25  C   UNL A   1      35.566  22.187  24.401  1.00  0.00     0.021 C 
BRANCH  25  26
ATOM     26  C   UNL A   1      36.254  22.095  25.759  1.00  0.00     0.116 C 
BRANCH  26  27
ATOM     27  N   UNL A   1      37.258  21.048  25.789  1.00  0.00    -0.352 N 
ATOM     28  C   UNL A   1      38.618  21.148  25.944  1.00  0.00     0.251 C 
ATOM     29  H   UNL A   1      36.914  20.133  25.684  1.00  0.00     0.163 HD
ATOM     30  O   UNL A   1      39.325  20.169  25.733  1.00  0.00    -0.269 OA
BRANCH  28  31
ATOM     31  C   UNL A   1      39.224  22.438  26.341  1.00  0.00     0.039 A 
ATOM     32  C   UNL A   1      40.299  22.429  27.231  1.00  0.00     0.014 A 
ATOM     33  C   UNL A   1      38.726  23.651  25.855  1.00  0.00     0.014 A 
ATOM     34  C   UNL A   1      40.903  23.633  27.598  1.00  0.00     0.010 A 
ATOM     35  C   UNL A   1      39.379  24.842  26.159  1.00  0.00     0.010 A 
ATOM     36  C   UNL A   1      40.467  24.848  27.045  1.00  0.00    -0.014 A 
BRANCH  36  37
ATOM     37  C   UNL A   1      41.128  26.132  27.399  1.00  0.00     0.031 A 
ATOM     38  C   UNL A   1      42.511  26.434  26.887  1.00  0.00     0.074 A 
ATOM     39  C   UNL A   1      40.499  27.004  28.211  1.00  0.00     0.049 A 
ATOM     40  N   UNL A   1      43.272  27.472  27.123  1.00  0.00    -0.248 NA
ATOM     41  C   UNL A   1      43.131  25.422  26.020  1.00  0.00     0.031 C 
ATOM     42  C   UNL A   1      39.172  26.805  28.798  1.00  0.00     0.029 A 
ATOM     43  N   UNL A   1      40.889  28.231  28.686  1.00  0.00    -0.354 N 
ATOM     44  C   UNL A   1      44.462  27.235  26.442  1.00  0.00     0.074 A 
ATOM     45  C   UNL A   1      44.344  25.922  25.844  1.00  0.00     0.031 C 
ATOM     46  C   UNL A   1      38.845  27.885  29.525  1.00  0.00     0.029 A 
ATOM     47  C   UNL A   1      39.956  28.832  29.500  1.00  0.00     0.049 A 
ATOM     48  H   UNL A   1      41.755  28.644  28.465  1.00  0.00     0.167 HD
ATOM     49  C   UNL A   1      45.540  28.046  26.306  1.00  0.00     0.034 A 
ATOM     50  C   UNL A   1      39.994  30.007  30.160  1.00  0.00     0.034 A 
ATOM     51  C   UNL A   1      45.635  29.357  26.902  1.00  0.00     0.049 A 
ATOM     52  C   UNL A   1      41.216  30.880  30.017  1.00  0.00     0.074 A 
ATOM     53  C   UNL A   1      46.660  30.281  26.795  1.00  0.00     0.029 A 
ATOM     54  N   UNL A   1      44.673  29.930  27.726  1.00  0.00    -0.354 N 
ATOM     55  N   UNL A   1      42.315  30.659  29.331  1.00  0.00    -0.248 NA
ATOM     56  C   UNL A   1      41.195  32.166  30.723  1.00  0.00     0.031 C 
ATOM     57  C   UNL A   1      46.354  31.375  27.610  1.00  0.00     0.029 A 
ATOM     58  C   UNL A   1      45.096  31.179  28.157  1.00  0.00     0.049 A 
ATOM     59  H   UNL A   1      43.816  29.511  27.967  1.00  0.00     0.167 HD
ATOM     60  C   UNL A   1      43.099  31.799  29.495  1.00  0.00     0.074 A 
ATOM     61  C   UNL A   1      42.339  32.707  30.330  1.00  0.00     0.031 C 
ATOM     62  C   UNL A   1      44.332  32.073  28.997  1.00  0.00     0.034 A 
BRANCH  49  63
ATOM     63  C   UNL A   1      46.709  27.522  25.504  1.00  0.00     0.023 A 
ATOM     64  C   UNL A   1      46.997  28.002  24.214  1.00  0.00     0.031 A 
ATOM     65  C   UNL A   1      47.536  26.510  26.025  1.00  0.00     0.131 A 
ATOM     66  C   UNL A   1      48.025  27.418  23.460  1.00  0.00     0.055 A 
ATOM     67  C   UNL A   1      48.616  25.996  25.304  1.00  0.00     0.041 A 
ATOM     68  F   UNL A   1      47.301  25.994  27.241  1.00  0.00    -0.206 F 
ATOM     69  C   UNL A   1      48.856  26.438  24.007  1.00  0.00     0.022 A 
BRANCH  66  70
ATOM     70  S   UNL A   1      48.163  27.847  21.703  1.00  0.00     0.124 S 
ATOM     71  O   UNL A   1      46.851  28.436  21.441  1.00  0.00    -0.237 OA
ATOM     72  O   UNL A   1      49.292  28.771  21.690  1.00  0.00    -0.237 OA
ATOM     73  O   UNL A   1      48.401  26.560  21.053  1.00  0.00    -0.744 OA
ENDBRANCH  66  70
ENDBRANCH  49  63
BRANCH  50  74
ATOM     74  C   UNL A   1      38.851  30.431  31.020  1.00  0.00     0.023 A 
ATOM     75  C   UNL A   1      37.739  31.092  30.473  1.00  0.00     0.031 A 
ATOM     76  C   UNL A   1      38.875  30.224  32.410  1.00  0.00     0.131 A 
ATOM     77  C   UNL A   1      36.726  31.572  31.317  1.00  0.00     0.055 A 
ATOM     78  C   UNL A   1      37.834  30.649  33.240  1.00  0.00     0.041 A 
ATOM     79  F   UNL A   1      39.911  29.594  32.987  1.00  0.00    -0.206 F 
ATOM     80  C   UNL A   1      36.758  31.342  32.694  1.00  0.00     0.022 A 
BRANCH  77  81
ATOM     81  S   UNL A   1      35.409  32.592  30.599  1.00  0.00     0.124 S 
ATOM     82  O   UNL A   1      35.126  31.879  29.358  1.00  0.00    -0.237 OA
ATOM     83  O   UNL A   1      34.378  32.524  31.629  1.00  0.00    -0.237 OA
ATOM     84  O   UNL A   1      36.042  33.900  30.438  1.00  0.00    -0.744 OA
ENDBRANCH  77  81
ENDBRANCH  50  74
BRANCH  62  85
ATOM     85  C   UNL A   1      44.908  33.435  29.300  1.00  0.00     0.023 A 
ATOM     86  C   UNL A   1      44.681  34.543  28.464  1.00  0.00     0.031 A 
ATOM     87  C   UNL A   1      45.717  33.622  30.436  1.00  0.00     0.131 A 
ATOM     88  C   UNL A   1      45.311  35.767  28.738  1.00  0.00     0.055 A 
ATOM     89  C   UNL A   1      46.282  34.861  30.742  1.00  0.00     0.041 A 
ATOM     90  F   UNL A   1      45.972  32.600  31.269  1.00  0.00    -0.206 F 
ATOM     91  C   UNL A   1      46.094  35.938  29.882  1.00  0.00     0.022 A 
BRANCH  88  92
ATOM     92  S   UNL A   1      45.187  37.101  27.515  1.00  0.00     0.124 S 
ATOM     93  O   UNL A   1      44.018  36.697  26.742  1.00  0.00    -0.237 OA
ATOM     94  O   UNL A   1      45.018  38.281  28.357  1.00  0.00    -0.237 OA
ATOM     95  O   UNL A   1      46.460  37.028  26.799  1.00  0.00    -0.744 OA
ENDBRANCH  88  92
ENDBRANCH  62  85
ENDBRANCH  36  37
ENDBRANCH  28  31
ENDBRANCH  26  27
ENDBRANCH  25  26
ENDBRANCH  24  25
ENDBRANCH   1  24
TORSDOF 21
ENDMDL
MODEL 3
REMARK VINA RESULT:     -10.6      6.745     10.546
REMARK SMILES CC(C)[C@H]([NH2+]Cc1ccc(O)cn1)C(=O)NCCCCCCNC(=O)c1ccc(-c2c3nc(c(-c4cc(S(=O)(=O)[O-])ccc4F)c4ccc([nH]4)c(-c4cc(S(=O)(=O)[O-])ccc4F)c4nc(c(-c5cc(S(=O)(=O)[O-])ccc5F)c5ccc2[nH]5)C=C4)C=C3)cc1
REMARK SMILES IDX 19 1 18 2 17 3 16 4 14 5 15 6 4 8 2 9 1 10 3 11 5 12 6 15
REMARK SMILES IDX 7 16 8 17 13 18 9 19 12 20 10 21 11 22 20 24 21 25 22 26
REMARK SMILES IDX 23 27 24 28 25 30 26 31 27 32 88 33 28 34 87 35 29 36 30 37
REMARK SMILES IDX 31 38 81 39 32 40 86 41 80 42 82 43 33 44 85 45 79 46 78 47
REMARK SMILES IDX 34 49 66 50 46 51 65 52 47 53 50 54 64 55 83 56 48 57 49 58
REMARK SMILES IDX 63 60 84 61 51 62 35 63 36 64 44 65 37 66 43 67 45 68 42 69
REMARK SMILES IDX 38 70 39 71 40 72 41 73 67 74 68 75 76 76 69 77 75 78 77 79
REMARK SMILES IDX 74 80 70 81 71 82 72 83 73 84 52 85 53 86 61 87 54 88 60 89
REMARK SMILES IDX 62 90 59 91 55 92 56 93 57 94 58 95
REMARK H PARENT 16 7 5 13 5 14 11 23 23 29 82 48 50 59
REMARK Flexibility Score: inf
ROOT
ATOM      1  C   UNL A   1      37.119  21.821  24.798  1.00  0.00     0.002 C 
ENDROOT
BRANCH   1   2
ATOM      2  C   UNL A   1      36.301  22.561  25.857  1.00  0.00     0.021 C 
BRANCH   2   3
ATOM      3  C   UNL A   1      34.967  23.091  25.348  1.00  0.00     0.116 C 
BRANCH   3   4
ATOM      4  N   UNL A   1      34.957  23.285  23.917  1.00  0.00    -0.351 N 
ATOM      5  C   UNL A   1      33.972  23.028  23.009  1.00  0.00     0.278 C 
ATOM      6  O   UNL A   1      34.176  23.366  21.838  1.00  0.00    -0.268 OA
ATOM      7  H   UNL A   1      35.786  23.657  23.540  1.00  0.00     0.163 HD
BRANCH   5   8
ATOM      8  C   UNL A   1      32.619  22.385  23.424  1.00  0.00     0.275 C 
BRANCH   8   9
ATOM      9  C   UNL A   1      31.680  23.317  24.267  1.00  0.00     0.051 C 
ATOM     10  C   UNL A   1      30.575  24.070  23.513  1.00  0.00     0.014 C 
ATOM     11  C   UNL A   1      31.056  22.621  25.486  1.00  0.00     0.014 C 
ENDBRANCH   8   9
BRANCH   8  12
ATOM     12  N   UNL A   1      32.894  21.048  23.980  1.00  0.00    -0.331 N 
ATOM     13  H   UNL A   1      32.582  21.042  24.951  1.00  0.00     0.347 HD
ATOM     14  H   UNL A   1      33.897  20.900  23.868  1.00  0.00     0.347 HD
BRANCH  12  15
ATOM     15  C   UNL A   1      32.247  19.930  23.292  1.00  0.00     0.318 C 
BRANCH  15  16
ATOM     16  C   UNL A   1      32.700  18.576  23.838  1.00  0.00     0.095 A 
ATOM     17  C   UNL A   1      33.465  17.698  23.059  1.00  0.00     0.033 A 
ATOM     18  N   UNL A   1      32.350  18.274  25.114  1.00  0.00    -0.251 NA
ATOM     19  C   UNL A   1      33.834  16.457  23.574  1.00  0.00     0.050 A 
ATOM     20  C   UNL A   1      32.734  17.063  25.593  1.00  0.00     0.157 A 
ATOM     21  C   UNL A   1      33.457  16.135  24.864  1.00  0.00     0.133 A 
BRANCH  21  22
ATOM     22  O   UNL A   1      33.781  14.938  25.426  1.00  0.00    -0.506 OA
ATOM     23  H   UNL A   1      34.485  14.431  25.072  1.00  0.00     0.293 HD
ENDBRANCH  21  22
ENDBRANCH  15  16
ENDBRANCH  12  15
ENDBRANCH   8  12
ENDBRANCH   5   8
ENDBRANCH   3   4
ENDBRANCH   2   3
ENDBRANCH   1   2
BRANCH   1  24
ATOM     24  C   UNL A   1      37.049  20.292  24.881  1.00  0.00     0.002 C 
BRANCH  24  25
ATOM     25  C   UNL A   1      38.400  19.580  24.994  1.00  0.00     0.021 C 
BRANCH  25  26
ATOM     26  C   UNL A   1      39.342  20.155  26.046  1.00  0.00     0.116 C 
BRANCH  26  27
ATOM     27  N   UNL A   1      40.596  19.427  26.110  1.00  0.00    -0.352 N 
ATOM     28  C   UNL A   1      41.875  19.904  26.256  1.00  0.00     0.251 C 
ATOM     29  H   UNL A   1      40.518  18.449  26.038  1.00  0.00     0.163 HD
ATOM     30  O   UNL A   1      42.825  19.151  26.077  1.00  0.00    -0.269 OA
BRANCH  28  31
ATOM     31  C   UNL A   1      42.099  21.324  26.605  1.00  0.00     0.039 A 
ATOM     32  C   UNL A   1      42.294  21.663  27.946  1.00  0.00     0.014 A 
ATOM     33  C   UNL A   1      42.099  22.319  25.623  1.00  0.00     0.014 A 
ATOM     34  C   UNL A   1      42.534  22.993  28.295  1.00  0.00     0.010 A 
ATOM     35  C   UNL A   1      42.417  23.631  25.963  1.00  0.00     0.010 A 
ATOM     36  C   UNL A   1      42.626  23.985  27.305  1.00  0.00    -0.014 A 
BRANCH  36  37
ATOM     37  C   UNL A   1      42.920  25.398  27.662  1.00  0.00     0.031 A 
ATOM     38  C   UNL A   1      44.315  25.941  27.506  1.00  0.00     0.074 A 
ATOM     39  C   UNL A   1      41.940  26.177  28.162  1.00  0.00     0.049 A 
ATOM     40  N   UNL A   1      44.780  27.126  27.807  1.00  0.00    -0.248 NA
ATOM     41  C   UNL A   1      45.326  25.019  26.968  1.00  0.00     0.031 C 
ATOM     42  C   UNL A   1      40.557  25.751  28.392  1.00  0.00     0.029 A 
ATOM     43  N   UNL A   1      41.953  27.488  28.569  1.00  0.00    -0.354 N 
ATOM     44  C   UNL A   1      46.137  27.091  27.504  1.00  0.00     0.074 A 
ATOM     45  C   UNL A   1      46.430  25.744  27.063  1.00  0.00     0.031 C 
ATOM     46  C   UNL A   1      39.851  26.789  28.866  1.00  0.00     0.029 A 
ATOM     47  C   UNL A   1      40.735  27.939  29.023  1.00  0.00     0.049 A 
ATOM     48  H   UNL A   1      42.759  28.053  28.538  1.00  0.00     0.167 HD
ATOM     49  C   UNL A   1      47.048  28.094  27.562  1.00  0.00     0.034 A 
ATOM     50  C   UNL A   1      40.375  29.139  29.519  1.00  0.00     0.034 A 
ATOM     51  C   UNL A   1      46.734  29.434  27.996  1.00  0.00     0.049 A 
ATOM     52  C   UNL A   1      41.412  30.232  29.602  1.00  0.00     0.074 A 
ATOM     53  C   UNL A   1      47.567  30.539  28.054  1.00  0.00     0.029 A 
ATOM     54  N   UNL A   1      45.491  29.854  28.455  1.00  0.00    -0.354 N 
ATOM     55  N   UNL A   1      42.682  30.194  29.268  1.00  0.00    -0.248 NA
ATOM     56  C   UNL A   1      40.962  31.533  30.113  1.00  0.00     0.031 C 
ATOM     57  C   UNL A   1      46.851  31.601  28.616  1.00  0.00     0.029 A 
ATOM     58  C   UNL A   1      45.545  31.189  28.826  1.00  0.00     0.049 A 
ATOM     59  H   UNL A   1      44.689  29.286  28.507  1.00  0.00     0.167 HD
ATOM     60  C   UNL A   1      43.171  31.479  29.494  1.00  0.00     0.074 A 
ATOM     61  C   UNL A   1      42.056  32.267  29.976  1.00  0.00     0.031 C 
ATOM     62  C   UNL A   1      44.427  31.964  29.314  1.00  0.00     0.034 A 
BRANCH  49  63
ATOM     63  C   UNL A   1      48.471  27.766  27.173  1.00  0.00     0.023 A 
ATOM     64  C   UNL A   1      48.945  27.962  25.864  1.00  0.00     0.031 A 
ATOM     65  C   UNL A   1      49.363  27.227  28.118  1.00  0.00     0.131 A 
ATOM     66  C   UNL A   1      50.239  27.549  25.516  1.00  0.00     0.055 A 
ATOM     67  C   UNL A   1      50.681  26.902  27.788  1.00  0.00     0.041 A 
ATOM     68  F   UNL A   1      48.966  26.995  29.379  1.00  0.00    -0.206 F 
ATOM     69  C   UNL A   1      51.121  27.047  26.475  1.00  0.00     0.022 A 
BRANCH  66  70
ATOM     70  S   UNL A   1      50.701  27.532  23.762  1.00  0.00     0.124 S 
ATOM     71  O   UNL A   1      49.530  26.903  23.156  1.00  0.00    -0.237 OA
ATOM     72  O   UNL A   1      50.888  28.949  23.471  1.00  0.00    -0.237 OA
ATOM     73  O   UNL A   1      51.918  26.723  23.735  1.00  0.00    -0.744 OA
ENDBRANCH  66  70
ENDBRANCH  49  63
BRANCH  50  74
ATOM     74  C   UNL A   1      38.977  29.379  29.982  1.00  0.00     0.023 A 
ATOM     75  C   UNL A   1      38.053  30.062  29.175  1.00  0.00     0.031 A 
ATOM     76  C   UNL A   1      38.557  28.971  31.260  1.00  0.00     0.131 A 
ATOM     77  C   UNL A   1      36.777  30.365  29.675  1.00  0.00     0.055 A 
ATOM     78  C   UNL A   1      37.266  29.221  31.731  1.00  0.00     0.041 A 
ATOM     79  F   UNL A   1      39.397  28.310  32.073  1.00  0.00    -0.206 F 
ATOM     80  C   UNL A   1      36.372  29.936  30.940  1.00  0.00     0.022 A 
BRANCH  77  81
ATOM     81  S   UNL A   1      35.684  31.419  28.682  1.00  0.00     0.124 S 
ATOM     82  O   UNL A   1      36.631  32.364  28.101  1.00  0.00    -0.237 OA
ATOM     83  O   UNL A   1      35.090  30.455  27.760  1.00  0.00    -0.237 OA
ATOM     84  O   UNL A   1      34.765  31.981  29.669  1.00  0.00    -0.744 OA
ENDBRANCH  77  81
ENDBRANCH  50  74
BRANCH  62  85
ATOM     85  C   UNL A   1      44.641  33.433  29.590  1.00  0.00     0.023 A 
ATOM     86  C   UNL A   1      44.419  34.416  28.608  1.00  0.00     0.031 A 
ATOM     87  C   UNL A   1      45.097  33.854  30.853  1.00  0.00     0.131 A 
ATOM     88  C   UNL A   1      44.718  35.759  28.883  1.00  0.00     0.055 A 
ATOM     89  C   UNL A   1      45.324  35.201  31.142  1.00  0.00     0.041 A 
ATOM     90  F   UNL A   1      45.330  32.961  31.828  1.00  0.00    -0.206 F 
ATOM     91  C   UNL A   1      45.150  36.160  30.150  1.00  0.00     0.022 A 
BRANCH  88  92
ATOM     92  S   UNL A   1      44.645  36.961  27.526  1.00  0.00     0.124 S 
ATOM     93  O   UNL A   1      45.965  36.815  26.921  1.00  0.00    -0.237 OA
ATOM     94  O   UNL A   1      43.523  36.469  26.735  1.00  0.00    -0.237 OA
ATOM     95  O   UNL A   1      44.413  38.233  28.208  1.00  0.00    -0.744 OA
ENDBRANCH  88  92
ENDBRANCH  62  85
ENDBRANCH  36  37
ENDBRANCH  28  31
ENDBRANCH  26  27
ENDBRANCH  25  26
ENDBRANCH  24  25
ENDBRANCH   1  24
TORSDOF 21
ENDMDL
