MODEL 1
REMARK VINA RESULT:     -10.9      0.000      0.000
REMARK SMILES CC[C@](C)(NC(=O)N(C)[C@@H](C)c1ccccc1F)C(=O)NCCCCCCNC(=O)c1ccc(-c2c3nc(c(-c4cc(S(=O)(=O)[O-])ccc4F)c4ccc([nH]4)c(-c4cc(S(=O)(=O)[O-])ccc4F)c4nc(c(-c5cc(S(=O)(=O)[O-])ccc5F)c5ccc2[nH]5)C=C4)C=C3)cc1
REMARK SMILES IDX 24 1 23 2 22 3 21 4 19 5 20 6 3 8 4 9 2 10 1 11 5 12 6 13
REMARK SMILES IDX 7 15 8 16 9 17 10 18 11 19 12 20 13 21 17 22 14 23 16 24
REMARK SMILES IDX 18 25 15 26 25 27 26 28 27 29 28 30 29 31 30 33 31 34 32 35
REMARK SMILES IDX 93 36 33 37 92 38 34 39 35 40 36 41 86 42 37 43 91 44 85 45
REMARK SMILES IDX 87 46 38 47 90 48 84 49 83 50 39 52 71 53 51 54 70 55 52 56
REMARK SMILES IDX 55 57 69 58 88 59 53 60 54 61 68 63 89 64 56 65 40 66 41 67
REMARK SMILES IDX 49 68 42 69 48 70 50 71 47 72 43 73 44 74 45 75 46 76 72 77
REMARK SMILES IDX 73 78 81 79 74 80 80 81 82 82 79 83 75 84 76 85 77 86 78 87
REMARK SMILES IDX 57 88 58 89 66 90 59 91 65 92 67 93 64 94 60 95 61 96 62 97
REMARK SMILES IDX 63 98
REMARK H PARENT 21 7 5 14 28 32 87 51 55 62
REMARK Flexibility Score: inf
ROOT
ATOM      1  C   UNL A   1      36.346  20.469  25.030  1.00  0.00     0.002 C 
ENDROOT
BRANCH   1   2
ATOM      2  C   UNL A   1      34.924  19.929  24.884  1.00  0.00     0.021 C 
BRANCH   2   3
ATOM      3  C   UNL A   1      33.806  20.931  25.109  1.00  0.00     0.116 C 
BRANCH   3   4
ATOM      4  N   UNL A   1      33.148  21.328  23.875  1.00  0.00    -0.354 N 
ATOM      5  C   UNL A   1      33.226  22.468  23.126  1.00  0.00     0.245 C 
ATOM      6  O   UNL A   1      32.603  22.452  22.056  1.00  0.00    -0.272 OA
ATOM      7  H   UNL A   1      32.532  20.651  23.513  1.00  0.00     0.163 HD
BRANCH   5   8
ATOM      8  C   UNL A   1      34.149  23.673  23.507  1.00  0.00     0.117 C 
ATOM      9  C   UNL A   1      35.639  23.273  23.475  1.00  0.00     0.045 C 
BRANCH   8  10
ATOM     10  C   UNL A   1      33.728  24.062  24.986  1.00  0.00     0.035 C 
ATOM     11  C   UNL A   1      34.592  25.076  25.731  1.00  0.00     0.007 C 
ENDBRANCH   8  10
BRANCH   8  12
ATOM     12  N   UNL A   1      33.989  24.887  22.651  1.00  0.00    -0.324 N 
ATOM     13  C   UNL A   1      33.038  25.744  22.224  1.00  0.00     0.318 C 
ATOM     14  H   UNL A   1      34.862  25.146  22.277  1.00  0.00     0.166 HD
ATOM     15  O   UNL A   1      33.358  26.359  21.201  1.00  0.00    -0.249 OA
BRANCH  13  16
ATOM     16  N   UNL A   1      31.900  26.045  22.917  1.00  0.00    -0.321 N 
ATOM     17  C   UNL A   1      30.814  25.135  23.241  1.00  0.00     0.149 C 
BRANCH  16  18
ATOM     18  C   UNL A   1      31.684  27.443  23.386  1.00  0.00     0.117 C 
ATOM     19  C   UNL A   1      30.210  27.910  23.299  1.00  0.00     0.036 C 
BRANCH  18  20
ATOM     20  C   UNL A   1      32.318  27.815  24.727  1.00  0.00     0.010 A 
ATOM     21  C   UNL A   1      31.557  27.690  25.913  1.00  0.00     0.009 A 
ATOM     22  C   UNL A   1      33.608  28.340  24.861  1.00  0.00     0.128 A 
ATOM     23  C   UNL A   1      32.080  28.025  27.164  1.00  0.00     0.001 A 
ATOM     24  C   UNL A   1      34.133  28.686  26.110  1.00  0.00     0.039 A 
ATOM     25  F   UNL A   1      34.388  28.560  23.794  1.00  0.00    -0.207 F 
ATOM     26  C   UNL A   1      33.373  28.520  27.264  1.00  0.00     0.003 A 
ENDBRANCH  18  20
ENDBRANCH  16  18
ENDBRANCH  13  16
ENDBRANCH   8  12
ENDBRANCH   5   8
ENDBRANCH   3   4
ENDBRANCH   2   3
ENDBRANCH   1   2
BRANCH   1  27
ATOM     27  C   UNL A   1      37.443  19.405  24.996  1.00  0.00     0.002 C 
BRANCH  27  28
ATOM     28  C   UNL A   1      38.872  19.950  24.986  1.00  0.00     0.021 C 
BRANCH  28  29
ATOM     29  C   UNL A   1      39.648  19.748  26.287  1.00  0.00     0.116 C 
BRANCH  29  30
ATOM     30  N   UNL A   1      40.841  18.943  26.086  1.00  0.00    -0.352 N 
ATOM     31  C   UNL A   1      42.141  19.356  25.940  1.00  0.00     0.251 C 
ATOM     32  H   UNL A   1      40.697  17.969  26.048  1.00  0.00     0.163 HD
ATOM     33  O   UNL A   1      42.995  18.563  25.542  1.00  0.00    -0.269 OA
BRANCH  31  34
ATOM     34  C   UNL A   1      42.507  20.757  26.240  1.00  0.00     0.039 A 
ATOM     35  C   UNL A   1      42.652  21.153  27.571  1.00  0.00     0.014 A 
ATOM     36  C   UNL A   1      42.705  21.680  25.207  1.00  0.00     0.014 A 
ATOM     37  C   UNL A   1      43.049  22.460  27.865  1.00  0.00     0.010 A 
ATOM     38  C   UNL A   1      43.163  22.963  25.500  1.00  0.00     0.010 A 
ATOM     39  C   UNL A   1      43.336  23.368  26.833  1.00  0.00    -0.014 A 
BRANCH  39  40
ATOM     40  C   UNL A   1      43.810  24.745  27.131  1.00  0.00     0.031 A 
ATOM     41  C   UNL A   1      42.853  25.776  27.665  1.00  0.00     0.074 A 
ATOM     42  C   UNL A   1      45.092  25.080  26.882  1.00  0.00     0.049 A 
ATOM     43  N   UNL A   1      43.064  27.040  27.928  1.00  0.00    -0.248 NA
ATOM     44  C   UNL A   1      41.471  25.334  27.911  1.00  0.00     0.031 C 
ATOM     45  C   UNL A   1      46.110  24.181  26.336  1.00  0.00     0.029 A 
ATOM     46  N   UNL A   1      45.760  26.268  27.056  1.00  0.00    -0.354 N 
ATOM     47  C   UNL A   1      41.842  27.547  28.357  1.00  0.00     0.074 A 
ATOM     48  C   UNL A   1      40.885  26.465  28.274  1.00  0.00     0.031 C 
ATOM     49  C   UNL A   1      47.277  24.838  26.249  1.00  0.00     0.029 A 
ATOM     50  C   UNL A   1      47.085  26.216  26.692  1.00  0.00     0.049 A 
ATOM     51  H   UNL A   1      45.330  27.080  27.408  1.00  0.00     0.167 HD
ATOM     52  C   UNL A   1      41.552  28.796  28.798  1.00  0.00     0.034 A 
ATOM     53  C   UNL A   1      48.038  27.168  26.701  1.00  0.00     0.034 A 
ATOM     54  C   UNL A   1      42.520  29.857  28.907  1.00  0.00     0.049 A 
ATOM     55  C   UNL A   1      47.689  28.552  27.180  1.00  0.00     0.074 A 
ATOM     56  C   UNL A   1      42.339  31.134  29.410  1.00  0.00     0.029 A 
ATOM     57  N   UNL A   1      43.845  29.771  28.505  1.00  0.00    -0.354 N 
ATOM     58  N   UNL A   1      46.533  29.008  27.603  1.00  0.00    -0.248 NA
ATOM     59  C   UNL A   1      48.768  29.549  27.182  1.00  0.00     0.031 C 
ATOM     60  C   UNL A   1      43.537  31.839  29.255  1.00  0.00     0.029 A 
ATOM     61  C   UNL A   1      44.484  30.981  28.717  1.00  0.00     0.049 A 
ATOM     62  H   UNL A   1      44.268  28.967  28.124  1.00  0.00     0.167 HD
ATOM     63  C   UNL A   1      46.751  30.341  27.936  1.00  0.00     0.074 A 
ATOM     64  C   UNL A   1      48.148  30.616  27.669  1.00  0.00     0.031 C 
ATOM     65  C   UNL A   1      45.871  31.250  28.426  1.00  0.00     0.034 A 
BRANCH  52  66
ATOM     66  C   UNL A   1      40.125  29.087  29.183  1.00  0.00     0.023 A 
ATOM     67  C   UNL A   1      39.714  29.111  30.527  1.00  0.00     0.031 A 
ATOM     68  C   UNL A   1      39.166  29.363  28.192  1.00  0.00     0.131 A 
ATOM     69  C   UNL A   1      38.369  29.357  30.840  1.00  0.00     0.055 A 
ATOM     70  C   UNL A   1      37.844  29.671  28.514  1.00  0.00     0.041 A 
ATOM     71  F   UNL A   1      39.502  29.335  26.893  1.00  0.00    -0.206 F 
ATOM     72  C   UNL A   1      37.436  29.660  29.845  1.00  0.00     0.022 A 
BRANCH  69  73
ATOM     73  S   UNL A   1      37.834  29.192  32.564  1.00  0.00     0.124 S 
ATOM     74  O   UNL A   1      38.922  29.860  33.275  1.00  0.00    -0.237 OA
ATOM     75  O   UNL A   1      36.550  29.886  32.567  1.00  0.00    -0.237 OA
ATOM     76  O   UNL A   1      37.761  27.747  32.764  1.00  0.00    -0.744 OA
ENDBRANCH  69  73
ENDBRANCH  52  66
BRANCH  53  77
ATOM     77  C   UNL A   1      49.411  26.843  26.229  1.00  0.00     0.023 A 
ATOM     78  C   UNL A   1      49.828  27.178  24.932  1.00  0.00     0.031 A 
ATOM     79  C   UNL A   1      50.334  26.217  27.085  1.00  0.00     0.131 A 
ATOM     80  C   UNL A   1      51.135  26.871  24.521  1.00  0.00     0.055 A 
ATOM     81  C   UNL A   1      51.642  25.943  26.681  1.00  0.00     0.041 A 
ATOM     82  F   UNL A   1      49.984  25.891  28.339  1.00  0.00    -0.206 F 
ATOM     83  C   UNL A   1      52.047  26.268  25.391  1.00  0.00     0.022 A 
BRANCH  80  84
ATOM     84  S   UNL A   1      51.632  27.267  22.822  1.00  0.00     0.124 S 
ATOM     85  O   UNL A   1      50.413  26.966  22.079  1.00  0.00    -0.237 OA
ATOM     86  O   UNL A   1      51.987  28.680  22.928  1.00  0.00    -0.237 OA
ATOM     87  O   UNL A   1      52.754  26.364  22.577  1.00  0.00    -0.744 OA
ENDBRANCH  80  84
ENDBRANCH  53  77
BRANCH  65  88
ATOM     88  C   UNL A   1      46.392  32.630  28.727  1.00  0.00     0.023 A 
ATOM     89  C   UNL A   1      46.340  33.658  27.771  1.00  0.00     0.031 A 
ATOM     90  C   UNL A   1      46.887  32.932  30.008  1.00  0.00     0.131 A 
ATOM     91  C   UNL A   1      46.796  34.942  28.107  1.00  0.00     0.055 A 
ATOM     92  C   UNL A   1      47.300  34.220  30.348  1.00  0.00     0.041 A 
ATOM     93  F   UNL A   1      46.953  31.983  30.955  1.00  0.00    -0.206 F 
ATOM     94  C   UNL A   1      47.258  35.233  29.394  1.00  0.00     0.022 A 
BRANCH  91  95
ATOM     95  S   UNL A   1      46.795  36.231  26.832  1.00  0.00     0.124 S 
ATOM     96  O   UNL A   1      47.100  35.465  25.629  1.00  0.00    -0.237 OA
ATOM     97  O   UNL A   1      45.439  36.765  26.922  1.00  0.00    -0.237 OA
ATOM     98  O   UNL A   1      47.848  37.147  27.269  1.00  0.00    -0.744 OA
ENDBRANCH  91  95
ENDBRANCH  65  88
ENDBRANCH  39  40
ENDBRANCH  31  34
ENDBRANCH  29  30
ENDBRANCH  28  29
ENDBRANCH  27  28
ENDBRANCH   1  27
TORSDOF 21
ENDMDL
MODEL 2
REMARK VINA RESULT:     -10.9      1.248      2.158
REMARK SMILES CC[C@](C)(NC(=O)N(C)[C@@H](C)c1ccccc1F)C(=O)NCCCCCCNC(=O)c1ccc(-c2c3nc(c(-c4cc(S(=O)(=O)[O-])ccc4F)c4ccc([nH]4)c(-c4cc(S(=O)(=O)[O-])ccc4F)c4nc(c(-c5cc(S(=O)(=O)[O-])ccc5F)c5ccc2[nH]5)C=C4)C=C3)cc1
REMARK SMILES IDX 24 1 23 2 22 3 21 4 19 5 20 6 3 8 4 9 2 10 1 11 5 12 6 13
REMARK SMILES IDX 7 15 8 16 9 17 10 18 11 19 12 20 13 21 17 22 14 23 16 24
REMARK SMILES IDX 18 25 15 26 25 27 26 28 27 29 28 30 29 31 30 33 31 34 32 35
REMARK SMILES IDX 93 36 33 37 92 38 34 39 35 40 36 41 86 42 37 43 91 44 85 45
REMARK SMILES IDX 87 46 38 47 90 48 84 49 83 50 39 52 71 53 51 54 70 55 52 56
REMARK SMILES IDX 55 57 69 58 88 59 53 60 54 61 68 63 89 64 56 65 40 66 41 67
REMARK SMILES IDX 49 68 42 69 48 70 50 71 47 72 43 73 44 74 45 75 46 76 72 77
REMARK SMILES IDX 73 78 81 79 74 80 80 81 82 82 79 83 75 84 76 85 77 86 78 87
REMARK SMILES IDX 57 88 58 89 66 90 59 91 65 92 67 93 64 94 60 95 61 96 62 97
REMARK SMILES IDX 63 98
REMARK H PARENT 21 7 5 14 28 32 87 51 55 62
REMARK Flexibility Score: inf
ROOT
ATOM      1  C   UNL A   1      37.016  21.797  24.301  1.00  0.00     0.002 C 
ENDROOT
BRANCH   1   2
ATOM      2  C   UNL A   1      37.032  22.988  25.259  1.00  0.00     0.021 C 
BRANCH   2   3
ATOM      3  C   UNL A   1      35.798  23.871  25.245  1.00  0.00     0.116 C 
BRANCH   3   4
ATOM      4  N   UNL A   1      34.807  23.472  26.230  1.00  0.00    -0.354 N 
ATOM      5  C   UNL A   1      33.454  23.300  26.147  1.00  0.00     0.245 C 
ATOM      6  O   UNL A   1      32.905  22.848  27.160  1.00  0.00    -0.272 OA
ATOM      7  H   UNL A   1      35.180  23.292  27.124  1.00  0.00     0.163 HD
BRANCH   5   8
ATOM      8  C   UNL A   1      32.651  23.521  24.823  1.00  0.00     0.117 C 
ATOM      9  C   UNL A   1      31.138  23.650  25.096  1.00  0.00     0.045 C 
BRANCH   8  10
ATOM     10  C   UNL A   1      32.931  22.226  23.950  1.00  0.00     0.035 C 
ATOM     11  C   UNL A   1      33.183  22.412  22.456  1.00  0.00     0.007 C 
ENDBRANCH   8  10
BRANCH   8  12
ATOM     12  N   UNL A   1      33.067  24.711  24.021  1.00  0.00    -0.324 N 
ATOM     13  C   UNL A   1      32.968  26.057  24.025  1.00  0.00     0.318 C 
ATOM     14  H   UNL A   1      33.580  24.419  23.234  1.00  0.00     0.166 HD
ATOM     15  O   UNL A   1      33.152  26.565  22.913  1.00  0.00    -0.249 OA
BRANCH  13  16
ATOM     16  N   UNL A   1      32.841  26.821  25.150  1.00  0.00    -0.321 N 
ATOM     17  C   UNL A   1      33.917  27.303  25.999  1.00  0.00     0.149 C 
BRANCH  16  18
ATOM     18  C   UNL A   1      31.478  27.204  25.617  1.00  0.00     0.117 C 
ATOM     19  C   UNL A   1      31.473  27.985  26.954  1.00  0.00     0.036 C 
BRANCH  18  20
ATOM     20  C   UNL A   1      30.562  27.853  24.579  1.00  0.00     0.010 A 
ATOM     21  C   UNL A   1      30.802  29.188  24.179  1.00  0.00     0.009 A 
ATOM     22  C   UNL A   1      29.439  27.225  24.028  1.00  0.00     0.128 A 
ATOM     23  C   UNL A   1      29.992  29.836  23.243  1.00  0.00     0.001 A 
ATOM     24  C   UNL A   1      28.619  27.872  23.098  1.00  0.00     0.039 A 
ATOM     25  F   UNL A   1      29.084  25.984  24.388  1.00  0.00    -0.207 F 
ATOM     26  C   UNL A   1      28.900  29.175  22.698  1.00  0.00     0.003 A 
ENDBRANCH  18  20
ENDBRANCH  16  18
ENDBRANCH  13  16
ENDBRANCH   8  12
ENDBRANCH   5   8
ENDBRANCH   3   4
ENDBRANCH   2   3
ENDBRANCH   1   2
BRANCH   1  27
ATOM     27  C   UNL A   1      36.885  20.432  24.975  1.00  0.00     0.002 C 
BRANCH  27  28
ATOM     28  C   UNL A   1      38.168  19.598  24.998  1.00  0.00     0.021 C 
BRANCH  28  29
ATOM     29  C   UNL A   1      39.246  20.101  25.956  1.00  0.00     0.116 C 
BRANCH  29  30
ATOM     30  N   UNL A   1      40.390  19.204  26.001  1.00  0.00    -0.352 N 
ATOM     31  C   UNL A   1      41.724  19.517  26.064  1.00  0.00     0.251 C 
ATOM     32  H   UNL A   1      40.178  18.243  25.984  1.00  0.00     0.163 HD
ATOM     33  O   UNL A   1      42.568  18.645  25.857  1.00  0.00    -0.269 OA
BRANCH  31  34
ATOM     34  C   UNL A   1      42.143  20.904  26.357  1.00  0.00     0.039 A 
ATOM     35  C   UNL A   1      42.406  21.271  27.679  1.00  0.00     0.014 A 
ATOM     36  C   UNL A   1      42.274  21.844  25.329  1.00  0.00     0.014 A 
ATOM     37  C   UNL A   1      42.853  22.564  27.962  1.00  0.00     0.010 A 
ATOM     38  C   UNL A   1      42.781  23.112  25.605  1.00  0.00     0.010 A 
ATOM     39  C   UNL A   1      43.073  23.487  26.926  1.00  0.00    -0.014 A 
BRANCH  39  40
ATOM     40  C   UNL A   1      43.599  24.848  27.210  1.00  0.00     0.031 A 
ATOM     41  C   UNL A   1      42.703  25.894  27.816  1.00  0.00     0.074 A 
ATOM     42  C   UNL A   1      44.870  25.156  26.882  1.00  0.00     0.049 A 
ATOM     43  N   UNL A   1      42.961  27.150  28.079  1.00  0.00    -0.248 NA
ATOM     44  C   UNL A   1      41.330  25.482  28.146  1.00  0.00     0.031 C 
ATOM     45  C   UNL A   1      45.828  24.240  26.261  1.00  0.00     0.029 A 
ATOM     46  N   UNL A   1      45.576  26.325  27.025  1.00  0.00    -0.354 N 
ATOM     47  C   UNL A   1      41.783  27.680  28.591  1.00  0.00     0.074 A 
ATOM     48  C   UNL A   1      40.796  26.622  28.559  1.00  0.00     0.031 C 
ATOM     49  C   UNL A   1      47.003  24.870  26.106  1.00  0.00     0.029 A 
ATOM     50  C   UNL A   1      46.873  26.246  26.576  1.00  0.00     0.049 A 
ATOM     51  H   UNL A   1      45.190  27.143  27.414  1.00  0.00     0.167 HD
ATOM     52  C   UNL A   1      41.552  28.929  29.065  1.00  0.00     0.034 A 
ATOM     53  C   UNL A   1      47.848  27.176  26.535  1.00  0.00     0.034 A 
ATOM     54  C   UNL A   1      42.551  29.966  29.123  1.00  0.00     0.049 A 
ATOM     55  C   UNL A   1      47.565  28.561  27.051  1.00  0.00     0.074 A 
ATOM     56  C   UNL A   1      42.434  31.240  29.651  1.00  0.00     0.029 A 
ATOM     57  N   UNL A   1      43.844  29.853  28.635  1.00  0.00    -0.354 N 
ATOM     58  N   UNL A   1      46.450  29.039  27.553  1.00  0.00    -0.248 NA
ATOM     59  C   UNL A   1      48.666  29.532  26.995  1.00  0.00     0.031 C 
ATOM     60  C   UNL A   1      43.636  31.918  29.427  1.00  0.00     0.029 A 
ATOM     61  C   UNL A   1      44.526  31.045  28.819  1.00  0.00     0.049 A 
ATOM     62  H   UNL A   1      44.222  29.045  28.218  1.00  0.00     0.167 HD
ATOM     63  C   UNL A   1      46.721  30.362  27.886  1.00  0.00     0.074 A 
ATOM     64  C   UNL A   1      48.104  30.608  27.532  1.00  0.00     0.031 C 
ATOM     65  C   UNL A   1      45.897  31.285  28.442  1.00  0.00     0.034 A 
BRANCH  52  66
ATOM     66  C   UNL A   1      40.160  29.249  29.544  1.00  0.00     0.023 A 
ATOM     67  C   UNL A   1      39.853  29.331  30.913  1.00  0.00     0.031 A 
ATOM     68  C   UNL A   1      39.131  29.494  28.618  1.00  0.00     0.131 A 
ATOM     69  C   UNL A   1      38.537  29.602  31.317  1.00  0.00     0.055 A 
ATOM     70  C   UNL A   1      37.839  29.827  29.026  1.00  0.00     0.041 A 
ATOM     71  F   UNL A   1      39.367  29.411  27.299  1.00  0.00    -0.206 F 
ATOM     72  C   UNL A   1      37.533  29.874  30.384  1.00  0.00     0.022 A 
BRANCH  69  73
ATOM     73  S   UNL A   1      38.134  29.511  33.082  1.00  0.00     0.124 S 
ATOM     74  O   UNL A   1      37.159  28.423  33.106  1.00  0.00    -0.237 OA
ATOM     75  O   UNL A   1      39.429  29.220  33.689  1.00  0.00    -0.237 OA
ATOM     76  O   UNL A   1      37.591  30.834  33.379  1.00  0.00    -0.744 OA
ENDBRANCH  69  73
ENDBRANCH  52  66
BRANCH  53  77
ATOM     77  C   UNL A   1      49.180  26.825  25.971  1.00  0.00     0.023 A 
ATOM     78  C   UNL A   1      49.558  27.250  24.689  1.00  0.00     0.031 A 
ATOM     79  C   UNL A   1      50.104  26.080  26.726  1.00  0.00     0.131 A 
ATOM     80  C   UNL A   1      50.826  26.914  24.191  1.00  0.00     0.055 A 
ATOM     81  C   UNL A   1      51.376  25.776  26.238  1.00  0.00     0.041 A 
ATOM     82  F   UNL A   1      49.791  25.664  27.963  1.00  0.00    -0.206 F 
ATOM     83  C   UNL A   1      51.742  26.192  24.961  1.00  0.00     0.022 A 
BRANCH  80  84
ATOM     84  S   UNL A   1      51.270  27.433  22.510  1.00  0.00     0.124 S 
ATOM     85  O   UNL A   1      52.648  26.965  22.410  1.00  0.00    -0.237 OA
ATOM     86  O   UNL A   1      50.288  26.718  21.699  1.00  0.00    -0.237 OA
ATOM     87  O   UNL A   1      51.102  28.884  22.547  1.00  0.00    -0.744 OA
ENDBRANCH  80  84
ENDBRANCH  53  77
BRANCH  65  88
ATOM     88  C   UNL A   1      46.470  32.648  28.725  1.00  0.00     0.023 A 
ATOM     89  C   UNL A   1      46.352  33.699  27.800  1.00  0.00     0.031 A 
ATOM     90  C   UNL A   1      47.085  32.911  29.961  1.00  0.00     0.131 A 
ATOM     91  C   UNL A   1      46.862  34.967  28.121  1.00  0.00     0.055 A 
ATOM     92  C   UNL A   1      47.552  34.183  30.291  1.00  0.00     0.041 A 
ATOM     93  F   UNL A   1      47.217  31.939  30.878  1.00  0.00    -0.206 F 
ATOM     94  C   UNL A   1      47.443  35.219  29.367  1.00  0.00     0.022 A 
BRANCH  91  95
ATOM     95  S   UNL A   1      46.770  36.285  26.880  1.00  0.00     0.124 S 
ATOM     96  O   UNL A   1      45.523  36.952  27.241  1.00  0.00    -0.237 OA
ATOM     97  O   UNL A   1      47.993  37.042  27.130  1.00  0.00    -0.237 OA
ATOM     98  O   UNL A   1      46.742  35.561  25.611  1.00  0.00    -0.744 OA
ENDBRANCH  91  95
ENDBRANCH  65  88
ENDBRANCH  39  40
ENDBRANCH  31  34
ENDBRANCH  29  30
ENDBRANCH  28  29
ENDBRANCH  27  28
ENDBRANCH   1  27
TORSDOF 21
ENDMDL
MODEL 3
REMARK VINA RESULT:     -10.8      5.746     11.844
REMARK SMILES CC[C@](C)(NC(=O)N(C)[C@@H](C)c1ccccc1F)C(=O)NCCCCCCNC(=O)c1ccc(-c2c3nc(c(-c4cc(S(=O)(=O)[O-])ccc4F)c4ccc([nH]4)c(-c4cc(S(=O)(=O)[O-])ccc4F)c4nc(c(-c5cc(S(=O)(=O)[O-])ccc5F)c5ccc2[nH]5)C=C4)C=C3)cc1
REMARK SMILES IDX 24 1 23 2 22 3 21 4 19 5 20 6 3 8 4 9 2 10 1 11 5 12 6 13
REMARK SMILES IDX 7 15 8 16 9 17 10 18 11 19 12 20 13 21 17 22 14 23 16 24
REMARK SMILES IDX 18 25 15 26 25 27 26 28 27 29 28 30 29 31 30 33 31 34 32 35
REMARK SMILES IDX 93 36 33 37 92 38 34 39 35 40 36 41 86 42 37 43 91 44 85 45
REMARK SMILES IDX 87 46 38 47 90 48 84 49 83 50 39 52 71 53 51 54 70 55 52 56
REMARK SMILES IDX 55 57 69 58 88 59 53 60 54 61 68 63 89 64 56 65 40 66 41 67
REMARK SMILES IDX 49 68 42 69 48 70 50 71 47 72 43 73 44 74 45 75 46 76 72 77
REMARK SMILES IDX 73 78 81 79 74 80 80 81 82 82 79 83 75 84 76 85 77 86 78 87
REMARK SMILES IDX 57 88 58 89 66 90 59 91 65 92 67 93 64 94 60 95 61 96 62 97
REMARK SMILES IDX 63 98
REMARK H PARENT 21 7 5 14 28 32 87 51 55 62
REMARK Flexibility Score: inf
ROOT
ATOM      1  C   UNL A   1      31.744  30.041  25.552  1.00  0.00     0.002 C 
ENDROOT
BRANCH   1   2
ATOM      2  C   UNL A   1      31.024  29.217  24.484  1.00  0.00     0.021 C 
BRANCH   2   3
ATOM      3  C   UNL A   1      31.262  27.719  24.527  1.00  0.00     0.116 C 
BRANCH   3   4
ATOM      4  N   UNL A   1      32.173  27.263  23.489  1.00  0.00    -0.354 N 
ATOM      5  C   UNL A   1      33.148  26.307  23.488  1.00  0.00     0.245 C 
ATOM      6  O   UNL A   1      33.686  26.088  22.394  1.00  0.00    -0.272 OA
ATOM      7  H   UNL A   1      32.068  27.731  22.629  1.00  0.00     0.163 HD
BRANCH   5   8
ATOM      8  C   UNL A   1      33.483  25.433  24.741  1.00  0.00     0.117 C 
ATOM      9  C   UNL A   1      33.847  26.310  25.958  1.00  0.00     0.045 C 
BRANCH   8  10
ATOM     10  C   UNL A   1      34.736  24.560  24.313  1.00  0.00     0.035 C 
ATOM     11  C   UNL A   1      35.738  24.169  25.396  1.00  0.00     0.007 C 
ENDBRANCH   8  10
BRANCH   8  12
ATOM     12  N   UNL A   1      32.399  24.499  25.169  1.00  0.00    -0.324 N 
ATOM     13  C   UNL A   1      31.893  23.283  24.874  1.00  0.00     0.318 C 
ATOM     14  H   UNL A   1      31.886  24.900  25.908  1.00  0.00     0.166 HD
ATOM     15  O   UNL A   1      30.731  23.128  25.263  1.00  0.00    -0.249 OA
BRANCH  13  16
ATOM     16  N   UNL A   1      32.616  22.251  24.345  1.00  0.00    -0.321 N 
ATOM     17  C   UNL A   1      32.632  21.823  22.957  1.00  0.00     0.149 C 
BRANCH  16  18
ATOM     18  C   UNL A   1      33.472  21.428  25.247  1.00  0.00     0.117 C 
ATOM     19  C   UNL A   1      33.180  21.643  26.752  1.00  0.00     0.036 C 
BRANCH  18  20
ATOM     20  C   UNL A   1      33.593  19.944  24.899  1.00  0.00     0.010 A 
ATOM     21  C   UNL A   1      32.426  19.149  24.836  1.00  0.00     0.009 A 
ATOM     22  C   UNL A   1      34.812  19.288  24.696  1.00  0.00     0.128 A 
ATOM     23  C   UNL A   1      32.477  17.785  24.534  1.00  0.00     0.001 A 
ATOM     24  C   UNL A   1      34.870  17.922  24.403  1.00  0.00     0.039 A 
ATOM     25  F   UNL A   1      35.981  19.935  24.799  1.00  0.00    -0.207 F 
ATOM     26  C   UNL A   1      33.702  17.171  24.313  1.00  0.00     0.003 A 
ENDBRANCH  18  20
ENDBRANCH  16  18
ENDBRANCH  13  16
ENDBRANCH   8  12
ENDBRANCH   5   8
ENDBRANCH   3   4
ENDBRANCH   2   3
ENDBRANCH   1   2
BRANCH   1  27
ATOM     27  C   UNL A   1      31.106  31.396  25.854  1.00  0.00     0.002 C 
BRANCH  27  28
ATOM     28  C   UNL A   1      31.478  31.997  27.212  1.00  0.00     0.021 C 
BRANCH  28  29
ATOM     29  C   UNL A   1      32.766  32.818  27.222  1.00  0.00     0.116 C 
BRANCH  29  30
ATOM     30  N   UNL A   1      32.521  34.204  27.586  1.00  0.00    -0.352 N 
ATOM     31  C   UNL A   1      33.051  34.924  28.626  1.00  0.00     0.251 C 
ATOM     32  H   UNL A   1      31.889  34.690  27.009  1.00  0.00     0.163 HD
ATOM     33  O   UNL A   1      32.559  36.011  28.931  1.00  0.00    -0.269 OA
BRANCH  31  34
ATOM     34  C   UNL A   1      34.196  34.384  29.389  1.00  0.00     0.039 A 
ATOM     35  C   UNL A   1      33.952  33.596  30.516  1.00  0.00     0.014 A 
ATOM     36  C   UNL A   1      35.510  34.659  28.995  1.00  0.00     0.014 A 
ATOM     37  C   UNL A   1      35.025  33.037  31.215  1.00  0.00     0.010 A 
ATOM     38  C   UNL A   1      36.576  34.048  29.654  1.00  0.00     0.010 A 
ATOM     39  C   UNL A   1      36.345  33.233  30.774  1.00  0.00    -0.014 A 
BRANCH  39  40
ATOM     40  C   UNL A   1      37.491  32.601  31.477  1.00  0.00     0.031 A 
ATOM     41  C   UNL A   1      38.233  31.458  30.839  1.00  0.00     0.074 A 
ATOM     42  C   UNL A   1      37.837  33.026  32.709  1.00  0.00     0.049 A 
ATOM     43  N   UNL A   1      39.216  30.740  31.321  1.00  0.00    -0.248 NA
ATOM     44  C   UNL A   1      37.797  31.051  29.494  1.00  0.00     0.031 C 
ATOM     45  C   UNL A   1      37.177  34.104  33.447  1.00  0.00     0.029 A 
ATOM     46  N   UNL A   1      38.831  32.605  33.558  1.00  0.00    -0.354 N 
ATOM     47  C   UNL A   1      39.507  29.792  30.347  1.00  0.00     0.074 A 
ATOM     48  C   UNL A   1      38.565  29.995  29.267  1.00  0.00     0.031 C 
ATOM     49  C   UNL A   1      37.801  34.279  34.622  1.00  0.00     0.029 A 
ATOM     50  C   UNL A   1      38.879  33.301  34.743  1.00  0.00     0.049 A 
ATOM     51  H   UNL A   1      39.451  31.872  33.339  1.00  0.00     0.167 HD
ATOM     52  C   UNL A   1      40.483  28.851  30.346  1.00  0.00     0.034 A 
ATOM     53  C   UNL A   1      39.689  33.166  35.811  1.00  0.00     0.034 A 
ATOM     54  C   UNL A   1      41.436  28.678  31.412  1.00  0.00     0.049 A 
ATOM     55  C   UNL A   1      40.755  32.104  35.794  1.00  0.00     0.074 A 
ATOM     56  C   UNL A   1      42.506  27.801  31.473  1.00  0.00     0.029 A 
ATOM     57  N   UNL A   1      41.434  29.387  32.604  1.00  0.00    -0.354 N 
ATOM     58  N   UNL A   1      41.030  31.230  34.855  1.00  0.00    -0.248 NA
ATOM     59  C   UNL A   1      41.619  32.008  36.979  1.00  0.00     0.031 C 
ATOM     60  C   UNL A   1      43.113  27.937  32.724  1.00  0.00     0.029 A 
ATOM     61  C   UNL A   1      42.464  28.945  33.420  1.00  0.00     0.049 A 
ATOM     62  H   UNL A   1      40.795  30.099  32.837  1.00  0.00     0.167 HD
ATOM     63  C   UNL A   1      42.108  30.489  35.330  1.00  0.00     0.074 A 
ATOM     64  C   UNL A   1      42.437  31.021  36.637  1.00  0.00     0.031 C 
ATOM     65  C   UNL A   1      42.767  29.468  34.730  1.00  0.00     0.034 A 
BRANCH  52  66
ATOM     66  C   UNL A   1      40.560  27.926  29.160  1.00  0.00     0.023 A 
ATOM     67  C   UNL A   1      41.483  28.134  28.121  1.00  0.00     0.031 A 
ATOM     68  C   UNL A   1      39.711  26.807  29.079  1.00  0.00     0.131 A 
ATOM     69  C   UNL A   1      41.501  27.265  27.020  1.00  0.00     0.055 A 
ATOM     70  C   UNL A   1      39.779  25.910  28.012  1.00  0.00     0.041 A 
ATOM     71  F   UNL A   1      38.800  26.572  30.035  1.00  0.00    -0.206 F 
ATOM     72  C   UNL A   1      40.673  26.141  26.969  1.00  0.00     0.022 A 
BRANCH  69  73
ATOM     73  S   UNL A   1      42.566  27.670  25.610  1.00  0.00     0.124 S 
ATOM     74  O   UNL A   1      41.905  28.857  25.073  1.00  0.00    -0.237 OA
ATOM     75  O   UNL A   1      43.861  27.894  26.245  1.00  0.00    -0.237 OA
ATOM     76  O   UNL A   1      42.485  26.481  24.766  1.00  0.00    -0.744 OA
ENDBRANCH  69  73
ENDBRANCH  52  66
BRANCH  53  77
ATOM     77  C   UNL A   1      39.510  34.056  36.990  1.00  0.00     0.023 A 
ATOM     78  C   UNL A   1      38.895  33.589  38.162  1.00  0.00     0.031 A 
ATOM     79  C   UNL A   1      39.981  35.381  36.967  1.00  0.00     0.131 A 
ATOM     80  C   UNL A   1      38.754  34.449  39.263  1.00  0.00     0.055 A 
ATOM     81  C   UNL A   1      39.866  36.221  38.076  1.00  0.00     0.041 A 
ATOM     82  F   UNL A   1      40.588  35.866  35.873  1.00  0.00    -0.206 F 
ATOM     83  C   UNL A   1      39.247  35.756  39.231  1.00  0.00     0.022 A 
BRANCH  80  84
ATOM     84  S   UNL A   1      37.910  33.836  40.747  1.00  0.00     0.124 S 
ATOM     85  O   UNL A   1      36.799  33.088  40.167  1.00  0.00    -0.237 OA
ATOM     86  O   UNL A   1      38.954  33.043  41.388  1.00  0.00    -0.237 OA
ATOM     87  O   UNL A   1      37.539  35.059  41.455  1.00  0.00    -0.744 OA
ENDBRANCH  80  84
ENDBRANCH  53  77
BRANCH  65  88
ATOM     88  C   UNL A   1      43.930  28.861  35.469  1.00  0.00     0.023 A 
ATOM     89  C   UNL A   1      43.752  27.798  36.370  1.00  0.00     0.031 A 
ATOM     90  C   UNL A   1      45.238  29.313  35.219  1.00  0.00     0.131 A 
ATOM     91  C   UNL A   1      44.868  27.233  37.006  1.00  0.00     0.055 A 
ATOM     92  C   UNL A   1      46.346  28.719  35.822  1.00  0.00     0.041 A 
ATOM     93  F   UNL A   1      45.458  30.324  34.362  1.00  0.00    -0.206 F 
ATOM     94  C   UNL A   1      46.164  27.674  36.723  1.00  0.00     0.022 A 
BRANCH  91  95
ATOM     95  S   UNL A   1      44.606  25.917  38.226  1.00  0.00     0.124 S 
ATOM     96  O   UNL A   1      43.955  26.640  39.313  1.00  0.00    -0.237 OA
ATOM     97  O   UNL A   1      43.767  24.970  37.497  1.00  0.00    -0.237 OA
ATOM     98  O   UNL A   1      45.958  25.444  38.517  1.00  0.00    -0.744 OA
ENDBRANCH  91  95
ENDBRANCH  65  88
ENDBRANCH  39  40
ENDBRANCH  31  34
ENDBRANCH  29  30
ENDBRANCH  28  29
ENDBRANCH  27  28
ENDBRANCH   1  27
TORSDOF 21
ENDMDL
