MODEL 1
REMARK VINA RESULT:      -6.2      0.000      0.000
REMARK SMILES NS(=O)(=O)c1ccc(-n2nc(C(=O)NCCCCCCCCCCC(=O)NCCCCCCNC(=O)c3ccc(-c4c5nc(c(-c6cc(S(=O)(=O)[O-])ccc6F)c6ccc([nH]6)c(-c6cc(S(=O)(=O)[O-])ccc6F)c6nc(c(-c7cc(S(=O)(=O)[O-])ccc7F)c7ccc4[nH]7)C=C6)C=C5)cc3)cc2-c2ccccc2)cc1
REMARK SMILES IDX 23 1 22 2 21 3 20 4 19 5 18 6 17 7 16 8 15 9 14 10 12 11
REMARK SMILES IDX 13 12 11 14 9 15 10 16 101 17 100 18 8 19 5 20 6 21 109 22
REMARK SMILES IDX 7 23 108 24 2 25 3 26 4 27 1 28 102 31 103 32 107 33 104 34
REMARK SMILES IDX 106 35 105 36 24 37 25 38 26 39 27 40 28 42 29 43 30 44
REMARK SMILES IDX 31 45 32 46 33 47 34 48 35 49 36 51 37 52 38 53 99 54 39 55
REMARK SMILES IDX 98 56 40 57 41 58 42 59 92 60 43 61 97 62 91 63 93 64 44 65
REMARK SMILES IDX 96 66 90 67 89 68 45 70 77 71 57 72 76 73 58 74 61 75 75 76
REMARK SMILES IDX 94 77 59 78 60 79 74 81 95 82 62 83 46 84 47 85 55 86 48 87
REMARK SMILES IDX 54 88 56 89 53 90 49 91 50 92 51 93 52 94 78 95 79 96 87 97
REMARK SMILES IDX 80 98 86 99 88 100 85 101 81 102 82 103 83 104 84 105 63 106
REMARK SMILES IDX 64 107 72 108 65 109 71 110 73 111 70 112 66 113 67 114
REMARK SMILES IDX 68 115 69 116
REMARK H PARENT 14 13 1 29 1 30 27 41 34 50 93 69 61 80
REMARK Flexibility Score: inf
ROOT
ATOM      1  C   UNL A   1      36.342  32.162  30.512  1.00  0.00     0.010 C 
ENDROOT
BRANCH   1   2
ATOM      2  C   UNL A   1      37.522  32.061  29.552  1.00  0.00     0.001 C 
BRANCH   2   3
ATOM      3  C   UNL A   1      38.697  32.981  29.910  1.00  0.00     0.000 C 
BRANCH   3   4
ATOM      4  C   UNL A   1      38.578  34.366  29.290  1.00  0.00     0.000 C 
BRANCH   4   5
ATOM      5  C   UNL A   1      39.777  35.261  29.604  1.00  0.00     0.000 C 
BRANCH   5   6
ATOM      6  C   UNL A   1      41.096  34.764  28.992  1.00  0.00     0.000 C 
BRANCH   6   7
ATOM      7  C   UNL A   1      42.064  35.889  28.593  1.00  0.00     0.002 C 
BRANCH   7   8
ATOM      8  C   UNL A   1      42.226  36.044  27.082  1.00  0.00     0.021 C 
BRANCH   8   9
ATOM      9  C   UNL A   1      42.570  37.478  26.695  1.00  0.00     0.116 C 
BRANCH   9  10
ATOM     10  N   UNL A   1      43.990  37.654  26.573  1.00  0.00    -0.351 N 
ATOM     11  C   UNL A   1      44.952  38.059  27.463  1.00  0.00     0.271 C 
ATOM     12  O   UNL A   1      46.062  38.287  26.976  1.00  0.00    -0.267 OA
ATOM     13  H   UNL A   1      44.341  37.444  25.678  1.00  0.00     0.163 HD
BRANCH  11  14
ATOM     14  C   UNL A   1      44.683  38.187  28.911  1.00  0.00     0.151 A 
ATOM     15  N   UNL A   1      44.168  39.235  30.716  1.00  0.00    -0.232 N 
ATOM     16  N   UNL A   1      44.050  39.285  29.373  1.00  0.00    -0.162 NA
ATOM     17  C   UNL A   1      44.625  38.010  31.154  1.00  0.00     0.075 A 
ATOM     18  C   UNL A   1      44.967  37.336  30.005  1.00  0.00     0.065 A 
BRANCH  15  19
ATOM     19  C   UNL A   1      43.754  40.318  31.514  1.00  0.00     0.065 A 
ATOM     20  C   UNL A   1      43.150  42.654  32.848  1.00  0.00     0.082 A 
ATOM     21  C   UNL A   1      42.272  42.184  31.869  1.00  0.00     0.024 A 
ATOM     22  C   UNL A   1      44.297  41.933  33.207  1.00  0.00     0.024 A 
ATOM     23  C   UNL A   1      42.582  41.013  31.189  1.00  0.00     0.030 A 
ATOM     24  C   UNL A   1      44.585  40.737  32.559  1.00  0.00     0.030 A 
BRANCH  20  25
ATOM     25  S   UNL A   1      42.810  44.189  33.644  1.00  0.00     0.238 S 
ATOM     26  O   UNL A   1      41.913  43.983  34.745  1.00  0.00    -0.207 OA
ATOM     27  O   UNL A   1      42.567  45.189  32.618  1.00  0.00    -0.207 OA
BRANCH  25  28
ATOM     28  N   UNL A   1      44.293  44.566  34.324  1.00  0.00    -0.225 NA
ATOM     29  H   UNL A   1      44.835  43.712  34.457  1.00  0.00     0.137 HD
ATOM     30  H   UNL A   1      44.148  45.020  35.226  1.00  0.00     0.137 HD
ENDBRANCH  25  28
ENDBRANCH  20  25
ENDBRANCH  15  19
BRANCH  17  31
ATOM     31  C   UNL A   1      44.632  37.485  32.516  1.00  0.00     0.000 A 
ATOM     32  C   UNL A   1      43.469  36.961  33.092  1.00  0.00     0.010 A 
ATOM     33  C   UNL A   1      45.839  37.413  33.225  1.00  0.00     0.010 A 
ATOM     34  C   UNL A   1      43.508  36.390  34.364  1.00  0.00     0.001 A 
ATOM     35  C   UNL A   1      45.878  36.836  34.493  1.00  0.00     0.001 A 
ATOM     36  C   UNL A   1      44.713  36.326  35.062  1.00  0.00     0.000 A 
ENDBRANCH  17  31
ENDBRANCH  11  14
ENDBRANCH   9  10
ENDBRANCH   8   9
ENDBRANCH   7   8
ENDBRANCH   6   7
ENDBRANCH   5   6
ENDBRANCH   4   5
ENDBRANCH   3   4
ENDBRANCH   2   3
ENDBRANCH   1   2
BRANCH   1  37
ATOM     37  C   UNL A   1      35.968  30.874  31.247  1.00  0.00     0.100 C 
BRANCH  37  38
ATOM     38  C   UNL A   1      36.524  29.608  30.627  1.00  0.00     0.219 C 
ATOM     39  O   UNL A   1      36.268  29.321  29.456  1.00  0.00    -0.275 OA
ATOM     40  N   UNL A   1      37.348  28.781  31.327  1.00  0.00    -0.356 N 
ATOM     41  H   UNL A   1      37.668  27.997  30.823  1.00  0.00     0.163 HD
BRANCH  40  42
ATOM     42  C   UNL A   1      37.835  28.864  32.691  1.00  0.00     0.116 C 
BRANCH  42  43
ATOM     43  C   UNL A   1      39.193  29.573  32.761  1.00  0.00     0.021 C 
BRANCH  43  44
ATOM     44  C   UNL A   1      39.126  31.007  33.288  1.00  0.00     0.002 C 
BRANCH  44  45
ATOM     45  C   UNL A   1      38.241  31.213  34.526  1.00  0.00     0.002 C 
BRANCH  45  46
ATOM     46  C   UNL A   1      37.228  32.367  34.461  1.00  0.00     0.021 C 
BRANCH  46  47
ATOM     47  C   UNL A   1      37.698  33.545  33.622  1.00  0.00     0.116 C 
BRANCH  47  48
ATOM     48  N   UNL A   1      38.233  34.633  34.446  1.00  0.00    -0.352 N 
ATOM     49  C   UNL A   1      39.514  34.812  34.935  1.00  0.00     0.251 C 
ATOM     50  H   UNL A   1      37.589  35.337  34.686  1.00  0.00     0.163 HD
ATOM     51  O   UNL A   1      39.714  35.557  35.887  1.00  0.00    -0.269 OA
BRANCH  49  52
ATOM     52  C   UNL A   1      40.628  34.102  34.284  1.00  0.00     0.039 A 
ATOM     53  C   UNL A   1      41.497  33.260  34.989  1.00  0.00     0.014 A 
ATOM     54  C   UNL A   1      40.791  34.301  32.918  1.00  0.00     0.014 A 
ATOM     55  C   UNL A   1      42.487  32.578  34.284  1.00  0.00     0.010 A 
ATOM     56  C   UNL A   1      41.614  33.481  32.205  1.00  0.00     0.010 A 
ATOM     57  C   UNL A   1      42.530  32.696  32.888  1.00  0.00    -0.014 A 
BRANCH  57  58
ATOM     58  C   UNL A   1      43.459  31.949  32.056  1.00  0.00     0.031 A 
ATOM     59  C   UNL A   1      44.556  32.770  31.492  1.00  0.00     0.074 A 
ATOM     60  C   UNL A   1      43.482  30.597  32.074  1.00  0.00     0.049 A 
ATOM     61  N   UNL A   1      44.716  33.111  30.259  1.00  0.00    -0.248 NA
ATOM     62  C   UNL A   1      45.475  33.458  32.416  1.00  0.00     0.031 C 
ATOM     63  C   UNL A   1      42.628  29.688  32.850  1.00  0.00     0.029 A 
ATOM     64  N   UNL A   1      44.377  29.743  31.511  1.00  0.00    -0.354 N 
ATOM     65  C   UNL A   1      45.913  33.817  30.216  1.00  0.00     0.074 A 
ATOM     66  C   UNL A   1      46.168  34.222  31.570  1.00  0.00     0.031 C 
ATOM     67  C   UNL A   1      43.197  28.464  32.902  1.00  0.00     0.029 A 
ATOM     68  C   UNL A   1      44.371  28.455  32.047  1.00  0.00     0.049 A 
ATOM     69  H   UNL A   1      44.981  30.012  30.784  1.00  0.00     0.167 HD
ATOM     70  C   UNL A   1      46.723  33.748  29.121  1.00  0.00     0.034 A 
ATOM     71  C   UNL A   1      45.286  27.468  31.832  1.00  0.00     0.034 A 
ATOM     72  C   UNL A   1      46.026  33.107  28.020  1.00  0.00     0.049 A 
ATOM     73  C   UNL A   1      45.968  27.809  30.554  1.00  0.00     0.074 A 
ATOM     74  C   UNL A   1      44.847  33.365  27.345  1.00  0.00     0.029 A 
ATOM     75  N   UNL A   1      46.326  31.787  27.749  1.00  0.00    -0.354 N 
ATOM     76  N   UNL A   1      45.344  27.834  29.406  1.00  0.00    -0.248 NA
ATOM     77  C   UNL A   1      47.165  28.639  30.614  1.00  0.00     0.031 C 
ATOM     78  C   UNL A   1      44.249  32.084  27.158  1.00  0.00     0.029 A 
ATOM     79  C   UNL A   1      45.139  31.108  27.616  1.00  0.00     0.049 A 
ATOM     80  H   UNL A   1      47.228  31.401  27.669  1.00  0.00     0.167 HD
ATOM     81  C   UNL A   1      45.776  28.998  28.785  1.00  0.00     0.074 A 
ATOM     82  C   UNL A   1      46.978  29.392  29.522  1.00  0.00     0.031 C 
ATOM     83  C   UNL A   1      44.956  29.704  27.946  1.00  0.00     0.034 A 
BRANCH  70  84
ATOM     84  C   UNL A   1      48.232  33.876  29.124  1.00  0.00     0.023 A 
ATOM     85  C   UNL A   1      48.944  32.830  29.744  1.00  0.00     0.031 A 
ATOM     86  C   UNL A   1      48.985  35.036  28.837  1.00  0.00     0.131 A 
ATOM     87  C   UNL A   1      50.264  33.008  30.182  1.00  0.00     0.055 A 
ATOM     88  C   UNL A   1      50.328  35.179  29.202  1.00  0.00     0.041 A 
ATOM     89  F   UNL A   1      48.461  36.130  28.277  1.00  0.00    -0.206 F 
ATOM     90  C   UNL A   1      50.964  34.179  29.917  1.00  0.00     0.022 A 
BRANCH  87  91
ATOM     91  S   UNL A   1      50.964  31.761  31.291  1.00  0.00     0.124 S 
ATOM     92  O   UNL A   1      52.375  32.139  31.295  1.00  0.00    -0.237 OA
ATOM     93  O   UNL A   1      50.228  32.010  32.525  1.00  0.00    -0.237 OA
ATOM     94  O   UNL A   1      50.658  30.501  30.620  1.00  0.00    -0.744 OA
ENDBRANCH  87  91
ENDBRANCH  70  84
BRANCH  71  95
ATOM     95  C   UNL A   1      45.769  26.439  32.805  1.00  0.00     0.023 A 
ATOM     96  C   UNL A   1      46.723  26.702  33.817  1.00  0.00     0.031 A 
ATOM     97  C   UNL A   1      45.105  25.192  32.887  1.00  0.00     0.131 A 
ATOM     98  C   UNL A   1      46.975  25.744  34.835  1.00  0.00     0.055 A 
ATOM     99  C   UNL A   1      45.363  24.250  33.887  1.00  0.00     0.041 A 
ATOM    100  F   UNL A   1      44.112  24.875  32.041  1.00  0.00    -0.206 F 
ATOM    101  C   UNL A   1      46.293  24.526  34.872  1.00  0.00     0.022 A 
BRANCH  98 102
ATOM    102  S   UNL A   1      48.135  26.100  36.201  1.00  0.00     0.124 S 
ATOM    103  O   UNL A   1      49.105  26.984  35.565  1.00  0.00    -0.237 OA
ATOM    104  O   UNL A   1      47.264  26.702  37.204  1.00  0.00    -0.237 OA
ATOM    105  O   UNL A   1      48.653  24.779  36.562  1.00  0.00    -0.744 OA
ENDBRANCH  98 102
ENDBRANCH  71  95
BRANCH  83 106
ATOM    106  C   UNL A   1      43.653  29.068  27.496  1.00  0.00     0.023 A 
ATOM    107  C   UNL A   1      42.404  29.233  28.142  1.00  0.00     0.031 A 
ATOM    108  C   UNL A   1      43.659  28.385  26.267  1.00  0.00     0.131 A 
ATOM    109  C   UNL A   1      41.231  28.712  27.559  1.00  0.00     0.055 A 
ATOM    110  C   UNL A   1      42.492  27.896  25.680  1.00  0.00     0.041 A 
ATOM    111  F   UNL A   1      44.806  28.220  25.586  1.00  0.00    -0.206 F 
ATOM    112  C   UNL A   1      41.274  28.053  26.327  1.00  0.00     0.022 A 
BRANCH 109 113
ATOM    113  S   UNL A   1      39.622  28.871  28.403  1.00  0.00     0.124 S 
ATOM    114  O   UNL A   1      39.209  27.488  28.610  1.00  0.00    -0.237 OA
ATOM    115  O   UNL A   1      39.966  29.623  29.607  1.00  0.00    -0.237 OA
ATOM    116  O   UNL A   1      38.805  29.611  27.439  1.00  0.00    -0.744 OA
ENDBRANCH 109 113
ENDBRANCH  83 106
ENDBRANCH  57  58
ENDBRANCH  49  52
ENDBRANCH  47  48
ENDBRANCH  46  47
ENDBRANCH  45  46
ENDBRANCH  44  45
ENDBRANCH  43  44
ENDBRANCH  42  43
ENDBRANCH  40  42
ENDBRANCH  37  38
ENDBRANCH   1  37
TORSDOF 31
ENDMDL
MODEL 2
REMARK VINA RESULT:      -6.1      3.805      9.306
REMARK SMILES NS(=O)(=O)c1ccc(-n2nc(C(=O)NCCCCCCCCCCC(=O)NCCCCCCNC(=O)c3ccc(-c4c5nc(c(-c6cc(S(=O)(=O)[O-])ccc6F)c6ccc([nH]6)c(-c6cc(S(=O)(=O)[O-])ccc6F)c6nc(c(-c7cc(S(=O)(=O)[O-])ccc7F)c7ccc4[nH]7)C=C6)C=C5)cc3)cc2-c2ccccc2)cc1
REMARK SMILES IDX 23 1 22 2 21 3 20 4 19 5 18 6 17 7 16 8 15 9 14 10 12 11
REMARK SMILES IDX 13 12 11 14 9 15 10 16 101 17 100 18 8 19 5 20 6 21 109 22
REMARK SMILES IDX 7 23 108 24 2 25 3 26 4 27 1 28 102 31 103 32 107 33 104 34
REMARK SMILES IDX 106 35 105 36 24 37 25 38 26 39 27 40 28 42 29 43 30 44
REMARK SMILES IDX 31 45 32 46 33 47 34 48 35 49 36 51 37 52 38 53 99 54 39 55
REMARK SMILES IDX 98 56 40 57 41 58 42 59 92 60 43 61 97 62 91 63 93 64 44 65
REMARK SMILES IDX 96 66 90 67 89 68 45 70 77 71 57 72 76 73 58 74 61 75 75 76
REMARK SMILES IDX 94 77 59 78 60 79 74 81 95 82 62 83 46 84 47 85 55 86 48 87
REMARK SMILES IDX 54 88 56 89 53 90 49 91 50 92 51 93 52 94 78 95 79 96 87 97
REMARK SMILES IDX 80 98 86 99 88 100 85 101 81 102 82 103 83 104 84 105 63 106
REMARK SMILES IDX 64 107 72 108 65 109 71 110 73 111 70 112 66 113 67 114
REMARK SMILES IDX 68 115 69 116
REMARK H PARENT 14 13 1 29 1 30 27 41 34 50 93 69 61 80
REMARK Flexibility Score: inf
ROOT
ATOM      1  C   UNL A   1      42.343  35.614  37.089  1.00  0.00     0.010 C 
ENDROOT
BRANCH   1   2
ATOM      2  C   UNL A   1      41.057  36.393  36.839  1.00  0.00     0.001 C 
BRANCH   2   3
ATOM      3  C   UNL A   1      39.896  35.988  37.758  1.00  0.00     0.000 C 
BRANCH   3   4
ATOM      4  C   UNL A   1      39.587  37.031  38.822  1.00  0.00     0.000 C 
BRANCH   4   5
ATOM      5  C   UNL A   1      40.540  36.963  40.015  1.00  0.00     0.000 C 
BRANCH   5   6
ATOM      6  C   UNL A   1      40.713  38.303  40.746  1.00  0.00     0.000 C 
BRANCH   6   7
ATOM      7  C   UNL A   1      41.921  39.124  40.270  1.00  0.00     0.002 C 
BRANCH   7   8
ATOM      8  C   UNL A   1      42.818  39.603  41.410  1.00  0.00     0.021 C 
BRANCH   8   9
ATOM      9  C   UNL A   1      43.406  40.981  41.126  1.00  0.00     0.116 C 
BRANCH   9  10
ATOM     10  N   UNL A   1      44.838  40.965  41.247  1.00  0.00    -0.351 N 
ATOM     11  C   UNL A   1      45.837  40.634  40.367  1.00  0.00     0.271 C 
ATOM     12  O   UNL A   1      46.966  40.547  40.857  1.00  0.00    -0.267 OA
ATOM     13  H   UNL A   1      45.165  41.248  42.131  1.00  0.00     0.163 HD
BRANCH  11  14
ATOM     14  C   UNL A   1      45.581  40.421  38.926  1.00  0.00     0.151 A 
ATOM     15  N   UNL A   1      45.046  41.012  36.931  1.00  0.00    -0.232 N 
ATOM     16  N   UNL A   1      45.527  41.485  38.099  1.00  0.00    -0.162 NA
ATOM     17  C   UNL A   1      45.035  39.633  36.890  1.00  0.00     0.075 A 
ATOM     18  C   UNL A   1      45.367  39.247  38.167  1.00  0.00     0.065 A 
BRANCH  15  19
ATOM     19  C   UNL A   1      44.710  41.892  35.884  1.00  0.00     0.065 A 
ATOM     20  C   UNL A   1      43.991  43.306  33.629  1.00  0.00     0.082 A 
ATOM     21  C   UNL A   1      43.024  43.037  34.600  1.00  0.00     0.024 A 
ATOM     22  C   UNL A   1      45.328  42.925  33.806  1.00  0.00     0.024 A 
ATOM     23  C   UNL A   1      43.383  42.315  35.731  1.00  0.00     0.030 A 
ATOM     24  C   UNL A   1      45.699  42.242  34.959  1.00  0.00     0.030 A 
BRANCH  20  25
ATOM     25  S   UNL A   1      43.518  44.136  32.149  1.00  0.00     0.238 S 
ATOM     26  O   UNL A   1      42.280  43.599  31.659  1.00  0.00    -0.207 OA
ATOM     27  O   UNL A   1      44.694  44.271  31.308  1.00  0.00    -0.207 OA
BRANCH  25  28
ATOM     28  N   UNL A   1      43.161  45.674  32.708  1.00  0.00    -0.225 NA
ATOM     29  H   UNL A   1      42.352  46.040  32.207  1.00  0.00     0.137 HD
ATOM     30  H   UNL A   1      43.962  46.286  32.554  1.00  0.00     0.137 HD
ENDBRANCH  25  28
ENDBRANCH  20  25
ENDBRANCH  15  19
BRANCH  17  31
ATOM     31  C   UNL A   1      44.841  38.767  35.731  1.00  0.00     0.000 A 
ATOM     32  C   UNL A   1      43.568  38.576  35.181  1.00  0.00     0.010 A 
ATOM     33  C   UNL A   1      45.953  38.194  35.101  1.00  0.00     0.010 A 
ATOM     34  C   UNL A   1      43.408  37.810  34.026  1.00  0.00     0.001 A 
ATOM     35  C   UNL A   1      45.793  37.434  33.944  1.00  0.00     0.001 A 
ATOM     36  C   UNL A   1      44.521  37.241  33.407  1.00  0.00     0.000 A 
ENDBRANCH  17  31
ENDBRANCH  11  14
ENDBRANCH   9  10
ENDBRANCH   8   9
ENDBRANCH   7   8
ENDBRANCH   6   7
ENDBRANCH   5   6
ENDBRANCH   4   5
ENDBRANCH   3   4
ENDBRANCH   2   3
ENDBRANCH   1   2
BRANCH   1  37
ATOM     37  C   UNL A   1      42.893  34.834  35.894  1.00  0.00     0.100 C 
BRANCH  37  38
ATOM     38  C   UNL A   1      43.442  33.463  36.233  1.00  0.00     0.219 C 
ATOM     39  O   UNL A   1      42.785  32.680  36.924  1.00  0.00    -0.275 OA
ATOM     40  N   UNL A   1      44.645  33.044  35.754  1.00  0.00    -0.356 N 
ATOM     41  H   UNL A   1      44.897  32.129  36.019  1.00  0.00     0.163 HD
BRANCH  40  42
ATOM     42  C   UNL A   1      45.617  33.721  34.917  1.00  0.00     0.116 C 
BRANCH  42  43
ATOM     43  C   UNL A   1      45.810  32.996  33.579  1.00  0.00     0.021 C 
BRANCH  43  44
ATOM     44  C   UNL A   1      45.497  33.851  32.350  1.00  0.00     0.002 C 
BRANCH  44  45
ATOM     45  C   UNL A   1      46.630  33.960  31.319  1.00  0.00     0.002 C 
BRANCH  45  46
ATOM     46  C   UNL A   1      47.257  35.351  31.132  1.00  0.00     0.021 C 
BRANCH  46  47
ATOM     47  C   UNL A   1      47.605  35.674  29.687  1.00  0.00     0.116 C 
BRANCH  47  48
ATOM     48  N   UNL A   1      46.996  36.929  29.239  1.00  0.00    -0.352 N 
ATOM     49  C   UNL A   1      45.733  37.153  28.723  1.00  0.00     0.251 C 
ATOM     50  H   UNL A   1      47.567  37.727  29.316  1.00  0.00     0.163 HD
ATOM     51  O   UNL A   1      45.502  38.164  28.068  1.00  0.00    -0.269 OA
BRANCH  49  52
ATOM     52  C   UNL A   1      44.673  36.165  28.984  1.00  0.00     0.039 A 
ATOM     53  C   UNL A   1      44.404  35.103  28.111  1.00  0.00     0.014 A 
ATOM     54  C   UNL A   1      43.934  36.325  30.150  1.00  0.00     0.014 A 
ATOM     55  C   UNL A   1      43.424  34.177  28.465  1.00  0.00     0.010 A 
ATOM     56  C   UNL A   1      43.134  35.314  30.593  1.00  0.00     0.010 A 
ATOM     57  C   UNL A   1      42.799  34.294  29.715  1.00  0.00    -0.014 A 
BRANCH  57  58
ATOM     58  C   UNL A   1      41.840  33.323  30.217  1.00  0.00     0.031 A 
ATOM     59  C   UNL A   1      40.514  33.900  30.539  1.00  0.00     0.074 A 
ATOM     60  C   UNL A   1      42.057  31.995  30.089  1.00  0.00     0.049 A 
ATOM     61  N   UNL A   1      40.002  34.066  31.710  1.00  0.00    -0.248 NA
ATOM     62  C   UNL A   1      39.743  34.550  29.464  1.00  0.00     0.031 C 
ATOM     63  C   UNL A   1      43.219  31.322  29.492  1.00  0.00     0.029 A 
ATOM     64  N   UNL A   1      41.215  30.957  30.332  1.00  0.00    -0.354 N 
ATOM     65  C   UNL A   1      38.727  34.575  31.497  1.00  0.00     0.074 A 
ATOM     66  C   UNL A   1      38.742  35.097  30.158  1.00  0.00     0.031 C 
ATOM     67  C   UNL A   1      42.901  30.042  29.200  1.00  0.00     0.029 A 
ATOM     68  C   UNL A   1      41.574  29.758  29.718  1.00  0.00     0.049 A 
ATOM     69  H   UNL A   1      40.414  31.046  30.896  1.00  0.00     0.167 HD
ATOM     70  C   UNL A   1      37.700  34.258  32.335  1.00  0.00     0.034 A 
ATOM     71  C   UNL A   1      40.820  28.627  29.611  1.00  0.00     0.034 A 
ATOM     72  C   UNL A   1      38.209  33.601  33.526  1.00  0.00     0.049 A 
ATOM     73  C   UNL A   1      39.799  28.710  30.692  1.00  0.00     0.074 A 
ATOM     74  C   UNL A   1      39.124  33.948  34.501  1.00  0.00     0.029 A 
ATOM     75  N   UNL A   1      38.086  32.228  33.606  1.00  0.00    -0.354 N 
ATOM     76  N   UNL A   1      40.111  28.689  31.960  1.00  0.00    -0.248 NA
ATOM     77  C   UNL A   1      38.527  29.354  30.387  1.00  0.00     0.031 C 
ATOM     78  C   UNL A   1      39.872  32.757  34.737  1.00  0.00     0.029 A 
ATOM     79  C   UNL A   1      39.303  31.722  33.990  1.00  0.00     0.049 A 
ATOM     80  H   UNL A   1      37.272  31.706  33.420  1.00  0.00     0.167 HD
ATOM     81  C   UNL A   1      39.345  29.694  32.536  1.00  0.00     0.074 A 
ATOM     82  C   UNL A   1      38.309  29.991  31.545  1.00  0.00     0.031 C 
ATOM     83  C   UNL A   1      39.801  30.409  33.611  1.00  0.00     0.034 A 
BRANCH  70  84
ATOM     84  C   UNL A   1      36.238  34.160  31.950  1.00  0.00     0.023 A 
ATOM     85  C   UNL A   1      35.954  33.465  30.758  1.00  0.00     0.031 A 
ATOM     86  C   UNL A   1      35.169  34.913  32.485  1.00  0.00     0.131 A 
ATOM     87  C   UNL A   1      34.740  33.651  30.080  1.00  0.00     0.055 A 
ATOM     88  C   UNL A   1      33.929  35.029  31.847  1.00  0.00     0.041 A 
ATOM     89  F   UNL A   1      35.275  35.652  33.593  1.00  0.00    -0.206 F 
ATOM     90  C   UNL A   1      33.722  34.432  30.616  1.00  0.00     0.022 A 
BRANCH  87  91
ATOM     91  S   UNL A   1      34.611  33.026  28.387  1.00  0.00     0.124 S 
ATOM     92  O   UNL A   1      33.412  33.713  27.917  1.00  0.00    -0.237 OA
ATOM     93  O   UNL A   1      35.875  33.466  27.807  1.00  0.00    -0.237 OA
ATOM     94  O   UNL A   1      34.472  31.583  28.569  1.00  0.00    -0.744 OA
ENDBRANCH  87  91
ENDBRANCH  70  84
BRANCH  71  95
ATOM     95  C   UNL A   1      40.773  27.662  28.469  1.00  0.00     0.023 A 
ATOM     96  C   UNL A   1      41.720  27.642  27.418  1.00  0.00     0.031 A 
ATOM     97  C   UNL A   1      39.881  26.564  28.522  1.00  0.00     0.131 A 
ATOM     98  C   UNL A   1      41.740  26.570  26.486  1.00  0.00     0.055 A 
ATOM     99  C   UNL A   1      39.901  25.516  27.597  1.00  0.00     0.041 A 
ATOM    100  F   UNL A   1      39.006  26.425  29.530  1.00  0.00    -0.206 F 
ATOM    101  C   UNL A   1      40.838  25.509  26.580  1.00  0.00     0.022 A 
BRANCH  98 102
ATOM    102  S   UNL A   1      43.011  26.479  25.177  1.00  0.00     0.124 S 
ATOM    103  O   UNL A   1      44.250  26.611  25.935  1.00  0.00    -0.237 OA
ATOM    104  O   UNL A   1      42.750  25.177  24.575  1.00  0.00    -0.237 OA
ATOM    105  O   UNL A   1      42.696  27.620  24.316  1.00  0.00    -0.744 OA
ENDBRANCH  98 102
ENDBRANCH  71  95
BRANCH  83 106
ATOM    106  C   UNL A   1      41.046  29.924  34.333  1.00  0.00     0.023 A 
ATOM    107  C   UNL A   1      41.120  28.755  35.127  1.00  0.00     0.031 A 
ATOM    108  C   UNL A   1      42.248  30.608  34.076  1.00  0.00     0.131 A 
ATOM    109  C   UNL A   1      42.361  28.321  35.636  1.00  0.00     0.055 A 
ATOM    110  C   UNL A   1      43.478  30.160  34.559  1.00  0.00     0.041 A 
ATOM    111  F   UNL A   1      42.253  31.708  33.305  1.00  0.00    -0.206 F 
ATOM    112  C   UNL A   1      43.538  29.018  35.346  1.00  0.00     0.022 A 
BRANCH 109 113
ATOM    113  S   UNL A   1      42.466  26.845  36.703  1.00  0.00     0.124 S 
ATOM    114  O   UNL A   1      43.323  27.279  37.800  1.00  0.00    -0.237 OA
ATOM    115  O   UNL A   1      41.067  26.598  37.043  1.00  0.00    -0.237 OA
ATOM    116  O   UNL A   1      43.064  25.836  35.827  1.00  0.00    -0.744 OA
ENDBRANCH 109 113
ENDBRANCH  83 106
ENDBRANCH  57  58
ENDBRANCH  49  52
ENDBRANCH  47  48
ENDBRANCH  46  47
ENDBRANCH  45  46
ENDBRANCH  44  45
ENDBRANCH  43  44
ENDBRANCH  42  43
ENDBRANCH  40  42
ENDBRANCH  37  38
ENDBRANCH   1  37
TORSDOF 31
ENDMDL
MODEL 3
REMARK VINA RESULT:      -5.7      4.763     10.497
REMARK SMILES NS(=O)(=O)c1ccc(-n2nc(C(=O)NCCCCCCCCCCC(=O)NCCCCCCNC(=O)c3ccc(-c4c5nc(c(-c6cc(S(=O)(=O)[O-])ccc6F)c6ccc([nH]6)c(-c6cc(S(=O)(=O)[O-])ccc6F)c6nc(c(-c7cc(S(=O)(=O)[O-])ccc7F)c7ccc4[nH]7)C=C6)C=C5)cc3)cc2-c2ccccc2)cc1
REMARK SMILES IDX 23 1 22 2 21 3 20 4 19 5 18 6 17 7 16 8 15 9 14 10 12 11
REMARK SMILES IDX 13 12 11 14 9 15 10 16 101 17 100 18 8 19 5 20 6 21 109 22
REMARK SMILES IDX 7 23 108 24 2 25 3 26 4 27 1 28 102 31 103 32 107 33 104 34
REMARK SMILES IDX 106 35 105 36 24 37 25 38 26 39 27 40 28 42 29 43 30 44
REMARK SMILES IDX 31 45 32 46 33 47 34 48 35 49 36 51 37 52 38 53 99 54 39 55
REMARK SMILES IDX 98 56 40 57 41 58 42 59 92 60 43 61 97 62 91 63 93 64 44 65
REMARK SMILES IDX 96 66 90 67 89 68 45 70 77 71 57 72 76 73 58 74 61 75 75 76
REMARK SMILES IDX 94 77 59 78 60 79 74 81 95 82 62 83 46 84 47 85 55 86 48 87
REMARK SMILES IDX 54 88 56 89 53 90 49 91 50 92 51 93 52 94 78 95 79 96 87 97
REMARK SMILES IDX 80 98 86 99 88 100 85 101 81 102 82 103 83 104 84 105 63 106
REMARK SMILES IDX 64 107 72 108 65 109 71 110 73 111 70 112 66 113 67 114
REMARK SMILES IDX 68 115 69 116
REMARK H PARENT 14 13 1 29 1 30 27 41 34 50 93 69 61 80
REMARK Flexibility Score: inf
ROOT
ATOM      1  C   UNL A   1      43.350  25.812  34.017  1.00  0.00     0.010 C 
ENDROOT
BRANCH   1   2
ATOM      2  C   UNL A   1      42.330  26.421  34.972  1.00  0.00     0.001 C 
BRANCH   2   3
ATOM      3  C   UNL A   1      42.954  27.114  36.191  1.00  0.00     0.000 C 
BRANCH   3   4
ATOM      4  C   UNL A   1      43.271  28.582  35.943  1.00  0.00     0.000 C 
BRANCH   4   5
ATOM      5  C   UNL A   1      44.600  28.788  35.215  1.00  0.00     0.000 C 
BRANCH   5   6
ATOM      6  C   UNL A   1      44.458  29.486  33.854  1.00  0.00     0.000 C 
BRANCH   6   7
ATOM      7  C   UNL A   1      45.188  28.773  32.706  1.00  0.00     0.002 C 
BRANCH   7   8
ATOM      8  C   UNL A   1      44.697  29.189  31.321  1.00  0.00     0.021 C 
BRANCH   8   9
ATOM      9  C   UNL A   1      43.303  29.803  31.376  1.00  0.00     0.116 C 
BRANCH   9  10
ATOM     10  N   UNL A   1      43.244  31.019  30.613  1.00  0.00    -0.351 N 
ATOM     11  C   UNL A   1      42.301  32.012  30.526  1.00  0.00     0.271 C 
ATOM     12  O   UNL A   1      42.477  32.831  29.621  1.00  0.00    -0.267 OA
ATOM     13  H   UNL A   1      44.032  31.169  30.043  1.00  0.00     0.163 HD
BRANCH  11  14
ATOM     14  C   UNL A   1      41.166  32.108  31.469  1.00  0.00     0.151 A 
ATOM     15  N   UNL A   1      39.211  32.723  32.114  1.00  0.00    -0.232 N 
ATOM     16  N   UNL A   1      39.957  32.495  31.014  1.00  0.00    -0.162 NA
ATOM     17  C   UNL A   1      39.810  32.243  33.260  1.00  0.00     0.075 A 
ATOM     18  C   UNL A   1      41.067  31.856  32.858  1.00  0.00     0.065 A 
BRANCH  15  19
ATOM     19  C   UNL A   1      37.931  33.299  32.007  1.00  0.00     0.065 A 
ATOM     20  C   UNL A   1      35.361  34.289  32.140  1.00  0.00     0.082 A 
ATOM     21  C   UNL A   1      36.428  35.117  32.498  1.00  0.00     0.024 A 
ATOM     22  C   UNL A   1      35.574  32.991  31.660  1.00  0.00     0.024 A 
ATOM     23  C   UNL A   1      37.721  34.614  32.441  1.00  0.00     0.030 A 
ATOM     24  C   UNL A   1      36.872  32.502  31.559  1.00  0.00     0.030 A 
BRANCH  20  25
ATOM     25  S   UNL A   1      33.713  34.890  32.304  1.00  0.00     0.238 S 
ATOM     26  O   UNL A   1      33.051  34.860  31.031  1.00  0.00    -0.207 OA
ATOM     27  O   UNL A   1      33.744  36.080  33.137  1.00  0.00    -0.207 OA
BRANCH  25  28
ATOM     28  N   UNL A   1      32.992  33.691  33.225  1.00  0.00    -0.225 NA
ATOM     29  H   UNL A   1      31.984  33.844  33.255  1.00  0.00     0.137 HD
ATOM     30  H   UNL A   1      33.369  33.717  34.172  1.00  0.00     0.137 HD
ENDBRANCH  25  28
ENDBRANCH  20  25
ENDBRANCH  15  19
BRANCH  17  31
ATOM     31  C   UNL A   1      39.215  32.063  34.581  1.00  0.00     0.000 A 
ATOM     32  C   UNL A   1      38.715  30.818  34.981  1.00  0.00     0.010 A 
ATOM     33  C   UNL A   1      39.232  33.122  35.498  1.00  0.00     0.010 A 
ATOM     34  C   UNL A   1      38.223  30.640  36.274  1.00  0.00     0.001 A 
ATOM     35  C   UNL A   1      38.745  32.941  36.792  1.00  0.00     0.001 A 
ATOM     36  C   UNL A   1      38.241  31.700  37.179  1.00  0.00     0.000 A 
ENDBRANCH  17  31
ENDBRANCH  11  14
ENDBRANCH   9  10
ENDBRANCH   8   9
ENDBRANCH   7   8
ENDBRANCH   6   7
ENDBRANCH   5   6
ENDBRANCH   4   5
ENDBRANCH   3   4
ENDBRANCH   2   3
ENDBRANCH   1   2
BRANCH   1  37
ATOM     37  C   UNL A   1      44.093  24.579  34.532  1.00  0.00     0.100 C 
BRANCH  37  38
ATOM     38  C   UNL A   1      45.603  24.695  34.511  1.00  0.00     0.219 C 
ATOM     39  O   UNL A   1      46.146  25.797  34.615  1.00  0.00    -0.275 OA
ATOM     40  N   UNL A   1      46.397  23.593  34.420  1.00  0.00    -0.356 N 
ATOM     41  H   UNL A   1      47.363  23.780  34.435  1.00  0.00     0.163 HD
BRANCH  40  42
ATOM     42  C   UNL A   1      46.054  22.188  34.307  1.00  0.00     0.116 C 
BRANCH  42  43
ATOM     43  C   UNL A   1      46.956  21.315  35.188  1.00  0.00     0.021 C 
BRANCH  43  44
ATOM     44  C   UNL A   1      48.256  20.873  34.514  1.00  0.00     0.002 C 
BRANCH  44  45
ATOM     45  C   UNL A   1      49.505  21.678  34.903  1.00  0.00     0.002 C 
BRANCH  45  46
ATOM     46  C   UNL A   1      49.354  22.656  36.078  1.00  0.00     0.021 C 
BRANCH  46  47
ATOM     47  C   UNL A   1      49.396  24.119  35.663  1.00  0.00     0.116 C 
BRANCH  47  48
ATOM     48  N   UNL A   1      50.764  24.643  35.623  1.00  0.00    -0.352 N 
ATOM     49  C   UNL A   1      51.509  25.059  34.536  1.00  0.00     0.251 C 
ATOM     50  H   UNL A   1      51.217  24.709  36.495  1.00  0.00     0.163 HD
ATOM     51  O   UNL A   1      52.731  25.125  34.612  1.00  0.00    -0.269 OA
BRANCH  49  52
ATOM     52  C   UNL A   1      50.809  25.432  33.295  1.00  0.00     0.039 A 
ATOM     53  C   UNL A   1      50.831  24.627  32.149  1.00  0.00     0.014 A 
ATOM     54  C   UNL A   1      50.112  26.634  33.301  1.00  0.00     0.014 A 
ATOM     55  C   UNL A   1      50.090  25.025  31.037  1.00  0.00     0.010 A 
ATOM     56  C   UNL A   1      49.228  26.912  32.301  1.00  0.00     0.010 A 
ATOM     57  C   UNL A   1      49.288  26.171  31.131  1.00  0.00    -0.014 A 
BRANCH  57  58
ATOM     58  C   UNL A   1      48.403  26.610  30.064  1.00  0.00     0.031 A 
ATOM     59  C   UNL A   1      47.139  25.842  29.977  1.00  0.00     0.074 A 
ATOM     60  C   UNL A   1      48.592  27.796  29.443  1.00  0.00     0.049 A 
ATOM     61  N   UNL A   1      46.798  25.009  29.055  1.00  0.00    -0.248 NA
ATOM     62  C   UNL A   1      46.228  25.842  31.136  1.00  0.00     0.031 C 
ATOM     63  C   UNL A   1      49.654  28.783  29.681  1.00  0.00     0.029 A 
ATOM     64  N   UNL A   1      47.786  28.445  28.563  1.00  0.00    -0.354 N 
ATOM     65  C   UNL A   1      45.508  24.600  29.374  1.00  0.00     0.074 A 
ATOM     66  C   UNL A   1      45.339  24.918  30.764  1.00  0.00     0.031 C 
ATOM     67  C   UNL A   1      49.291  29.976  29.161  1.00  0.00     0.029 A 
ATOM     68  C   UNL A   1      48.048  29.809  28.427  1.00  0.00     0.049 A 
ATOM     69  H   UNL A   1      47.073  27.990  28.061  1.00  0.00     0.167 HD
ATOM     70  C   UNL A   1      44.608  24.307  28.394  1.00  0.00     0.034 A 
ATOM     71  C   UNL A   1      47.279  30.737  27.791  1.00  0.00     0.034 A 
ATOM     72  C   UNL A   1      45.275  24.226  27.107  1.00  0.00     0.049 A 
ATOM     73  C   UNL A   1      46.421  29.980  26.839  1.00  0.00     0.074 A 
ATOM     74  C   UNL A   1      46.321  23.472  26.608  1.00  0.00     0.029 A 
ATOM     75  N   UNL A   1      45.156  25.304  26.251  1.00  0.00    -0.354 N 
ATOM     76  N   UNL A   1      46.908  29.314  25.826  1.00  0.00    -0.248 NA
ATOM     77  C   UNL A   1      45.123  29.511  27.309  1.00  0.00     0.031 C 
ATOM     78  C   UNL A   1      47.087  24.387  25.827  1.00  0.00     0.029 A 
ATOM     79  C   UNL A   1      46.413  25.610  25.789  1.00  0.00     0.049 A 
ATOM     80  H   UNL A   1      44.321  25.770  26.017  1.00  0.00     0.167 HD
ATOM     81  C   UNL A   1      46.238  28.099  25.836  1.00  0.00     0.074 A 
ATOM     82  C   UNL A   1      45.074  28.320  26.698  1.00  0.00     0.031 C 
ATOM     83  C   UNL A   1      46.845  26.947  25.414  1.00  0.00     0.034 A 
BRANCH  70  84
ATOM     84  C   UNL A   1      43.106  24.479  28.488  1.00  0.00     0.023 A 
ATOM     85  C   UNL A   1      42.327  23.383  28.067  1.00  0.00     0.031 A 
ATOM     86  C   UNL A   1      42.401  25.688  28.679  1.00  0.00     0.131 A 
ATOM     87  C   UNL A   1      40.979  23.543  27.711  1.00  0.00     0.055 A 
ATOM     88  C   UNL A   1      41.036  25.823  28.402  1.00  0.00     0.041 A 
ATOM     89  F   UNL A   1      42.990  26.829  29.049  1.00  0.00    -0.206 F 
ATOM     90  C   UNL A   1      40.326  24.759  27.873  1.00  0.00     0.022 A 
BRANCH  87  91
ATOM     91  S   UNL A   1      40.169  22.186  26.830  1.00  0.00     0.124 S 
ATOM     92  O   UNL A   1      41.019  22.061  25.650  1.00  0.00    -0.237 OA
ATOM     93  O   UNL A   1      40.254  21.103  27.803  1.00  0.00    -0.237 OA
ATOM     94  O   UNL A   1      38.825  22.700  26.579  1.00  0.00    -0.744 OA
ENDBRANCH  87  91
ENDBRANCH  70  84
BRANCH  71  95
ATOM     95  C   UNL A   1      47.067  32.168  28.174  1.00  0.00     0.023 A 
ATOM     96  C   UNL A   1      47.074  33.238  27.248  1.00  0.00     0.031 A 
ATOM     97  C   UNL A   1      46.622  32.479  29.481  1.00  0.00     0.131 A 
ATOM     98  C   UNL A   1      46.656  34.537  27.646  1.00  0.00     0.055 A 
ATOM     99  C   UNL A   1      46.218  33.761  29.868  1.00  0.00     0.041 A 
ATOM    100  F   UNL A   1      46.479  31.526  30.414  1.00  0.00    -0.206 F 
ATOM    101  C   UNL A   1      46.224  34.794  28.949  1.00  0.00     0.022 A 
BRANCH  98 102
ATOM    102  S   UNL A   1      46.570  35.911  26.445  1.00  0.00     0.124 S 
ATOM    103  O   UNL A   1      47.732  36.714  26.807  1.00  0.00    -0.237 OA
ATOM    104  O   UNL A   1      46.631  35.215  25.165  1.00  0.00    -0.237 OA
ATOM    105  O   UNL A   1      45.278  36.537  26.734  1.00  0.00    -0.744 OA
ENDBRANCH  98 102
ENDBRANCH  71  95
BRANCH  83 106
ATOM    106  C   UNL A   1      48.176  27.048  24.690  1.00  0.00     0.023 A 
ATOM    107  C   UNL A   1      48.329  27.304  23.306  1.00  0.00     0.031 A 
ATOM    108  C   UNL A   1      49.341  27.032  25.477  1.00  0.00     0.131 A 
ATOM    109  C   UNL A   1      49.612  27.519  22.763  1.00  0.00     0.055 A 
ATOM    110  C   UNL A   1      50.606  27.272  24.941  1.00  0.00     0.041 A 
ATOM    111  F   UNL A   1      49.263  26.825  26.802  1.00  0.00    -0.206 F 
ATOM    112  C   UNL A   1      50.747  27.511  23.580  1.00  0.00     0.022 A 
BRANCH 109 113
ATOM    113  S   UNL A   1      49.833  27.799  20.974  1.00  0.00     0.124 S 
ATOM    114  O   UNL A   1      50.818  26.795  20.592  1.00  0.00    -0.237 OA
ATOM    115  O   UNL A   1      48.483  27.602  20.452  1.00  0.00    -0.237 OA
ATOM    116  O   UNL A   1      50.314  29.180  20.905  1.00  0.00    -0.744 OA
ENDBRANCH 109 113
ENDBRANCH  83 106
ENDBRANCH  57  58
ENDBRANCH  49  52
ENDBRANCH  47  48
ENDBRANCH  46  47
ENDBRANCH  45  46
ENDBRANCH  44  45
ENDBRANCH  43  44
ENDBRANCH  42  43
ENDBRANCH  40  42
ENDBRANCH  37  38
ENDBRANCH   1  37
TORSDOF 31
ENDMDL
