MODEL 1
REMARK VINA RESULT:     -12.3      0.000      0.000
REMARK SMILES Cc1c(Cl)cccc1NC(=O)C[C@](C)(C(=O)NCCCCCCNC(=O)c1ccc(-c2c3nc(c(-c4cc(S(=O)(=O)[O-])ccc4F)c4ccc([nH]4)c(-c4cc(S(=O)(=O)[O-])ccc4F)c4nc(c(-c5cc(S(=O)(=O)[O-])ccc5F)c5ccc2[nH]5)C=C4)C=C3)cc1)c1ccccc1
REMARK SMILES IDX 20 1 19 2 18 3 17 4 15 5 16 6 13 8 14 9 12 10 10 11 9 12
REMARK SMILES IDX 11 14 8 15 1 16 2 17 3 18 4 19 5 20 7 21 6 22 90 23 91 24
REMARK SMILES IDX 95 25 92 26 94 27 93 28 21 29 22 30 23 31 24 32 25 33 26 35
REMARK SMILES IDX 27 36 28 37 89 38 29 39 88 40 30 41 31 42 32 43 82 44 33 45
REMARK SMILES IDX 87 46 81 47 83 48 34 49 86 50 80 51 79 52 35 54 67 55 47 56
REMARK SMILES IDX 66 57 48 58 51 59 65 60 84 61 49 62 50 63 64 65 85 66 52 67
REMARK SMILES IDX 36 68 37 69 45 70 38 71 44 72 46 73 43 74 39 75 40 76 41 77
REMARK SMILES IDX 42 78 68 79 69 80 77 81 70 82 76 83 78 84 75 85 71 86 72 87
REMARK SMILES IDX 73 88 74 89 53 90 54 91 62 92 55 93 61 94 63 95 60 96 56 97
REMARK SMILES IDX 57 98 58 99 59 100
REMARK H PARENT 17 7 9 13 24 34 83 53 51 64
REMARK Flexibility Score: inf
ROOT
ATOM      1  C   UNL A   1      39.280  22.051  26.132  1.00  0.00     0.002 C 
ENDROOT
BRANCH   1   2
ATOM      2  C   UNL A   1      38.923  23.497  26.488  1.00  0.00     0.021 C 
BRANCH   2   3
ATOM      3  C   UNL A   1      37.296  23.880  26.176  1.00  0.00     0.116 C 
BRANCH   3   4
ATOM      4  N   UNL A   1      35.704  22.739  25.448  1.00  0.00    -0.355 N 
ATOM      5  C   UNL A   1      34.370  22.542  24.996  1.00  0.00     0.230 C 
ATOM      6  O   UNL A   1      34.239  21.344  24.677  1.00  0.00    -0.274 OA
ATOM      7  H   UNL A   1      36.093  21.837  25.382  1.00  0.00     0.163 HD
BRANCH   5   8
ATOM      8  C   UNL A   1      33.101  23.539  24.913  1.00  0.00     0.080 C 
ATOM      9  C   UNL A   1      31.899  22.729  24.294  1.00  0.00     0.027 C 
BRANCH   8  10
ATOM     10  C   UNL A   1      32.701  24.270  26.243  1.00  0.00     0.121 C 
BRANCH  10  11
ATOM     11  C   UNL A   1      31.251  24.280  26.685  1.00  0.00     0.225 C 
ATOM     12  N   UNL A   1      30.487  25.401  26.539  1.00  0.00    -0.326 N 
ATOM     13  H   UNL A   1      29.729  25.538  27.151  1.00  0.00     0.169 HD
ATOM     14  O   UNL A   1      30.742  23.296  27.225  1.00  0.00    -0.275 OA
BRANCH  12  15
ATOM     15  C   UNL A   1      30.733  26.361  25.559  1.00  0.00     0.045 A 
ATOM     16  C   UNL A   1      32.462  27.837  27.325  1.00  0.00     0.048 C 
ATOM     17  C   UNL A   1      31.447  27.895  26.216  1.00  0.00    -0.009 A 
ATOM     18  C   UNL A   1      31.264  29.423  25.287  1.00  0.00     0.046 A 
ATOM     19  Cl  UNL A   1      31.910  30.897  25.902  1.00  0.00    -0.084 Cl
ATOM     20  C   UNL A   1      30.274  29.470  23.780  1.00  0.00     0.021 A 
ATOM     21  C   UNL A   1      29.830  26.356  23.965  1.00  0.00     0.026 A 
ATOM     22  C   UNL A   1      29.599  27.933  23.082  1.00  0.00     0.004 A 
ENDBRANCH  12  15
ENDBRANCH  10  11
ENDBRANCH   8  10
BRANCH   8  23
ATOM     23  C   UNL A   1      33.235  24.719  23.864  1.00  0.00    -0.032 A 
ATOM     24  C   UNL A   1      33.848  25.932  24.292  1.00  0.00     0.005 A 
ATOM     25  C   UNL A   1      32.773  24.684  22.547  1.00  0.00     0.005 A 
ATOM     26  C   UNL A   1      33.851  27.083  23.510  1.00  0.00     0.000 A 
ATOM     27  C   UNL A   1      32.786  25.840  21.753  1.00  0.00     0.000 A 
ATOM     28  C   UNL A   1      33.297  27.041  22.242  1.00  0.00     0.000 A 
ENDBRANCH   8  23
ENDBRANCH   5   8
ENDBRANCH   3   4
ENDBRANCH   2   3
ENDBRANCH   1   2
BRANCH   1  29
ATOM     29  C   UNL A   1      40.452  21.482  26.951  1.00  0.00     0.002 C 
BRANCH  29  30
ATOM     30  C   UNL A   1      40.873  20.091  26.474  1.00  0.00     0.021 C 
BRANCH  30  31
ATOM     31  C   UNL A   1      42.286  19.772  26.925  1.00  0.00     0.116 C 
BRANCH  31  32
ATOM     32  N   UNL A   1      43.061  19.220  25.810  1.00  0.00    -0.352 N 
ATOM     33  C   UNL A   1      43.799  19.888  24.883  1.00  0.00     0.251 C 
ATOM     34  H   UNL A   1      43.044  18.240  25.720  1.00  0.00     0.163 HD
ATOM     35  O   UNL A   1      44.176  19.363  23.848  1.00  0.00    -0.269 OA
BRANCH  33  36
ATOM     36  C   UNL A   1      44.111  21.265  25.237  1.00  0.00     0.039 A 
ATOM     37  C   UNL A   1      43.398  22.294  24.639  1.00  0.00     0.014 A 
ATOM     38  C   UNL A   1      44.961  21.463  26.332  1.00  0.00     0.014 A 
ATOM     39  C   UNL A   1      43.554  23.568  25.153  1.00  0.00     0.010 A 
ATOM     40  C   UNL A   1      44.991  22.700  26.929  1.00  0.00     0.010 A 
ATOM     41  C   UNL A   1      44.338  23.769  26.305  1.00  0.00    -0.014 A 
BRANCH  41  42
ATOM     42  C   UNL A   1      44.577  25.128  26.812  1.00  0.00     0.031 A 
ATOM     43  C   UNL A   1      45.957  25.705  26.688  1.00  0.00     0.074 A 
ATOM     44  C   UNL A   1      43.559  25.810  27.364  1.00  0.00     0.049 A 
ATOM     45  N   UNL A   1      46.390  26.881  27.051  1.00  0.00    -0.248 NA
ATOM     46  C   UNL A   1      47.000  24.831  26.119  1.00  0.00     0.031 C 
ATOM     47  C   UNL A   1      42.200  25.295  27.557  1.00  0.00     0.029 A 
ATOM     48  N   UNL A   1      43.503  27.089  27.837  1.00  0.00    -0.354 N 
ATOM     49  C   UNL A   1      47.748  26.880  26.757  1.00  0.00     0.074 A 
ATOM     50  C   UNL A   1      48.089  25.555  26.296  1.00  0.00     0.031 C 
ATOM     51  C   UNL A   1      41.427  26.278  28.045  1.00  0.00     0.029 A 
ATOM     52  C   UNL A   1      42.249  27.465  28.252  1.00  0.00     0.049 A 
ATOM     53  H   UNL A   1      44.285  27.685  27.877  1.00  0.00     0.167 HD
ATOM     54  C   UNL A   1      48.620  27.911  26.822  1.00  0.00     0.034 A 
ATOM     55  C   UNL A   1      41.822  28.643  28.742  1.00  0.00     0.034 A 
ATOM     56  C   UNL A   1      48.239  29.220  27.275  1.00  0.00     0.049 A 
ATOM     57  C   UNL A   1      42.823  29.765  28.849  1.00  0.00     0.074 A 
ATOM     58  C   UNL A   1      49.014  30.360  27.366  1.00  0.00     0.029 A 
ATOM     59  N   UNL A   1      46.968  29.561  27.725  1.00  0.00    -0.354 N 
ATOM     60  N   UNL A   1      44.098  29.770  28.527  1.00  0.00    -0.248 NA
ATOM     61  C   UNL A   1      42.326  31.040  29.371  1.00  0.00     0.031 C 
ATOM     62  C   UNL A   1      48.239  31.363  27.954  1.00  0.00     0.029 A 
ATOM     63  C   UNL A   1      46.948  30.884  28.132  1.00  0.00     0.049 A 
ATOM     64  H   UNL A   1      46.196  28.951  27.751  1.00  0.00     0.167 HD
ATOM     65  C   UNL A   1      44.547  31.064  28.775  1.00  0.00     0.074 A 
ATOM     66  C   UNL A   1      43.398  31.809  29.255  1.00  0.00     0.031 C 
ATOM     67  C   UNL A   1      45.787  31.595  28.616  1.00  0.00     0.034 A 
BRANCH  54  68
ATOM     68  C   UNL A   1      50.050  27.633  26.426  1.00  0.00     0.023 A 
ATOM     69  C   UNL A   1      51.049  27.373  27.383  1.00  0.00     0.031 A 
ATOM     70  C   UNL A   1      50.434  27.691  25.075  1.00  0.00     0.131 A 
ATOM     71  C   UNL A   1      52.390  27.274  26.985  1.00  0.00     0.055 A 
ATOM     72  C   UNL A   1      51.757  27.489  24.678  1.00  0.00     0.041 A 
ATOM     73  F   UNL A   1      49.535  27.973  24.119  1.00  0.00    -0.206 F 
ATOM     74  C   UNL A   1      52.747  27.296  25.636  1.00  0.00     0.022 A 
BRANCH  71  75
ATOM     75  S   UNL A   1      53.675  27.298  28.267  1.00  0.00     0.124 S 
ATOM     76  O   UNL A   1      53.050  26.503  29.323  1.00  0.00    -0.237 OA
ATOM     77  O   UNL A   1      54.809  26.683  27.590  1.00  0.00    -0.237 OA
ATOM     78  O   UNL A   1      53.825  28.719  28.574  1.00  0.00    -0.744 OA
ENDBRANCH  71  75
ENDBRANCH  54  68
BRANCH  55  79
ATOM     79  C   UNL A   1      40.402  28.820  29.154  1.00  0.00     0.023 A 
ATOM     80  C   UNL A   1      40.026  28.762  30.505  1.00  0.00     0.031 A 
ATOM     81  C   UNL A   1      39.390  29.015  28.197  1.00  0.00     0.131 A 
ATOM     82  C   UNL A   1      38.670  28.839  30.857  1.00  0.00     0.055 A 
ATOM     83  C   UNL A   1      38.050  29.158  28.557  1.00  0.00     0.041 A 
ATOM     84  F   UNL A   1      39.694  29.084  26.891  1.00  0.00    -0.206 F 
ATOM     85  C   UNL A   1      37.681  29.054  29.894  1.00  0.00     0.022 A 
BRANCH  82  86
ATOM     86  S   UNL A   1      38.207  28.544  32.584  1.00  0.00     0.124 S 
ATOM     87  O   UNL A   1      36.867  29.116  32.632  1.00  0.00    -0.237 OA
ATOM     88  O   UNL A   1      38.287  27.090  32.675  1.00  0.00    -0.237 OA
ATOM     89  O   UNL A   1      39.225  29.272  33.337  1.00  0.00    -0.744 OA
ENDBRANCH  82  86
ENDBRANCH  55  79
BRANCH  67  90
ATOM     90  C   UNL A   1      45.943  33.065  28.917  1.00  0.00     0.023 A 
ATOM     91  C   UNL A   1      45.841  34.042  27.914  1.00  0.00     0.031 A 
ATOM     92  C   UNL A   1      46.209  33.490  30.232  1.00  0.00     0.131 A 
ATOM     93  C   UNL A   1      46.083  35.386  28.227  1.00  0.00     0.055 A 
ATOM     94  C   UNL A   1      46.360  34.837  30.552  1.00  0.00     0.041 A 
ATOM     95  F   UNL A   1      46.319  32.598  31.230  1.00  0.00    -0.206 F 
ATOM     96  C   UNL A   1      46.317  35.793  29.543  1.00  0.00     0.022 A 
BRANCH  93  97
ATOM     97  S   UNL A   1      46.224  36.577  26.867  1.00  0.00     0.124 S 
ATOM     98  O   UNL A   1      44.999  37.354  27.018  1.00  0.00    -0.237 OA
ATOM     99  O   UNL A   1      47.464  37.275  27.190  1.00  0.00    -0.237 OA
ATOM    100  O   UNL A   1      46.281  35.731  25.676  1.00  0.00    -0.744 OA
ENDBRANCH  93  97
ENDBRANCH  67  90
ENDBRANCH  41  42
ENDBRANCH  33  36
ENDBRANCH  31  32
ENDBRANCH  30  31
ENDBRANCH  29  30
ENDBRANCH   1  29
TORSDOF 20
ENDMDL
MODEL 2
REMARK VINA RESULT:     -12.3      1.895      2.176
REMARK SMILES Cc1c(Cl)cccc1NC(=O)C[C@](C)(C(=O)NCCCCCCNC(=O)c1ccc(-c2c3nc(c(-c4cc(S(=O)(=O)[O-])ccc4F)c4ccc([nH]4)c(-c4cc(S(=O)(=O)[O-])ccc4F)c4nc(c(-c5cc(S(=O)(=O)[O-])ccc5F)c5ccc2[nH]5)C=C4)C=C3)cc1)c1ccccc1
REMARK SMILES IDX 20 1 19 2 18 3 17 4 15 5 16 6 13 8 14 9 12 10 10 11 9 12
REMARK SMILES IDX 11 14 8 15 1 16 2 17 3 18 4 19 5 20 7 21 6 22 90 23 91 24
REMARK SMILES IDX 95 25 92 26 94 27 93 28 21 29 22 30 23 31 24 32 25 33 26 35
REMARK SMILES IDX 27 36 28 37 89 38 29 39 88 40 30 41 31 42 32 43 82 44 33 45
REMARK SMILES IDX 87 46 81 47 83 48 34 49 86 50 80 51 79 52 35 54 67 55 47 56
REMARK SMILES IDX 66 57 48 58 51 59 65 60 84 61 49 62 50 63 64 65 85 66 52 67
REMARK SMILES IDX 36 68 37 69 45 70 38 71 44 72 46 73 43 74 39 75 40 76 41 77
REMARK SMILES IDX 42 78 68 79 69 80 77 81 70 82 76 83 78 84 75 85 71 86 72 87
REMARK SMILES IDX 73 88 74 89 53 90 54 91 62 92 55 93 61 94 63 95 60 96 56 97
REMARK SMILES IDX 57 98 58 99 59 100
REMARK H PARENT 17 7 9 13 24 34 83 53 51 64
REMARK Flexibility Score: inf
ROOT
ATOM      1  C   UNL A   1      39.880  23.032  26.489  1.00  0.00     0.002 C 
ENDROOT
BRANCH   1   2
ATOM      2  C   UNL A   1      38.744  23.983  26.880  1.00  0.00     0.021 C 
BRANCH   2   3
ATOM      3  C   UNL A   1      37.307  23.699  26.019  1.00  0.00     0.116 C 
BRANCH   3   4
ATOM      4  N   UNL A   1      35.589  22.604  26.486  1.00  0.00    -0.355 N 
ATOM      5  C   UNL A   1      34.191  22.342  26.465  1.00  0.00     0.230 C 
ATOM      6  O   UNL A   1      33.984  21.278  27.081  1.00  0.00    -0.274 OA
ATOM      7  H   UNL A   1      35.945  21.853  27.013  1.00  0.00     0.163 HD
BRANCH   5   8
ATOM      8  C   UNL A   1      32.945  23.184  25.874  1.00  0.00     0.080 C 
ATOM      9  C   UNL A   1      31.979  22.165  25.157  1.00  0.00     0.027 C 
BRANCH   8  10
ATOM     10  C   UNL A   1      32.185  24.108  26.889  1.00  0.00     0.121 C 
BRANCH  10  11
ATOM     11  C   UNL A   1      30.669  24.146  26.877  1.00  0.00     0.225 C 
ATOM     12  N   UNL A   1      30.004  25.244  26.412  1.00  0.00    -0.326 N 
ATOM     13  H   UNL A   1      29.101  25.428  26.756  1.00  0.00     0.169 HD
ATOM     14  O   UNL A   1      30.004  23.210  27.325  1.00  0.00    -0.275 OA
BRANCH  12  15
ATOM     15  C   UNL A   1      30.549  26.115  25.470  1.00  0.00     0.045 A 
ATOM     16  C   UNL A   1      31.841  27.659  27.527  1.00  0.00     0.048 C 
ATOM     17  C   UNL A   1      31.153  27.667  26.189  1.00  0.00    -0.009 A 
ATOM     18  C   UNL A   1      31.302  29.124  25.146  1.00  0.00     0.046 A 
ATOM     19  Cl  UNL A   1      31.849  30.616  25.811  1.00  0.00    -0.084 Cl
ATOM     20  C   UNL A   1      30.740  29.090  23.432  1.00  0.00     0.021 A 
ATOM     21  C   UNL A   1      30.091  26.019  23.699  1.00  0.00     0.026 A 
ATOM     22  C   UNL A   1      30.184  27.529  22.685  1.00  0.00     0.004 A 
ENDBRANCH  12  15
ENDBRANCH  10  11
ENDBRANCH   8  10
BRANCH   8  23
ATOM     23  C   UNL A   1      33.295  24.157  24.673  1.00  0.00    -0.032 A 
ATOM     24  C   UNL A   1      33.832  25.439  24.983  1.00  0.00     0.005 A 
ATOM     25  C   UNL A   1      33.092  23.874  23.320  1.00  0.00     0.005 A 
ATOM     26  C   UNL A   1      34.002  26.429  24.019  1.00  0.00     0.000 A 
ATOM     27  C   UNL A   1      33.274  24.867  22.347  1.00  0.00     0.000 A 
ATOM     28  C   UNL A   1      33.700  26.147  22.698  1.00  0.00     0.000 A 
ENDBRANCH   8  23
ENDBRANCH   5   8
ENDBRANCH   3   4
ENDBRANCH   2   3
ENDBRANCH   1   2
BRANCH   1  29
ATOM     29  C   UNL A   1      40.592  22.388  27.692  1.00  0.00     0.002 C 
BRANCH  29  30
ATOM     30  C   UNL A   1      41.038  20.955  27.402  1.00  0.00     0.021 C 
BRANCH  30  31
ATOM     31  C   UNL A   1      41.091  20.699  25.907  1.00  0.00     0.116 C 
BRANCH  31  32
ATOM     32  N   UNL A   1      42.210  19.809  25.584  1.00  0.00    -0.352 N 
ATOM     33  C   UNL A   1      43.489  20.143  25.267  1.00  0.00     0.251 C 
ATOM     34  H   UNL A   1      42.009  18.846  25.599  1.00  0.00     0.163 HD
ATOM     35  O   UNL A   1      44.262  19.349  24.753  1.00  0.00    -0.269 OA
BRANCH  33  36
ATOM     36  C   UNL A   1      43.859  21.510  25.603  1.00  0.00     0.039 A 
ATOM     37  C   UNL A   1      43.448  22.544  24.774  1.00  0.00     0.014 A 
ATOM     38  C   UNL A   1      44.416  21.724  26.870  1.00  0.00     0.014 A 
ATOM     39  C   UNL A   1      43.614  23.839  25.230  1.00  0.00     0.010 A 
ATOM     40  C   UNL A   1      44.436  23.002  27.374  1.00  0.00     0.010 A 
ATOM     41  C   UNL A   1      44.095  24.067  26.534  1.00  0.00    -0.014 A 
BRANCH  41  42
ATOM     42  C   UNL A   1      44.352  25.437  27.000  1.00  0.00     0.031 A 
ATOM     43  C   UNL A   1      45.733  26.002  26.832  1.00  0.00     0.074 A 
ATOM     44  C   UNL A   1      43.350  26.141  27.554  1.00  0.00     0.049 A 
ATOM     45  N   UNL A   1      46.181  27.184  27.154  1.00  0.00    -0.248 NA
ATOM     46  C   UNL A   1      46.758  25.106  26.265  1.00  0.00     0.031 C 
ATOM     47  C   UNL A   1      41.992  25.640  27.788  1.00  0.00     0.029 A 
ATOM     48  N   UNL A   1      43.312  27.432  27.994  1.00  0.00    -0.354 N 
ATOM     49  C   UNL A   1      47.533  27.166  26.833  1.00  0.00     0.074 A 
ATOM     50  C   UNL A   1      47.856  25.827  26.401  1.00  0.00     0.031 C 
ATOM     51  C   UNL A   1      41.236  26.640  28.266  1.00  0.00     0.029 A 
ATOM     52  C   UNL A   1      42.069  27.827  28.425  1.00  0.00     0.049 A 
ATOM     53  H   UNL A   1      44.098  28.024  28.002  1.00  0.00     0.167 HD
ATOM     54  C   UNL A   1      48.412  28.192  26.853  1.00  0.00     0.034 A 
ATOM     55  C   UNL A   1      41.660  29.020  28.891  1.00  0.00     0.034 A 
ATOM     56  C   UNL A   1      48.049  29.516  27.279  1.00  0.00     0.049 A 
ATOM     57  C   UNL A   1      42.670  30.138  28.948  1.00  0.00     0.074 A 
ATOM     58  C   UNL A   1      48.832  30.653  27.323  1.00  0.00     0.029 A 
ATOM     59  N   UNL A   1      46.789  29.877  27.745  1.00  0.00    -0.354 N 
ATOM     60  N   UNL A   1      43.937  30.127  28.600  1.00  0.00    -0.248 NA
ATOM     61  C   UNL A   1      42.191  31.430  29.446  1.00  0.00     0.031 C 
ATOM     62  C   UNL A   1      48.075  31.676  27.900  1.00  0.00     0.029 A 
ATOM     63  C   UNL A   1      46.785  31.210  28.117  1.00  0.00     0.049 A 
ATOM     64  H   UNL A   1      46.014  29.273  27.803  1.00  0.00     0.167 HD
ATOM     65  C   UNL A   1      44.399  31.423  28.804  1.00  0.00     0.074 A 
ATOM     66  C   UNL A   1      43.265  32.188  29.287  1.00  0.00     0.031 C 
ATOM     67  C   UNL A   1      45.639  31.942  28.606  1.00  0.00     0.034 A 
BRANCH  54  68
ATOM     68  C   UNL A   1      49.831  27.895  26.435  1.00  0.00     0.023 A 
ATOM     69  C   UNL A   1      50.251  28.012  25.096  1.00  0.00     0.031 A 
ATOM     70  C   UNL A   1      50.764  27.429  27.377  1.00  0.00     0.131 A 
ATOM     71  C   UNL A   1      51.532  27.580  24.724  1.00  0.00     0.055 A 
ATOM     72  C   UNL A   1      52.071  27.098  27.015  1.00  0.00     0.041 A 
ATOM     73  F   UNL A   1      50.413  27.260  28.661  1.00  0.00    -0.206 F 
ATOM     74  C   UNL A   1      52.457  27.155  25.680  1.00  0.00     0.022 A 
BRANCH  71  75
ATOM     75  S   UNL A   1      51.908  27.410  22.956  1.00  0.00     0.124 S 
ATOM     76  O   UNL A   1      50.583  27.145  22.400  1.00  0.00    -0.237 OA
ATOM     77  O   UNL A   1      52.491  28.706  22.631  1.00  0.00    -0.237 OA
ATOM     78  O   UNL A   1      52.832  26.279  22.911  1.00  0.00    -0.744 OA
ENDBRANCH  71  75
ENDBRANCH  54  68
BRANCH  55  79
ATOM     79  C   UNL A   1      40.250  29.218  29.327  1.00  0.00     0.023 A 
ATOM     80  C   UNL A   1      39.886  29.105  30.678  1.00  0.00     0.031 A 
ATOM     81  C   UNL A   1      39.234  29.487  28.392  1.00  0.00     0.131 A 
ATOM     82  C   UNL A   1      38.536  29.204  31.048  1.00  0.00     0.055 A 
ATOM     83  C   UNL A   1      37.902  29.651  28.774  1.00  0.00     0.041 A 
ATOM     84  F   UNL A   1      39.527  29.611  27.087  1.00  0.00    -0.206 F 
ATOM     85  C   UNL A   1      37.544  29.493  30.109  1.00  0.00     0.022 A 
BRANCH  82  86
ATOM     86  S   UNL A   1      38.081  28.839  32.765  1.00  0.00     0.124 S 
ATOM     87  O   UNL A   1      39.152  29.500  33.501  1.00  0.00    -0.237 OA
ATOM     88  O   UNL A   1      36.760  29.451  32.866  1.00  0.00    -0.237 OA
ATOM     89  O   UNL A   1      38.096  27.379  32.816  1.00  0.00    -0.744 OA
ENDBRANCH  82  86
ENDBRANCH  55  79
BRANCH  67  90
ATOM     90  C   UNL A   1      45.810  33.418  28.865  1.00  0.00     0.023 A 
ATOM     91  C   UNL A   1      46.105  33.917  30.144  1.00  0.00     0.031 A 
ATOM     92  C   UNL A   1      45.664  34.339  27.811  1.00  0.00     0.131 A 
ATOM     93  C   UNL A   1      46.165  35.301  30.352  1.00  0.00     0.055 A 
ATOM     94  C   UNL A   1      45.813  35.710  28.008  1.00  0.00     0.041 A 
ATOM     95  F   UNL A   1      45.379  33.917  26.569  1.00  0.00    -0.206 F 
ATOM     96  C   UNL A   1      46.047  36.200  29.289  1.00  0.00     0.022 A 
BRANCH  93  97
ATOM     97  S   UNL A   1      46.263  35.914  32.056  1.00  0.00     0.124 S 
ATOM     98  O   UNL A   1      45.416  34.963  32.767  1.00  0.00    -0.237 OA
ATOM     99  O   UNL A   1      47.693  35.828  32.337  1.00  0.00    -0.237 OA
ATOM    100  O   UNL A   1      45.730  37.272  31.961  1.00  0.00    -0.744 OA
ENDBRANCH  93  97
ENDBRANCH  67  90
ENDBRANCH  41  42
ENDBRANCH  33  36
ENDBRANCH  31  32
ENDBRANCH  30  31
ENDBRANCH  29  30
ENDBRANCH   1  29
TORSDOF 20
ENDMDL
MODEL 3
REMARK VINA RESULT:     -12.1      2.058      2.502
REMARK SMILES Cc1c(Cl)cccc1NC(=O)C[C@](C)(C(=O)NCCCCCCNC(=O)c1ccc(-c2c3nc(c(-c4cc(S(=O)(=O)[O-])ccc4F)c4ccc([nH]4)c(-c4cc(S(=O)(=O)[O-])ccc4F)c4nc(c(-c5cc(S(=O)(=O)[O-])ccc5F)c5ccc2[nH]5)C=C4)C=C3)cc1)c1ccccc1
REMARK SMILES IDX 20 1 19 2 18 3 17 4 15 5 16 6 13 8 14 9 12 10 10 11 9 12
REMARK SMILES IDX 11 14 8 15 1 16 2 17 3 18 4 19 5 20 7 21 6 22 90 23 91 24
REMARK SMILES IDX 95 25 92 26 94 27 93 28 21 29 22 30 23 31 24 32 25 33 26 35
REMARK SMILES IDX 27 36 28 37 89 38 29 39 88 40 30 41 31 42 32 43 82 44 33 45
REMARK SMILES IDX 87 46 81 47 83 48 34 49 86 50 80 51 79 52 35 54 67 55 47 56
REMARK SMILES IDX 66 57 48 58 51 59 65 60 84 61 49 62 50 63 64 65 85 66 52 67
REMARK SMILES IDX 36 68 37 69 45 70 38 71 44 72 46 73 43 74 39 75 40 76 41 77
REMARK SMILES IDX 42 78 68 79 69 80 77 81 70 82 76 83 78 84 75 85 71 86 72 87
REMARK SMILES IDX 73 88 74 89 53 90 54 91 62 92 55 93 61 94 63 95 60 96 56 97
REMARK SMILES IDX 57 98 58 99 59 100
REMARK H PARENT 17 7 9 13 24 34 83 53 51 64
REMARK Flexibility Score: inf
ROOT
ATOM      1  C   UNL A   1      39.826  23.544  26.589  1.00  0.00     0.002 C 
ENDROOT
BRANCH   1   2
ATOM      2  C   UNL A   1      38.408  24.073  26.822  1.00  0.00     0.021 C 
BRANCH   2   3
ATOM      3  C   UNL A   1      37.336  23.697  25.557  1.00  0.00     0.116 C 
BRANCH   3   4
ATOM      4  N   UNL A   1      35.589  22.552  25.497  1.00  0.00    -0.355 N 
ATOM      5  C   UNL A   1      34.187  22.359  25.348  1.00  0.00     0.230 C 
ATOM      6  O   UNL A   1      33.947  21.141  25.460  1.00  0.00    -0.274 OA
ATOM      7  H   UNL A   1      35.918  21.641  25.668  1.00  0.00     0.163 HD
BRANCH   5   8
ATOM      8  C   UNL A   1      32.971  23.403  25.144  1.00  0.00     0.080 C 
ATOM      9  C   UNL A   1      31.797  22.632  24.429  1.00  0.00     0.027 C 
BRANCH   8  10
ATOM     10  C   UNL A   1      32.485  24.166  26.427  1.00  0.00     0.121 C 
BRANCH  10  11
ATOM     11  C   UNL A   1      31.004  24.240  26.738  1.00  0.00     0.225 C 
ATOM     12  N   UNL A   1      30.299  25.384  26.502  1.00  0.00    -0.326 N 
ATOM     13  H   UNL A   1      29.495  25.562  27.041  1.00  0.00     0.169 HD
ATOM     14  O   UNL A   1      30.411  23.287  27.250  1.00  0.00    -0.275 OA
BRANCH  12  15
ATOM     15  C   UNL A   1      30.667  26.311  25.529  1.00  0.00     0.045 A 
ATOM     16  C   UNL A   1      32.316  27.744  27.403  1.00  0.00     0.048 C 
ATOM     17  C   UNL A   1      31.396  27.824  26.215  1.00  0.00    -0.009 A 
ATOM     18  C   UNL A   1      31.360  29.340  25.248  1.00  0.00     0.046 A 
ATOM     19  Cl  UNL A   1      32.024  30.795  25.889  1.00  0.00    -0.084 Cl
ATOM     20  C   UNL A   1      30.497  29.400  23.666  1.00  0.00     0.021 A 
ATOM     21  C   UNL A   1      29.895  26.314  23.867  1.00  0.00     0.026 A 
ATOM     22  C   UNL A   1      29.809  27.881  22.942  1.00  0.00     0.004 A 
ENDBRANCH  12  15
ENDBRANCH  10  11
ENDBRANCH   8  10
BRANCH   8  23
ATOM     23  C   UNL A   1      33.243  24.564  24.100  1.00  0.00    -0.032 A 
ATOM     24  C   UNL A   1      33.900  25.741  24.561  1.00  0.00     0.005 A 
ATOM     25  C   UNL A   1      32.865  24.545  22.756  1.00  0.00     0.005 A 
ATOM     26  C   UNL A   1      34.022  26.883  23.775  1.00  0.00     0.000 A 
ATOM     27  C   UNL A   1      32.998  25.692  21.959  1.00  0.00     0.000 A 
ATOM     28  C   UNL A   1      33.549  26.864  22.474  1.00  0.00     0.000 A 
ENDBRANCH   8  23
ENDBRANCH   5   8
ENDBRANCH   3   4
ENDBRANCH   2   3
ENDBRANCH   1   2
BRANCH   1  29
ATOM     29  C   UNL A   1      40.404  22.769  27.786  1.00  0.00     0.002 C 
BRANCH  29  30
ATOM     30  C   UNL A   1      40.725  21.316  27.437  1.00  0.00     0.021 C 
BRANCH  30  31
ATOM     31  C   UNL A   1      41.015  21.170  25.955  1.00  0.00     0.116 C 
BRANCH  31  32
ATOM     32  N   UNL A   1      42.224  20.365  25.752  1.00  0.00    -0.352 N 
ATOM     33  C   UNL A   1      43.506  20.792  25.596  1.00  0.00     0.251 C 
ATOM     34  H   UNL A   1      42.090  19.390  25.725  1.00  0.00     0.163 HD
ATOM     35  O   UNL A   1      44.387  20.065  25.164  1.00  0.00    -0.269 OA
BRANCH  33  36
ATOM     36  C   UNL A   1      43.737  22.170  25.999  1.00  0.00     0.039 A 
ATOM     37  C   UNL A   1      43.321  23.197  25.164  1.00  0.00     0.014 A 
ATOM     38  C   UNL A   1      44.164  22.385  27.316  1.00  0.00     0.014 A 
ATOM     39  C   UNL A   1      43.346  24.485  25.666  1.00  0.00     0.010 A 
ATOM     40  C   UNL A   1      44.041  23.643  27.853  1.00  0.00     0.010 A 
ATOM     41  C   UNL A   1      43.692  24.707  27.013  1.00  0.00    -0.014 A 
BRANCH  41  42
ATOM     42  C   UNL A   1      43.801  26.077  27.535  1.00  0.00     0.031 A 
ATOM     43  C   UNL A   1      45.126  26.775  27.440  1.00  0.00     0.074 A 
ATOM     44  C   UNL A   1      42.718  26.661  28.074  1.00  0.00     0.049 A 
ATOM     45  N   UNL A   1      45.448  27.980  27.819  1.00  0.00    -0.248 NA
ATOM     46  C   UNL A   1      46.252  26.002  26.882  1.00  0.00     0.031 C 
ATOM     47  C   UNL A   1      41.406  26.026  28.239  1.00  0.00     0.029 A 
ATOM     48  N   UNL A   1      42.540  27.926  28.556  1.00  0.00    -0.354 N 
ATOM     49  C   UNL A   1      46.806  28.102  27.550  1.00  0.00     0.074 A 
ATOM     50  C   UNL A   1      47.270  26.817  27.085  1.00  0.00     0.031 C 
ATOM     51  C   UNL A   1      40.542  26.932  28.721  1.00  0.00     0.029 A 
ATOM     52  C   UNL A   1      41.251  28.185  28.952  1.00  0.00     0.049 A 
ATOM     53  H   UNL A   1      43.266  28.588  28.614  1.00  0.00     0.167 HD
ATOM     54  C   UNL A   1      47.582  29.206  27.638  1.00  0.00     0.034 A 
ATOM     55  C   UNL A   1      40.714  29.316  29.443  1.00  0.00     0.034 A 
ATOM     56  C   UNL A   1      47.079  30.472  28.095  1.00  0.00     0.049 A 
ATOM     57  C   UNL A   1      41.610  30.521  29.576  1.00  0.00     0.074 A 
ATOM     58  C   UNL A   1      47.747  31.675  28.208  1.00  0.00     0.029 A 
ATOM     59  N   UNL A   1      45.774  30.695  28.525  1.00  0.00    -0.354 N 
ATOM     60  N   UNL A   1      42.884  30.642  29.278  1.00  0.00    -0.248 NA
ATOM     61  C   UNL A   1      40.992  31.742  30.100  1.00  0.00     0.031 C 
ATOM     62  C   UNL A   1      46.877  32.600  28.791  1.00  0.00     0.029 A 
ATOM     63  C   UNL A   1      45.631  32.007  28.941  1.00  0.00     0.049 A 
ATOM     64  H   UNL A   1      45.059  30.019  28.532  1.00  0.00     0.167 HD
ATOM     65  C   UNL A   1      43.212  31.968  29.543  1.00  0.00     0.074 A 
ATOM     66  C   UNL A   1      41.994  32.604  30.009  1.00  0.00     0.031 C 
ATOM     67  C   UNL A   1      44.403  32.608  29.411  1.00  0.00     0.034 A 
BRANCH  54  68
ATOM     68  C   UNL A   1      49.037  29.060  27.265  1.00  0.00     0.023 A 
ATOM     69  C   UNL A   1      49.451  28.937  25.926  1.00  0.00     0.031 A 
ATOM     70  C   UNL A   1      50.019  28.979  28.267  1.00  0.00     0.131 A 
ATOM     71  C   UNL A   1      50.792  28.649  25.631  1.00  0.00     0.055 A 
ATOM     72  C   UNL A   1      51.368  28.795  27.959  1.00  0.00     0.041 A 
ATOM     73  F   UNL A   1      49.683  29.051  29.564  1.00  0.00    -0.206 F 
ATOM     74  C   UNL A   1      51.760  28.610  26.636  1.00  0.00     0.022 A 
BRANCH  71  75
ATOM     75  S   UNL A   1      51.217  28.148  23.939  1.00  0.00     0.124 S 
ATOM     76  O   UNL A   1      51.290  29.441  23.261  1.00  0.00    -0.237 OA
ATOM     77  O   UNL A   1      52.482  27.450  24.124  1.00  0.00    -0.237 OA
ATOM     78  O   UNL A   1      50.090  27.307  23.539  1.00  0.00    -0.744 OA
ENDBRANCH  71  75
ENDBRANCH  54  68
BRANCH  55  79
ATOM     79  C   UNL A   1      39.277  29.363  29.831  1.00  0.00     0.023 A 
ATOM     80  C   UNL A   1      38.316  29.940  28.986  1.00  0.00     0.031 A 
ATOM     81  C   UNL A   1      38.846  28.864  31.073  1.00  0.00     0.131 A 
ATOM     82  C   UNL A   1      36.986  30.055  29.417  1.00  0.00     0.055 A 
ATOM     83  C   UNL A   1      37.510  28.920  31.469  1.00  0.00     0.041 A 
ATOM     84  F   UNL A   1      39.722  28.296  31.918  1.00  0.00    -0.206 F 
ATOM     85  C   UNL A   1      36.573  29.534  30.645  1.00  0.00     0.022 A 
BRANCH  82  86
ATOM     86  S   UNL A   1      35.823  30.997  28.393  1.00  0.00     0.124 S 
ATOM     87  O   UNL A   1      35.183  29.938  27.623  1.00  0.00    -0.237 OA
ATOM     88  O   UNL A   1      34.992  31.650  29.400  1.00  0.00    -0.237 OA
ATOM     89  O   UNL A   1      36.692  31.889  27.629  1.00  0.00    -0.744 OA
ENDBRANCH  82  86
ENDBRANCH  55  79
BRANCH  67  90
ATOM     90  C   UNL A   1      44.423  34.083  29.727  1.00  0.00     0.023 A 
ATOM     91  C   UNL A   1      44.118  35.052  28.757  1.00  0.00     0.031 A 
ATOM     92  C   UNL A   1      44.765  34.522  31.019  1.00  0.00     0.131 A 
ATOM     93  C   UNL A   1      44.239  36.412  29.074  1.00  0.00     0.055 A 
ATOM     94  C   UNL A   1      44.796  35.875  31.351  1.00  0.00     0.041 A 
ATOM     95  F   UNL A   1      45.068  33.638  31.983  1.00  0.00    -0.206 F 
ATOM     96  C   UNL A   1      44.550  36.830  30.370  1.00  0.00     0.022 A 
BRANCH  93  97
ATOM     97  S   UNL A   1      44.116  37.625  27.731  1.00  0.00     0.124 S 
ATOM     98  O   UNL A   1      45.476  37.629  27.205  1.00  0.00    -0.237 OA
ATOM     99  O   UNL A   1      43.101  37.033  26.867  1.00  0.00    -0.237 OA
ATOM    100  O   UNL A   1      43.710  38.851  28.415  1.00  0.00    -0.744 OA
ENDBRANCH  93  97
ENDBRANCH  67  90
ENDBRANCH  41  42
ENDBRANCH  33  36
ENDBRANCH  31  32
ENDBRANCH  30  31
ENDBRANCH  29  30
ENDBRANCH   1  29
TORSDOF 20
ENDMDL
