MODEL 1
REMARK VINA RESULT:     -11.2      0.000      0.000
REMARK SMILES O=C(NCCCCCCNC(=O)[C@H]1CS[C@H](c2cc(F)ccc2F)[NH2+]1)c1ccc(-c2c3nc(c(-c4cc(S(=O)(=O)[O-])ccc4F)c4ccc([nH]4)c(-c4cc(S(=O)(=O)[O-])ccc4F)c4nc(c(-c5cc(S(=O)(=O)[O-])ccc5F)c5ccc2[nH]5)C=C4)C=C3)cc1
REMARK SMILES IDX 5 1 4 2 3 3 1 4 2 5 26 7 27 8 88 9 28 10 87 11 29 12 30 13
REMARK SMILES IDX 31 14 81 15 32 16 86 17 80 18 82 19 33 20 85 21 79 22 78 23
REMARK SMILES IDX 34 25 66 26 46 27 65 28 47 29 50 30 64 31 83 32 48 33 49 34
REMARK SMILES IDX 63 36 84 37 51 38 35 39 36 40 44 41 37 42 43 43 45 44 42 45
REMARK SMILES IDX 38 46 39 47 40 48 41 49 67 50 68 51 76 52 69 53 75 54 77 55
REMARK SMILES IDX 74 56 70 57 71 58 72 59 73 60 52 61 53 62 61 63 54 64 60 65
REMARK SMILES IDX 62 66 59 67 55 68 56 69 57 70 58 71 6 72 7 73 8 74 9 75
REMARK SMILES IDX 10 76 11 77 12 79 13 80 14 81 25 82 15 83 16 84 17 87 18 88
REMARK SMILES IDX 23 89 19 90 22 91 24 92 20 93 21 94
REMARK H PARENT 3 6 82 24 50 35 10 78 25 85 25 86
REMARK Flexibility Score: inf
ROOT
ATOM      1  C   UNL A   1      33.099  27.989  26.187  1.00  0.00     0.021 C 
ENDROOT
BRANCH   1   2
ATOM      2  C   UNL A   1      33.821  29.212  25.641  1.00  0.00     0.116 C 
BRANCH   2   3
ATOM      3  N   UNL A   1      33.288  30.460  26.163  1.00  0.00    -0.352 N 
ATOM      4  O   UNL A   1      33.077  32.167  27.622  1.00  0.00    -0.269 OA
ATOM      5  C   UNL A   1      33.732  31.205  27.228  1.00  0.00     0.251 C 
ATOM      6  H   UNL A   1      32.503  30.819  25.689  1.00  0.00     0.163 HD
BRANCH   5   7
ATOM      7  C   UNL A   1      34.992  30.831  27.910  1.00  0.00     0.039 A 
ATOM      8  C   UNL A   1      35.115  29.594  28.547  1.00  0.00     0.014 A 
ATOM      9  C   UNL A   1      36.062  31.731  27.914  1.00  0.00     0.014 A 
ATOM     10  C   UNL A   1      36.252  29.312  29.296  1.00  0.00     0.010 A 
ATOM     11  C   UNL A   1      37.240  31.409  28.596  1.00  0.00     0.010 A 
ATOM     12  C   UNL A   1      37.336  30.207  29.313  1.00  0.00    -0.014 A 
BRANCH  12  13
ATOM     13  C   UNL A   1      38.577  29.822  30.035  1.00  0.00     0.031 A 
ATOM     14  C   UNL A   1      38.880  30.356  31.408  1.00  0.00     0.074 A 
ATOM     15  C   UNL A   1      39.411  28.940  29.448  1.00  0.00     0.049 A 
ATOM     16  N   UNL A   1      39.901  30.099  32.184  1.00  0.00    -0.248 NA
ATOM     17  C   UNL A   1      37.917  31.309  31.979  1.00  0.00     0.031 C 
ATOM     18  C   UNL A   1      39.221  28.367  28.113  1.00  0.00     0.029 A 
ATOM     19  N   UNL A   1      40.566  28.356  29.897  1.00  0.00    -0.354 N 
ATOM     20  C   UNL A   1      39.710  30.856  33.336  1.00  0.00     0.074 A 
ATOM     21  C   UNL A   1      38.491  31.615  33.134  1.00  0.00     0.031 C 
ATOM     22  C   UNL A   1      40.196  27.480  27.871  1.00  0.00     0.029 A 
ATOM     23  C   UNL A   1      41.117  27.470  29.001  1.00  0.00     0.049 A 
ATOM     24  H   UNL A   1      40.965  28.551  30.776  1.00  0.00     0.167 HD
ATOM     25  C   UNL A   1      40.472  30.903  34.457  1.00  0.00     0.034 A 
ATOM     26  C   UNL A   1      42.248  26.741  29.069  1.00  0.00     0.034 A 
ATOM     27  C   UNL A   1      41.691  30.147  34.634  1.00  0.00     0.049 A 
ATOM     28  C   UNL A   1      43.090  26.835  30.312  1.00  0.00     0.074 A 
ATOM     29  C   UNL A   1      42.545  30.125  35.724  1.00  0.00     0.029 A 
ATOM     30  N   UNL A   1      42.233  29.279  33.694  1.00  0.00    -0.354 N 
ATOM     31  N   UNL A   1      42.890  27.556  31.391  1.00  0.00    -0.248 NA
ATOM     32  C   UNL A   1      44.304  26.012  30.350  1.00  0.00     0.031 C 
ATOM     33  C   UNL A   1      43.627  29.289  35.422  1.00  0.00     0.029 A 
ATOM     34  C   UNL A   1      43.417  28.734  34.171  1.00  0.00     0.049 A 
ATOM     35  H   UNL A   1      41.836  29.080  32.816  1.00  0.00     0.167 HD
ATOM     36  C   UNL A   1      43.949  27.262  32.243  1.00  0.00     0.074 A 
ATOM     37  C   UNL A   1      44.764  26.275  31.563  1.00  0.00     0.031 C 
ATOM     38  C   UNL A   1      44.229  27.766  33.472  1.00  0.00     0.034 A 
BRANCH  25  39
ATOM     39  C   UNL A   1      40.025  31.830  35.563  1.00  0.00     0.023 A 
ATOM     40  C   UNL A   1      39.109  31.415  36.547  1.00  0.00     0.031 A 
ATOM     41  C   UNL A   1      40.508  33.149  35.630  1.00  0.00     0.131 A 
ATOM     42  C   UNL A   1      38.659  32.325  37.516  1.00  0.00     0.055 A 
ATOM     43  C   UNL A   1      40.113  34.029  36.640  1.00  0.00     0.041 A 
ATOM     44  F   UNL A   1      41.369  33.608  34.709  1.00  0.00    -0.206 F 
ATOM     45  C   UNL A   1      39.173  33.623  37.583  1.00  0.00     0.022 A 
BRANCH  42  46
ATOM     46  S   UNL A   1      37.302  31.828  38.610  1.00  0.00     0.124 S 
ATOM     47  O   UNL A   1      36.279  32.819  38.283  1.00  0.00    -0.237 OA
ATOM     48  O   UNL A   1      37.029  30.464  38.175  1.00  0.00    -0.237 OA
ATOM     49  O   UNL A   1      37.875  31.954  39.948  1.00  0.00    -0.744 OA
ENDBRANCH  42  46
ENDBRANCH  25  39
BRANCH  26  50
ATOM     50  C   UNL A   1      42.665  25.893  27.917  1.00  0.00     0.023 A 
ATOM     51  C   UNL A   1      42.129  24.612  27.724  1.00  0.00     0.031 A 
ATOM     52  C   UNL A   1      43.639  26.346  27.007  1.00  0.00     0.131 A 
ATOM     53  C   UNL A   1      42.601  23.809  26.672  1.00  0.00     0.055 A 
ATOM     54  C   UNL A   1      44.061  25.568  25.929  1.00  0.00     0.041 A 
ATOM     55  F   UNL A   1      44.180  27.567  27.143  1.00  0.00    -0.206 F 
ATOM     56  C   UNL A   1      43.553  24.284  25.767  1.00  0.00     0.022 A 
BRANCH  53  57
ATOM     57  S   UNL A   1      42.019  22.095  26.560  1.00  0.00     0.124 S 
ATOM     58  O   UNL A   1      40.579  22.278  26.422  1.00  0.00    -0.237 OA
ATOM     59  O   UNL A   1      42.722  21.616  25.375  1.00  0.00    -0.237 OA
ATOM     60  O   UNL A   1      42.455  21.504  27.824  1.00  0.00    -0.744 OA
ENDBRANCH  53  57
ENDBRANCH  26  50
BRANCH  38  61
ATOM     61  C   UNL A   1      45.457  27.223  34.156  1.00  0.00     0.023 A 
ATOM     62  C   UNL A   1      45.395  26.094  34.992  1.00  0.00     0.031 A 
ATOM     63  C   UNL A   1      46.697  27.870  34.006  1.00  0.00     0.131 A 
ATOM     64  C   UNL A   1      46.534  25.686  35.701  1.00  0.00     0.055 A 
ATOM     65  C   UNL A   1      47.841  27.423  34.667  1.00  0.00     0.041 A 
ATOM     66  F   UNL A   1      46.812  28.953  33.222  1.00  0.00    -0.206 F 
ATOM     67  C   UNL A   1      47.760  26.335  35.534  1.00  0.00     0.022 A 
BRANCH  64  68
ATOM     68  S   UNL A   1      46.367  24.361  36.928  1.00  0.00     0.124 S 
ATOM     69  O   UNL A   1      47.370  24.736  37.919  1.00  0.00    -0.237 OA
ATOM     70  O   UNL A   1      44.975  24.497  37.346  1.00  0.00    -0.237 OA
ATOM     71  O   UNL A   1      46.668  23.149  36.168  1.00  0.00    -0.744 OA
ENDBRANCH  64  68
ENDBRANCH  38  61
ENDBRANCH  12  13
ENDBRANCH   5   7
ENDBRANCH   2   3
ENDBRANCH   1   2
BRANCH   1  72
ATOM     72  C   UNL A   1      31.576  28.103  26.258  1.00  0.00     0.002 C 
BRANCH  72  73
ATOM     73  C   UNL A   1      30.797  27.403  25.140  1.00  0.00     0.002 C 
BRANCH  73  74
ATOM     74  C   UNL A   1      30.947  28.003  23.740  1.00  0.00     0.021 C 
BRANCH  74  75
ATOM     75  C   UNL A   1      30.467  27.115  22.597  1.00  0.00     0.116 C 
BRANCH  75  76
ATOM     76  N   UNL A   1      31.509  26.845  21.626  1.00  0.00    -0.351 N 
ATOM     77  C   UNL A   1      32.508  25.917  21.598  1.00  0.00     0.279 C 
ATOM     78  H   UNL A   1      31.492  27.440  20.843  1.00  0.00     0.163 HD
ATOM     79  O   UNL A   1      33.277  25.954  20.631  1.00  0.00    -0.268 OA
BRANCH  77  80
ATOM     80  C   UNL A   1      32.736  24.909  22.739  1.00  0.00     0.283 C 
ATOM     81  C   UNL A   1      33.280  23.592  22.198  1.00  0.00     0.151 C 
ATOM     82  N   UNL A   1      33.535  25.483  23.847  1.00  0.00    -0.320 N 
ATOM     83  S   UNL A   1      34.831  23.309  23.060  1.00  0.00    -0.087 SA
ATOM     84  C   UNL A   1      34.431  24.471  24.403  1.00  0.00     0.277 C 
ATOM     85  H   UNL A   1      32.907  25.814  24.579  1.00  0.00     0.348 HD
ATOM     86  H   UNL A   1      34.092  26.257  23.486  1.00  0.00     0.348 HD
BRANCH  84  87
ATOM     87  C   UNL A   1      33.932  23.747  25.638  1.00  0.00     0.059 A 
ATOM     88  C   UNL A   1      32.546  23.754  25.914  1.00  0.00     0.053 A 
ATOM     89  C   UNL A   1      34.751  23.017  26.513  1.00  0.00     0.133 A 
ATOM     90  C   UNL A   1      32.031  23.101  27.029  1.00  0.00     0.123 A 
ATOM     91  C   UNL A   1      34.226  22.351  27.625  1.00  0.00     0.043 A 
ATOM     92  F   UNL A   1      36.073  22.925  26.324  1.00  0.00    -0.206 F 
ATOM     93  F   UNL A   1      30.716  23.152  27.275  1.00  0.00    -0.207 F 
ATOM     94  C   UNL A   1      32.861  22.399  27.890  1.00  0.00     0.042 A 
ENDBRANCH  84  87
ENDBRANCH  77  80
ENDBRANCH  75  76
ENDBRANCH  74  75
ENDBRANCH  73  74
ENDBRANCH  72  73
ENDBRANCH   1  72
TORSDOF 17
ENDMDL
MODEL 2
REMARK VINA RESULT:     -11.2      5.192     10.166
REMARK SMILES O=C(NCCCCCCNC(=O)[C@H]1CS[C@H](c2cc(F)ccc2F)[NH2+]1)c1ccc(-c2c3nc(c(-c4cc(S(=O)(=O)[O-])ccc4F)c4ccc([nH]4)c(-c4cc(S(=O)(=O)[O-])ccc4F)c4nc(c(-c5cc(S(=O)(=O)[O-])ccc5F)c5ccc2[nH]5)C=C4)C=C3)cc1
REMARK SMILES IDX 5 1 4 2 3 3 1 4 2 5 26 7 27 8 88 9 28 10 87 11 29 12 30 13
REMARK SMILES IDX 31 14 81 15 32 16 86 17 80 18 82 19 33 20 85 21 79 22 78 23
REMARK SMILES IDX 34 25 66 26 46 27 65 28 47 29 50 30 64 31 83 32 48 33 49 34
REMARK SMILES IDX 63 36 84 37 51 38 35 39 36 40 44 41 37 42 43 43 45 44 42 45
REMARK SMILES IDX 38 46 39 47 40 48 41 49 67 50 68 51 76 52 69 53 75 54 77 55
REMARK SMILES IDX 74 56 70 57 71 58 72 59 73 60 52 61 53 62 61 63 54 64 60 65
REMARK SMILES IDX 62 66 59 67 55 68 56 69 57 70 58 71 6 72 7 73 8 74 9 75
REMARK SMILES IDX 10 76 11 77 12 79 13 80 14 81 25 82 15 83 16 84 17 87 18 88
REMARK SMILES IDX 23 89 19 90 22 91 24 92 20 93 21 94
REMARK H PARENT 3 6 82 24 50 35 10 78 25 85 25 86
REMARK Flexibility Score: inf
ROOT
ATOM      1  C   UNL A   1      34.788  21.908  26.173  1.00  0.00     0.021 C 
ENDROOT
BRANCH   1   2
ATOM      2  C   UNL A   1      36.209  22.330  25.830  1.00  0.00     0.116 C 
BRANCH   2   3
ATOM      3  N   UNL A   1      37.132  21.208  25.777  1.00  0.00    -0.352 N 
ATOM      4  O   UNL A   1      39.142  20.186  25.729  1.00  0.00    -0.269 OA
ATOM      5  C   UNL A   1      38.495  21.208  25.946  1.00  0.00     0.251 C 
ATOM      6  H   UNL A   1      36.725  20.330  25.596  1.00  0.00     0.163 HD
BRANCH   5   7
ATOM      7  C   UNL A   1      39.182  22.449  26.369  1.00  0.00     0.039 A 
ATOM      8  C   UNL A   1      38.792  23.689  25.854  1.00  0.00     0.014 A 
ATOM      9  C   UNL A   1      40.230  22.372  27.291  1.00  0.00     0.014 A 
ATOM     10  C   UNL A   1      39.531  24.826  26.158  1.00  0.00     0.010 A 
ATOM     11  C   UNL A   1      40.917  23.532  27.663  1.00  0.00     0.010 A 
ATOM     12  C   UNL A   1      40.590  24.766  27.081  1.00  0.00    -0.014 A 
BRANCH  12  13
ATOM     13  C   UNL A   1      41.286  26.022  27.463  1.00  0.00     0.031 A 
ATOM     14  C   UNL A   1      42.674  26.327  26.971  1.00  0.00     0.074 A 
ATOM     15  C   UNL A   1      40.624  26.913  28.228  1.00  0.00     0.049 A 
ATOM     16  N   UNL A   1      43.410  27.387  27.188  1.00  0.00    -0.248 NA
ATOM     17  C   UNL A   1      43.324  25.305  26.137  1.00  0.00     0.031 C 
ATOM     18  C   UNL A   1      39.277  26.715  28.770  1.00  0.00     0.029 A 
ATOM     19  N   UNL A   1      40.975  28.163  28.666  1.00  0.00    -0.354 N 
ATOM     20  C   UNL A   1      44.611  27.165  26.522  1.00  0.00     0.074 A 
ATOM     21  C   UNL A   1      44.517  25.846  25.927  1.00  0.00     0.031 C 
ATOM     22  C   UNL A   1      38.898  27.821  29.426  1.00  0.00     0.029 A 
ATOM     23  C   UNL A   1      39.996  28.779  29.410  1.00  0.00     0.049 A 
ATOM     24  H   UNL A   1      41.844  28.580  28.467  1.00  0.00     0.167 HD
ATOM     25  C   UNL A   1      45.683  27.989  26.407  1.00  0.00     0.034 A 
ATOM     26  C   UNL A   1      39.987  29.975  30.030  1.00  0.00     0.034 A 
ATOM     27  C   UNL A   1      45.761  29.296  27.017  1.00  0.00     0.049 A 
ATOM     28  C   UNL A   1      41.201  30.856  29.911  1.00  0.00     0.074 A 
ATOM     29  C   UNL A   1      46.801  30.210  26.974  1.00  0.00     0.029 A 
ATOM     30  N   UNL A   1      44.761  29.878  27.788  1.00  0.00    -0.354 N 
ATOM     31  N   UNL A   1      42.326  30.628  29.273  1.00  0.00    -0.248 NA
ATOM     32  C   UNL A   1      41.140  32.157  30.587  1.00  0.00     0.031 C 
ATOM     33  C   UNL A   1      46.453  31.316  27.759  1.00  0.00     0.029 A 
ATOM     34  C   UNL A   1      45.168  31.126  28.238  1.00  0.00     0.049 A 
ATOM     35  H   UNL A   1      43.891  29.464  27.985  1.00  0.00     0.167 HD
ATOM     36  C   UNL A   1      43.103  31.766  29.462  1.00  0.00     0.074 A 
ATOM     37  C   UNL A   1      42.304  32.687  30.245  1.00  0.00     0.031 C 
ATOM     38  C   UNL A   1      44.366  32.024  29.035  1.00  0.00     0.034 A 
BRANCH  25  39
ATOM     39  C   UNL A   1      46.868  27.481  25.621  1.00  0.00     0.023 A 
ATOM     40  C   UNL A   1      47.107  27.898  24.298  1.00  0.00     0.031 A 
ATOM     41  C   UNL A   1      47.765  26.561  26.191  1.00  0.00     0.131 A 
ATOM     42  C   UNL A   1      48.176  27.349  23.572  1.00  0.00     0.055 A 
ATOM     43  C   UNL A   1      48.869  26.075  25.489  1.00  0.00     0.041 A 
ATOM     44  F   UNL A   1      47.579  26.113  27.443  1.00  0.00    -0.206 F 
ATOM     45  C   UNL A   1      49.073  26.458  24.167  1.00  0.00     0.022 A 
BRANCH  42  46
ATOM     46  S   UNL A   1      48.305  27.722  21.802  1.00  0.00     0.124 S 
ATOM     47  O   UNL A   1      48.547  26.396  21.237  1.00  0.00    -0.237 OA
ATOM     48  O   UNL A   1      47.004  28.311  21.508  1.00  0.00    -0.237 OA
ATOM     49  O   UNL A   1      49.439  28.640  21.725  1.00  0.00    -0.744 OA
ENDBRANCH  42  46
ENDBRANCH  25  39
BRANCH  26  50
ATOM     50  C   UNL A   1      38.809  30.391  30.842  1.00  0.00     0.023 A 
ATOM     51  C   UNL A   1      37.856  31.288  30.338  1.00  0.00     0.031 A 
ATOM     52  C   UNL A   1      38.639  29.915  32.156  1.00  0.00     0.131 A 
ATOM     53  C   UNL A   1      36.800  31.718  31.158  1.00  0.00     0.055 A 
ATOM     54  C   UNL A   1      37.556  30.300  32.946  1.00  0.00     0.041 A 
ATOM     55  F   UNL A   1      39.520  29.051  32.684  1.00  0.00    -0.206 F 
ATOM     56  C   UNL A   1      36.637  31.219  32.453  1.00  0.00     0.022 A 
BRANCH  53  57
ATOM     57  S   UNL A   1      35.692  33.013  30.539  1.00  0.00     0.124 S 
ATOM     58  O   UNL A   1      36.122  33.134  29.151  1.00  0.00    -0.237 OA
ATOM     59  O   UNL A   1      34.379  32.414  30.754  1.00  0.00    -0.237 OA
ATOM     60  O   UNL A   1      36.000  34.160  31.390  1.00  0.00    -0.744 OA
ENDBRANCH  53  57
ENDBRANCH  26  50
BRANCH  38  61
ATOM     61  C   UNL A   1      44.931  33.375  29.392  1.00  0.00     0.023 A 
ATOM     62  C   UNL A   1      44.753  34.491  28.555  1.00  0.00     0.031 A 
ATOM     63  C   UNL A   1      45.695  33.538  30.561  1.00  0.00     0.131 A 
ATOM     64  C   UNL A   1      45.390  35.703  28.862  1.00  0.00     0.055 A 
ATOM     65  C   UNL A   1      46.276  34.762  30.893  1.00  0.00     0.041 A 
ATOM     66  F   UNL A   1      45.898  32.505  31.395  1.00  0.00    -0.206 F 
ATOM     67  C   UNL A   1      46.138  35.849  30.033  1.00  0.00     0.022 A 
BRANCH  64  68
ATOM     68  S   UNL A   1      45.314  37.055  27.656  1.00  0.00     0.124 S 
ATOM     69  O   UNL A   1      43.877  37.182  27.431  1.00  0.00    -0.237 OA
ATOM     70  O   UNL A   1      45.946  38.154  28.379  1.00  0.00    -0.237 OA
ATOM     71  O   UNL A   1      46.076  36.543  26.518  1.00  0.00    -0.744 OA
ENDBRANCH  64  68
ENDBRANCH  38  61
ENDBRANCH  12  13
ENDBRANCH   5   7
ENDBRANCH   2   3
ENDBRANCH   1   2
BRANCH   1  72
ATOM     72  C   UNL A   1      34.329  22.240  27.593  1.00  0.00     0.002 C 
BRANCH  72  73
ATOM     73  C   UNL A   1      32.878  22.707  27.738  1.00  0.00     0.002 C 
BRANCH  73  74
ATOM     74  C   UNL A   1      31.995  22.553  26.498  1.00  0.00     0.021 C 
BRANCH  74  75
ATOM     75  C   UNL A   1      30.696  23.350  26.521  1.00  0.00     0.116 C 
BRANCH  75  76
ATOM     76  N   UNL A   1      30.303  23.814  25.204  1.00  0.00    -0.351 N 
ATOM     77  C   UNL A   1      30.672  24.907  24.477  1.00  0.00     0.279 C 
ATOM     78  H   UNL A   1      29.650  23.232  24.753  1.00  0.00     0.163 HD
ATOM     79  O   UNL A   1      30.129  25.053  23.376  1.00  0.00    -0.268 OA
BRANCH  77  80
ATOM     80  C   UNL A   1      31.656  25.963  25.009  1.00  0.00     0.283 C 
ATOM     81  C   UNL A   1      33.080  25.650  24.563  1.00  0.00     0.151 C 
ATOM     82  N   UNL A   1      31.219  27.345  24.704  1.00  0.00    -0.320 N 
ATOM     83  S   UNL A   1      33.648  27.104  23.672  1.00  0.00    -0.087 SA
ATOM     84  C   UNL A   1      32.373  28.186  24.392  1.00  0.00     0.277 C 
ATOM     85  H   UNL A   1      30.731  27.731  25.513  1.00  0.00     0.348 HD
ATOM     86  H   UNL A   1      30.595  27.325  23.897  1.00  0.00     0.348 HD
BRANCH  84  87
ATOM     87  C   UNL A   1      32.923  29.013  25.537  1.00  0.00     0.059 A 
ATOM     88  C   UNL A   1      34.165  28.646  26.102  1.00  0.00     0.053 A 
ATOM     89  C   UNL A   1      32.305  30.163  26.052  1.00  0.00     0.133 A 
ATOM     90  C   UNL A   1      34.722  29.373  27.150  1.00  0.00     0.123 A 
ATOM     91  C   UNL A   1      32.875  30.897  27.097  1.00  0.00     0.043 A 
ATOM     92  F   UNL A   1      31.139  30.610  25.567  1.00  0.00    -0.206 F 
ATOM     93  F   UNL A   1      35.887  28.980  27.679  1.00  0.00    -0.207 F 
ATOM     94  C   UNL A   1      34.086  30.497  27.654  1.00  0.00     0.042 A 
ENDBRANCH  84  87
ENDBRANCH  77  80
ENDBRANCH  75  76
ENDBRANCH  74  75
ENDBRANCH  73  74
ENDBRANCH  72  73
ENDBRANCH   1  72
TORSDOF 17
ENDMDL
MODEL 3
REMARK VINA RESULT:     -11.2      2.370      3.724
REMARK SMILES O=C(NCCCCCCNC(=O)[C@H]1CS[C@H](c2cc(F)ccc2F)[NH2+]1)c1ccc(-c2c3nc(c(-c4cc(S(=O)(=O)[O-])ccc4F)c4ccc([nH]4)c(-c4cc(S(=O)(=O)[O-])ccc4F)c4nc(c(-c5cc(S(=O)(=O)[O-])ccc5F)c5ccc2[nH]5)C=C4)C=C3)cc1
REMARK SMILES IDX 5 1 4 2 3 3 1 4 2 5 26 7 27 8 88 9 28 10 87 11 29 12 30 13
REMARK SMILES IDX 31 14 81 15 32 16 86 17 80 18 82 19 33 20 85 21 79 22 78 23
REMARK SMILES IDX 34 25 66 26 46 27 65 28 47 29 50 30 64 31 83 32 48 33 49 34
REMARK SMILES IDX 63 36 84 37 51 38 35 39 36 40 44 41 37 42 43 43 45 44 42 45
REMARK SMILES IDX 38 46 39 47 40 48 41 49 67 50 68 51 76 52 69 53 75 54 77 55
REMARK SMILES IDX 74 56 70 57 71 58 72 59 73 60 52 61 53 62 61 63 54 64 60 65
REMARK SMILES IDX 62 66 59 67 55 68 56 69 57 70 58 71 6 72 7 73 8 74 9 75
REMARK SMILES IDX 10 76 11 77 12 79 13 80 14 81 25 82 15 83 16 84 17 87 18 88
REMARK SMILES IDX 23 89 19 90 22 91 24 92 20 93 21 94
REMARK H PARENT 3 6 82 24 50 35 10 78 25 85 25 86
REMARK Flexibility Score: inf
ROOT
ATOM      1  C   UNL A   1      31.521  31.841  26.578  1.00  0.00     0.021 C 
ENDROOT
BRANCH   1   2
ATOM      2  C   UNL A   1      32.805  32.492  27.073  1.00  0.00     0.116 C 
BRANCH   2   3
ATOM      3  N   UNL A   1      32.590  33.830  27.599  1.00  0.00    -0.352 N 
ATOM      4  O   UNL A   1      32.841  35.550  29.036  1.00  0.00    -0.269 OA
ATOM      5  C   UNL A   1      33.245  34.464  28.626  1.00  0.00     0.251 C 
ATOM      6  H   UNL A   1      31.879  34.351  27.160  1.00  0.00     0.163 HD
BRANCH   5   7
ATOM      7  C   UNL A   1      34.426  33.825  29.249  1.00  0.00     0.039 A 
ATOM      8  C   UNL A   1      35.716  34.272  28.953  1.00  0.00     0.014 A 
ATOM      9  C   UNL A   1      34.239  32.763  30.140  1.00  0.00     0.014 A 
ATOM     10  C   UNL A   1      36.817  33.578  29.441  1.00  0.00     0.010 A 
ATOM     11  C   UNL A   1      35.349  32.120  30.698  1.00  0.00     0.010 A 
ATOM     12  C   UNL A   1      36.648  32.506  30.334  1.00  0.00    -0.014 A 
BRANCH  12  13
ATOM     13  C   UNL A   1      37.851  31.859  30.919  1.00  0.00     0.031 A 
ATOM     14  C   UNL A   1      38.320  32.191  32.309  1.00  0.00     0.074 A 
ATOM     15  C   UNL A   1      38.493  30.925  30.189  1.00  0.00     0.049 A 
ATOM     16  N   UNL A   1      39.332  31.698  32.976  1.00  0.00    -0.248 NA
ATOM     17  C   UNL A   1      37.562  33.216  33.040  1.00  0.00     0.031 C 
ATOM     18  C   UNL A   1      38.131  30.532  28.824  1.00  0.00     0.029 A 
ATOM     19  N   UNL A   1      39.564  30.124  30.490  1.00  0.00    -0.354 N 
ATOM     20  C   UNL A   1      39.337  32.349  34.205  1.00  0.00     0.074 A 
ATOM     21  C   UNL A   1      38.248  33.306  34.171  1.00  0.00     0.031 C 
ATOM     22  C   UNL A   1      38.933  29.536  28.425  1.00  0.00     0.029 A 
ATOM     23  C   UNL A   1      39.907  29.262  29.474  1.00  0.00     0.049 A 
ATOM     24  H   UNL A   1      40.041  30.161  31.350  1.00  0.00     0.167 HD
ATOM     25  C   UNL A   1      40.164  32.158  35.264  1.00  0.00     0.034 A 
ATOM     26  C   UNL A   1      40.907  28.364  29.385  1.00  0.00     0.034 A 
ATOM     27  C   UNL A   1      41.252  31.207  35.274  1.00  0.00     0.049 A 
ATOM     28  C   UNL A   1      41.827  28.193  30.563  1.00  0.00     0.074 A 
ATOM     29  C   UNL A   1      42.156  30.937  36.288  1.00  0.00     0.029 A 
ATOM     30  N   UNL A   1      41.587  30.370  34.216  1.00  0.00    -0.354 N 
ATOM     31  N   UNL A   1      41.813  28.819  31.718  1.00  0.00    -0.248 NA
ATOM     32  C   UNL A   1      42.891  27.193  30.429  1.00  0.00     0.031 C 
ATOM     33  C   UNL A   1      43.068  29.980  35.826  1.00  0.00     0.029 A 
ATOM     34  C   UNL A   1      42.694  29.599  34.548  1.00  0.00     0.049 A 
ATOM     35  H   UNL A   1      41.110  30.328  33.357  1.00  0.00     0.167 HD
ATOM     36  C   UNL A   1      42.860  28.275  32.453  1.00  0.00     0.074 A 
ATOM     37  C   UNL A   1      43.461  27.251  31.622  1.00  0.00     0.031 C 
ATOM     38  C   UNL A   1      43.293  28.597  33.699  1.00  0.00     0.034 A 
BRANCH  25  39
ATOM     39  C   UNL A   1      39.942  33.021  36.484  1.00  0.00     0.023 A 
ATOM     40  C   UNL A   1      39.161  32.578  37.567  1.00  0.00     0.031 A 
ATOM     41  C   UNL A   1      40.505  34.307  36.562  1.00  0.00     0.131 A 
ATOM     42  C   UNL A   1      38.915  33.435  38.652  1.00  0.00     0.055 A 
ATOM     43  C   UNL A   1      40.318  35.128  37.677  1.00  0.00     0.041 A 
ATOM     44  F   UNL A   1      41.244  34.792  35.552  1.00  0.00    -0.206 F 
ATOM     45  C   UNL A   1      39.508  34.699  38.724  1.00  0.00     0.022 A 
BRANCH  42  46
ATOM     46  S   UNL A   1      37.710  32.924  39.906  1.00  0.00     0.124 S 
ATOM     47  O   UNL A   1      36.493  32.786  39.109  1.00  0.00    -0.237 OA
ATOM     48  O   UNL A   1      38.285  31.682  40.409  1.00  0.00    -0.237 OA
ATOM     49  O   UNL A   1      37.704  34.038  40.851  1.00  0.00    -0.744 OA
ENDBRANCH  42  46
ENDBRANCH  25  39
BRANCH  26  50
ATOM     50  C   UNL A   1      41.109  27.588  28.130  1.00  0.00     0.023 A 
ATOM     51  C   UNL A   1      40.795  26.223  28.058  1.00  0.00     0.031 A 
ATOM     52  C   UNL A   1      41.655  28.201  26.986  1.00  0.00     0.131 A 
ATOM     53  C   UNL A   1      41.070  25.504  26.883  1.00  0.00     0.055 A 
ATOM     54  C   UNL A   1      41.872  27.495  25.802  1.00  0.00     0.041 A 
ATOM     55  F   UNL A   1      41.968  29.506  27.000  1.00  0.00    -0.206 F 
ATOM     56  C   UNL A   1      41.593  26.134  25.752  1.00  0.00     0.022 A 
BRANCH  53  57
ATOM     57  S   UNL A   1      40.820  23.708  26.886  1.00  0.00     0.124 S 
ATOM     58  O   UNL A   1      41.756  23.275  25.855  1.00  0.00    -0.237 OA
ATOM     59  O   UNL A   1      41.172  23.357  28.259  1.00  0.00    -0.237 OA
ATOM     60  O   UNL A   1      39.406  23.560  26.549  1.00  0.00    -0.744 OA
ENDBRANCH  53  57
ENDBRANCH  26  50
BRANCH  38  61
ATOM     61  C   UNL A   1      44.456  27.800  34.232  1.00  0.00     0.023 A 
ATOM     62  C   UNL A   1      44.264  26.595  34.931  1.00  0.00     0.031 A 
ATOM     63  C   UNL A   1      45.771  28.274  34.077  1.00  0.00     0.131 A 
ATOM     64  C   UNL A   1      45.361  25.941  35.511  1.00  0.00     0.055 A 
ATOM     65  C   UNL A   1      46.865  27.587  34.604  1.00  0.00     0.041 A 
ATOM     66  F   UNL A   1      46.011  29.420  33.420  1.00  0.00    -0.206 F 
ATOM     67  C   UNL A   1      46.661  26.422  35.340  1.00  0.00     0.022 A 
BRANCH  64  68
ATOM     68  S   UNL A   1      45.053  24.510  36.582  1.00  0.00     0.124 S 
ATOM     69  O   UNL A   1      44.514  25.139  37.783  1.00  0.00    -0.237 OA
ATOM     70  O   UNL A   1      44.107  23.727  35.792  1.00  0.00    -0.237 OA
ATOM     71  O   UNL A   1      46.376  23.908  36.738  1.00  0.00    -0.744 OA
ENDBRANCH  64  68
ENDBRANCH  38  61
ENDBRANCH  12  13
ENDBRANCH   5   7
ENDBRANCH   2   3
ENDBRANCH   1   2
BRANCH   1  72
ATOM     72  C   UNL A   1      31.666  30.405  26.072  1.00  0.00     0.002 C 
BRANCH  72  73
ATOM     73  C   UNL A   1      31.816  29.326  27.148  1.00  0.00     0.002 C 
BRANCH  73  74
ATOM     74  C   UNL A   1      33.248  29.011  27.588  1.00  0.00     0.021 C 
BRANCH  74  75
ATOM     75  C   UNL A   1      34.248  28.811  26.455  1.00  0.00     0.116 C 
BRANCH  75  76
ATOM     76  N   UNL A   1      34.348  27.426  26.037  1.00  0.00    -0.351 N 
ATOM     77  C   UNL A   1      33.657  26.704  25.109  1.00  0.00     0.279 C 
ATOM     78  H   UNL A   1      35.043  26.915  26.509  1.00  0.00     0.163 HD
ATOM     79  O   UNL A   1      33.955  25.510  24.998  1.00  0.00    -0.268 OA
BRANCH  77  80
ATOM     80  C   UNL A   1      32.505  27.302  24.282  1.00  0.00     0.283 C 
ATOM     81  C   UNL A   1      32.837  27.275  22.794  1.00  0.00     0.151 C 
ATOM     82  N   UNL A   1      31.196  26.697  24.619  1.00  0.00    -0.320 N 
ATOM     83  S   UNL A   1      31.511  26.349  22.010  1.00  0.00    -0.087 SA
ATOM     84  C   UNL A   1      30.375  26.561  23.418  1.00  0.00     0.277 C 
ATOM     85  H   UNL A   1      30.712  27.294  25.290  1.00  0.00     0.348 HD
ATOM     86  H   UNL A   1      31.352  25.773  25.021  1.00  0.00     0.348 HD
BRANCH  84  87
ATOM     87  C   UNL A   1      29.374  27.672  23.165  1.00  0.00     0.059 A 
ATOM     88  C   UNL A   1      29.798  28.815  22.451  1.00  0.00     0.053 A 
ATOM     89  C   UNL A   1      28.026  27.625  23.551  1.00  0.00     0.133 A 
ATOM     90  C   UNL A   1      28.921  29.862  22.185  1.00  0.00     0.123 A 
ATOM     91  C   UNL A   1      27.146  28.675  23.268  1.00  0.00     0.043 A 
ATOM     92  F   UNL A   1      27.520  26.573  24.207  1.00  0.00    -0.206 F 
ATOM     93  F   UNL A   1      29.364  30.944  21.531  1.00  0.00    -0.207 F 
ATOM     94  C   UNL A   1      27.596  29.803  22.589  1.00  0.00     0.042 A 
ENDBRANCH  84  87
ENDBRANCH  77  80
ENDBRANCH  75  76
ENDBRANCH  74  75
ENDBRANCH  73  74
ENDBRANCH  72  73
ENDBRANCH   1  72
TORSDOF 17
ENDMDL
