MODEL 1
REMARK VINA RESULT:     -10.9      0.000      0.000
REMARK SMILES C[C@@H](CC(=O)NCCCCCCNC(=O)c1ccc(-c2c3nc(c(-c4cc(S(=O)(=O)[O-])ccc4F)c4ccc([nH]4)c(-c4cc(S(=O)(=O)[O-])ccc4F)c4nc(c(-c5cc(S(=O)(=O)[O-])ccc5F)c5ccc2[nH]5)C=C4)C=C3)cc1)NC(=O)[C@@H]1CCCN(C(N)=O)C1
REMARK SMILES IDX 9 1 8 2 7 3 6 4 4 5 5 6 3 8 2 9 1 10 79 11 80 12 81 14 82 15
REMARK SMILES IDX 83 16 90 17 84 18 86 19 85 20 87 21 88 22 89 23 10 26 11 27
REMARK SMILES IDX 12 28 13 29 14 30 15 32 16 33 17 34 78 35 18 36 77 37 19 38
REMARK SMILES IDX 20 39 21 40 71 41 22 42 76 43 70 44 72 45 23 46 75 47 69 48
REMARK SMILES IDX 68 49 24 51 56 52 36 53 55 54 37 55 40 56 54 57 73 58 38 59
REMARK SMILES IDX 39 60 53 62 74 63 41 64 25 65 26 66 34 67 27 68 33 69 35 70
REMARK SMILES IDX 32 71 28 72 29 73 30 74 31 75 57 76 58 77 66 78 59 79 65 80
REMARK SMILES IDX 67 81 64 82 60 83 61 84 62 85 63 86 42 87 43 88 51 89 44 90
REMARK SMILES IDX 50 91 52 92 49 93 45 94 46 95 47 96 48 97
REMARK H PARENT 6 7 79 13 88 24 88 25 13 31 72 50 40 61
REMARK Flexibility Score: inf
ROOT
ATOM      1  C   UNL A   1      33.021  29.948  26.680  1.00  0.00     0.002 C 
ENDROOT
BRANCH   1   2
ATOM      2  C   UNL A   1      32.744  28.559  27.259  1.00  0.00     0.021 C 
BRANCH   2   3
ATOM      3  C   UNL A   1      31.359  28.018  26.906  1.00  0.00     0.116 C 
BRANCH   3   4
ATOM      4  N   UNL A   1      31.384  26.571  26.914  1.00  0.00    -0.356 N 
ATOM      5  C   UNL A   1      31.396  25.711  25.865  1.00  0.00     0.222 C 
ATOM      6  O   UNL A   1      31.184  24.516  26.081  1.00  0.00    -0.275 OA
ATOM      7  H   UNL A   1      31.392  26.153  27.806  1.00  0.00     0.163 HD
BRANCH   5   8
ATOM      8  C   UNL A   1      31.691  26.207  24.467  1.00  0.00     0.124 C 
BRANCH   8   9
ATOM      9  C   UNL A   1      33.156  26.159  24.015  1.00  0.00     0.088 C 
ATOM     10  C   UNL A   1      33.655  27.424  23.327  1.00  0.00     0.031 C 
BRANCH   9  11
ATOM     11  N   UNL A   1      33.461  24.995  23.194  1.00  0.00    -0.353 N 
ATOM     12  C   UNL A   1      34.415  24.037  23.358  1.00  0.00     0.225 C 
ATOM     13  H   UNL A   1      32.891  24.884  22.399  1.00  0.00     0.163 HD
ATOM     14  O   UNL A   1      34.572  23.230  22.442  1.00  0.00    -0.275 OA
BRANCH  12  15
ATOM     15  C   UNL A   1      35.207  23.967  24.659  1.00  0.00     0.098 C 
ATOM     16  C   UNL A   1      36.645  23.475  24.444  1.00  0.00     0.017 C 
ATOM     17  C   UNL A   1      34.440  23.105  25.664  1.00  0.00     0.134 C 
ATOM     18  C   UNL A   1      36.758  21.958  24.288  1.00  0.00     0.022 C 
ATOM     19  N   UNL A   1      34.603  21.677  25.404  1.00  0.00    -0.324 N 
ATOM     20  C   UNL A   1      35.983  21.215  25.374  1.00  0.00     0.121 C 
BRANCH  19  21
ATOM     21  C   UNL A   1      33.593  20.784  25.141  1.00  0.00     0.314 C 
ATOM     22  N   UNL A   1      33.277  19.920  26.134  1.00  0.00    -0.351 N 
ATOM     23  O   UNL A   1      32.977  20.720  24.081  1.00  0.00    -0.249 OA
ATOM     24  H   UNL A   1      33.761  19.957  26.990  1.00  0.00     0.161 HD
ATOM     25  H   UNL A   1      32.565  19.254  25.999  1.00  0.00     0.161 HD
ENDBRANCH  19  21
ENDBRANCH  12  15
ENDBRANCH   9  11
ENDBRANCH   8   9
ENDBRANCH   5   8
ENDBRANCH   3   4
ENDBRANCH   2   3
ENDBRANCH   1   2
BRANCH   1  26
ATOM     26  C   UNL A   1      31.769  30.716  26.250  1.00  0.00     0.002 C 
BRANCH  26  27
ATOM     27  C   UNL A   1      31.599  32.086  26.912  1.00  0.00     0.021 C 
BRANCH  27  28
ATOM     28  C   UNL A   1      32.910  32.811  27.202  1.00  0.00     0.116 C 
BRANCH  28  29
ATOM     29  N   UNL A   1      32.676  34.153  27.709  1.00  0.00    -0.352 N 
ATOM     30  C   UNL A   1      33.174  34.748  28.839  1.00  0.00     0.251 C 
ATOM     31  H   UNL A   1      32.076  34.713  27.166  1.00  0.00     0.163 HD
ATOM     32  O   UNL A   1      32.662  35.785  29.260  1.00  0.00    -0.269 OA
BRANCH  30  33
ATOM     33  C   UNL A   1      34.312  34.131  29.549  1.00  0.00     0.039 A 
ATOM     34  C   UNL A   1      34.062  33.294  30.637  1.00  0.00     0.014 A 
ATOM     35  C   UNL A   1      35.625  34.385  29.140  1.00  0.00     0.014 A 
ATOM     36  C   UNL A   1      35.130  32.667  31.284  1.00  0.00     0.010 A 
ATOM     37  C   UNL A   1      36.679  33.701  29.737  1.00  0.00     0.010 A 
ATOM     38  C   UNL A   1      36.444  32.840  30.819  1.00  0.00    -0.014 A 
BRANCH  38  39
ATOM     39  C   UNL A   1      37.583  32.132  31.457  1.00  0.00     0.031 A 
ATOM     40  C   UNL A   1      38.067  32.556  32.818  1.00  0.00     0.074 A 
ATOM     41  C   UNL A   1      38.216  31.149  30.788  1.00  0.00     0.049 A 
ATOM     42  N   UNL A   1      39.083  32.111  33.511  1.00  0.00    -0.248 NA
ATOM     43  C   UNL A   1      37.326  33.646  33.472  1.00  0.00     0.031 C 
ATOM     44  C   UNL A   1      37.861  30.678  29.446  1.00  0.00     0.029 A 
ATOM     45  N   UNL A   1      39.292  30.372  31.135  1.00  0.00    -0.354 N 
ATOM     46  C   UNL A   1      39.112  32.872  34.675  1.00  0.00     0.074 A 
ATOM     47  C   UNL A   1      38.049  33.847  34.564  1.00  0.00     0.031 C 
ATOM     48  C   UNL A   1      38.687  29.680  29.097  1.00  0.00     0.029 A 
ATOM     49  C   UNL A   1      39.661  29.470  30.164  1.00  0.00     0.049 A 
ATOM     50  H   UNL A   1      39.757  30.452  31.999  1.00  0.00     0.167 HD
ATOM     51  C   UNL A   1      39.935  32.752  35.746  1.00  0.00     0.034 A 
ATOM     52  C   UNL A   1      40.677  28.585  30.129  1.00  0.00     0.034 A 
ATOM     53  C   UNL A   1      40.982  31.764  35.843  1.00  0.00     0.049 A 
ATOM     54  C   UNL A   1      41.596  28.487  31.321  1.00  0.00     0.074 A 
ATOM     55  C   UNL A   1      41.835  31.516  36.904  1.00  0.00     0.029 A 
ATOM     56  N   UNL A   1      41.328  30.868  34.840  1.00  0.00    -0.354 N 
ATOM     57  N   UNL A   1      41.574  29.178  32.438  1.00  0.00    -0.248 NA
ATOM     58  C   UNL A   1      42.665  27.485  31.253  1.00  0.00     0.031 C 
ATOM     59  C   UNL A   1      42.744  30.526  36.514  1.00  0.00     0.029 A 
ATOM     60  C   UNL A   1      42.405  30.092  35.242  1.00  0.00     0.049 A 
ATOM     61  H   UNL A   1      40.875  30.794  33.969  1.00  0.00     0.167 HD
ATOM     62  C   UNL A   1      42.609  28.667  33.219  1.00  0.00     0.074 A 
ATOM     63  C   UNL A   1      43.220  27.604  32.451  1.00  0.00     0.031 C 
ATOM     64  C   UNL A   1      43.013  29.040  34.461  1.00  0.00     0.034 A 
BRANCH  51  65
ATOM     65  C   UNL A   1      39.749  33.731  36.883  1.00  0.00     0.023 A 
ATOM     66  C   UNL A   1      39.218  33.332  38.123  1.00  0.00     0.031 A 
ATOM     67  C   UNL A   1      40.090  35.085  36.720  1.00  0.00     0.131 A 
ATOM     68  C   UNL A   1      38.972  34.289  39.120  1.00  0.00     0.055 A 
ATOM     69  C   UNL A   1      39.924  36.016  37.746  1.00  0.00     0.041 A 
ATOM     70  F   UNL A   1      40.581  35.530  35.552  1.00  0.00    -0.206 F 
ATOM     71  C   UNL A   1      39.347  35.624  38.951  1.00  0.00     0.022 A 
BRANCH  68  72
ATOM     72  S   UNL A   1      38.022  33.791  40.583  1.00  0.00     0.124 S 
ATOM     73  O   UNL A   1      38.987  32.949  41.287  1.00  0.00    -0.237 OA
ATOM     74  O   UNL A   1      37.713  35.070  41.209  1.00  0.00    -0.237 OA
ATOM     75  O   UNL A   1      36.877  33.078  40.021  1.00  0.00    -0.744 OA
ENDBRANCH  68  72
ENDBRANCH  51  65
BRANCH  52  76
ATOM     76  C   UNL A   1      40.895  27.729  28.926  1.00  0.00     0.023 A 
ATOM     77  C   UNL A   1      41.908  28.024  28.001  1.00  0.00     0.031 A 
ATOM     78  C   UNL A   1      40.062  26.628  28.661  1.00  0.00     0.131 A 
ATOM     79  C   UNL A   1      42.032  27.259  26.830  1.00  0.00     0.055 A 
ATOM     80  C   UNL A   1      40.225  25.834  27.524  1.00  0.00     0.041 A 
ATOM     81  F   UNL A   1      39.079  26.298  29.514  1.00  0.00    -0.206 F 
ATOM     82  C   UNL A   1      41.207  26.158  26.592  1.00  0.00     0.022 A 
BRANCH  79  83
ATOM     83  S   UNL A   1      43.228  27.784  25.571  1.00  0.00     0.124 S 
ATOM     84  O   UNL A   1      42.355  28.085  24.442  1.00  0.00    -0.237 OA
ATOM     85  O   UNL A   1      43.861  28.930  26.216  1.00  0.00    -0.237 OA
ATOM     86  O   UNL A   1      44.084  26.612  25.406  1.00  0.00    -0.744 OA
ENDBRANCH  79  83
ENDBRANCH  52  76
BRANCH  64  87
ATOM     87  C   UNL A   1      44.144  28.255  35.080  1.00  0.00     0.023 A 
ATOM     88  C   UNL A   1      43.923  27.043  35.758  1.00  0.00     0.031 A 
ATOM     89  C   UNL A   1      45.463  28.735  34.998  1.00  0.00     0.131 A 
ATOM     90  C   UNL A   1      44.996  26.383  36.376  1.00  0.00     0.055 A 
ATOM     91  C   UNL A   1      46.535  28.040  35.558  1.00  0.00     0.041 A 
ATOM     92  F   UNL A   1      45.733  29.889  34.366  1.00  0.00    -0.206 F 
ATOM     93  C   UNL A   1      46.303  26.863  36.264  1.00  0.00     0.022 A 
BRANCH  90  94
ATOM     94  S   UNL A   1      44.646  24.938  37.416  1.00  0.00     0.124 S 
ATOM     95  O   UNL A   1      45.312  23.868  36.682  1.00  0.00    -0.237 OA
ATOM     96  O   UNL A   1      45.257  25.313  38.687  1.00  0.00    -0.237 OA
ATOM     97  O   UNL A   1      43.186  24.869  37.427  1.00  0.00    -0.744 OA
ENDBRANCH  90  94
ENDBRANCH  64  87
ENDBRANCH  38  39
ENDBRANCH  30  33
ENDBRANCH  28  29
ENDBRANCH  27  28
ENDBRANCH  26  27
ENDBRANCH   1  26
TORSDOF 20
ENDMDL
MODEL 2
REMARK VINA RESULT:     -10.8      0.976      7.804
REMARK SMILES C[C@@H](CC(=O)NCCCCCCNC(=O)c1ccc(-c2c3nc(c(-c4cc(S(=O)(=O)[O-])ccc4F)c4ccc([nH]4)c(-c4cc(S(=O)(=O)[O-])ccc4F)c4nc(c(-c5cc(S(=O)(=O)[O-])ccc5F)c5ccc2[nH]5)C=C4)C=C3)cc1)NC(=O)[C@@H]1CCCN(C(N)=O)C1
REMARK SMILES IDX 9 1 8 2 7 3 6 4 4 5 5 6 3 8 2 9 1 10 79 11 80 12 81 14 82 15
REMARK SMILES IDX 83 16 90 17 84 18 86 19 85 20 87 21 88 22 89 23 10 26 11 27
REMARK SMILES IDX 12 28 13 29 14 30 15 32 16 33 17 34 78 35 18 36 77 37 19 38
REMARK SMILES IDX 20 39 21 40 71 41 22 42 76 43 70 44 72 45 23 46 75 47 69 48
REMARK SMILES IDX 68 49 24 51 56 52 36 53 55 54 37 55 40 56 54 57 73 58 38 59
REMARK SMILES IDX 39 60 53 62 74 63 41 64 25 65 26 66 34 67 27 68 33 69 35 70
REMARK SMILES IDX 32 71 28 72 29 73 30 74 31 75 57 76 58 77 66 78 59 79 65 80
REMARK SMILES IDX 67 81 64 82 60 83 61 84 62 85 63 86 42 87 43 88 51 89 44 90
REMARK SMILES IDX 50 91 52 92 49 93 45 94 46 95 47 96 48 97
REMARK H PARENT 6 7 79 13 88 24 88 25 13 31 72 50 40 61
REMARK Flexibility Score: inf
ROOT
ATOM      1  C   UNL A   1      31.144  30.142  24.500  1.00  0.00     0.002 C 
ENDROOT
BRANCH   1   2
ATOM      2  C   UNL A   1      30.349  28.894  24.110  1.00  0.00     0.021 C 
BRANCH   2   3
ATOM      3  C   UNL A   1      31.196  27.823  23.423  1.00  0.00     0.116 C 
BRANCH   3   4
ATOM      4  N   UNL A   1      30.622  26.518  23.665  1.00  0.00    -0.356 N 
ATOM      5  C   UNL A   1      30.914  25.622  24.642  1.00  0.00     0.222 C 
ATOM      6  O   UNL A   1      30.477  24.475  24.539  1.00  0.00    -0.275 OA
ATOM      7  H   UNL A   1      29.921  26.240  23.032  1.00  0.00     0.163 HD
BRANCH   5   8
ATOM      8  C   UNL A   1      31.736  26.035  25.842  1.00  0.00     0.124 C 
BRANCH   8   9
ATOM      9  C   UNL A   1      33.259  25.915  25.707  1.00  0.00     0.088 C 
ATOM     10  C   UNL A   1      34.015  27.237  25.787  1.00  0.00     0.031 C 
BRANCH   9  11
ATOM     11  N   UNL A   1      33.669  25.182  24.517  1.00  0.00    -0.353 N 
ATOM     12  C   UNL A   1      34.754  24.383  24.314  1.00  0.00     0.225 C 
ATOM     13  H   UNL A   1      33.072  25.278  23.740  1.00  0.00     0.163 HD
ATOM     14  O   UNL A   1      34.963  23.991  23.166  1.00  0.00    -0.275 OA
BRANCH  12  15
ATOM     15  C   UNL A   1      35.626  23.972  25.495  1.00  0.00     0.098 C 
ATOM     16  C   UNL A   1      37.059  23.623  25.070  1.00  0.00     0.017 C 
ATOM     17  C   UNL A   1      34.945  22.825  26.244  1.00  0.00     0.134 C 
ATOM     18  C   UNL A   1      37.198  22.222  24.473  1.00  0.00     0.022 C 
ATOM     19  N   UNL A   1      35.125  21.541  25.570  1.00  0.00    -0.324 N 
ATOM     20  C   UNL A   1      36.510  21.165  25.334  1.00  0.00     0.121 C 
BRANCH  19  21
ATOM     21  C   UNL A   1      34.121  20.722  25.112  1.00  0.00     0.314 C 
ATOM     22  N   UNL A   1      32.879  21.256  25.066  1.00  0.00    -0.351 N 
ATOM     23  O   UNL A   1      34.281  19.558  24.757  1.00  0.00    -0.249 OA
ATOM     24  H   UNL A   1      32.735  22.188  25.347  1.00  0.00     0.161 HD
ATOM     25  H   UNL A   1      32.121  20.713  24.751  1.00  0.00     0.161 HD
ENDBRANCH  19  21
ENDBRANCH  12  15
ENDBRANCH   9  11
ENDBRANCH   8   9
ENDBRANCH   5   8
ENDBRANCH   3   4
ENDBRANCH   2   3
ENDBRANCH   1   2
BRANCH   1  26
ATOM     26  C   UNL A   1      31.378  30.299  26.005  1.00  0.00     0.002 C 
BRANCH  26  27
ATOM     27  C   UNL A   1      31.352  31.744  26.510  1.00  0.00     0.021 C 
BRANCH  27  28
ATOM     28  C   UNL A   1      32.673  32.229  27.099  1.00  0.00     0.116 C 
BRANCH  28  29
ATOM     29  N   UNL A   1      32.603  33.629  27.484  1.00  0.00    -0.352 N 
ATOM     30  C   UNL A   1      33.281  34.285  28.478  1.00  0.00     0.251 C 
ATOM     31  H   UNL A   1      31.983  34.182  26.958  1.00  0.00     0.163 HD
ATOM     32  O   UNL A   1      32.903  35.399  28.843  1.00  0.00    -0.269 OA
BRANCH  30  33
ATOM     33  C   UNL A   1      34.449  33.645  29.113  1.00  0.00     0.039 A 
ATOM     34  C   UNL A   1      35.719  34.183  28.900  1.00  0.00     0.014 A 
ATOM     35  C   UNL A   1      34.288  32.510  29.915  1.00  0.00     0.014 A 
ATOM     36  C   UNL A   1      36.824  33.613  29.537  1.00  0.00     0.010 A 
ATOM     37  C   UNL A   1      35.378  31.992  30.607  1.00  0.00     0.010 A 
ATOM     38  C   UNL A   1      36.659  32.534  30.422  1.00  0.00    -0.014 A 
BRANCH  38  39
ATOM     39  C   UNL A   1      37.815  31.957  31.154  1.00  0.00     0.031 A 
ATOM     40  C   UNL A   1      38.642  30.870  30.520  1.00  0.00     0.074 A 
ATOM     41  C   UNL A   1      38.083  32.371  32.408  1.00  0.00     0.049 A 
ATOM     42  N   UNL A   1      39.644  30.195  31.021  1.00  0.00    -0.248 NA
ATOM     43  C   UNL A   1      38.273  30.471  29.153  1.00  0.00     0.031 C 
ATOM     44  C   UNL A   1      37.326  33.390  33.139  1.00  0.00     0.029 A 
ATOM     45  N   UNL A   1      39.057  31.984  33.294  1.00  0.00    -0.354 N 
ATOM     46  C   UNL A   1      40.018  29.285  30.038  1.00  0.00     0.074 A 
ATOM     47  C   UNL A   1      39.093  29.454  28.938  1.00  0.00     0.031 C 
ATOM     48  C   UNL A   1      37.879  33.564  34.350  1.00  0.00     0.029 A 
ATOM     49  C   UNL A   1      38.996  32.638  34.503  1.00  0.00     0.049 A 
ATOM     50  H   UNL A   1      39.735  31.303  33.085  1.00  0.00     0.167 HD
ATOM     51  C   UNL A   1      41.050  28.406  30.044  1.00  0.00     0.034 A 
ATOM     52  C   UNL A   1      39.746  32.497  35.614  1.00  0.00     0.034 A 
ATOM     53  C   UNL A   1      41.970  28.261  31.148  1.00  0.00     0.049 A 
ATOM     54  C   UNL A   1      40.873  31.495  35.608  1.00  0.00     0.074 A 
ATOM     55  C   UNL A   1      43.083  27.444  31.237  1.00  0.00     0.029 A 
ATOM     56  N   UNL A   1      41.877  28.938  32.357  1.00  0.00    -0.354 N 
ATOM     57  N   UNL A   1      41.246  30.679  34.648  1.00  0.00    -0.248 NA
ATOM     58  C   UNL A   1      41.684  31.402  36.827  1.00  0.00     0.031 C 
ATOM     59  C   UNL A   1      43.617  27.570  32.525  1.00  0.00     0.029 A 
ATOM     60  C   UNL A   1      42.891  28.531  33.211  1.00  0.00     0.049 A 
ATOM     61  H   UNL A   1      41.191  29.609  32.576  1.00  0.00     0.167 HD
ATOM     62  C   UNL A   1      42.359  30.002  35.140  1.00  0.00     0.074 A 
ATOM     63  C   UNL A   1      42.602  30.515  36.471  1.00  0.00     0.031 C 
ATOM     64  C   UNL A   1      43.116  29.045  34.542  1.00  0.00     0.034 A 
BRANCH  51  65
ATOM     65  C   UNL A   1      41.220  27.518  28.833  1.00  0.00     0.023 A 
ATOM     66  C   UNL A   1      42.248  27.731  27.897  1.00  0.00     0.031 A 
ATOM     67  C   UNL A   1      40.330  26.454  28.600  1.00  0.00     0.131 A 
ATOM     68  C   UNL A   1      42.314  26.944  26.737  1.00  0.00     0.055 A 
ATOM     69  C   UNL A   1      40.454  25.620  27.487  1.00  0.00     0.041 A 
ATOM     70  F   UNL A   1      39.316  26.214  29.446  1.00  0.00    -0.206 F 
ATOM     71  C   UNL A   1      41.441  25.872  26.539  1.00  0.00     0.022 A 
BRANCH  68  72
ATOM     72  S   UNL A   1      43.463  27.435  25.423  1.00  0.00     0.124 S 
ATOM     73  O   UNL A   1      42.545  27.746  24.329  1.00  0.00    -0.237 OA
ATOM     74  O   UNL A   1      44.156  28.571  26.018  1.00  0.00    -0.237 OA
ATOM     75  O   UNL A   1      44.281  26.241  25.220  1.00  0.00    -0.744 OA
ENDBRANCH  68  72
ENDBRANCH  51  65
BRANCH  52  76
ATOM     76  C   UNL A   1      39.454  33.310  36.832  1.00  0.00     0.023 A 
ATOM     77  C   UNL A   1      38.719  32.775  37.901  1.00  0.00     0.031 A 
ATOM     78  C   UNL A   1      39.871  34.650  36.924  1.00  0.00     0.131 A 
ATOM     79  C   UNL A   1      38.379  33.589  38.993  1.00  0.00     0.055 A 
ATOM     80  C   UNL A   1      39.580  35.439  38.038  1.00  0.00     0.041 A 
ATOM     81  F   UNL A   1      40.581  35.211  35.932  1.00  0.00    -0.206 F 
ATOM     82  C   UNL A   1      38.816  34.913  39.075  1.00  0.00     0.022 A 
BRANCH  79  83
ATOM     83  S   UNL A   1      37.270  32.921  40.264  1.00  0.00     0.124 S 
ATOM     84  O   UNL A   1      37.906  31.644  40.568  1.00  0.00    -0.237 OA
ATOM     85  O   UNL A   1      37.352  33.942  41.302  1.00  0.00    -0.237 OA
ATOM     86  O   UNL A   1      35.983  32.832  39.579  1.00  0.00    -0.744 OA
ENDBRANCH  79  83
ENDBRANCH  52  76
BRANCH  64  87
ATOM     87  C   UNL A   1      44.306  28.528  35.314  1.00  0.00     0.023 A 
ATOM     88  C   UNL A   1      44.192  27.476  36.239  1.00  0.00     0.031 A 
ATOM     89  C   UNL A   1      45.574  29.107  35.125  1.00  0.00     0.131 A 
ATOM     90  C   UNL A   1      45.313  27.075  36.982  1.00  0.00     0.055 A 
ATOM     91  C   UNL A   1      46.698  28.659  35.819  1.00  0.00     0.041 A 
ATOM     92  F   UNL A   1      45.742  30.118  34.256  1.00  0.00    -0.206 F 
ATOM     93  C   UNL A   1      46.569  27.646  36.764  1.00  0.00     0.022 A 
BRANCH  90  94
ATOM     94  S   UNL A   1      45.086  25.862  38.312  1.00  0.00     0.124 S 
ATOM     95  O   UNL A   1      44.044  26.487  39.119  1.00  0.00    -0.237 OA
ATOM     96  O   UNL A   1      44.690  24.664  37.578  1.00  0.00    -0.237 OA
ATOM     97  O   UNL A   1      46.404  25.793  38.942  1.00  0.00    -0.744 OA
ENDBRANCH  90  94
ENDBRANCH  64  87
ENDBRANCH  38  39
ENDBRANCH  30  33
ENDBRANCH  28  29
ENDBRANCH  27  28
ENDBRANCH  26  27
ENDBRANCH   1  26
TORSDOF 20
ENDMDL
MODEL 3
REMARK VINA RESULT:     -10.6      1.883      2.302
REMARK SMILES C[C@@H](CC(=O)NCCCCCCNC(=O)c1ccc(-c2c3nc(c(-c4cc(S(=O)(=O)[O-])ccc4F)c4ccc([nH]4)c(-c4cc(S(=O)(=O)[O-])ccc4F)c4nc(c(-c5cc(S(=O)(=O)[O-])ccc5F)c5ccc2[nH]5)C=C4)C=C3)cc1)NC(=O)[C@@H]1CCCN(C(N)=O)C1
REMARK SMILES IDX 9 1 8 2 7 3 6 4 4 5 5 6 3 8 2 9 1 10 79 11 80 12 81 14 82 15
REMARK SMILES IDX 83 16 90 17 84 18 86 19 85 20 87 21 88 22 89 23 10 26 11 27
REMARK SMILES IDX 12 28 13 29 14 30 15 32 16 33 17 34 78 35 18 36 77 37 19 38
REMARK SMILES IDX 20 39 21 40 71 41 22 42 76 43 70 44 72 45 23 46 75 47 69 48
REMARK SMILES IDX 68 49 24 51 56 52 36 53 55 54 37 55 40 56 54 57 73 58 38 59
REMARK SMILES IDX 39 60 53 62 74 63 41 64 25 65 26 66 34 67 27 68 33 69 35 70
REMARK SMILES IDX 32 71 28 72 29 73 30 74 31 75 57 76 58 77 66 78 59 79 65 80
REMARK SMILES IDX 67 81 64 82 60 83 61 84 62 85 63 86 42 87 43 88 51 89 44 90
REMARK SMILES IDX 50 91 52 92 49 93 45 94 46 95 47 96 48 97
REMARK H PARENT 6 7 79 13 88 24 88 25 13 31 72 50 40 61
REMARK Flexibility Score: inf
ROOT
ATOM      1  C   UNL A   1      31.739  29.787  25.550  1.00  0.00     0.002 C 
ENDROOT
BRANCH   1   2
ATOM      2  C   UNL A   1      33.068  29.261  25.005  1.00  0.00     0.021 C 
BRANCH   2   3
ATOM      3  C   UNL A   1      33.032  28.948  23.510  1.00  0.00     0.116 C 
BRANCH   3   4
ATOM      4  N   UNL A   1      31.685  29.115  23.008  1.00  0.00    -0.356 N 
ATOM      5  C   UNL A   1      30.847  28.185  22.483  1.00  0.00     0.222 C 
ATOM      6  O   UNL A   1      29.831  28.570  21.903  1.00  0.00    -0.275 OA
ATOM      7  H   UNL A   1      31.327  30.031  23.054  1.00  0.00     0.163 HD
BRANCH   5   8
ATOM      8  C   UNL A   1      31.145  26.710  22.632  1.00  0.00     0.124 C 
BRANCH   8   9
ATOM      9  C   UNL A   1      30.163  25.892  23.479  1.00  0.00     0.088 C 
ATOM     10  C   UNL A   1      29.962  26.406  24.901  1.00  0.00     0.031 C 
BRANCH   9  11
ATOM     11  N   UNL A   1      30.480  24.471  23.506  1.00  0.00    -0.353 N 
ATOM     12  C   UNL A   1      31.673  23.846  23.711  1.00  0.00     0.225 C 
ATOM     13  H   UNL A   1      29.716  23.869  23.350  1.00  0.00     0.163 HD
ATOM     14  O   UNL A   1      31.713  22.629  23.537  1.00  0.00    -0.275 OA
BRANCH  12  15
ATOM     15  C   UNL A   1      32.879  24.649  24.186  1.00  0.00     0.098 C 
ATOM     16  C   UNL A   1      34.183  24.203  23.509  1.00  0.00     0.017 C 
ATOM     17  C   UNL A   1      32.961  24.574  25.712  1.00  0.00     0.134 C 
ATOM     18  C   UNL A   1      34.784  22.933  24.112  1.00  0.00     0.022 C 
ATOM     19  N   UNL A   1      33.529  23.309  26.173  1.00  0.00    -0.324 N 
ATOM     20  C   UNL A   1      34.845  23.000  25.636  1.00  0.00     0.121 C 
BRANCH  19  21
ATOM     21  C   UNL A   1      32.913  22.402  27.000  1.00  0.00     0.314 C 
ATOM     22  N   UNL A   1      32.458  21.268  26.419  1.00  0.00    -0.351 N 
ATOM     23  O   UNL A   1      32.750  22.558  28.207  1.00  0.00    -0.249 OA
ATOM     24  H   UNL A   1      32.580  21.127  25.453  1.00  0.00     0.161 HD
ATOM     25  H   UNL A   1      32.003  20.584  26.963  1.00  0.00     0.161 HD
ENDBRANCH  19  21
ENDBRANCH  12  15
ENDBRANCH   9  11
ENDBRANCH   8   9
ENDBRANCH   5   8
ENDBRANCH   3   4
ENDBRANCH   2   3
ENDBRANCH   1   2
BRANCH   1  26
ATOM     26  C   UNL A   1      31.836  30.451  26.926  1.00  0.00     0.002 C 
BRANCH  26  27
ATOM     27  C   UNL A   1      31.711  31.977  26.912  1.00  0.00     0.021 C 
BRANCH  27  28
ATOM     28  C   UNL A   1      33.031  32.717  27.106  1.00  0.00     0.116 C 
BRANCH  28  29
ATOM     29  N   UNL A   1      32.827  34.022  27.713  1.00  0.00    -0.352 N 
ATOM     30  C   UNL A   1      33.371  34.534  28.861  1.00  0.00     0.251 C 
ATOM     31  H   UNL A   1      32.211  34.621  27.232  1.00  0.00     0.163 HD
ATOM     32  O   UNL A   1      32.882  35.543  29.372  1.00  0.00    -0.269 OA
BRANCH  30  33
ATOM     33  C   UNL A   1      34.529  33.864  29.484  1.00  0.00     0.039 A 
ATOM     34  C   UNL A   1      34.309  32.814  30.376  1.00  0.00     0.014 A 
ATOM     35  C   UNL A   1      35.832  34.278  29.188  1.00  0.00     0.014 A 
ATOM     36  C   UNL A   1      35.400  32.142  30.932  1.00  0.00     0.010 A 
ATOM     37  C   UNL A   1      36.915  33.560  29.683  1.00  0.00     0.010 A 
ATOM     38  C   UNL A   1      36.712  32.488  30.565  1.00  0.00    -0.014 A 
BRANCH  38  39
ATOM     39  C   UNL A   1      37.880  31.743  31.100  1.00  0.00     0.031 A 
ATOM     40  C   UNL A   1      38.434  32.084  32.457  1.00  0.00     0.074 A 
ATOM     41  C   UNL A   1      38.475  30.802  30.340  1.00  0.00     0.049 A 
ATOM     42  N   UNL A   1      39.484  31.597  33.068  1.00  0.00    -0.248 NA
ATOM     43  C   UNL A   1      37.731  33.131  33.214  1.00  0.00     0.031 C 
ATOM     44  C   UNL A   1      38.050  30.414  28.992  1.00  0.00     0.029 A 
ATOM     45  N   UNL A   1      39.566  30.006  30.584  1.00  0.00    -0.354 N 
ATOM     46  C   UNL A   1      39.574  32.285  34.274  1.00  0.00     0.074 A 
ATOM     47  C   UNL A   1      38.509  33.266  34.277  1.00  0.00     0.031 C 
ATOM     48  C   UNL A   1      38.855  29.440  28.541  1.00  0.00     0.029 A 
ATOM     49  C   UNL A   1      39.882  29.166  29.542  1.00  0.00     0.049 A 
ATOM     50  H   UNL A   1      40.075  30.034  31.425  1.00  0.00     0.167 HD
ATOM     51  C   UNL A   1      40.451  32.101  35.292  1.00  0.00     0.034 A 
ATOM     52  C   UNL A   1      40.892  28.285  29.400  1.00  0.00     0.034 A 
ATOM     53  C   UNL A   1      41.499  31.109  35.274  1.00  0.00     0.049 A 
ATOM     54  C   UNL A   1      41.871  28.114  30.536  1.00  0.00     0.074 A 
ATOM     55  C   UNL A   1      42.405  30.797  36.273  1.00  0.00     0.029 A 
ATOM     56  N   UNL A   1      41.791  30.277  34.202  1.00  0.00    -0.354 N 
ATOM     57  N   UNL A   1      41.909  28.736  31.692  1.00  0.00    -0.248 NA
ATOM     58  C   UNL A   1      42.932  27.119  30.352  1.00  0.00     0.031 C 
ATOM     59  C   UNL A   1      43.290  29.833  35.777  1.00  0.00     0.029 A 
ATOM     60  C   UNL A   1      42.884  29.478  34.501  1.00  0.00     0.049 A 
ATOM     61  H   UNL A   1      41.293  30.256  33.352  1.00  0.00     0.167 HD
ATOM     62  C   UNL A   1      42.980  28.179  32.386  1.00  0.00     0.074 A 
ATOM     63  C   UNL A   1      43.548  27.164  31.524  1.00  0.00     0.031 C 
ATOM     64  C   UNL A   1      43.448  28.476  33.626  1.00  0.00     0.034 A 
BRANCH  51  65
ATOM     65  C   UNL A   1      40.326  33.009  36.494  1.00  0.00     0.023 A 
ATOM     66  C   UNL A   1      39.606  32.625  37.640  1.00  0.00     0.031 A 
ATOM     67  C   UNL A   1      40.920  34.283  36.489  1.00  0.00     0.131 A 
ATOM     68  C   UNL A   1      39.434  33.533  38.696  1.00  0.00     0.055 A 
ATOM     69  C   UNL A   1      40.817  35.149  37.579  1.00  0.00     0.041 A 
ATOM     70  F   UNL A   1      41.601  34.715  35.416  1.00  0.00    -0.206 F 
ATOM     71  C   UNL A   1      40.058  34.782  38.686  1.00  0.00     0.022 A 
BRANCH  68  72
ATOM     72  S   UNL A   1      38.263  33.112  40.017  1.00  0.00     0.124 S 
ATOM     73  O   UNL A   1      38.769  31.813  40.456  1.00  0.00    -0.237 OA
ATOM     74  O   UNL A   1      38.436  34.215  40.954  1.00  0.00    -0.237 OA
ATOM     75  O   UNL A   1      36.973  33.071  39.330  1.00  0.00    -0.744 OA
ENDBRANCH  68  72
ENDBRANCH  51  65
BRANCH  52  76
ATOM     76  C   UNL A   1      41.045  27.504  28.138  1.00  0.00     0.023 A 
ATOM     77  C   UNL A   1      40.725  26.138  28.087  1.00  0.00     0.031 A 
ATOM     78  C   UNL A   1      41.556  28.104  26.974  1.00  0.00     0.131 A 
ATOM     79  C   UNL A   1      40.966  25.405  26.915  1.00  0.00     0.055 A 
ATOM     80  C   UNL A   1      41.740  27.385  25.791  1.00  0.00     0.041 A 
ATOM     81  F   UNL A   1      41.874  29.408  26.964  1.00  0.00    -0.206 F 
ATOM     82  C   UNL A   1      41.458  26.022  25.762  1.00  0.00     0.022 A 
BRANCH  79  83
ATOM     83  S   UNL A   1      40.719  23.609  26.946  1.00  0.00     0.124 S 
ATOM     84  O   UNL A   1      41.682  23.160  25.947  1.00  0.00    -0.237 OA
ATOM     85  O   UNL A   1      41.034  23.285  28.334  1.00  0.00    -0.237 OA
ATOM     86  O   UNL A   1      39.314  23.453  26.575  1.00  0.00    -0.744 OA
ENDBRANCH  79  83
ENDBRANCH  52  76
BRANCH  64  87
ATOM     87  C   UNL A   1      44.608  27.655  34.138  1.00  0.00     0.023 A 
ATOM     88  C   UNL A   1      44.415  26.434  34.808  1.00  0.00     0.031 A 
ATOM     89  C   UNL A   1      45.927  28.109  33.959  1.00  0.00     0.131 A 
ATOM     90  C   UNL A   1      45.519  25.740  35.325  1.00  0.00     0.055 A 
ATOM     91  C   UNL A   1      47.024  27.380  34.417  1.00  0.00     0.041 A 
ATOM     92  F   UNL A   1      46.171  29.270  33.329  1.00  0.00    -0.206 F 
ATOM     93  C   UNL A   1      46.823  26.194  35.117  1.00  0.00     0.022 A 
BRANCH  90  94
ATOM     94  S   UNL A   1      45.221  24.281  36.361  1.00  0.00     0.124 S 
ATOM     95  O   UNL A   1      44.605  24.870  37.545  1.00  0.00    -0.237 OA
ATOM     96  O   UNL A   1      44.343  23.474  35.521  1.00  0.00    -0.237 OA
ATOM     97  O   UNL A   1      46.559  23.728  36.568  1.00  0.00    -0.744 OA
ENDBRANCH  90  94
ENDBRANCH  64  87
ENDBRANCH  38  39
ENDBRANCH  30  33
ENDBRANCH  28  29
ENDBRANCH  27  28
ENDBRANCH  26  27
ENDBRANCH   1  26
TORSDOF 20
ENDMDL
