MODEL 1
REMARK VINA RESULT:     -12.2      0.000      0.000
REMARK SMILES C[C@H]1[C@@H](C(=O)NCCCCCCNC(=O)c2ccc(-c3c4nc(c(-c5cc(S(=O)(=O)[O-])ccc5F)c5ccc([nH]5)c(-c5cc(S(=O)(=O)[O-])ccc5F)c5nc(c(-c6cc(S(=O)(=O)[O-])ccc6F)c6ccc3[nH]6)C=C5)C=C4)cc2)CC[N@@H+]1Cc1cc(F)c(F)c(F)c1
REMARK SMILES IDX 10 1 9 2 8 3 7 4 6 5 4 6 5 7 3 9 1 10 2 11 81 12 79 13 80 14
REMARK SMILES IDX 82 16 83 17 84 18 91 19 85 20 89 21 86 22 87 23 90 24 88 25
REMARK SMILES IDX 11 26 12 27 13 28 14 29 15 31 16 32 17 33 78 34 18 35 77 36
REMARK SMILES IDX 19 37 20 38 21 39 71 40 22 41 76 42 70 43 72 44 23 45 75 46
REMARK SMILES IDX 69 47 68 48 24 50 56 51 36 52 55 53 37 54 40 55 54 56 73 57
REMARK SMILES IDX 38 58 39 59 53 61 74 62 41 63 25 64 26 65 34 66 27 67 33 68
REMARK SMILES IDX 35 69 32 70 28 71 29 72 30 73 31 74 57 75 58 76 66 77 59 78
REMARK SMILES IDX 65 79 67 80 64 81 60 82 61 83 62 84 63 85 42 86 43 87 51 88
REMARK SMILES IDX 44 89 50 90 52 91 49 92 45 93 46 94 47 95 48 96
REMARK H PARENT 6 8 81 15 13 30 72 49 40 60
REMARK Flexibility Score: inf
ROOT
ATOM      1  C   UNL A   1      31.366  30.727  26.292  1.00  0.00     0.002 C 
ENDROOT
BRANCH   1   2
ATOM      2  C   UNL A   1      32.656  30.112  25.750  1.00  0.00     0.002 C 
BRANCH   2   3
ATOM      3  C   UNL A   1      32.440  29.058  24.661  1.00  0.00     0.021 C 
BRANCH   3   4
ATOM      4  C   UNL A   1      33.643  28.133  24.443  1.00  0.00     0.116 C 
BRANCH   4   5
ATOM      5  N   UNL A   1      33.418  27.381  23.231  1.00  0.00    -0.356 N 
ATOM      6  C   UNL A   1      33.564  26.046  23.013  1.00  0.00     0.229 C 
ATOM      7  O   UNL A   1      33.823  25.725  21.848  1.00  0.00    -0.275 OA
ATOM      8  H   UNL A   1      33.118  27.908  22.456  1.00  0.00     0.163 HD
BRANCH   6   9
ATOM      9  C   UNL A   1      33.217  25.009  24.092  1.00  0.00     0.142 C 
ATOM     10  C   UNL A   1      35.192  23.313  23.490  1.00  0.00     0.076 C 
ATOM     11  C   UNL A   1      33.899  23.621  24.223  1.00  0.00     0.193 C 
ATOM     12  N   UNL A   1      32.928  22.615  23.757  1.00  0.00    -0.328 N 
ATOM     13  C   UNL A   1      31.735  24.621  23.924  1.00  0.00     0.081 C 
ATOM     14  C   UNL A   1      31.804  23.315  23.160  1.00  0.00     0.263 C 
ATOM     15  H   UNL A   1      33.358  22.049  23.026  1.00  0.00     0.348 HD
BRANCH  12  16
ATOM     16  C   UNL A   1      32.635  21.516  24.678  1.00  0.00     0.299 C 
BRANCH  16  17
ATOM     17  C   UNL A   1      32.988  20.116  24.221  1.00  0.00     0.012 A 
ATOM     18  C   UNL A   1      32.235  19.469  23.227  1.00  0.00     0.052 A 
ATOM     19  C   UNL A   1      34.077  19.429  24.785  1.00  0.00     0.052 A 
ATOM     20  C   UNL A   1      32.590  18.191  22.794  1.00  0.00     0.162 A 
ATOM     21  C   UNL A   1      34.432  18.164  24.322  1.00  0.00     0.162 A 
ATOM     22  F   UNL A   1      31.854  17.593  21.847  1.00  0.00    -0.204 F 
ATOM     23  C   UNL A   1      33.694  17.543  23.328  1.00  0.00     0.194 A 
ATOM     24  F   UNL A   1      35.509  17.558  24.843  1.00  0.00    -0.204 F 
ATOM     25  F   UNL A   1      34.044  16.324  22.889  1.00  0.00    -0.200 F 
ENDBRANCH  16  17
ENDBRANCH  12  16
ENDBRANCH   6   9
ENDBRANCH   4   5
ENDBRANCH   3   4
ENDBRANCH   2   3
ENDBRANCH   1   2
BRANCH   1  26
ATOM     26  C   UNL A   1      31.421  32.240  26.532  1.00  0.00     0.021 C 
BRANCH  26  27
ATOM     27  C   UNL A   1      32.691  32.730  27.225  1.00  0.00     0.116 C 
BRANCH  27  28
ATOM     28  N   UNL A   1      32.541  34.089  27.718  1.00  0.00    -0.352 N 
ATOM     29  C   UNL A   1      33.130  34.684  28.802  1.00  0.00     0.251 C 
ATOM     30  H   UNL A   1      31.930  34.662  27.201  1.00  0.00     0.163 HD
ATOM     31  O   UNL A   1      32.679  35.746  29.235  1.00  0.00    -0.269 OA
BRANCH  29  32
ATOM     32  C   UNL A   1      34.293  34.048  29.452  1.00  0.00     0.039 A 
ATOM     33  C   UNL A   1      35.579  34.367  29.012  1.00  0.00     0.014 A 
ATOM     34  C   UNL A   1      34.112  33.120  30.483  1.00  0.00     0.014 A 
ATOM     35  C   UNL A   1      36.688  33.795  29.641  1.00  0.00     0.010 A 
ATOM     36  C   UNL A   1      35.218  32.604  31.154  1.00  0.00     0.010 A 
ATOM     37  C   UNL A   1      36.517  32.930  30.734  1.00  0.00    -0.014 A 
BRANCH  37  38
ATOM     38  C   UNL A   1      37.686  32.346  31.442  1.00  0.00     0.031 A 
ATOM     39  C   UNL A   1      38.445  31.202  30.826  1.00  0.00     0.074 A 
ATOM     40  C   UNL A   1      38.026  32.808  32.661  1.00  0.00     0.049 A 
ATOM     41  N   UNL A   1      39.443  30.512  31.313  1.00  0.00    -0.248 NA
ATOM     42  C   UNL A   1      37.998  30.759  29.496  1.00  0.00     0.031 C 
ATOM     43  C   UNL A   1      37.341  33.888  33.376  1.00  0.00     0.029 A 
ATOM     44  N   UNL A   1      39.024  32.425  33.521  1.00  0.00    -0.354 N 
ATOM     45  C   UNL A   1      39.739  29.546  30.357  1.00  0.00     0.074 A 
ATOM     46  C   UNL A   1      38.770  29.702  29.292  1.00  0.00     0.031 C 
ATOM     47  C   UNL A   1      37.954  34.095  34.551  1.00  0.00     0.029 A 
ATOM     48  C   UNL A   1      39.045  33.137  34.697  1.00  0.00     0.049 A 
ATOM     49  H   UNL A   1      39.666  31.707  33.313  1.00  0.00     0.167 HD
ATOM     50  C   UNL A   1      40.741  28.631  30.355  1.00  0.00     0.034 A 
ATOM     51  C   UNL A   1      39.845  33.021  35.776  1.00  0.00     0.034 A 
ATOM     52  C   UNL A   1      41.703  28.497  31.423  1.00  0.00     0.049 A 
ATOM     53  C   UNL A   1      40.933  31.977  35.766  1.00  0.00     0.074 A 
ATOM     54  C   UNL A   1      42.790  27.644  31.504  1.00  0.00     0.029 A 
ATOM     55  N   UNL A   1      41.690  29.232  32.603  1.00  0.00    -0.354 N 
ATOM     56  N   UNL A   1      41.232  31.104  34.832  1.00  0.00    -0.248 NA
ATOM     57  C   UNL A   1      41.796  31.911  36.952  1.00  0.00     0.031 C 
ATOM     58  C   UNL A   1      43.390  27.813  32.756  1.00  0.00     0.029 A 
ATOM     59  C   UNL A   1      42.728  28.827  33.429  1.00  0.00     0.049 A 
ATOM     60  H   UNL A   1      41.038  29.937  32.820  1.00  0.00     0.167 HD
ATOM     61  C   UNL A   1      42.336  30.404  35.308  1.00  0.00     0.074 A 
ATOM     62  C   UNL A   1      42.659  30.968  36.602  1.00  0.00     0.031 C 
ATOM     63  C   UNL A   1      43.027  29.388  34.725  1.00  0.00     0.034 A 
BRANCH  50  64
ATOM     64  C   UNL A   1      40.821  27.692  29.175  1.00  0.00     0.023 A 
ATOM     65  C   UNL A   1      41.740  27.896  28.129  1.00  0.00     0.031 A 
ATOM     66  C   UNL A   1      39.946  26.595  29.073  1.00  0.00     0.131 A 
ATOM     67  C   UNL A   1      41.706  27.072  26.995  1.00  0.00     0.055 A 
ATOM     68  C   UNL A   1      39.976  25.727  27.980  1.00  0.00     0.041 A 
ATOM     69  F   UNL A   1      39.033  26.358  30.028  1.00  0.00    -0.206 F 
ATOM     70  C   UNL A   1      40.848  25.973  26.924  1.00  0.00     0.022 A 
BRANCH  67  71
ATOM     71  S   UNL A   1      42.692  27.551  25.549  1.00  0.00     0.124 S 
ATOM     72  O   UNL A   1      44.027  27.671  26.131  1.00  0.00    -0.237 OA
ATOM     73  O   UNL A   1      42.489  26.427  24.642  1.00  0.00    -0.237 OA
ATOM     74  O   UNL A   1      42.090  28.813  25.125  1.00  0.00    -0.744 OA
ENDBRANCH  67  71
ENDBRANCH  50  64
BRANCH  51  75
ATOM     75  C   UNL A   1      39.648  33.905  36.960  1.00  0.00     0.023 A 
ATOM     76  C   UNL A   1      39.039  33.422  38.129  1.00  0.00     0.031 A 
ATOM     77  C   UNL A   1      40.033  35.257  36.927  1.00  0.00     0.131 A 
ATOM     78  C   UNL A   1      38.789  34.294  39.200  1.00  0.00     0.055 A 
ATOM     79  C   UNL A   1      39.830  36.109  38.015  1.00  0.00     0.041 A 
ATOM     80  F   UNL A   1      40.626  35.768  35.836  1.00  0.00    -0.206 F 
ATOM     81  C   UNL A   1      39.194  35.631  39.156  1.00  0.00     0.022 A 
BRANCH  78  82
ATOM     82  S   UNL A   1      37.856  33.675  40.625  1.00  0.00     0.124 S 
ATOM     83  O   UNL A   1      38.881  32.931  41.350  1.00  0.00    -0.237 OA
ATOM     84  O   UNL A   1      37.398  34.911  41.248  1.00  0.00    -0.237 OA
ATOM     85  O   UNL A   1      36.808  32.860  40.017  1.00  0.00    -0.744 OA
ENDBRANCH  78  82
ENDBRANCH  51  75
BRANCH  63  86
ATOM     86  C   UNL A   1      44.220  28.855  35.478  1.00  0.00     0.023 A 
ATOM     87  C   UNL A   1      44.102  27.805  36.405  1.00  0.00     0.031 A 
ATOM     88  C   UNL A   1      45.494  29.416  35.273  1.00  0.00     0.131 A 
ATOM     89  C   UNL A   1      45.225  27.387  37.135  1.00  0.00     0.055 A 
ATOM     90  C   UNL A   1      46.619  28.954  35.957  1.00  0.00     0.041 A 
ATOM     91  F   UNL A   1      45.664  30.423  34.402  1.00  0.00    -0.206 F 
ATOM     92  C   UNL A   1      46.486  27.942  36.904  1.00  0.00     0.022 A 
BRANCH  89  93
ATOM     93  S   UNL A   1      44.999  26.166  38.457  1.00  0.00     0.124 S 
ATOM     94  O   UNL A   1      46.374  25.919  38.879  1.00  0.00    -0.237 OA
ATOM     95  O   UNL A   1      44.159  26.887  39.408  1.00  0.00    -0.237 OA
ATOM     96  O   UNL A   1      44.347  25.045  37.782  1.00  0.00    -0.744 OA
ENDBRANCH  89  93
ENDBRANCH  63  86
ENDBRANCH  37  38
ENDBRANCH  29  32
ENDBRANCH  27  28
ENDBRANCH  26  27
ENDBRANCH   1  26
TORSDOF 18
ENDMDL
MODEL 2
REMARK VINA RESULT:     -12.0      1.451      2.032
REMARK SMILES C[C@H]1[C@@H](C(=O)NCCCCCCNC(=O)c2ccc(-c3c4nc(c(-c5cc(S(=O)(=O)[O-])ccc5F)c5ccc([nH]5)c(-c5cc(S(=O)(=O)[O-])ccc5F)c5nc(c(-c6cc(S(=O)(=O)[O-])ccc6F)c6ccc3[nH]6)C=C5)C=C4)cc2)CC[N@@H+]1Cc1cc(F)c(F)c(F)c1
REMARK SMILES IDX 10 1 9 2 8 3 7 4 6 5 4 6 5 7 3 9 1 10 2 11 81 12 79 13 80 14
REMARK SMILES IDX 82 16 83 17 84 18 91 19 85 20 89 21 86 22 87 23 90 24 88 25
REMARK SMILES IDX 11 26 12 27 13 28 14 29 15 31 16 32 17 33 78 34 18 35 77 36
REMARK SMILES IDX 19 37 20 38 21 39 71 40 22 41 76 42 70 43 72 44 23 45 75 46
REMARK SMILES IDX 69 47 68 48 24 50 56 51 36 52 55 53 37 54 40 55 54 56 73 57
REMARK SMILES IDX 38 58 39 59 53 61 74 62 41 63 25 64 26 65 34 66 27 67 33 68
REMARK SMILES IDX 35 69 32 70 28 71 29 72 30 73 31 74 57 75 58 76 66 77 59 78
REMARK SMILES IDX 65 79 67 80 64 81 60 82 61 83 62 84 63 85 42 86 43 87 51 88
REMARK SMILES IDX 44 89 50 90 52 91 49 92 45 93 46 94 47 95 48 96
REMARK H PARENT 6 8 81 15 13 30 72 49 40 60
REMARK Flexibility Score: inf
ROOT
ATOM      1  C   UNL A   1      31.908  29.717  26.933  1.00  0.00     0.002 C 
ENDROOT
BRANCH   1   2
ATOM      2  C   UNL A   1      31.624  28.850  25.707  1.00  0.00     0.002 C 
BRANCH   2   3
ATOM      3  C   UNL A   1      32.433  29.235  24.465  1.00  0.00     0.021 C 
BRANCH   3   4
ATOM      4  C   UNL A   1      31.664  29.075  23.147  1.00  0.00     0.116 C 
BRANCH   4   5
ATOM      5  N   UNL A   1      32.456  28.255  22.262  1.00  0.00    -0.356 N 
ATOM      6  C   UNL A   1      32.971  27.015  22.475  1.00  0.00     0.229 C 
ATOM      7  O   UNL A   1      33.996  26.749  21.837  1.00  0.00    -0.275 OA
ATOM      8  H   UNL A   1      32.651  28.650  21.381  1.00  0.00     0.163 HD
BRANCH   6   9
ATOM      9  C   UNL A   1      32.210  25.953  23.284  1.00  0.00     0.142 C 
ATOM     10  C   UNL A   1      33.956  25.839  25.303  1.00  0.00     0.076 C 
ATOM     11  C   UNL A   1      32.757  25.271  24.566  1.00  0.00     0.193 C 
ATOM     12  N   UNL A   1      33.133  23.894  24.197  1.00  0.00    -0.328 N 
ATOM     13  C   UNL A   1      31.954  24.743  22.364  1.00  0.00     0.081 C 
ATOM     14  C   UNL A   1      33.052  23.775  22.752  1.00  0.00     0.263 C 
ATOM     15  H   UNL A   1      34.104  23.731  24.463  1.00  0.00     0.348 HD
BRANCH  12  16
ATOM     16  C   UNL A   1      32.550  22.820  25.004  1.00  0.00     0.299 C 
BRANCH  16  17
ATOM     17  C   UNL A   1      33.124  21.430  24.827  1.00  0.00     0.012 A 
ATOM     18  C   UNL A   1      34.503  21.197  24.962  1.00  0.00     0.052 A 
ATOM     19  C   UNL A   1      32.291  20.342  24.519  1.00  0.00     0.052 A 
ATOM     20  C   UNL A   1      35.015  19.905  24.826  1.00  0.00     0.162 A 
ATOM     21  C   UNL A   1      32.815  19.055  24.414  1.00  0.00     0.162 A 
ATOM     22  F   UNL A   1      36.334  19.708  24.956  1.00  0.00    -0.204 F 
ATOM     23  C   UNL A   1      34.175  18.833  24.567  1.00  0.00     0.194 A 
ATOM     24  F   UNL A   1      31.985  18.031  24.173  1.00  0.00    -0.204 F 
ATOM     25  F   UNL A   1      34.671  17.591  24.463  1.00  0.00    -0.200 F 
ENDBRANCH  16  17
ENDBRANCH  12  16
ENDBRANCH   6   9
ENDBRANCH   4   5
ENDBRANCH   3   4
ENDBRANCH   2   3
ENDBRANCH   1   2
BRANCH   1  26
ATOM     26  C   UNL A   1      31.772  31.226  26.705  1.00  0.00     0.021 C 
BRANCH  26  27
ATOM     27  C   UNL A   1      33.064  32.019  26.896  1.00  0.00     0.116 C 
BRANCH  27  28
ATOM     28  N   UNL A   1      32.795  33.397  27.272  1.00  0.00    -0.352 N 
ATOM     29  C   UNL A   1      33.258  34.103  28.351  1.00  0.00     0.251 C 
ATOM     30  H   UNL A   1      32.195  33.891  26.668  1.00  0.00     0.163 HD
ATOM     31  O   UNL A   1      32.711  35.162  28.667  1.00  0.00    -0.269 OA
BRANCH  29  32
ATOM     32  C   UNL A   1      34.399  33.590  29.135  1.00  0.00     0.039 A 
ATOM     33  C   UNL A   1      34.176  32.597  30.091  1.00  0.00     0.014 A 
ATOM     34  C   UNL A   1      35.685  34.103  28.938  1.00  0.00     0.014 A 
ATOM     35  C   UNL A   1      35.253  32.081  30.816  1.00  0.00     0.010 A 
ATOM     36  C   UNL A   1      36.766  33.541  29.612  1.00  0.00     0.010 A 
ATOM     37  C   UNL A   1      36.561  32.530  30.564  1.00  0.00    -0.014 A 
BRANCH  37  38
ATOM     38  C   UNL A   1      37.723  31.962  31.296  1.00  0.00     0.031 A 
ATOM     39  C   UNL A   1      38.566  30.893  30.655  1.00  0.00     0.074 A 
ATOM     40  C   UNL A   1      37.981  32.369  32.553  1.00  0.00     0.049 A 
ATOM     41  N   UNL A   1      39.574  30.225  31.152  1.00  0.00    -0.248 NA
ATOM     42  C   UNL A   1      38.205  30.507  29.282  1.00  0.00     0.031 C 
ATOM     43  C   UNL A   1      37.211  33.372  33.292  1.00  0.00     0.029 A 
ATOM     44  N   UNL A   1      38.957  31.984  33.439  1.00  0.00    -0.354 N 
ATOM     45  C   UNL A   1      39.962  29.331  30.160  1.00  0.00     0.074 A 
ATOM     46  C   UNL A   1      39.037  29.502  29.059  1.00  0.00     0.031 C 
ATOM     47  C   UNL A   1      37.758  33.539  34.506  1.00  0.00     0.029 A 
ATOM     48  C   UNL A   1      38.887  32.628  34.652  1.00  0.00     0.049 A 
ATOM     49  H   UNL A   1      39.643  31.311  33.224  1.00  0.00     0.167 HD
ATOM     50  C   UNL A   1      41.008  28.465  30.157  1.00  0.00     0.034 A 
ATOM     51  C   UNL A   1      39.640  32.488  35.762  1.00  0.00     0.034 A 
ATOM     52  C   UNL A   1      41.925  28.316  31.262  1.00  0.00     0.049 A 
ATOM     53  C   UNL A   1      40.778  31.499  35.748  1.00  0.00     0.074 A 
ATOM     54  C   UNL A   1      43.048  27.512  31.349  1.00  0.00     0.029 A 
ATOM     55  N   UNL A   1      41.819  28.980  32.479  1.00  0.00    -0.354 N 
ATOM     56  N   UNL A   1      41.164  30.696  34.783  1.00  0.00    -0.248 NA
ATOM     57  C   UNL A   1      41.587  31.405  36.969  1.00  0.00     0.031 C 
ATOM     58  C   UNL A   1      43.580  27.637  32.637  1.00  0.00     0.029 A 
ATOM     59  C   UNL A   1      42.837  28.578  33.331  1.00  0.00     0.049 A 
ATOM     60  H   UNL A   1      41.124  29.640  32.702  1.00  0.00     0.167 HD
ATOM     61  C   UNL A   1      42.279  30.023  35.273  1.00  0.00     0.074 A 
ATOM     62  C   UNL A   1      42.512  30.527  36.611  1.00  0.00     0.031 C 
ATOM     63  C   UNL A   1      43.046  29.077  34.670  1.00  0.00     0.034 A 
BRANCH  50  64
ATOM     64  C   UNL A   1      41.190  27.601  28.932  1.00  0.00     0.023 A 
ATOM     65  C   UNL A   1      42.220  27.842  28.004  1.00  0.00     0.031 A 
ATOM     66  C   UNL A   1      40.304  26.542  28.666  1.00  0.00     0.131 A 
ATOM     67  C   UNL A   1      42.287  27.093  26.820  1.00  0.00     0.055 A 
ATOM     68  C   UNL A   1      40.429  25.744  27.527  1.00  0.00     0.041 A 
ATOM     69  F   UNL A   1      39.288  26.274  29.502  1.00  0.00    -0.206 F 
ATOM     70  C   UNL A   1      41.415  26.029  26.587  1.00  0.00     0.022 A 
BRANCH  67  71
ATOM     71  S   UNL A   1      43.433  27.631  25.520  1.00  0.00     0.124 S 
ATOM     72  O   UNL A   1      42.514  27.932  24.424  1.00  0.00    -0.237 OA
ATOM     73  O   UNL A   1      44.092  28.777  26.135  1.00  0.00    -0.237 OA
ATOM     74  O   UNL A   1      44.283  26.461  25.307  1.00  0.00    -0.744 OA
ENDBRANCH  67  71
ENDBRANCH  50  64
BRANCH  51  75
ATOM     75  C   UNL A   1      39.344  33.292  36.981  1.00  0.00     0.023 A 
ATOM     76  C   UNL A   1      39.962  34.535  37.195  1.00  0.00     0.031 A 
ATOM     77  C   UNL A   1      38.465  32.814  37.969  1.00  0.00     0.131 A 
ATOM     78  C   UNL A   1      39.730  35.235  38.389  1.00  0.00     0.055 A 
ATOM     79  C   UNL A   1      38.196  33.540  39.131  1.00  0.00     0.041 A 
ATOM     80  F   UNL A   1      37.842  31.635  37.811  1.00  0.00    -0.206 F 
ATOM     81  C   UNL A   1      38.840  34.753  39.352  1.00  0.00     0.022 A 
BRANCH  78  82
ATOM     82  S   UNL A   1      40.670  36.754  38.700  1.00  0.00     0.124 S 
ATOM     83  O   UNL A   1      41.456  36.873  37.477  1.00  0.00    -0.237 OA
ATOM     84  O   UNL A   1      39.607  37.737  38.879  1.00  0.00    -0.237 OA
ATOM     85  O   UNL A   1      41.434  36.440  39.905  1.00  0.00    -0.744 OA
ENDBRANCH  78  82
ENDBRANCH  51  75
BRANCH  63  86
ATOM     86  C   UNL A   1      44.228  28.558  35.450  1.00  0.00     0.023 A 
ATOM     87  C   UNL A   1      44.097  27.524  36.393  1.00  0.00     0.031 A 
ATOM     88  C   UNL A   1      45.504  29.117  35.256  1.00  0.00     0.131 A 
ATOM     89  C   UNL A   1      45.209  27.120  37.147  1.00  0.00     0.055 A 
ATOM     90  C   UNL A   1      46.619  28.669  35.965  1.00  0.00     0.041 A 
ATOM     91  F   UNL A   1      45.687  30.110  34.370  1.00  0.00    -0.206 F 
ATOM     92  C   UNL A   1      46.473  27.673  36.926  1.00  0.00     0.022 A 
BRANCH  89  93
ATOM     93  S   UNL A   1      44.964  25.921  38.487  1.00  0.00     0.124 S 
ATOM     94  O   UNL A   1      44.620  24.710  37.750  1.00  0.00    -0.237 OA
ATOM     95  O   UNL A   1      46.265  25.920  39.146  1.00  0.00    -0.237 OA
ATOM     96  O   UNL A   1      43.874  26.501  39.270  1.00  0.00    -0.744 OA
ENDBRANCH  89  93
ENDBRANCH  63  86
ENDBRANCH  37  38
ENDBRANCH  29  32
ENDBRANCH  27  28
ENDBRANCH  26  27
ENDBRANCH   1  26
TORSDOF 18
ENDMDL
MODEL 3
REMARK VINA RESULT:     -11.8      3.429      8.682
REMARK SMILES C[C@H]1[C@@H](C(=O)NCCCCCCNC(=O)c2ccc(-c3c4nc(c(-c5cc(S(=O)(=O)[O-])ccc5F)c5ccc([nH]5)c(-c5cc(S(=O)(=O)[O-])ccc5F)c5nc(c(-c6cc(S(=O)(=O)[O-])ccc6F)c6ccc3[nH]6)C=C5)C=C4)cc2)CC[N@@H+]1Cc1cc(F)c(F)c(F)c1
REMARK SMILES IDX 10 1 9 2 8 3 7 4 6 5 4 6 5 7 3 9 1 10 2 11 81 12 79 13 80 14
REMARK SMILES IDX 82 16 83 17 84 18 91 19 85 20 89 21 86 22 87 23 90 24 88 25
REMARK SMILES IDX 11 26 12 27 13 28 14 29 15 31 16 32 17 33 78 34 18 35 77 36
REMARK SMILES IDX 19 37 20 38 21 39 71 40 22 41 76 42 70 43 72 44 23 45 75 46
REMARK SMILES IDX 69 47 68 48 24 50 56 51 36 52 55 53 37 54 40 55 54 56 73 57
REMARK SMILES IDX 38 58 39 59 53 61 74 62 41 63 25 64 26 65 34 66 27 67 33 68
REMARK SMILES IDX 35 69 32 70 28 71 29 72 30 73 31 74 57 75 58 76 66 77 59 78
REMARK SMILES IDX 65 79 67 80 64 81 60 82 61 83 62 84 63 85 42 86 43 87 51 88
REMARK SMILES IDX 44 89 50 90 52 91 49 92 45 93 46 94 47 95 48 96
REMARK H PARENT 6 8 81 15 13 30 72 49 40 60
REMARK Flexibility Score: inf
ROOT
ATOM      1  C   UNL A   1      33.840  28.285  24.266  1.00  0.00     0.002 C 
ENDROOT
BRANCH   1   2
ATOM      2  C   UNL A   1      33.229  28.117  22.875  1.00  0.00     0.002 C 
BRANCH   2   3
ATOM      3  C   UNL A   1      33.665  26.843  22.147  1.00  0.00     0.021 C 
BRANCH   3   4
ATOM      4  C   UNL A   1      32.500  25.943  21.716  1.00  0.00     0.116 C 
BRANCH   4   5
ATOM      5  N   UNL A   1      31.424  26.117  22.662  1.00  0.00    -0.356 N 
ATOM      6  C   UNL A   1      31.126  25.378  23.764  1.00  0.00     0.229 C 
ATOM      7  O   UNL A   1      29.935  25.376  24.096  1.00  0.00    -0.275 OA
ATOM      8  H   UNL A   1      30.822  26.875  22.484  1.00  0.00     0.163 HD
BRANCH   6   9
ATOM      9  C   UNL A   1      32.225  24.770  24.650  1.00  0.00     0.142 C 
ATOM     10  C   UNL A   1      32.422  22.469  23.306  1.00  0.00     0.076 C 
ATOM     11  C   UNL A   1      32.739  23.311  24.528  1.00  0.00     0.193 C 
ATOM     12  N   UNL A   1      32.198  22.563  25.678  1.00  0.00    -0.328 N 
ATOM     13  C   UNL A   1      31.741  24.816  26.113  1.00  0.00     0.081 C 
ATOM     14  C   UNL A   1      31.230  23.410  26.352  1.00  0.00     0.263 C 
ATOM     15  H   UNL A   1      31.699  21.742  25.337  1.00  0.00     0.348 HD
BRANCH  12  16
ATOM     16  C   UNL A   1      33.170  21.845  26.505  1.00  0.00     0.299 C 
BRANCH  16  17
ATOM     17  C   UNL A   1      34.629  21.965  26.119  1.00  0.00     0.012 A 
ATOM     18  C   UNL A   1      35.348  23.146  26.370  1.00  0.00     0.052 A 
ATOM     19  C   UNL A   1      35.298  20.897  25.497  1.00  0.00     0.052 A 
ATOM     20  C   UNL A   1      36.700  23.232  26.036  1.00  0.00     0.162 A 
ATOM     21  C   UNL A   1      36.655  20.990  25.195  1.00  0.00     0.162 A 
ATOM     22  F   UNL A   1      37.364  24.369  26.281  1.00  0.00    -0.204 F 
ATOM     23  C   UNL A   1      37.359  22.153  25.463  1.00  0.00     0.194 A 
ATOM     24  F   UNL A   1      37.275  19.934  24.651  1.00  0.00    -0.204 F 
ATOM     25  F   UNL A   1      38.665  22.234  25.169  1.00  0.00    -0.200 F 
ENDBRANCH  16  17
ENDBRANCH  12  16
ENDBRANCH   6   9
ENDBRANCH   4   5
ENDBRANCH   3   4
ENDBRANCH   2   3
ENDBRANCH   1   2
BRANCH   1  26
ATOM     26  C   UNL A   1      32.828  28.320  25.417  1.00  0.00     0.021 C 
BRANCH  26  27
ATOM     27  C   UNL A   1      33.413  28.724  26.768  1.00  0.00     0.116 C 
BRANCH  27  28
ATOM     28  N   UNL A   1      33.494  30.169  26.905  1.00  0.00    -0.352 N 
ATOM     29  C   UNL A   1      34.387  30.919  27.624  1.00  0.00     0.251 C 
ATOM     30  H   UNL A   1      32.811  30.680  26.414  1.00  0.00     0.163 HD
ATOM     31  O   UNL A   1      34.141  32.105  27.854  1.00  0.00    -0.269 OA
BRANCH  29  32
ATOM     32  C   UNL A   1      35.631  30.304  28.127  1.00  0.00     0.039 A 
ATOM     33  C   UNL A   1      36.753  30.259  27.298  1.00  0.00     0.014 A 
ATOM     34  C   UNL A   1      35.683  29.752  29.412  1.00  0.00     0.014 A 
ATOM     35  C   UNL A   1      37.945  29.708  27.775  1.00  0.00     0.010 A 
ATOM     36  C   UNL A   1      36.889  29.266  29.910  1.00  0.00     0.010 A 
ATOM     37  C   UNL A   1      38.030  29.231  29.094  1.00  0.00    -0.014 A 
BRANCH  37  38
ATOM     38  C   UNL A   1      39.301  28.680  29.632  1.00  0.00     0.031 A 
ATOM     39  C   UNL A   1      39.977  29.348  30.798  1.00  0.00     0.074 A 
ATOM     40  C   UNL A   1      39.872  27.616  29.034  1.00  0.00     0.049 A 
ATOM     41  N   UNL A   1      41.120  29.066  31.367  1.00  0.00    -0.248 NA
ATOM     42  C   UNL A   1      39.284  30.507  31.382  1.00  0.00     0.031 C 
ATOM     43  C   UNL A   1      39.329  26.908  27.872  1.00  0.00     0.029 A 
ATOM     44  N   UNL A   1      41.039  26.949  29.312  1.00  0.00    -0.354 N 
ATOM     45  C   UNL A   1      41.292  30.016  32.367  1.00  0.00     0.074 A 
ATOM     46  C   UNL A   1      40.164  30.920  32.282  1.00  0.00     0.031 C 
ATOM     47  C   UNL A   1      40.148  25.893  27.554  1.00  0.00     0.029 A 
ATOM     48  C   UNL A   1      41.295  25.903  28.456  1.00  0.00     0.049 A 
ATOM     49  H   UNL A   1      41.635  27.196  30.056  1.00  0.00     0.167 HD
ATOM     50  C   UNL A   1      42.285  30.112  33.287  1.00  0.00     0.034 A 
ATOM     51  C   UNL A   1      42.343  25.058  28.397  1.00  0.00     0.034 A 
ATOM     52  C   UNL A   1      43.397  29.194  33.362  1.00  0.00     0.049 A 
ATOM     53  C   UNL A   1      43.450  25.200  29.411  1.00  0.00     0.074 A 
ATOM     54  C   UNL A   1      44.429  29.163  34.283  1.00  0.00     0.029 A 
ATOM     55  N   UNL A   1      43.628  28.150  32.474  1.00  0.00    -0.354 N 
ATOM     56  N   UNL A   1      43.573  26.074  30.383  1.00  0.00    -0.248 NA
ATOM     57  C   UNL A   1      44.554  24.237  29.323  1.00  0.00     0.031 C 
ATOM     58  C   UNL A   1      45.317  28.147  33.914  1.00  0.00     0.029 A 
ATOM     59  C   UNL A   1      44.802  27.492  32.807  1.00  0.00     0.049 A 
ATOM     60  H   UNL A   1      43.042  27.913  31.719  1.00  0.00     0.167 HD
ATOM     61  C   UNL A   1      44.755  25.745  31.041  1.00  0.00     0.074 A 
ATOM     62  C   UNL A   1      45.297  24.585  30.364  1.00  0.00     0.031 C 
ATOM     63  C   UNL A   1      45.339  26.345  32.111  1.00  0.00     0.034 A 
BRANCH  50  64
ATOM     64  C   UNL A   1      42.218  31.263  34.263  1.00  0.00     0.023 A 
ATOM     65  C   UNL A   1      41.252  31.312  35.284  1.00  0.00     0.031 A 
ATOM     66  C   UNL A   1      43.110  32.345  34.153  1.00  0.00     0.131 A 
ATOM     67  C   UNL A   1      41.146  32.451  36.096  1.00  0.00     0.055 A 
ATOM     68  C   UNL A   1      43.055  33.438  35.021  1.00  0.00     0.041 A 
ATOM     69  F   UNL A   1      44.042  32.368  33.187  1.00  0.00    -0.206 F 
ATOM     70  C   UNL A   1      42.058  33.502  35.989  1.00  0.00     0.022 A 
BRANCH  67  71
ATOM     71  S   UNL A   1      39.706  32.603  37.190  1.00  0.00     0.124 S 
ATOM     72  O   UNL A   1      39.069  31.298  37.019  1.00  0.00    -0.237 OA
ATOM     73  O   UNL A   1      40.321  32.849  38.489  1.00  0.00    -0.237 OA
ATOM     74  O   UNL A   1      38.964  33.728  36.626  1.00  0.00    -0.744 OA
ENDBRANCH  67  71
ENDBRANCH  50  64
BRANCH  51  75
ATOM     75  C   UNL A   1      42.406  24.007  27.342  1.00  0.00     0.023 A 
ATOM     76  C   UNL A   1      41.843  22.738  27.551  1.00  0.00     0.031 A 
ATOM     77  C   UNL A   1      43.062  24.244  26.121  1.00  0.00     0.131 A 
ATOM     78  C   UNL A   1      41.986  21.739  26.575  1.00  0.00     0.055 A 
ATOM     79  C   UNL A   1      43.157  23.264  25.132  1.00  0.00     0.041 A 
ATOM     80  F   UNL A   1      43.612  25.442  25.868  1.00  0.00    -0.206 F 
ATOM     81  C   UNL A   1      42.628  21.998  25.361  1.00  0.00     0.022 A 
BRANCH  78  82
ATOM     82  S   UNL A   1      41.389  20.069  26.949  1.00  0.00     0.124 S 
ATOM     83  O   UNL A   1      42.614  19.284  26.840  1.00  0.00    -0.237 OA
ATOM     84  O   UNL A   1      40.849  20.234  28.294  1.00  0.00    -0.237 OA
ATOM     85  O   UNL A   1      40.395  19.822  25.907  1.00  0.00    -0.744 OA
ENDBRANCH  78  82
ENDBRANCH  51  75
BRANCH  63  86
ATOM     86  C   UNL A   1      46.612  25.725  32.631  1.00  0.00     0.023 A 
ATOM     87  C   UNL A   1      46.600  24.740  33.633  1.00  0.00     0.031 A 
ATOM     88  C   UNL A   1      47.857  26.138  32.124  1.00  0.00     0.131 A 
ATOM     89  C   UNL A   1      47.811  24.241  34.137  1.00  0.00     0.055 A 
ATOM     90  C   UNL A   1      49.056  25.593  32.586  1.00  0.00     0.041 A 
ATOM     91  F   UNL A   1      47.928  27.079  31.168  1.00  0.00    -0.206 F 
ATOM     92  C   UNL A   1      49.038  24.648  33.607  1.00  0.00     0.022 A 
BRANCH  89  93
ATOM     93  S   UNL A   1      47.764  23.115  35.559  1.00  0.00     0.124 S 
ATOM     94  O   UNL A   1      46.544  22.356  35.305  1.00  0.00    -0.237 OA
ATOM     95  O   UNL A   1      49.015  22.379  35.417  1.00  0.00    -0.237 OA
ATOM     96  O   UNL A   1      47.705  24.018  36.708  1.00  0.00    -0.744 OA
ENDBRANCH  89  93
ENDBRANCH  63  86
ENDBRANCH  37  38
ENDBRANCH  29  32
ENDBRANCH  27  28
ENDBRANCH  26  27
ENDBRANCH   1  26
TORSDOF 18
ENDMDL
