MODEL 1
REMARK VINA RESULT:      -9.4      0.000      0.000
REMARK SMILES C#CCN(CC(=O)NCCCCCCNC(=O)c1ccc(-c2c3nc(c(-c4cc(S(=O)(=O)[O-])ccc4F)c4ccc([nH]4)c(-c4cc(S(=O)(=O)[O-])ccc4F)c4nc(c(-c5cc(S(=O)(=O)[O-])ccc5F)c5ccc2[nH]5)C=C4)C=C3)cc1)C(=O)N(C)[C@H](C)c1cccs1
REMARK SMILES IDX 10 1 9 2 8 3 6 4 7 5 5 7 4 8 3 9 2 10 1 11 81 12 82 13 83 14
REMARK SMILES IDX 84 15 85 16 86 17 87 18 88 19 91 20 89 21 90 22 11 23 12 24
REMARK SMILES IDX 13 25 14 26 15 27 16 28 17 30 18 31 19 32 80 33 20 34 79 35
REMARK SMILES IDX 21 36 22 37 23 38 73 39 24 40 78 41 72 42 74 43 25 44 77 45
REMARK SMILES IDX 71 46 70 47 26 49 58 50 38 51 57 52 39 53 42 54 56 55 75 56
REMARK SMILES IDX 40 57 41 58 55 60 76 61 43 62 27 63 28 64 36 65 29 66 35 67
REMARK SMILES IDX 37 68 34 69 30 70 31 71 32 72 33 73 59 74 60 75 68 76 61 77
REMARK SMILES IDX 67 78 69 79 66 80 62 81 63 82 64 83 65 84 44 85 45 86 53 87
REMARK SMILES IDX 46 88 52 89 54 90 51 91 47 92 48 93 49 94 50 95
REMARK H PARENT 8 6 15 29 74 48 42 59
REMARK Flexibility Score: inf
ROOT
ATOM      1  C   UNL A   1      39.016  23.847  26.648  1.00  0.00     0.021 C 
ENDROOT
BRANCH   1   2
ATOM      2  C   UNL A   1      37.594  23.622  26.141  1.00  0.00     0.116 C 
BRANCH   2   3
ATOM      3  N   UNL A   1      37.537  23.447  24.707  1.00  0.00    -0.355 N 
ATOM      4  C   UNL A   1      36.632  22.752  23.964  1.00  0.00     0.239 C 
ATOM      5  O   UNL A   1      36.618  22.952  22.745  1.00  0.00    -0.273 OA
ATOM      6  H   UNL A   1      38.251  23.891  24.198  1.00  0.00     0.163 HD
BRANCH   4   7
ATOM      7  C   UNL A   1      35.562  21.870  24.624  1.00  0.00     0.222 C 
BRANCH   7   8
ATOM      8  N   UNL A   1      34.229  22.454  24.794  1.00  0.00    -0.304 N 
BRANCH   8   9
ATOM      9  C   UNL A   1      33.116  21.481  24.767  1.00  0.00     0.211 C 
BRANCH   9  10
ATOM     10  C   UNL A   1      32.533  21.325  23.372  1.00  0.00    -0.085 C 
ATOM     11  C   UNL A   1      32.032  21.192  22.176  1.00  0.00     0.006 C 
ENDBRANCH   9  10
ENDBRANCH   8   9
BRANCH   8  12
ATOM     12  C   UNL A   1      33.862  23.771  25.032  1.00  0.00     0.321 C 
ATOM     13  O   UNL A   1      34.124  24.246  26.144  1.00  0.00    -0.248 OA
BRANCH  12  14
ATOM     14  N   UNL A   1      33.208  24.569  24.107  1.00  0.00    -0.320 N 
ATOM     15  C   UNL A   1      33.741  25.198  22.907  1.00  0.00     0.149 C 
BRANCH  14  16
ATOM     16  C   UNL A   1      31.820  25.022  24.419  1.00  0.00     0.124 C 
ATOM     17  C   UNL A   1      30.915  24.884  23.190  1.00  0.00     0.037 C 
BRANCH  16  18
ATOM     18  C   UNL A   1      31.747  26.349  25.161  1.00  0.00     0.027 A 
ATOM     19  C   UNL A   1      31.455  26.548  26.502  1.00  0.00     0.017 A 
ATOM     20  S   UNL A   1      31.985  27.860  24.367  1.00  0.00    -0.147 S 
ATOM     21  C   UNL A   1      31.474  27.924  26.874  1.00  0.00     0.012 A 
ATOM     22  C   UNL A   1      31.776  28.741  25.810  1.00  0.00     0.065 A 
ENDBRANCH  16  18
ENDBRANCH  14  16
ENDBRANCH  12  14
ENDBRANCH   8  12
ENDBRANCH   7   8
ENDBRANCH   4   7
ENDBRANCH   2   3
ENDBRANCH   1   2
BRANCH   1  23
ATOM     23  C   UNL A   1      39.963  22.664  26.417  1.00  0.00     0.002 C 
BRANCH  23  24
ATOM     24  C   UNL A   1      40.521  22.010  27.686  1.00  0.00     0.002 C 
BRANCH  24  25
ATOM     25  C   UNL A   1      41.056  20.585  27.514  1.00  0.00     0.021 C 
BRANCH  25  26
ATOM     26  C   UNL A   1      40.967  20.027  26.098  1.00  0.00     0.116 C 
BRANCH  26  27
ATOM     27  N   UNL A   1      42.248  19.528  25.629  1.00  0.00    -0.352 N 
ATOM     28  C   UNL A   1      43.415  20.200  25.378  1.00  0.00     0.251 C 
ATOM     29  H   UNL A   1      42.282  18.558  25.465  1.00  0.00     0.163 HD
ATOM     30  O   UNL A   1      44.321  19.619  24.778  1.00  0.00    -0.269 OA
BRANCH  28  31
ATOM     31  C   UNL A   1      43.590  21.608  25.798  1.00  0.00     0.039 A 
ATOM     32  C   UNL A   1      44.068  21.866  27.086  1.00  0.00     0.014 A 
ATOM     33  C   UNL A   1      43.253  22.672  24.954  1.00  0.00     0.014 A 
ATOM     34  C   UNL A   1      44.252  23.185  27.509  1.00  0.00     0.010 A 
ATOM     35  C   UNL A   1      43.502  23.986  25.353  1.00  0.00     0.010 A 
ATOM     36  C   UNL A   1      43.997  24.256  26.637  1.00  0.00    -0.014 A 
BRANCH  36  37
ATOM     37  C   UNL A   1      44.266  25.653  27.065  1.00  0.00     0.031 A 
ATOM     38  C   UNL A   1      45.642  26.247  26.940  1.00  0.00     0.074 A 
ATOM     39  C   UNL A   1      43.268  26.374  27.611  1.00  0.00     0.049 A 
ATOM     40  N   UNL A   1      46.049  27.458  27.228  1.00  0.00    -0.248 NA
ATOM     41  C   UNL A   1      46.703  25.354  26.461  1.00  0.00     0.031 C 
ATOM     42  C   UNL A   1      41.913  25.879  27.864  1.00  0.00     0.029 A 
ATOM     43  N   UNL A   1      43.237  27.671  28.055  1.00  0.00    -0.354 N 
ATOM     44  C   UNL A   1      47.417  27.470  26.972  1.00  0.00     0.074 A 
ATOM     45  C   UNL A   1      47.774  26.124  26.573  1.00  0.00     0.031 C 
ATOM     46  C   UNL A   1      41.176  26.866  28.395  1.00  0.00     0.029 A 
ATOM     47  C   UNL A   1      42.010  28.056  28.541  1.00  0.00     0.049 A 
ATOM     48  H   UNL A   1      44.018  28.269  28.028  1.00  0.00     0.167 HD
ATOM     49  C   UNL A   1      48.286  28.511  27.040  1.00  0.00     0.034 A 
ATOM     50  C   UNL A   1      41.598  29.236  29.043  1.00  0.00     0.034 A 
ATOM     51  C   UNL A   1      47.908  29.846  27.443  1.00  0.00     0.049 A 
ATOM     52  C   UNL A   1      42.562  30.389  29.075  1.00  0.00     0.074 A 
ATOM     53  C   UNL A   1      48.683  30.993  27.476  1.00  0.00     0.029 A 
ATOM     54  N   UNL A   1      46.647  30.212  27.903  1.00  0.00    -0.354 N 
ATOM     55  N   UNL A   1      43.831  30.414  28.737  1.00  0.00    -0.248 NA
ATOM     56  C   UNL A   1      42.030  31.678  29.528  1.00  0.00     0.031 C 
ATOM     57  C   UNL A   1      47.913  32.031  28.017  1.00  0.00     0.029 A 
ATOM     58  C   UNL A   1      46.633  31.556  28.253  1.00  0.00     0.049 A 
ATOM     59  H   UNL A   1      45.875  29.605  27.970  1.00  0.00     0.167 HD
ATOM     60  C   UNL A   1      44.247  31.729  28.928  1.00  0.00     0.074 A 
ATOM     61  C   UNL A   1      43.084  32.468  29.380  1.00  0.00     0.031 C 
ATOM     62  C   UNL A   1      45.477  32.275  28.744  1.00  0.00     0.034 A 
BRANCH  49  63
ATOM     63  C   UNL A   1      49.733  28.224  26.698  1.00  0.00     0.023 A 
ATOM     64  C   UNL A   1      50.256  28.488  25.418  1.00  0.00     0.031 A 
ATOM     65  C   UNL A   1      50.586  27.624  27.641  1.00  0.00     0.131 A 
ATOM     66  C   UNL A   1      51.551  28.062  25.086  1.00  0.00     0.055 A 
ATOM     67  C   UNL A   1      51.907  27.286  27.331  1.00  0.00     0.041 A 
ATOM     68  F   UNL A   1      50.145  27.331  28.874  1.00  0.00    -0.206 F 
ATOM     69  C   UNL A   1      52.389  27.484  26.041  1.00  0.00     0.022 A 
BRANCH  66  70
ATOM     70  S   UNL A   1      52.056  28.106  23.342  1.00  0.00     0.124 S 
ATOM     71  O   UNL A   1      52.394  26.707  23.096  1.00  0.00    -0.237 OA
ATOM     72  O   UNL A   1      50.854  28.600  22.680  1.00  0.00    -0.237 OA
ATOM     73  O   UNL A   1      53.193  29.024  23.338  1.00  0.00    -0.744 OA
ENDBRANCH  66  70
ENDBRANCH  49  63
BRANCH  50  74
ATOM     74  C   UNL A   1      40.204  29.379  29.543  1.00  0.00     0.023 A 
ATOM     75  C   UNL A   1      39.919  29.371  30.918  1.00  0.00     0.031 A 
ATOM     76  C   UNL A   1      39.135  29.541  28.644  1.00  0.00     0.131 A 
ATOM     77  C   UNL A   1      38.591  29.497  31.353  1.00  0.00     0.055 A 
ATOM     78  C   UNL A   1      37.821  29.705  29.084  1.00  0.00     0.041 A 
ATOM     79  F   UNL A   1      39.361  29.572  27.321  1.00  0.00    -0.206 F 
ATOM     80  C   UNL A   1      37.542  29.675  30.447  1.00  0.00     0.022 A 
BRANCH  77  81
ATOM     81  S   UNL A   1      38.245  29.396  33.131  1.00  0.00     0.124 S 
ATOM     82  O   UNL A   1      37.402  28.208  33.204  1.00  0.00    -0.237 OA
ATOM     83  O   UNL A   1      39.584  29.268  33.694  1.00  0.00    -0.237 OA
ATOM     84  O   UNL A   1      37.570  30.659  33.419  1.00  0.00    -0.744 OA
ENDBRANCH  77  81
ENDBRANCH  50  74
BRANCH  62  85
ATOM     85  C   UNL A   1      45.610  33.752  29.031  1.00  0.00     0.023 A 
ATOM     86  C   UNL A   1      45.625  34.705  27.997  1.00  0.00     0.031 A 
ATOM     87  C   UNL A   1      45.777  34.209  30.350  1.00  0.00     0.131 A 
ATOM     88  C   UNL A   1      45.877  36.053  28.289  1.00  0.00     0.055 A 
ATOM     89  C   UNL A   1      45.960  35.562  30.641  1.00  0.00     0.041 A 
ATOM     90  F   UNL A   1      45.776  33.346  31.379  1.00  0.00    -0.206 F 
ATOM     91  C   UNL A   1      46.030  36.490  29.606  1.00  0.00     0.022 A 
BRANCH  88  92
ATOM     92  S   UNL A   1      46.134  37.209  26.913  1.00  0.00     0.124 S 
ATOM     93  O   UNL A   1      44.876  37.949  26.899  1.00  0.00    -0.237 OA
ATOM     94  O   UNL A   1      47.308  37.956  27.351  1.00  0.00    -0.237 OA
ATOM     95  O   UNL A   1      46.349  36.331  25.764  1.00  0.00    -0.744 OA
ENDBRANCH  88  92
ENDBRANCH  62  85
ENDBRANCH  36  37
ENDBRANCH  28  31
ENDBRANCH  26  27
ENDBRANCH  25  26
ENDBRANCH  24  25
ENDBRANCH  23  24
ENDBRANCH   1  23
TORSDOF 23
ENDMDL
MODEL 2
REMARK VINA RESULT:      -9.0      1.782      2.112
REMARK SMILES C#CCN(CC(=O)NCCCCCCNC(=O)c1ccc(-c2c3nc(c(-c4cc(S(=O)(=O)[O-])ccc4F)c4ccc([nH]4)c(-c4cc(S(=O)(=O)[O-])ccc4F)c4nc(c(-c5cc(S(=O)(=O)[O-])ccc5F)c5ccc2[nH]5)C=C4)C=C3)cc1)C(=O)N(C)[C@H](C)c1cccs1
REMARK SMILES IDX 10 1 9 2 8 3 6 4 7 5 5 7 4 8 3 9 2 10 1 11 81 12 82 13 83 14
REMARK SMILES IDX 84 15 85 16 86 17 87 18 88 19 91 20 89 21 90 22 11 23 12 24
REMARK SMILES IDX 13 25 14 26 15 27 16 28 17 30 18 31 19 32 80 33 20 34 79 35
REMARK SMILES IDX 21 36 22 37 23 38 73 39 24 40 78 41 72 42 74 43 25 44 77 45
REMARK SMILES IDX 71 46 70 47 26 49 58 50 38 51 57 52 39 53 42 54 56 55 75 56
REMARK SMILES IDX 40 57 41 58 55 60 76 61 43 62 27 63 28 64 36 65 29 66 35 67
REMARK SMILES IDX 37 68 34 69 30 70 31 71 32 72 33 73 59 74 60 75 68 76 61 77
REMARK SMILES IDX 67 78 69 79 66 80 62 81 63 82 64 83 65 84 44 85 45 86 53 87
REMARK SMILES IDX 46 88 52 89 54 90 51 91 47 92 48 93 49 94 50 95
REMARK H PARENT 8 6 15 29 74 48 42 59
REMARK Flexibility Score: inf
ROOT
ATOM      1  C   UNL A   1      38.658  24.001  26.413  1.00  0.00     0.021 C 
ENDROOT
BRANCH   1   2
ATOM      2  C   UNL A   1      37.247  23.670  25.936  1.00  0.00     0.116 C 
BRANCH   2   3
ATOM      3  N   UNL A   1      37.211  23.257  24.551  1.00  0.00    -0.355 N 
ATOM      4  C   UNL A   1      36.150  23.209  23.698  1.00  0.00     0.239 C 
ATOM      5  O   UNL A   1      36.391  23.079  22.493  1.00  0.00    -0.273 OA
ATOM      6  H   UNL A   1      38.073  22.972  24.172  1.00  0.00     0.163 HD
BRANCH   4   7
ATOM      7  C   UNL A   1      34.717  23.460  24.187  1.00  0.00     0.222 C 
BRANCH   7   8
ATOM      8  N   UNL A   1      33.729  23.856  23.180  1.00  0.00    -0.304 N 
BRANCH   8   9
ATOM      9  C   UNL A   1      32.929  22.744  22.623  1.00  0.00     0.211 C 
BRANCH   9  10
ATOM     10  C   UNL A   1      32.804  21.589  23.604  1.00  0.00    -0.085 C 
ATOM     11  C   UNL A   1      32.697  20.600  24.445  1.00  0.00     0.006 C 
ENDBRANCH   9  10
ENDBRANCH   8   9
BRANCH   8  12
ATOM     12  C   UNL A   1      33.394  25.120  22.714  1.00  0.00     0.321 C 
ATOM     13  O   UNL A   1      34.186  25.674  21.942  1.00  0.00    -0.248 OA
BRANCH  12  14
ATOM     14  N   UNL A   1      32.240  25.795  23.078  1.00  0.00    -0.320 N 
ATOM     15  C   UNL A   1      31.395  26.660  22.266  1.00  0.00     0.149 C 
BRANCH  14  16
ATOM     16  C   UNL A   1      31.859  25.819  24.522  1.00  0.00     0.124 C 
ATOM     17  C   UNL A   1      30.346  25.636  24.687  1.00  0.00     0.037 C 
BRANCH  16  18
ATOM     18  C   UNL A   1      32.490  26.953  25.315  1.00  0.00     0.027 A 
ATOM     19  C   UNL A   1      33.575  27.734  24.949  1.00  0.00     0.017 A 
ATOM     20  S   UNL A   1      31.929  27.400  26.883  1.00  0.00    -0.147 S 
ATOM     21  C   UNL A   1      33.907  28.716  25.929  1.00  0.00     0.012 A 
ATOM     22  C   UNL A   1      33.071  28.658  27.019  1.00  0.00     0.065 A 
ENDBRANCH  16  18
ENDBRANCH  14  16
ENDBRANCH  12  14
ENDBRANCH   8  12
ENDBRANCH   7   8
ENDBRANCH   4   7
ENDBRANCH   2   3
ENDBRANCH   1   2
BRANCH   1  23
ATOM     23  C   UNL A   1      39.463  22.787  26.890  1.00  0.00     0.002 C 
BRANCH  23  24
ATOM     24  C   UNL A   1      39.928  21.830  25.787  1.00  0.00     0.002 C 
BRANCH  24  25
ATOM     25  C   UNL A   1      39.815  20.337  26.116  1.00  0.00     0.021 C 
BRANCH  25  26
ATOM     26  C   UNL A   1      40.971  19.766  26.930  1.00  0.00     0.116 C 
BRANCH  26  27
ATOM     27  N   UNL A   1      42.091  19.384  26.088  1.00  0.00    -0.352 N 
ATOM     28  C   UNL A   1      43.090  20.152  25.550  1.00  0.00     0.251 C 
ATOM     29  H   UNL A   1      42.140  18.425  25.870  1.00  0.00     0.163 HD
ATOM     30  O   UNL A   1      43.819  19.663  24.685  1.00  0.00    -0.269 OA
BRANCH  28  31
ATOM     31  C   UNL A   1      43.287  21.554  25.977  1.00  0.00     0.039 A 
ATOM     32  C   UNL A   1      43.426  21.824  27.342  1.00  0.00     0.014 A 
ATOM     33  C   UNL A   1      43.298  22.607  25.056  1.00  0.00     0.014 A 
ATOM     34  C   UNL A   1      43.622  23.137  27.776  1.00  0.00     0.010 A 
ATOM     35  C   UNL A   1      43.562  23.908  25.483  1.00  0.00     0.010 A 
ATOM     36  C   UNL A   1      43.720  24.188  26.849  1.00  0.00    -0.014 A 
BRANCH  36  37
ATOM     37  C   UNL A   1      44.004  25.571  27.310  1.00  0.00     0.031 A 
ATOM     38  C   UNL A   1      45.411  26.104  27.333  1.00  0.00     0.074 A 
ATOM     39  C   UNL A   1      42.987  26.336  27.750  1.00  0.00     0.049 A 
ATOM     40  N   UNL A   1      45.839  27.295  27.669  1.00  0.00    -0.248 NA
ATOM     41  C   UNL A   1      46.476  25.163  26.965  1.00  0.00     0.031 C 
ATOM     42  C   UNL A   1      41.592  25.903  27.856  1.00  0.00     0.029 A 
ATOM     43  N   UNL A   1      42.967  27.634  28.195  1.00  0.00    -0.354 N 
ATOM     44  C   UNL A   1      47.225  27.246  27.559  1.00  0.00     0.074 A 
ATOM     45  C   UNL A   1      47.562  25.885  27.194  1.00  0.00     0.031 C 
ATOM     46  C   UNL A   1      40.848  26.922  28.311  1.00  0.00     0.029 A 
ATOM     47  C   UNL A   1      41.714  28.073  28.550  1.00  0.00     0.049 A 
ATOM     48  H   UNL A   1      43.772  28.196  28.253  1.00  0.00     0.167 HD
ATOM     49  C   UNL A   1      48.128  28.246  27.723  1.00  0.00     0.034 A 
ATOM     50  C   UNL A   1      41.304  29.270  29.011  1.00  0.00     0.034 A 
ATOM     51  C   UNL A   1      47.769  29.597  28.091  1.00  0.00     0.049 A 
ATOM     52  C   UNL A   1      42.310  30.379  29.150  1.00  0.00     0.074 A 
ATOM     53  C   UNL A   1      48.587  30.708  28.210  1.00  0.00     0.029 A 
ATOM     54  N   UNL A   1      46.484  30.019  28.416  1.00  0.00    -0.354 N 
ATOM     55  N   UNL A   1      43.608  30.347  28.948  1.00  0.00    -0.248 NA
ATOM     56  C   UNL A   1      41.790  31.691  29.550  1.00  0.00     0.031 C 
ATOM     57  C   UNL A   1      47.810  31.780  28.671  1.00  0.00     0.029 A 
ATOM     58  C   UNL A   1      46.493  31.362  28.769  1.00  0.00     0.049 A 
ATOM     59  H   UNL A   1      45.683  29.447  28.398  1.00  0.00     0.167 HD
ATOM     60  C   UNL A   1      44.059  31.642  29.188  1.00  0.00     0.074 A 
ATOM     61  C   UNL A   1      42.889  32.432  29.518  1.00  0.00     0.031 C 
ATOM     62  C   UNL A   1      45.325  32.132  29.138  1.00  0.00     0.034 A 
BRANCH  49  63
ATOM     63  C   UNL A   1      49.589  27.895  27.535  1.00  0.00     0.023 A 
ATOM     64  C   UNL A   1      50.444  27.680  28.632  1.00  0.00     0.031 A 
ATOM     65  C   UNL A   1      50.150  27.831  26.247  1.00  0.00     0.131 A 
ATOM     66  C   UNL A   1      51.823  27.518  28.427  1.00  0.00     0.055 A 
ATOM     67  C   UNL A   1      51.509  27.576  26.046  1.00  0.00     0.041 A 
ATOM     68  F   UNL A   1      49.392  28.042  25.159  1.00  0.00    -0.206 F 
ATOM     69  C   UNL A   1      52.359  27.440  27.140  1.00  0.00     0.022 A 
BRANCH  66  70
ATOM     70  S   UNL A   1      52.926  27.595  29.867  1.00  0.00     0.124 S 
ATOM     71  O   UNL A   1      53.985  28.476  29.382  1.00  0.00    -0.237 OA
ATOM     72  O   UNL A   1      52.056  28.147  30.899  1.00  0.00    -0.237 OA
ATOM     73  O   UNL A   1      53.327  26.203  30.066  1.00  0.00    -0.744 OA
ENDBRANCH  66  70
ENDBRANCH  49  63
BRANCH  50  74
ATOM     74  C   UNL A   1      39.873  29.476  29.361  1.00  0.00     0.023 A 
ATOM     75  C   UNL A   1      39.447  29.506  30.699  1.00  0.00     0.031 A 
ATOM     76  C   UNL A   1      38.909  29.661  28.353  1.00  0.00     0.131 A 
ATOM     77  C   UNL A   1      38.088  29.691  30.992  1.00  0.00     0.055 A 
ATOM     78  C   UNL A   1      37.565  29.883  28.652  1.00  0.00     0.041 A 
ATOM     79  F   UNL A   1      39.272  29.658  27.061  1.00  0.00    -0.206 F 
ATOM     80  C   UNL A   1      37.146  29.891  29.980  1.00  0.00     0.022 A 
BRANCH  77  81
ATOM     81  S   UNL A   1      37.556  29.637  32.726  1.00  0.00     0.124 S 
ATOM     82  O   UNL A   1      38.618  30.387  33.387  1.00  0.00    -0.237 OA
ATOM     83  O   UNL A   1      36.252  30.288  32.664  1.00  0.00    -0.237 OA
ATOM     84  O   UNL A   1      37.521  28.207  33.027  1.00  0.00    -0.744 OA
ENDBRANCH  77  81
ENDBRANCH  50  74
BRANCH  62  85
ATOM     85  C   UNL A   1      45.493  33.602  29.444  1.00  0.00     0.023 A 
ATOM     86  C   UNL A   1      45.182  34.593  28.495  1.00  0.00     0.031 A 
ATOM     87  C   UNL A   1      46.019  34.017  30.681  1.00  0.00     0.131 A 
ATOM     88  C   UNL A   1      45.468  35.939  28.766  1.00  0.00     0.055 A 
ATOM     89  C   UNL A   1      46.239  35.365  30.971  1.00  0.00     0.041 A 
ATOM     90  F   UNL A   1      46.338  33.117  31.624  1.00  0.00    -0.206 F 
ATOM     91  C   UNL A   1      45.982  36.332  30.004  1.00  0.00     0.022 A 
BRANCH  88  92
ATOM     92  S   UNL A   1      45.285  37.154  27.431  1.00  0.00     0.124 S 
ATOM     93  O   UNL A   1      45.488  38.415  28.138  1.00  0.00    -0.237 OA
ATOM     94  O   UNL A   1      46.345  36.762  26.508  1.00  0.00    -0.237 OA
ATOM     95  O   UNL A   1      43.925  36.927  26.946  1.00  0.00    -0.744 OA
ENDBRANCH  88  92
ENDBRANCH  62  85
ENDBRANCH  36  37
ENDBRANCH  28  31
ENDBRANCH  26  27
ENDBRANCH  25  26
ENDBRANCH  24  25
ENDBRANCH  23  24
ENDBRANCH   1  23
TORSDOF 23
ENDMDL
MODEL 3
REMARK VINA RESULT:      -8.8      1.251      7.811
REMARK SMILES C#CCN(CC(=O)NCCCCCCNC(=O)c1ccc(-c2c3nc(c(-c4cc(S(=O)(=O)[O-])ccc4F)c4ccc([nH]4)c(-c4cc(S(=O)(=O)[O-])ccc4F)c4nc(c(-c5cc(S(=O)(=O)[O-])ccc5F)c5ccc2[nH]5)C=C4)C=C3)cc1)C(=O)N(C)[C@H](C)c1cccs1
REMARK SMILES IDX 10 1 9 2 8 3 6 4 7 5 5 7 4 8 3 9 2 10 1 11 81 12 82 13 83 14
REMARK SMILES IDX 84 15 85 16 86 17 87 18 88 19 91 20 89 21 90 22 11 23 12 24
REMARK SMILES IDX 13 25 14 26 15 27 16 28 17 30 18 31 19 32 80 33 20 34 79 35
REMARK SMILES IDX 21 36 22 37 23 38 73 39 24 40 78 41 72 42 74 43 25 44 77 45
REMARK SMILES IDX 71 46 70 47 26 49 58 50 38 51 57 52 39 53 42 54 56 55 75 56
REMARK SMILES IDX 40 57 41 58 55 60 76 61 43 62 27 63 28 64 36 65 29 66 35 67
REMARK SMILES IDX 37 68 34 69 30 70 31 71 32 72 33 73 59 74 60 75 68 76 61 77
REMARK SMILES IDX 67 78 69 79 66 80 62 81 63 82 64 83 65 84 44 85 45 86 53 87
REMARK SMILES IDX 46 88 52 89 54 90 51 91 47 92 48 93 49 94 50 95
REMARK H PARENT 8 6 15 29 74 48 42 59
REMARK Flexibility Score: inf
ROOT
ATOM      1  C   UNL A   1      39.058  23.780  26.494  1.00  0.00     0.021 C 
ENDROOT
BRANCH   1   2
ATOM      2  C   UNL A   1      37.588  23.615  26.122  1.00  0.00     0.116 C 
BRANCH   2   3
ATOM      3  N   UNL A   1      37.400  23.312  24.721  1.00  0.00    -0.355 N 
ATOM      4  C   UNL A   1      36.256  23.348  23.982  1.00  0.00     0.239 C 
ATOM      5  O   UNL A   1      36.369  23.309  22.752  1.00  0.00    -0.273 OA
ATOM      6  H   UNL A   1      38.211  23.042  24.234  1.00  0.00     0.163 HD
BRANCH   4   7
ATOM      7  C   UNL A   1      34.888  23.586  24.635  1.00  0.00     0.222 C 
BRANCH   7   8
ATOM      8  N   UNL A   1      33.705  23.396  23.791  1.00  0.00    -0.304 N 
BRANCH   8   9
ATOM      9  C   UNL A   1      33.389  21.988  23.471  1.00  0.00     0.211 C 
BRANCH   9  10
ATOM     10  C   UNL A   1      33.310  21.126  24.721  1.00  0.00    -0.085 C 
ATOM     11  C   UNL A   1      33.243  20.387  25.793  1.00  0.00     0.006 C 
ENDBRANCH   9  10
ENDBRANCH   8   9
BRANCH   8  12
ATOM     12  C   UNL A   1      32.807  24.334  23.297  1.00  0.00     0.321 C 
ATOM     13  O   UNL A   1      32.751  24.480  22.070  1.00  0.00    -0.248 OA
BRANCH  12  14
ATOM     14  N   UNL A   1      31.993  25.118  24.098  1.00  0.00    -0.320 N 
ATOM     15  C   UNL A   1      30.620  24.877  24.516  1.00  0.00     0.149 C 
BRANCH  14  16
ATOM     16  C   UNL A   1      32.469  26.485  24.467  1.00  0.00     0.124 C 
ATOM     17  C   UNL A   1      32.827  26.551  25.956  1.00  0.00     0.037 C 
BRANCH  16  18
ATOM     18  C   UNL A   1      31.600  27.614  23.935  1.00  0.00     0.027 A 
ATOM     19  C   UNL A   1      31.034  28.653  24.659  1.00  0.00     0.017 A 
ATOM     20  S   UNL A   1      31.143  27.719  22.276  1.00  0.00    -0.147 S 
ATOM     21  C   UNL A   1      30.274  29.545  23.845  1.00  0.00     0.012 A 
ATOM     22  C   UNL A   1      30.276  29.164  22.524  1.00  0.00     0.065 A 
ENDBRANCH  16  18
ENDBRANCH  14  16
ENDBRANCH  12  14
ENDBRANCH   8  12
ENDBRANCH   7   8
ENDBRANCH   4   7
ENDBRANCH   2   3
ENDBRANCH   1   2
BRANCH   1  23
ATOM     23  C   UNL A   1      39.756  22.477  26.901  1.00  0.00     0.002 C 
BRANCH  23  24
ATOM     24  C   UNL A   1      39.911  21.437  25.787  1.00  0.00     0.002 C 
BRANCH  24  25
ATOM     25  C   UNL A   1      39.893  19.974  26.241  1.00  0.00     0.021 C 
BRANCH  25  26
ATOM     26  C   UNL A   1      41.122  19.526  27.025  1.00  0.00     0.116 C 
BRANCH  26  27
ATOM     27  N   UNL A   1      42.168  19.021  26.153  1.00  0.00    -0.352 N 
ATOM     28  C   UNL A   1      43.152  19.695  25.479  1.00  0.00     0.251 C 
ATOM     29  H   UNL A   1      42.170  18.045  26.027  1.00  0.00     0.163 HD
ATOM     30  O   UNL A   1      43.804  19.097  24.620  1.00  0.00    -0.269 OA
BRANCH  28  31
ATOM     31  C   UNL A   1      43.425  21.123  25.754  1.00  0.00     0.039 A 
ATOM     32  C   UNL A   1      43.763  21.499  27.058  1.00  0.00     0.014 A 
ATOM     33  C   UNL A   1      43.314  22.096  24.756  1.00  0.00     0.014 A 
ATOM     34  C   UNL A   1      44.035  22.839  27.347  1.00  0.00     0.010 A 
ATOM     35  C   UNL A   1      43.652  23.421  25.030  1.00  0.00     0.010 A 
ATOM     36  C   UNL A   1      44.009  23.808  26.330  1.00  0.00    -0.014 A 
BRANCH  36  37
ATOM     37  C   UNL A   1      44.371  25.217  26.628  1.00  0.00     0.031 A 
ATOM     38  C   UNL A   1      43.354  26.175  27.185  1.00  0.00     0.074 A 
ATOM     39  C   UNL A   1      45.619  25.644  26.354  1.00  0.00     0.049 A 
ATOM     40  N   UNL A   1      43.503  27.427  27.538  1.00  0.00    -0.248 NA
ATOM     41  C   UNL A   1      41.984  25.669  27.329  1.00  0.00     0.031 C 
ATOM     42  C   UNL A   1      46.669  24.833  25.734  1.00  0.00     0.029 A 
ATOM     43  N   UNL A   1      46.215  26.863  26.555  1.00  0.00    -0.354 N 
ATOM     44  C   UNL A   1      42.245  27.862  27.941  1.00  0.00     0.074 A 
ATOM     45  C   UNL A   1      41.336  26.755  27.718  1.00  0.00     0.031 C 
ATOM     46  C   UNL A   1      47.787  25.567  25.628  1.00  0.00     0.029 A 
ATOM     47  C   UNL A   1      47.528  26.905  26.151  1.00  0.00     0.049 A 
ATOM     48  H   UNL A   1      45.748  27.633  26.952  1.00  0.00     0.167 HD
ATOM     49  C   UNL A   1      41.886  29.060  28.468  1.00  0.00     0.034 A 
ATOM     50  C   UNL A   1      48.427  27.906  26.200  1.00  0.00     0.034 A 
ATOM     51  C   UNL A   1      42.810  30.152  28.679  1.00  0.00     0.049 A 
ATOM     52  C   UNL A   1      48.026  29.215  26.822  1.00  0.00     0.074 A 
ATOM     53  C   UNL A   1      42.578  31.380  29.274  1.00  0.00     0.029 A 
ATOM     54  N   UNL A   1      44.144  30.153  28.284  1.00  0.00    -0.354 N 
ATOM     55  N   UNL A   1      46.855  29.581  27.290  1.00  0.00    -0.248 NA
ATOM     56  C   UNL A   1      49.075  30.231  26.949  1.00  0.00     0.031 C 
ATOM     57  C   UNL A   1      43.748  32.145  29.179  1.00  0.00     0.029 A 
ATOM     58  C   UNL A   1      44.736  31.371  28.592  1.00  0.00     0.049 A 
ATOM     59  H   UNL A   1      44.602  29.398  27.849  1.00  0.00     0.167 HD
ATOM     60  C   UNL A   1      47.031  30.873  27.778  1.00  0.00     0.074 A 
ATOM     61  C   UNL A   1      48.428  31.204  27.574  1.00  0.00     0.031 C 
ATOM     62  C   UNL A   1      46.121  31.708  28.345  1.00  0.00     0.034 A 
BRANCH  49  63
ATOM     63  C   UNL A   1      40.425  29.250  28.819  1.00  0.00     0.023 A 
ATOM     64  C   UNL A   1      39.981  29.254  30.155  1.00  0.00     0.031 A 
ATOM     65  C   UNL A   1      39.456  29.369  27.808  1.00  0.00     0.131 A 
ATOM     66  C   UNL A   1      38.606  29.269  30.438  1.00  0.00     0.055 A 
ATOM     67  C   UNL A   1      38.093  29.477  28.101  1.00  0.00     0.041 A 
ATOM     68  F   UNL A   1      39.811  29.356  26.514  1.00  0.00    -0.206 F 
ATOM     69  C   UNL A   1      37.660  29.405  29.421  1.00  0.00     0.022 A 
BRANCH  66  70
ATOM     70  S   UNL A   1      38.070  28.923  32.138  1.00  0.00     0.124 S 
ATOM     71  O   UNL A   1      38.982  29.762  32.912  1.00  0.00    -0.237 OA
ATOM     72  O   UNL A   1      36.674  29.344  32.119  1.00  0.00    -0.237 OA
ATOM     73  O   UNL A   1      38.288  27.484  32.280  1.00  0.00    -0.744 OA
ENDBRANCH  66  70
ENDBRANCH  49  63
BRANCH  50  74
ATOM     74  C   UNL A   1      49.795  27.698  25.650  1.00  0.00     0.023 A 
ATOM     75  C   UNL A   1      50.060  27.847  24.280  1.00  0.00     0.031 A 
ATOM     76  C   UNL A   1      50.863  27.360  26.500  1.00  0.00     0.131 A 
ATOM     77  C   UNL A   1      51.359  27.633  23.795  1.00  0.00     0.055 A 
ATOM     78  C   UNL A   1      52.160  27.185  26.018  1.00  0.00     0.041 A 
ATOM     79  F   UNL A   1      50.661  27.223  27.820  1.00  0.00    -0.206 F 
ATOM     80  C   UNL A   1      52.412  27.314  24.655  1.00  0.00     0.022 A 
BRANCH  77  81
ATOM     81  S   UNL A   1      51.651  27.747  22.008  1.00  0.00     0.124 S 
ATOM     82  O   UNL A   1      50.292  27.707  21.480  1.00  0.00    -0.237 OA
ATOM     83  O   UNL A   1      52.346  29.025  21.896  1.00  0.00    -0.237 OA
ATOM     84  O   UNL A   1      52.469  26.571  21.721  1.00  0.00    -0.744 OA
ENDBRANCH  77  81
ENDBRANCH  50  74
BRANCH  62  85
ATOM     85  C   UNL A   1      46.629  33.060  28.788  1.00  0.00     0.023 A 
ATOM     86  C   UNL A   1      46.577  34.180  27.939  1.00  0.00     0.031 A 
ATOM     87  C   UNL A   1      47.219  33.220  30.054  1.00  0.00     0.131 A 
ATOM     88  C   UNL A   1      47.171  35.388  28.334  1.00  0.00     0.055 A 
ATOM     89  C   UNL A   1      47.749  34.443  30.469  1.00  0.00     0.041 A 
ATOM     90  F   UNL A   1      47.300  32.185  30.906  1.00  0.00    -0.206 F 
ATOM     91  C   UNL A   1      47.745  35.530  29.600  1.00  0.00     0.022 A 
BRANCH  88  92
ATOM     92  S   UNL A   1      47.304  36.731  27.121  1.00  0.00     0.124 S 
ATOM     93  O   UNL A   1      47.942  36.060  25.992  1.00  0.00    -0.237 OA
ATOM     94  O   UNL A   1      45.909  37.115  26.929  1.00  0.00    -0.237 OA
ATOM     95  O   UNL A   1      48.133  37.725  27.800  1.00  0.00    -0.744 OA
ENDBRANCH  88  92
ENDBRANCH  62  85
ENDBRANCH  36  37
ENDBRANCH  28  31
ENDBRANCH  26  27
ENDBRANCH  25  26
ENDBRANCH  24  25
ENDBRANCH  23  24
ENDBRANCH   1  23
TORSDOF 23
ENDMDL
