MODEL 1
REMARK VINA RESULT:     -12.6      0.000      0.000
REMARK SMILES O=C(NCCCCCCNC(=O)c1nnn(-c2cccc(OC(F)(F)F)c2)c1-c1ccncc1)c1ccc(-c2c3nc(c(-c4cc(S(=O)(=O)[O-])ccc4F)c4ccc([nH]4)c(-c4cc(S(=O)(=O)[O-])ccc4F)c4nc(c(-c5cc(S(=O)(=O)[O-])ccc5F)c5ccc2[nH]5)C=C4)C=C3)cc1
REMARK SMILES IDX 6 1 5 2 4 3 3 4 1 5 2 6 35 8 36 9 97 10 37 11 96 12 38 13
REMARK SMILES IDX 39 14 40 15 90 16 41 17 95 18 89 19 91 20 42 21 94 22 88 23
REMARK SMILES IDX 87 24 43 26 75 27 55 28 74 29 56 30 59 31 73 32 92 33 57 34
REMARK SMILES IDX 58 35 72 37 93 38 60 39 44 40 45 41 53 42 46 43 52 44 54 45
REMARK SMILES IDX 51 46 47 47 48 48 49 49 50 50 76 51 77 52 85 53 78 54 84 55
REMARK SMILES IDX 86 56 83 57 79 58 80 59 81 60 82 61 61 62 62 63 70 64 63 65
REMARK SMILES IDX 69 66 71 67 68 68 64 69 65 70 66 71 67 72 7 73 8 74 9 75
REMARK SMILES IDX 10 76 11 77 12 79 13 80 14 81 28 82 15 83 16 84 29 85 30 86
REMARK SMILES IDX 34 87 31 88 33 89 32 90 17 91 18 92 27 93 19 94 21 95 20 96
REMARK SMILES IDX 22 97 23 98 24 99 25 100 26 101
REMARK H PARENT 3 7 91 25 59 36 10 78
REMARK Flexibility Score: inf
ROOT
ATOM      1  C   UNL A   1      32.181  30.071  26.723  1.00  0.00     0.002 C 
ENDROOT
BRANCH   1   2
ATOM      2  C   UNL A   1      33.625  30.174  27.235  1.00  0.00     0.021 C 
BRANCH   2   3
ATOM      3  C   UNL A   1      34.122  31.592  27.499  1.00  0.00     0.116 C 
BRANCH   3   4
ATOM      4  N   UNL A   1      34.076  31.994  28.888  1.00  0.00    -0.352 N 
ATOM      5  O   UNL A   1      34.574  32.505  30.975  1.00  0.00    -0.269 OA
ATOM      6  C   UNL A   1      34.957  31.962  29.934  1.00  0.00     0.251 C 
ATOM      7  H   UNL A   1      33.206  32.382  29.140  1.00  0.00     0.163 HD
BRANCH   6   8
ATOM      8  C   UNL A   1      36.290  31.298  29.920  1.00  0.00     0.039 A 
ATOM      9  C   UNL A   1      37.519  31.923  30.134  1.00  0.00     0.014 A 
ATOM     10  C   UNL A   1      36.279  29.909  29.689  1.00  0.00     0.014 A 
ATOM     11  C   UNL A   1      38.706  31.192  30.063  1.00  0.00     0.010 A 
ATOM     12  C   UNL A   1      37.462  29.172  29.631  1.00  0.00     0.010 A 
ATOM     13  C   UNL A   1      38.682  29.818  29.800  1.00  0.00    -0.014 A 
BRANCH  13  14
ATOM     14  C   UNL A   1      39.941  29.070  29.889  1.00  0.00     0.031 A 
ATOM     15  C   UNL A   1      40.414  28.792  31.280  1.00  0.00     0.074 A 
ATOM     16  C   UNL A   1      40.574  28.510  28.838  1.00  0.00     0.049 A 
ATOM     17  N   UNL A   1      41.540  29.110  31.831  1.00  0.00    -0.248 NA
ATOM     18  C   UNL A   1      39.468  28.142  32.203  1.00  0.00     0.031 C 
ATOM     19  C   UNL A   1      40.114  28.425  27.451  1.00  0.00     0.029 A 
ATOM     20  N   UNL A   1      41.741  27.797  28.818  1.00  0.00    -0.354 N 
ATOM     21  C   UNL A   1      41.528  28.549  33.108  1.00  0.00     0.074 A 
ATOM     22  C   UNL A   1      40.185  28.080  33.326  1.00  0.00     0.031 C 
ATOM     23  C   UNL A   1      40.874  27.530  26.780  1.00  0.00     0.029 A 
ATOM     24  C   UNL A   1      41.953  27.077  27.646  1.00  0.00     0.049 A 
ATOM     25  H   UNL A   1      42.376  27.792  29.570  1.00  0.00     0.167 HD
ATOM     26  C   UNL A   1      42.667  28.363  33.835  1.00  0.00     0.034 A 
ATOM     27  C   UNL A   1      42.907  26.135  27.413  1.00  0.00     0.034 A 
ATOM     28  C   UNL A   1      43.737  29.206  33.361  1.00  0.00     0.049 A 
ATOM     29  C   UNL A   1      43.997  26.359  28.391  1.00  0.00     0.074 A 
ATOM     30  C   UNL A   1      43.904  30.572  33.239  1.00  0.00     0.029 A 
ATOM     31  N   UNL A   1      44.722  28.649  32.579  1.00  0.00    -0.354 N 
ATOM     32  N   UNL A   1      44.755  27.421  28.395  1.00  0.00    -0.248 NA
ATOM     33  C   UNL A   1      43.960  25.621  29.644  1.00  0.00     0.031 C 
ATOM     34  C   UNL A   1      44.602  30.746  32.006  1.00  0.00     0.029 A 
ATOM     35  C   UNL A   1      44.876  29.477  31.492  1.00  0.00     0.049 A 
ATOM     36  H   UNL A   1      45.219  27.821  32.762  1.00  0.00     0.167 HD
ATOM     37  C   UNL A   1      44.935  27.728  29.734  1.00  0.00     0.074 A 
ATOM     38  C   UNL A   1      44.512  26.529  30.455  1.00  0.00     0.031 C 
ATOM     39  C   UNL A   1      45.151  29.013  30.145  1.00  0.00     0.034 A 
BRANCH  26  40
ATOM     40  C   UNL A   1      42.899  27.228  34.807  1.00  0.00     0.023 A 
ATOM     41  C   UNL A   1      43.614  26.097  34.362  1.00  0.00     0.031 A 
ATOM     42  C   UNL A   1      42.233  27.082  36.046  1.00  0.00     0.131 A 
ATOM     43  C   UNL A   1      43.592  24.891  35.090  1.00  0.00     0.055 A 
ATOM     44  C   UNL A   1      42.270  25.904  36.799  1.00  0.00     0.041 A 
ATOM     45  F   UNL A   1      41.434  28.031  36.548  1.00  0.00    -0.206 F 
ATOM     46  C   UNL A   1      42.930  24.791  36.310  1.00  0.00     0.022 A 
BRANCH  43  47
ATOM     47  S   UNL A   1      44.302  23.402  34.336  1.00  0.00     0.124 S 
ATOM     48  O   UNL A   1      44.512  22.548  35.500  1.00  0.00    -0.237 OA
ATOM     49  O   UNL A   1      43.241  22.994  33.420  1.00  0.00    -0.237 OA
ATOM     50  O   UNL A   1      45.521  23.893  33.697  1.00  0.00    -0.744 OA
ENDBRANCH  43  47
ENDBRANCH  26  40
BRANCH  27  51
ATOM     51  C   UNL A   1      42.765  24.880  26.624  1.00  0.00     0.023 A 
ATOM     52  C   UNL A   1      43.731  24.437  25.693  1.00  0.00     0.031 A 
ATOM     53  C   UNL A   1      41.755  23.955  26.974  1.00  0.00     0.131 A 
ATOM     54  C   UNL A   1      43.655  23.130  25.154  1.00  0.00     0.055 A 
ATOM     55  C   UNL A   1      41.681  22.670  26.435  1.00  0.00     0.041 A 
ATOM     56  F   UNL A   1      40.851  24.243  27.923  1.00  0.00    -0.206 F 
ATOM     57  C   UNL A   1      42.637  22.248  25.527  1.00  0.00     0.022 A 
BRANCH  54  58
ATOM     58  S   UNL A   1      44.945  22.516  24.019  1.00  0.00     0.124 S 
ATOM     59  O   UNL A   1      45.452  21.347  24.728  1.00  0.00    -0.237 OA
ATOM     60  O   UNL A   1      44.192  22.260  22.797  1.00  0.00    -0.237 OA
ATOM     61  O   UNL A   1      45.884  23.636  23.932  1.00  0.00    -0.744 OA
ENDBRANCH  54  58
ENDBRANCH  27  51
BRANCH  39  62
ATOM     62  C   UNL A   1      45.463  30.066  29.099  1.00  0.00     0.023 A 
ATOM     63  C   UNL A   1      46.764  30.395  28.650  1.00  0.00     0.031 A 
ATOM     64  C   UNL A   1      44.379  30.678  28.445  1.00  0.00     0.131 A 
ATOM     65  C   UNL A   1      46.938  31.315  27.596  1.00  0.00     0.055 A 
ATOM     66  C   UNL A   1      44.554  31.571  27.387  1.00  0.00     0.041 A 
ATOM     67  F   UNL A   1      43.117  30.390  28.803  1.00  0.00    -0.206 F 
ATOM     68  C   UNL A   1      45.836  31.898  26.963  1.00  0.00     0.022 A 
BRANCH  65  69
ATOM     69  S   UNL A   1      48.609  31.783  27.039  1.00  0.00     0.124 S 
ATOM     70  O   UNL A   1      49.127  30.556  26.446  1.00  0.00    -0.237 OA
ATOM     71  O   UNL A   1      48.338  32.879  26.113  1.00  0.00    -0.237 OA
ATOM     72  O   UNL A   1      49.279  32.189  28.277  1.00  0.00    -0.744 OA
ENDBRANCH  65  69
ENDBRANCH  39  62
ENDBRANCH  13  14
ENDBRANCH   6   8
ENDBRANCH   3   4
ENDBRANCH   2   3
ENDBRANCH   1   2
BRANCH   1  73
ATOM     73  C   UNL A   1      31.987  29.435  25.341  1.00  0.00     0.002 C 
BRANCH  73  74
ATOM     74  C   UNL A   1      31.336  28.049  25.318  1.00  0.00     0.021 C 
BRANCH  74  75
ATOM     75  C   UNL A   1      32.289  26.899  25.026  1.00  0.00     0.116 C 
BRANCH  75  76
ATOM     76  N   UNL A   1      32.906  26.989  23.715  1.00  0.00    -0.351 N 
ATOM     77  C   UNL A   1      33.170  25.971  22.826  1.00  0.00     0.274 C 
ATOM     78  H   UNL A   1      33.169  27.892  23.424  1.00  0.00     0.163 HD
ATOM     79  O   UNL A   1      33.768  26.227  21.781  1.00  0.00    -0.267 OA
BRANCH  77  80
ATOM     80  C   UNL A   1      32.734  24.622  23.152  1.00  0.00     0.178 A 
ATOM     81  N   UNL A   1      31.507  24.136  22.769  1.00  0.00    -0.124 NA
ATOM     82  C   UNL A   1      33.449  23.614  23.788  1.00  0.00     0.108 A 
ATOM     83  N   UNL A   1      31.459  22.845  23.068  1.00  0.00    -0.061 NA
ATOM     84  N   UNL A   1      32.561  22.545  23.788  1.00  0.00    -0.212 N 
BRANCH  82  85
ATOM     85  C   UNL A   1      34.857  23.533  24.179  1.00  0.00     0.006 A 
ATOM     86  C   UNL A   1      35.802  22.915  23.364  1.00  0.00     0.030 A 
ATOM     87  C   UNL A   1      35.260  24.038  25.425  1.00  0.00     0.030 A 
ATOM     88  C   UNL A   1      37.104  22.830  23.829  1.00  0.00     0.111 A 
ATOM     89  C   UNL A   1      36.582  23.900  25.801  1.00  0.00     0.111 A 
ATOM     90  N   UNL A   1      37.503  23.303  25.027  1.00  0.00    -0.265 NA
ENDBRANCH  82  85
BRANCH  84  91
ATOM     91  C   UNL A   1      32.761  21.270  24.362  1.00  0.00     0.071 A 
ATOM     92  C   UNL A   1      32.797  21.130  25.750  1.00  0.00     0.029 A 
ATOM     93  C   UNL A   1      32.806  20.145  23.521  1.00  0.00     0.075 A 
ATOM     94  C   UNL A   1      32.776  19.846  26.293  1.00  0.00     0.006 A 
ATOM     95  C   UNL A   1      32.816  18.866  24.064  1.00  0.00     0.131 A 
ATOM     96  C   UNL A   1      32.774  18.725  25.455  1.00  0.00     0.047 A 
BRANCH  95  97
ATOM     97  O   UNL A   1      32.841  17.696  23.359  1.00  0.00    -0.406 OA
BRANCH  97  98
ATOM     98  C   UNL A   1      33.978  16.856  23.520  1.00  0.00     0.573 C 
ATOM     99  F   UNL A   1      33.753  15.892  24.434  1.00  0.00    -0.132 F 
ATOM    100  F   UNL A   1      34.317  16.282  22.343  1.00  0.00    -0.132 F 
ATOM    101  F   UNL A   1      35.023  17.605  23.931  1.00  0.00    -0.132 F 
ENDBRANCH  97  98
ENDBRANCH  95  97
ENDBRANCH  84  91
ENDBRANCH  77  80
ENDBRANCH  75  76
ENDBRANCH  74  75
ENDBRANCH  73  74
ENDBRANCH   1  73
TORSDOF 20
ENDMDL
MODEL 2
REMARK VINA RESULT:     -12.6      4.429      9.931
REMARK SMILES O=C(NCCCCCCNC(=O)c1nnn(-c2cccc(OC(F)(F)F)c2)c1-c1ccncc1)c1ccc(-c2c3nc(c(-c4cc(S(=O)(=O)[O-])ccc4F)c4ccc([nH]4)c(-c4cc(S(=O)(=O)[O-])ccc4F)c4nc(c(-c5cc(S(=O)(=O)[O-])ccc5F)c5ccc2[nH]5)C=C4)C=C3)cc1
REMARK SMILES IDX 6 1 5 2 4 3 3 4 1 5 2 6 35 8 36 9 97 10 37 11 96 12 38 13
REMARK SMILES IDX 39 14 40 15 90 16 41 17 95 18 89 19 91 20 42 21 94 22 88 23
REMARK SMILES IDX 87 24 43 26 75 27 55 28 74 29 56 30 59 31 73 32 92 33 57 34
REMARK SMILES IDX 58 35 72 37 93 38 60 39 44 40 45 41 53 42 46 43 52 44 54 45
REMARK SMILES IDX 51 46 47 47 48 48 49 49 50 50 76 51 77 52 85 53 78 54 84 55
REMARK SMILES IDX 86 56 83 57 79 58 80 59 81 60 82 61 61 62 62 63 70 64 63 65
REMARK SMILES IDX 69 66 71 67 68 68 64 69 65 70 66 71 67 72 7 73 8 74 9 75
REMARK SMILES IDX 10 76 11 77 12 79 13 80 14 81 28 82 15 83 16 84 29 85 30 86
REMARK SMILES IDX 34 87 31 88 33 89 32 90 17 91 18 92 27 93 19 94 21 95 20 96
REMARK SMILES IDX 22 97 23 98 24 99 25 100 26 101
REMARK H PARENT 3 7 91 25 59 36 10 78
REMARK Flexibility Score: inf
ROOT
ATOM      1  C   UNL A   1      37.269  21.968  24.720  1.00  0.00     0.002 C 
ENDROOT
BRANCH   1   2
ATOM      2  C   UNL A   1      38.091  22.958  25.558  1.00  0.00     0.021 C 
BRANCH   2   3
ATOM      3  C   UNL A   1      39.067  22.322  26.544  1.00  0.00     0.116 C 
BRANCH   3   4
ATOM      4  N   UNL A   1      40.451  22.356  26.123  1.00  0.00    -0.352 N 
ATOM      5  O   UNL A   1      42.594  22.821  25.883  1.00  0.00    -0.269 OA
ATOM      6  C   UNL A   1      41.512  23.189  26.351  1.00  0.00     0.251 C 
ATOM      7  H   UNL A   1      40.684  21.602  25.533  1.00  0.00     0.163 HD
BRANCH   6   8
ATOM      8  C   UNL A   1      41.446  24.494  27.066  1.00  0.00     0.039 A 
ATOM      9  C   UNL A   1      42.209  24.858  28.176  1.00  0.00     0.014 A 
ATOM     10  C   UNL A   1      40.539  25.434  26.541  1.00  0.00     0.014 A 
ATOM     11  C   UNL A   1      42.031  26.106  28.777  1.00  0.00     0.010 A 
ATOM     12  C   UNL A   1      40.368  26.686  27.130  1.00  0.00     0.010 A 
ATOM     13  C   UNL A   1      41.102  27.017  28.264  1.00  0.00    -0.014 A 
BRANCH  13  14
ATOM     14  C   UNL A   1      41.064  28.368  28.837  1.00  0.00     0.031 A 
ATOM     15  C   UNL A   1      42.163  29.277  28.387  1.00  0.00     0.074 A 
ATOM     16  C   UNL A   1      40.049  28.855  29.581  1.00  0.00     0.049 A 
ATOM     17  N   UNL A   1      43.035  29.908  29.103  1.00  0.00    -0.248 NA
ATOM     18  C   UNL A   1      42.363  29.436  26.937  1.00  0.00     0.031 C 
ATOM     19  C   UNL A   1      38.765  28.218  29.878  1.00  0.00     0.029 A 
ATOM     20  N   UNL A   1      39.919  30.090  30.153  1.00  0.00    -0.354 N 
ATOM     21  C   UNL A   1      43.782  30.688  28.220  1.00  0.00     0.074 A 
ATOM     22  C   UNL A   1      43.411  30.260  26.897  1.00  0.00     0.031 C 
ATOM     23  C   UNL A   1      37.915  29.140  30.384  1.00  0.00     0.029 A 
ATOM     24  C   UNL A   1      38.627  30.395  30.570  1.00  0.00     0.049 A 
ATOM     25  H   UNL A   1      40.675  30.711  30.259  1.00  0.00     0.167 HD
ATOM     26  C   UNL A   1      44.536  31.746  28.638  1.00  0.00     0.034 A 
ATOM     27  C   UNL A   1      38.154  31.601  30.986  1.00  0.00     0.034 A 
ATOM     28  C   UNL A   1      44.833  31.656  30.046  1.00  0.00     0.049 A 
ATOM     29  C   UNL A   1      39.318  32.406  31.424  1.00  0.00     0.074 A 
ATOM     30  C   UNL A   1      45.492  30.732  30.834  1.00  0.00     0.029 A 
ATOM     31  N   UNL A   1      44.120  32.438  30.924  1.00  0.00    -0.354 N 
ATOM     32  N   UNL A   1      40.052  32.107  32.460  1.00  0.00    -0.248 NA
ATOM     33  C   UNL A   1      39.947  33.291  30.456  1.00  0.00     0.031 C 
ATOM     34  C   UNL A   1      44.731  30.672  32.040  1.00  0.00     0.029 A 
ATOM     35  C   UNL A   1      43.701  31.610  31.939  1.00  0.00     0.049 A 
ATOM     36  H   UNL A   1      43.944  33.403  30.843  1.00  0.00     0.167 HD
ATOM     37  C   UNL A   1      41.351  32.393  32.074  1.00  0.00     0.074 A 
ATOM     38  C   UNL A   1      41.214  33.216  30.874  1.00  0.00     0.031 C 
ATOM     39  C   UNL A   1      42.415  31.717  32.601  1.00  0.00     0.034 A 
BRANCH  26  40
ATOM     40  C   UNL A   1      44.785  33.002  27.834  1.00  0.00     0.023 A 
ATOM     41  C   UNL A   1      44.081  34.173  28.182  1.00  0.00     0.031 A 
ATOM     42  C   UNL A   1      45.463  33.042  26.594  1.00  0.00     0.131 A 
ATOM     43  C   UNL A   1      44.018  35.272  27.302  1.00  0.00     0.055 A 
ATOM     44  C   UNL A   1      45.454  34.160  25.754  1.00  0.00     0.041 A 
ATOM     45  F   UNL A   1      46.090  31.976  26.083  1.00  0.00    -0.206 F 
ATOM     46  C   UNL A   1      44.707  35.274  26.093  1.00  0.00     0.022 A 
BRANCH  43  47
ATOM     47  S   UNL A   1      42.882  36.633  27.684  1.00  0.00     0.124 S 
ATOM     48  O   UNL A   1      42.606  37.173  26.357  1.00  0.00    -0.237 OA
ATOM     49  O   UNL A   1      41.780  35.933  28.337  1.00  0.00    -0.237 OA
ATOM     50  O   UNL A   1      43.672  37.500  28.556  1.00  0.00    -0.744 OA
ENDBRANCH  43  47
ENDBRANCH  26  40
BRANCH  27  51
ATOM     51  C   UNL A   1      36.813  32.190  30.712  1.00  0.00     0.023 A 
ATOM     52  C   UNL A   1      36.008  32.779  31.713  1.00  0.00     0.031 A 
ATOM     53  C   UNL A   1      36.410  32.398  29.373  1.00  0.00     0.131 A 
ATOM     54  C   UNL A   1      34.860  33.526  31.354  1.00  0.00     0.055 A 
ATOM     55  C   UNL A   1      35.274  33.130  29.027  1.00  0.00     0.041 A 
ATOM     56  F   UNL A   1      37.162  31.966  28.349  1.00  0.00    -0.206 F 
ATOM     57  C   UNL A   1      34.497  33.706  30.017  1.00  0.00     0.022 A 
BRANCH  54  58
ATOM     58  S   UNL A   1      33.861  34.365  32.631  1.00  0.00     0.124 S 
ATOM     59  O   UNL A   1      34.869  35.113  33.373  1.00  0.00    -0.237 OA
ATOM     60  O   UNL A   1      32.926  35.149  31.833  1.00  0.00    -0.237 OA
ATOM     61  O   UNL A   1      33.252  33.258  33.370  1.00  0.00    -0.744 OA
ENDBRANCH  54  58
ENDBRANCH  27  51
BRANCH  39  62
ATOM     62  C   UNL A   1      42.184  30.835  33.813  1.00  0.00     0.023 A 
ATOM     63  C   UNL A   1      41.966  29.438  33.764  1.00  0.00     0.031 A 
ATOM     64  C   UNL A   1      42.311  31.425  35.084  1.00  0.00     0.131 A 
ATOM     65  C   UNL A   1      41.868  28.693  34.957  1.00  0.00     0.055 A 
ATOM     66  C   UNL A   1      42.237  30.682  36.262  1.00  0.00     0.041 A 
ATOM     67  F   UNL A   1      42.547  32.742  35.203  1.00  0.00    -0.206 F 
ATOM     68  C   UNL A   1      42.009  29.313  36.203  1.00  0.00     0.022 A 
BRANCH  65  69
ATOM     69  S   UNL A   1      41.540  26.901  34.908  1.00  0.00     0.124 S 
ATOM     70  O   UNL A   1      41.304  26.559  36.306  1.00  0.00    -0.237 OA
ATOM     71  O   UNL A   1      40.383  26.815  34.021  1.00  0.00    -0.237 OA
ATOM     72  O   UNL A   1      42.775  26.346  34.348  1.00  0.00    -0.744 OA
ENDBRANCH  65  69
ENDBRANCH  39  62
ENDBRANCH  13  14
ENDBRANCH   6   8
ENDBRANCH   3   4
ENDBRANCH   2   3
ENDBRANCH   1   2
BRANCH   1  73
ATOM     73  C   UNL A   1      36.266  22.575  23.730  1.00  0.00     0.002 C 
BRANCH  73  74
ATOM     74  C   UNL A   1      34.805  22.611  24.183  1.00  0.00     0.021 C 
BRANCH  74  75
ATOM     75  C   UNL A   1      34.413  23.846  24.983  1.00  0.00     0.116 C 
BRANCH  75  76
ATOM     76  N   UNL A   1      33.550  23.545  26.110  1.00  0.00    -0.351 N 
ATOM     77  C   UNL A   1      32.270  23.992  26.346  1.00  0.00     0.274 C 
ATOM     78  H   UNL A   1      33.928  22.944  26.793  1.00  0.00     0.163 HD
ATOM     79  O   UNL A   1      31.712  23.686  27.400  1.00  0.00    -0.267 OA
BRANCH  77  80
ATOM     80  C   UNL A   1      31.616  24.816  25.341  1.00  0.00     0.178 A 
ATOM     81  N   UNL A   1      30.708  24.299  24.448  1.00  0.00    -0.124 NA
ATOM     82  C   UNL A   1      31.708  26.191  25.159  1.00  0.00     0.108 A 
ATOM     83  N   UNL A   1      30.172  25.306  23.771  1.00  0.00    -0.061 NA
ATOM     84  N   UNL A   1      30.846  26.430  24.096  1.00  0.00    -0.212 N 
BRANCH  82  85
ATOM     85  C   UNL A   1      32.340  27.229  25.974  1.00  0.00     0.006 A 
ATOM     86  C   UNL A   1      31.586  28.077  26.782  1.00  0.00     0.030 A 
ATOM     87  C   UNL A   1      33.729  27.417  25.902  1.00  0.00     0.030 A 
ATOM     88  C   UNL A   1      32.252  29.069  27.481  1.00  0.00     0.111 A 
ATOM     89  C   UNL A   1      34.300  28.440  26.633  1.00  0.00     0.111 A 
ATOM     90  N   UNL A   1      33.584  29.266  27.415  1.00  0.00    -0.265 NA
ENDBRANCH  82  85
BRANCH  84  91
ATOM     91  C   UNL A   1      30.596  27.666  23.461  1.00  0.00     0.071 A 
ATOM     92  C   UNL A   1      31.556  28.218  22.611  1.00  0.00     0.029 A 
ATOM     93  C   UNL A   1      29.334  28.264  23.608  1.00  0.00     0.075 A 
ATOM     94  C   UNL A   1      31.205  29.319  21.830  1.00  0.00     0.006 A 
ATOM     95  C   UNL A   1      28.996  29.380  22.852  1.00  0.00     0.131 A 
ATOM     96  C   UNL A   1      29.931  29.886  21.944  1.00  0.00     0.047 A 
BRANCH  95  97
ATOM     97  O   UNL A   1      27.801  30.041  22.889  1.00  0.00    -0.406 OA
BRANCH  97  98
ATOM     98  C   UNL A   1      27.793  31.355  23.432  1.00  0.00     0.573 C 
ATOM     99  F   UNL A   1      28.909  31.600  24.146  1.00  0.00    -0.132 F 
ATOM    100  F   UNL A   1      27.684  32.277  22.448  1.00  0.00    -0.132 F 
ATOM    101  F   UNL A   1      26.723  31.489  24.244  1.00  0.00    -0.132 F 
ENDBRANCH  97  98
ENDBRANCH  95  97
ENDBRANCH  84  91
ENDBRANCH  77  80
ENDBRANCH  75  76
ENDBRANCH  74  75
ENDBRANCH  73  74
ENDBRANCH   1  73
TORSDOF 20
ENDMDL
MODEL 3
REMARK VINA RESULT:     -12.4      1.820      2.392
REMARK SMILES O=C(NCCCCCCNC(=O)c1nnn(-c2cccc(OC(F)(F)F)c2)c1-c1ccncc1)c1ccc(-c2c3nc(c(-c4cc(S(=O)(=O)[O-])ccc4F)c4ccc([nH]4)c(-c4cc(S(=O)(=O)[O-])ccc4F)c4nc(c(-c5cc(S(=O)(=O)[O-])ccc5F)c5ccc2[nH]5)C=C4)C=C3)cc1
REMARK SMILES IDX 6 1 5 2 4 3 3 4 1 5 2 6 35 8 36 9 97 10 37 11 96 12 38 13
REMARK SMILES IDX 39 14 40 15 90 16 41 17 95 18 89 19 91 20 42 21 94 22 88 23
REMARK SMILES IDX 87 24 43 26 75 27 55 28 74 29 56 30 59 31 73 32 92 33 57 34
REMARK SMILES IDX 58 35 72 37 93 38 60 39 44 40 45 41 53 42 46 43 52 44 54 45
REMARK SMILES IDX 51 46 47 47 48 48 49 49 50 50 76 51 77 52 85 53 78 54 84 55
REMARK SMILES IDX 86 56 83 57 79 58 80 59 81 60 82 61 61 62 62 63 70 64 63 65
REMARK SMILES IDX 69 66 71 67 68 68 64 69 65 70 66 71 67 72 7 73 8 74 9 75
REMARK SMILES IDX 10 76 11 77 12 79 13 80 14 81 28 82 15 83 16 84 29 85 30 86
REMARK SMILES IDX 34 87 31 88 33 89 32 90 17 91 18 92 27 93 19 94 21 95 20 96
REMARK SMILES IDX 22 97 23 98 24 99 25 100 26 101
REMARK H PARENT 3 7 91 25 59 36 10 78
REMARK Flexibility Score: inf
ROOT
ATOM      1  C   UNL A   1      33.148  29.984  26.062  1.00  0.00     0.002 C 
ENDROOT
BRANCH   1   2
ATOM      2  C   UNL A   1      33.900  30.313  27.360  1.00  0.00     0.021 C 
BRANCH   2   3
ATOM      3  C   UNL A   1      34.044  31.801  27.669  1.00  0.00     0.116 C 
BRANCH   3   4
ATOM      4  N   UNL A   1      34.017  32.125  29.080  1.00  0.00    -0.352 N 
ATOM      5  O   UNL A   1      34.545  32.518  31.185  1.00  0.00    -0.269 OA
ATOM      6  C   UNL A   1      34.912  32.034  30.110  1.00  0.00     0.251 C 
ATOM      7  H   UNL A   1      33.151  32.497  29.365  1.00  0.00     0.163 HD
BRANCH   6   8
ATOM      8  C   UNL A   1      36.244  31.371  30.040  1.00  0.00     0.039 A 
ATOM      9  C   UNL A   1      37.477  32.019  29.948  1.00  0.00     0.014 A 
ATOM     10  C   UNL A   1      36.232  29.964  30.095  1.00  0.00     0.014 A 
ATOM     11  C   UNL A   1      38.658  31.280  29.858  1.00  0.00     0.010 A 
ATOM     12  C   UNL A   1      37.410  29.223  30.019  1.00  0.00     0.010 A 
ATOM     13  C   UNL A   1      38.628  29.882  29.880  1.00  0.00    -0.014 A 
BRANCH  13  14
ATOM     14  C   UNL A   1      39.903  29.159  29.938  1.00  0.00     0.031 A 
ATOM     15  C   UNL A   1      40.419  28.895  31.317  1.00  0.00     0.074 A 
ATOM     16  C   UNL A   1      40.518  28.606  28.872  1.00  0.00     0.049 A 
ATOM     17  N   UNL A   1      41.553  29.237  31.836  1.00  0.00    -0.248 NA
ATOM     18  C   UNL A   1      39.511  28.231  32.267  1.00  0.00     0.031 C 
ATOM     19  C   UNL A   1      40.022  28.507  27.498  1.00  0.00     0.029 A 
ATOM     20  N   UNL A   1      41.697  27.915  28.823  1.00  0.00    -0.354 N 
ATOM     21  C   UNL A   1      41.587  28.681  33.114  1.00  0.00     0.074 A 
ATOM     22  C   UNL A   1      40.259  28.187  33.370  1.00  0.00     0.031 C 
ATOM     23  C   UNL A   1      40.781  27.624  26.810  1.00  0.00     0.029 A 
ATOM     24  C   UNL A   1      41.891  27.195  27.648  1.00  0.00     0.049 A 
ATOM     25  H   UNL A   1      42.353  27.926  29.557  1.00  0.00     0.167 HD
ATOM     26  C   UNL A   1      42.748  28.520  33.811  1.00  0.00     0.034 A 
ATOM     27  C   UNL A   1      42.857  26.271  27.392  1.00  0.00     0.034 A 
ATOM     28  C   UNL A   1      43.788  29.381  33.305  1.00  0.00     0.049 A 
ATOM     29  C   UNL A   1      43.968  26.520  28.340  1.00  0.00     0.074 A 
ATOM     30  C   UNL A   1      43.926  30.750  33.174  1.00  0.00     0.029 A 
ATOM     31  N   UNL A   1      44.762  28.841  32.498  1.00  0.00    -0.354 N 
ATOM     32  N   UNL A   1      44.706  27.596  28.320  1.00  0.00    -0.248 NA
ATOM     33  C   UNL A   1      43.980  25.786  29.596  1.00  0.00     0.031 C 
ATOM     34  C   UNL A   1      44.586  30.932  31.922  1.00  0.00     0.029 A 
ATOM     35  C   UNL A   1      44.871  29.667  31.404  1.00  0.00     0.049 A 
ATOM     36  H   UNL A   1      45.280  28.022  32.670  1.00  0.00     0.167 HD
ATOM     37  C   UNL A   1      44.916  27.912  29.652  1.00  0.00     0.074 A 
ATOM     38  C   UNL A   1      44.536  26.708  30.388  1.00  0.00     0.031 C 
ATOM     39  C   UNL A   1      45.118  29.202  30.052  1.00  0.00     0.034 A 
BRANCH  26  40
ATOM     40  C   UNL A   1      43.028  27.393  34.780  1.00  0.00     0.023 A 
ATOM     41  C   UNL A   1      43.753  26.275  34.320  1.00  0.00     0.031 A 
ATOM     42  C   UNL A   1      42.399  27.240  36.037  1.00  0.00     0.131 A 
ATOM     43  C   UNL A   1      43.774  25.072  35.052  1.00  0.00     0.055 A 
ATOM     44  C   UNL A   1      42.479  26.066  36.792  1.00  0.00     0.041 A 
ATOM     45  F   UNL A   1      41.596  28.175  36.558  1.00  0.00    -0.206 F 
ATOM     46  C   UNL A   1      43.148  24.964  36.290  1.00  0.00     0.022 A 
BRANCH  43  47
ATOM     47  S   UNL A   1      44.492  23.594  34.284  1.00  0.00     0.124 S 
ATOM     48  O   UNL A   1      43.478  22.585  34.572  1.00  0.00    -0.237 OA
ATOM     49  O   UNL A   1      44.612  24.007  32.889  1.00  0.00    -0.237 OA
ATOM     50  O   UNL A   1      45.758  23.424  34.994  1.00  0.00    -0.744 OA
ENDBRANCH  43  47
ENDBRANCH  26  40
BRANCH  27  51
ATOM     51  C   UNL A   1      42.718  25.010  26.612  1.00  0.00     0.023 A 
ATOM     52  C   UNL A   1      43.696  24.552  25.701  1.00  0.00     0.031 A 
ATOM     53  C   UNL A   1      41.694  24.096  26.953  1.00  0.00     0.131 A 
ATOM     54  C   UNL A   1      43.618  23.241  25.172  1.00  0.00     0.055 A 
ATOM     55  C   UNL A   1      41.619  22.808  26.424  1.00  0.00     0.041 A 
ATOM     56  F   UNL A   1      40.777  24.399  27.885  1.00  0.00    -0.206 F 
ATOM     57  C   UNL A   1      42.587  22.370  25.535  1.00  0.00     0.022 A 
BRANCH  54  58
ATOM     58  S   UNL A   1      44.921  22.606  24.064  1.00  0.00     0.124 S 
ATOM     59  O   UNL A   1      45.808  23.756  23.937  1.00  0.00    -0.237 OA
ATOM     60  O   UNL A   1      45.439  21.465  24.809  1.00  0.00    -0.237 OA
ATOM     61  O   UNL A   1      44.192  22.256  22.844  1.00  0.00    -0.744 OA
ENDBRANCH  54  58
ENDBRANCH  27  51
BRANCH  39  62
ATOM     62  C   UNL A   1      45.381  30.257  28.994  1.00  0.00     0.023 A 
ATOM     63  C   UNL A   1      46.667  30.668  28.568  1.00  0.00     0.031 A 
ATOM     64  C   UNL A   1      44.273  30.782  28.305  1.00  0.00     0.131 A 
ATOM     65  C   UNL A   1      46.802  31.581  27.503  1.00  0.00     0.055 A 
ATOM     66  C   UNL A   1      44.411  31.666  27.235  1.00  0.00     0.041 A 
ATOM     67  F   UNL A   1      43.026  30.412  28.640  1.00  0.00    -0.206 F 
ATOM     68  C   UNL A   1      45.677  32.074  26.834  1.00  0.00     0.022 A 
BRANCH  65  69
ATOM     69  S   UNL A   1      48.449  32.154  26.974  1.00  0.00     0.124 S 
ATOM     70  O   UNL A   1      49.111  30.932  26.535  1.00  0.00    -0.237 OA
ATOM     71  O   UNL A   1      48.126  33.121  25.929  1.00  0.00    -0.237 OA
ATOM     72  O   UNL A   1      49.010  32.744  28.192  1.00  0.00    -0.744 OA
ENDBRANCH  65  69
ENDBRANCH  39  62
ENDBRANCH  13  14
ENDBRANCH   6   8
ENDBRANCH   3   4
ENDBRANCH   2   3
ENDBRANCH   1   2
BRANCH   1  73
ATOM     73  C   UNL A   1      33.378  28.586  25.472  1.00  0.00     0.002 C 
BRANCH  73  74
ATOM     74  C   UNL A   1      33.258  27.413  26.448  1.00  0.00     0.021 C 
BRANCH  74  75
ATOM     75  C   UNL A   1      31.954  27.363  27.232  1.00  0.00     0.116 C 
BRANCH  75  76
ATOM     76  N   UNL A   1      30.782  27.259  26.383  1.00  0.00    -0.351 N 
ATOM     77  C   UNL A   1      30.260  26.133  25.786  1.00  0.00     0.274 C 
ATOM     78  H   UNL A   1      30.297  28.099  26.213  1.00  0.00     0.163 HD
ATOM     79  O   UNL A   1      29.291  26.247  25.036  1.00  0.00    -0.267 OA
BRANCH  77  80
ATOM     80  C   UNL A   1      30.874  24.843  26.060  1.00  0.00     0.178 A 
ATOM     81  N   UNL A   1      30.441  24.027  27.079  1.00  0.00    -0.124 NA
ATOM     82  C   UNL A   1      31.877  24.196  25.349  1.00  0.00     0.108 A 
ATOM     83  N   UNL A   1      31.079  22.868  26.982  1.00  0.00    -0.061 NA
ATOM     84  N   UNL A   1      32.029  22.995  26.031  1.00  0.00    -0.212 N 
BRANCH  82  85
ATOM     85  C   UNL A   1      32.506  24.515  24.066  1.00  0.00     0.006 A 
ATOM     86  C   UNL A   1      33.837  24.919  23.991  1.00  0.00     0.030 A 
ATOM     87  C   UNL A   1      31.742  24.471  22.890  1.00  0.00     0.030 A 
ATOM     88  C   UNL A   1      34.344  25.257  22.747  1.00  0.00     0.111 A 
ATOM     89  C   UNL A   1      32.338  24.832  21.697  1.00  0.00     0.111 A 
ATOM     90  N   UNL A   1      33.620  25.226  21.611  1.00  0.00    -0.265 NA
ENDBRANCH  82  85
BRANCH  84  91
ATOM     91  C   UNL A   1      32.962  21.971  25.759  1.00  0.00     0.071 A 
ATOM     92  C   UNL A   1      32.571  20.850  25.026  1.00  0.00     0.029 A 
ATOM     93  C   UNL A   1      34.303  22.155  26.136  1.00  0.00     0.075 A 
ATOM     94  C   UNL A   1      33.551  19.963  24.584  1.00  0.00     0.006 A 
ATOM     95  C   UNL A   1      35.276  21.253  25.721  1.00  0.00     0.131 A 
ATOM     96  C   UNL A   1      34.894  20.172  24.921  1.00  0.00     0.047 A 
BRANCH  95  97
ATOM     97  O   UNL A   1      36.610  21.327  26.003  1.00  0.00    -0.406 OA
BRANCH  97  98
ATOM     98  C   UNL A   1      37.372  22.316  25.322  1.00  0.00     0.573 C 
ATOM     99  F   UNL A   1      37.392  23.479  26.003  1.00  0.00    -0.132 F 
ATOM    100  F   UNL A   1      38.642  21.892  25.130  1.00  0.00    -0.132 F 
ATOM    101  F   UNL A   1      36.822  22.536  24.109  1.00  0.00    -0.132 F 
ENDBRANCH  97  98
ENDBRANCH  95  97
ENDBRANCH  84  91
ENDBRANCH  77  80
ENDBRANCH  75  76
ENDBRANCH  74  75
ENDBRANCH  73  74
ENDBRANCH   1  73
TORSDOF 20
ENDMDL
