MODEL 1
REMARK VINA RESULT:     -10.6      0.000      0.000
REMARK SMILES C[C@@H]1C[N@@H+]([C@@H](C)CC(=O)NCCCCCCNC(=O)c2ccc(-c3c4nc(c(-c5cc(S(=O)(=O)[O-])ccc5F)c5ccc([nH]5)c(-c5cc(S(=O)(=O)[O-])ccc5F)c5nc(c(-c6cc(S(=O)(=O)[O-])ccc6F)c6ccc3[nH]6)C=C5)C=C4)cc2)C[C@H](C)O1
REMARK SMILES IDX 14 1 13 2 12 3 11 4 10 5 8 6 9 7 7 9 5 10 6 11 4 12 1 13
REMARK SMILES IDX 2 14 3 15 86 16 84 17 83 18 85 20 15 21 16 22 17 23 18 24
REMARK SMILES IDX 19 26 20 27 21 28 82 29 22 30 81 31 23 32 24 33 25 34 75 35
REMARK SMILES IDX 26 36 80 37 74 38 76 39 27 40 79 41 73 42 72 43 28 45 60 46
REMARK SMILES IDX 40 47 59 48 41 49 44 50 58 51 77 52 42 53 43 54 57 56 78 57
REMARK SMILES IDX 45 58 29 59 30 60 38 61 31 62 37 63 39 64 36 65 32 66 33 67
REMARK SMILES IDX 34 68 35 69 61 70 62 71 70 72 63 73 69 74 71 75 68 76 64 77
REMARK SMILES IDX 65 78 66 79 67 80 46 81 47 82 55 83 48 84 54 85 56 86 53 87
REMARK SMILES IDX 49 88 50 89 51 90 52 91
REMARK H PARENT 10 8 4 19 17 25 76 44 44 55
REMARK Flexibility Score: inf
ROOT
ATOM      1  C   UNL A   1      31.483  28.197  23.963  1.00  0.00     0.002 C 
ENDROOT
BRANCH   1   2
ATOM      2  C   UNL A   1      32.549  28.569  22.922  1.00  0.00     0.002 C 
BRANCH   2   3
ATOM      3  C   UNL A   1      33.609  27.505  22.624  1.00  0.00     0.021 C 
BRANCH   3   4
ATOM      4  C   UNL A   1      33.621  26.306  23.573  1.00  0.00     0.116 C 
BRANCH   4   5
ATOM      5  N   UNL A   1      33.639  25.057  22.832  1.00  0.00    -0.356 N 
ATOM      6  C   UNL A   1      32.673  24.103  22.731  1.00  0.00     0.225 C 
ATOM      7  O   UNL A   1      32.941  23.051  22.145  1.00  0.00    -0.275 OA
ATOM      8  H   UNL A   1      34.467  24.875  22.331  1.00  0.00     0.163 HD
BRANCH   6   9
ATOM      9  C   UNL A   1      31.290  24.343  23.302  1.00  0.00     0.164 C 
BRANCH   9  10
ATOM     10  C   UNL A   1      31.132  23.790  24.738  1.00  0.00     0.190 C 
ATOM     11  C   UNL A   1      30.640  24.926  25.658  1.00  0.00     0.076 C 
BRANCH  10  12
ATOM     12  N   UNL A   1      32.352  23.085  25.225  1.00  0.00    -0.328 N 
ATOM     13  C   UNL A   1      34.231  20.401  24.846  1.00  0.00     0.045 C 
ATOM     14  C   UNL A   1      33.306  20.854  25.972  1.00  0.00     0.170 C 
ATOM     15  C   UNL A   1      32.073  21.656  25.499  1.00  0.00     0.294 C 
ATOM     16  O   UNL A   1      34.018  21.491  27.042  1.00  0.00    -0.364 OA
ATOM     17  C   UNL A   1      34.206  22.908  26.930  1.00  0.00     0.170 C 
ATOM     18  C   UNL A   1      32.937  23.656  26.458  1.00  0.00     0.294 C 
ATOM     19  H   UNL A   1      33.024  23.201  24.466  1.00  0.00     0.348 HD
ATOM     20  C   UNL A   1      35.442  23.255  26.113  1.00  0.00     0.045 C 
ENDBRANCH  10  12
ENDBRANCH   9  10
ENDBRANCH   6   9
ENDBRANCH   4   5
ENDBRANCH   3   4
ENDBRANCH   2   3
ENDBRANCH   1   2
BRANCH   1  21
ATOM     21  C   UNL A   1      31.637  28.780  25.373  1.00  0.00     0.021 C 
BRANCH  21  22
ATOM     22  C   UNL A   1      32.912  29.579  25.651  1.00  0.00     0.116 C 
BRANCH  22  23
ATOM     23  N   UNL A   1      32.619  30.916  26.131  1.00  0.00    -0.352 N 
ATOM     24  C   UNL A   1      33.223  31.680  27.100  1.00  0.00     0.251 C 
ATOM     25  H   UNL A   1      31.856  31.352  25.686  1.00  0.00     0.163 HD
ATOM     26  O   UNL A   1      32.642  32.692  27.485  1.00  0.00    -0.269 OA
BRANCH  24  27
ATOM     27  C   UNL A   1      34.537  31.319  27.693  1.00  0.00     0.039 A 
ATOM     28  C   UNL A   1      34.710  30.011  28.162  1.00  0.00     0.014 A 
ATOM     29  C   UNL A   1      35.557  32.254  27.897  1.00  0.00     0.014 A 
ATOM     30  C   UNL A   1      35.894  29.637  28.808  1.00  0.00     0.010 A 
ATOM     31  C   UNL A   1      36.766  31.865  28.493  1.00  0.00     0.010 A 
ATOM     32  C   UNL A   1      36.943  30.557  28.971  1.00  0.00    -0.014 A 
BRANCH  32  33
ATOM     33  C   UNL A   1      38.200  30.149  29.663  1.00  0.00     0.031 A 
ATOM     34  C   UNL A   1      38.507  30.634  31.057  1.00  0.00     0.074 A 
ATOM     35  C   UNL A   1      39.074  29.333  29.038  1.00  0.00     0.049 A 
ATOM     36  N   UNL A   1      39.532  30.361  31.826  1.00  0.00    -0.248 NA
ATOM     37  C   UNL A   1      37.542  31.567  31.658  1.00  0.00     0.031 C 
ATOM     38  C   UNL A   1      38.917  28.817  27.677  1.00  0.00     0.029 A 
ATOM     39  N   UNL A   1      40.263  28.789  29.462  1.00  0.00    -0.354 N 
ATOM     40  C   UNL A   1      39.340  31.088  32.997  1.00  0.00     0.074 A 
ATOM     41  C   UNL A   1      38.129  31.861  32.809  1.00  0.00     0.031 C 
ATOM     42  C   UNL A   1      39.951  28.010  27.390  1.00  0.00     0.029 A 
ATOM     43  C   UNL A   1      40.864  27.975  28.529  1.00  0.00     0.049 A 
ATOM     44  H   UNL A   1      40.648  28.966  30.351  1.00  0.00     0.167 HD
ATOM     45  C   UNL A   1      40.088  31.095  34.131  1.00  0.00     0.034 A 
ATOM     46  C   UNL A   1      42.017  27.276  28.582  1.00  0.00     0.034 A 
ATOM     47  C   UNL A   1      41.293  30.319  34.310  1.00  0.00     0.049 A 
ATOM     48  C   UNL A   1      42.837  27.308  29.848  1.00  0.00     0.074 A 
ATOM     49  C   UNL A   1      42.101  30.224  35.432  1.00  0.00     0.029 A 
ATOM     50  N   UNL A   1      41.871  29.507  33.341  1.00  0.00    -0.354 N 
ATOM     51  N   UNL A   1      42.610  27.961  30.964  1.00  0.00    -0.248 NA
ATOM     52  C   UNL A   1      44.055  26.489  29.865  1.00  0.00     0.031 C 
ATOM     53  C   UNL A   1      43.199  29.413  35.119  1.00  0.00     0.029 A 
ATOM     54  C   UNL A   1      43.036  28.932  33.831  1.00  0.00     0.049 A 
ATOM     55  H   UNL A   1      41.507  29.361  32.437  1.00  0.00     0.167 HD
ATOM     56  C   UNL A   1      43.642  27.600  31.829  1.00  0.00     0.074 A 
ATOM     57  C   UNL A   1      44.477  26.661  31.109  1.00  0.00     0.031 C 
ATOM     58  C   UNL A   1      43.872  28.004  33.104  1.00  0.00     0.034 A 
BRANCH  45  59
ATOM     59  C   UNL A   1      39.633  31.997  35.258  1.00  0.00     0.023 A 
ATOM     60  C   UNL A   1      38.927  31.498  36.367  1.00  0.00     0.031 A 
ATOM     61  C   UNL A   1      39.893  33.379  35.216  1.00  0.00     0.131 A 
ATOM     62  C   UNL A   1      38.438  32.379  37.344  1.00  0.00     0.055 A 
ATOM     63  C   UNL A   1      39.477  34.240  36.235  1.00  0.00     0.041 A 
ATOM     64  F   UNL A   1      40.547  33.921  34.177  1.00  0.00    -0.206 F 
ATOM     65  C   UNL A   1      38.730  33.743  37.299  1.00  0.00     0.022 A 
BRANCH  62  66
ATOM     66  S   UNL A   1      37.292  31.737  38.595  1.00  0.00     0.124 S 
ATOM     67  O   UNL A   1      38.093  31.842  39.812  1.00  0.00    -0.237 OA
ATOM     68  O   UNL A   1      36.163  32.653  38.489  1.00  0.00    -0.237 OA
ATOM     69  O   UNL A   1      37.029  30.369  38.148  1.00  0.00    -0.744 OA
ENDBRANCH  62  66
ENDBRANCH  45  59
BRANCH  46  70
ATOM     70  C   UNL A   1      42.472  26.482  27.404  1.00  0.00     0.023 A 
ATOM     71  C   UNL A   1      42.128  25.128  27.263  1.00  0.00     0.031 A 
ATOM     72  C   UNL A   1      43.297  27.057  26.421  1.00  0.00     0.131 A 
ATOM     73  C   UNL A   1      42.645  24.381  26.194  1.00  0.00     0.055 A 
ATOM     74  C   UNL A   1      43.766  26.324  25.330  1.00  0.00     0.041 A 
ATOM     75  F   UNL A   1      43.652  28.349  26.505  1.00  0.00    -0.206 F 
ATOM     76  C   UNL A   1      43.451  24.974  25.219  1.00  0.00     0.022 A 
BRANCH  73  77
ATOM     77  S   UNL A   1      42.321  22.597  26.140  1.00  0.00     0.124 S 
ATOM     78  O   UNL A   1      40.864  22.558  26.190  1.00  0.00    -0.237 OA
ATOM     79  O   UNL A   1      42.930  22.217  24.869  1.00  0.00    -0.237 OA
ATOM     80  O   UNL A   1      43.001  22.091  27.330  1.00  0.00    -0.744 OA
ENDBRANCH  73  77
ENDBRANCH  46  70
BRANCH  58  81
ATOM     81  C   UNL A   1      45.052  27.384  33.818  1.00  0.00     0.023 A 
ATOM     82  C   UNL A   1      44.935  26.190  34.552  1.00  0.00     0.031 A 
ATOM     83  C   UNL A   1      46.307  28.018  33.788  1.00  0.00     0.131 A 
ATOM     84  C   UNL A   1      46.032  25.707  35.284  1.00  0.00     0.055 A 
ATOM     85  C   UNL A   1      47.412  27.498  34.464  1.00  0.00     0.041 A 
ATOM     86  F   UNL A   1      46.480  29.161  33.106  1.00  0.00    -0.206 F 
ATOM     87  C   UNL A   1      47.274  26.345  35.232  1.00  0.00     0.022 A 
BRANCH  84  88
ATOM     88  S   UNL A   1      45.783  24.298  36.399  1.00  0.00     0.124 S 
ATOM     89  O   UNL A   1      44.335  24.130  36.360  1.00  0.00    -0.237 OA
ATOM     90  O   UNL A   1      46.564  23.247  35.752  1.00  0.00    -0.237 OA
ATOM     91  O   UNL A   1      46.318  24.770  37.674  1.00  0.00    -0.744 OA
ENDBRANCH  84  88
ENDBRANCH  58  81
ENDBRANCH  32  33
ENDBRANCH  24  27
ENDBRANCH  22  23
ENDBRANCH  21  22
ENDBRANCH   1  21
TORSDOF 18
ENDMDL
MODEL 2
REMARK VINA RESULT:     -10.5      1.724      2.031
REMARK SMILES C[C@@H]1C[N@@H+]([C@@H](C)CC(=O)NCCCCCCNC(=O)c2ccc(-c3c4nc(c(-c5cc(S(=O)(=O)[O-])ccc5F)c5ccc([nH]5)c(-c5cc(S(=O)(=O)[O-])ccc5F)c5nc(c(-c6cc(S(=O)(=O)[O-])ccc6F)c6ccc3[nH]6)C=C5)C=C4)cc2)C[C@H](C)O1
REMARK SMILES IDX 14 1 13 2 12 3 11 4 10 5 8 6 9 7 7 9 5 10 6 11 4 12 1 13
REMARK SMILES IDX 2 14 3 15 86 16 84 17 83 18 85 20 15 21 16 22 17 23 18 24
REMARK SMILES IDX 19 26 20 27 21 28 82 29 22 30 81 31 23 32 24 33 25 34 75 35
REMARK SMILES IDX 26 36 80 37 74 38 76 39 27 40 79 41 73 42 72 43 28 45 60 46
REMARK SMILES IDX 40 47 59 48 41 49 44 50 58 51 77 52 42 53 43 54 57 56 78 57
REMARK SMILES IDX 45 58 29 59 30 60 38 61 31 62 37 63 39 64 36 65 32 66 33 67
REMARK SMILES IDX 34 68 35 69 61 70 62 71 70 72 63 73 69 74 71 75 68 76 64 77
REMARK SMILES IDX 65 78 66 79 67 80 46 81 47 82 55 83 48 84 54 85 56 86 53 87
REMARK SMILES IDX 49 88 50 89 51 90 52 91
REMARK H PARENT 10 8 4 19 17 25 76 44 44 55
REMARK Flexibility Score: inf
ROOT
ATOM      1  C   UNL A   1      31.270  28.650  24.741  1.00  0.00     0.002 C 
ENDROOT
BRANCH   1   2
ATOM      2  C   UNL A   1      30.970  28.241  23.292  1.00  0.00     0.002 C 
BRANCH   2   3
ATOM      3  C   UNL A   1      30.952  26.738  23.000  1.00  0.00     0.021 C 
BRANCH   3   4
ATOM      4  C   UNL A   1      31.370  26.339  21.584  1.00  0.00     0.116 C 
BRANCH   4   5
ATOM      5  N   UNL A   1      31.931  24.999  21.567  1.00  0.00    -0.356 N 
ATOM      6  C   UNL A   1      33.064  24.534  22.162  1.00  0.00     0.225 C 
ATOM      7  O   UNL A   1      33.430  23.382  21.917  1.00  0.00    -0.275 OA
ATOM      8  H   UNL A   1      31.420  24.333  21.053  1.00  0.00     0.163 HD
BRANCH   6   9
ATOM      9  C   UNL A   1      33.843  25.406  23.126  1.00  0.00     0.164 C 
BRANCH   9  10
ATOM     10  C   UNL A   1      33.747  24.914  24.589  1.00  0.00     0.190 C 
ATOM     11  C   UNL A   1      34.185  26.055  25.530  1.00  0.00     0.076 C 
BRANCH  10  12
ATOM     12  N   UNL A   1      34.458  23.622  24.813  1.00  0.00    -0.328 N 
ATOM     13  C   UNL A   1      34.148  20.340  24.734  1.00  0.00     0.045 C 
ATOM     14  C   UNL A   1      34.311  21.326  25.887  1.00  0.00     0.170 C 
ATOM     15  C   UNL A   1      33.650  22.701  25.646  1.00  0.00     0.294 C 
ATOM     16  O   UNL A   1      35.670  21.424  26.335  1.00  0.00    -0.364 OA
ATOM     17  C   UNL A   1      36.491  22.400  25.680  1.00  0.00     0.170 C 
ATOM     18  C   UNL A   1      35.776  23.756  25.472  1.00  0.00     0.294 C 
ATOM     19  H   UNL A   1      34.603  23.254  23.873  1.00  0.00     0.348 HD
ATOM     20  C   UNL A   1      37.117  21.854  24.406  1.00  0.00     0.045 C 
ENDBRANCH  10  12
ENDBRANCH   9  10
ENDBRANCH   6   9
ENDBRANCH   4   5
ENDBRANCH   3   4
ENDBRANCH   2   3
ENDBRANCH   1   2
BRANCH   1  21
ATOM     21  C   UNL A   1      31.376  30.150  25.046  1.00  0.00     0.021 C 
BRANCH  21  22
ATOM     22  C   UNL A   1      32.043  30.536  26.368  1.00  0.00     0.116 C 
BRANCH  22  23
ATOM     23  N   UNL A   1      31.984  31.966  26.606  1.00  0.00    -0.352 N 
ATOM     24  C   UNL A   1      32.773  32.786  27.376  1.00  0.00     0.251 C 
ATOM     25  H   UNL A   1      31.253  32.428  26.136  1.00  0.00     0.163 HD
ATOM     26  O   UNL A   1      32.376  33.928  27.600  1.00  0.00    -0.269 OA
BRANCH  24  27
ATOM     27  C   UNL A   1      34.072  32.338  27.943  1.00  0.00     0.039 A 
ATOM     28  C   UNL A   1      34.161  31.026  28.425  1.00  0.00     0.014 A 
ATOM     29  C   UNL A   1      35.162  33.199  28.109  1.00  0.00     0.014 A 
ATOM     30  C   UNL A   1      35.330  30.575  29.047  1.00  0.00     0.010 A 
ATOM     31  C   UNL A   1      36.353  32.730  28.683  1.00  0.00     0.010 A 
ATOM     32  C   UNL A   1      36.446  31.419  29.174  1.00  0.00    -0.014 A 
BRANCH  32  33
ATOM     33  C   UNL A   1      37.688  30.928  29.841  1.00  0.00     0.031 A 
ATOM     34  C   UNL A   1      38.016  31.335  31.255  1.00  0.00     0.074 A 
ATOM     35  C   UNL A   1      38.527  30.108  29.175  1.00  0.00     0.049 A 
ATOM     36  N   UNL A   1      39.031  30.986  32.006  1.00  0.00    -0.248 NA
ATOM     37  C   UNL A   1      37.091  32.277  31.902  1.00  0.00     0.031 C 
ATOM     38  C   UNL A   1      38.347  29.663  27.793  1.00  0.00     0.029 A 
ATOM     39  N   UNL A   1      39.693  29.498  29.569  1.00  0.00    -0.354 N 
ATOM     40  C   UNL A   1      38.870  31.664  33.211  1.00  0.00     0.074 A 
ATOM     41  C   UNL A   1      37.691  32.493  33.064  1.00  0.00     0.031 C 
ATOM     42  C   UNL A   1      39.347  28.829  27.465  1.00  0.00     0.029 A 
ATOM     43  C   UNL A   1      40.259  28.704  28.598  1.00  0.00     0.049 A 
ATOM     44  H   UNL A   1      40.087  29.617  30.464  1.00  0.00     0.167 HD
ATOM     45  C   UNL A   1      39.620  31.589  34.341  1.00  0.00     0.034 A 
ATOM     46  C   UNL A   1      41.383  27.958  28.614  1.00  0.00     0.034 A 
ATOM     47  C   UNL A   1      40.794  30.757  34.479  1.00  0.00     0.049 A 
ATOM     48  C   UNL A   1      42.206  27.897  29.876  1.00  0.00     0.074 A 
ATOM     49  C   UNL A   1      41.599  30.578  35.592  1.00  0.00     0.029 A 
ATOM     50  N   UNL A   1      41.337  29.969  33.471  1.00  0.00    -0.354 N 
ATOM     51  N   UNL A   1      42.008  28.506  31.022  1.00  0.00    -0.248 NA
ATOM     52  C   UNL A   1      43.390  27.030  29.851  1.00  0.00     0.031 C 
ATOM     53  C   UNL A   1      42.663  29.738  35.238  1.00  0.00     0.029 A 
ATOM     54  C   UNL A   1      42.478  29.325  33.930  1.00  0.00     0.049 A 
ATOM     55  H   UNL A   1      40.965  29.880  32.564  1.00  0.00     0.167 HD
ATOM     56  C   UNL A   1      43.026  28.064  31.866  1.00  0.00     0.074 A 
ATOM     57  C   UNL A   1      43.821  27.127  31.100  1.00  0.00     0.031 C 
ATOM     58  C   UNL A   1      43.275  28.398  33.158  1.00  0.00     0.034 A 
BRANCH  45  59
ATOM     59  C   UNL A   1      39.204  32.454  35.510  1.00  0.00     0.023 A 
ATOM     60  C   UNL A   1      39.635  33.787  35.635  1.00  0.00     0.031 A 
ATOM     61  C   UNL A   1      38.381  31.936  36.526  1.00  0.00     0.131 A 
ATOM     62  C   UNL A   1      39.308  34.528  36.781  1.00  0.00     0.055 A 
ATOM     63  C   UNL A   1      37.989  32.706  37.624  1.00  0.00     0.041 A 
ATOM     64  F   UNL A   1      37.950  30.666  36.476  1.00  0.00    -0.206 F 
ATOM     65  C   UNL A   1      38.467  34.006  37.765  1.00  0.00     0.022 A 
BRANCH  62  66
ATOM     66  S   UNL A   1      40.118  36.131  37.038  1.00  0.00     0.124 S 
ATOM     67  O   UNL A   1      41.490  35.725  37.333  1.00  0.00    -0.237 OA
ATOM     68  O   UNL A   1      39.909  36.799  35.760  1.00  0.00    -0.237 OA
ATOM     69  O   UNL A   1      39.391  36.705  38.170  1.00  0.00    -0.744 OA
ENDBRANCH  62  66
ENDBRANCH  45  59
BRANCH  46  70
ATOM     70  C   UNL A   1      41.803  27.201  27.398  1.00  0.00     0.023 A 
ATOM     71  C   UNL A   1      41.645  25.809  27.317  1.00  0.00     0.031 A 
ATOM     72  C   UNL A   1      42.412  27.859  26.314  1.00  0.00     0.131 A 
ATOM     73  C   UNL A   1      42.133  25.111  26.201  1.00  0.00     0.055 A 
ATOM     74  C   UNL A   1      42.848  27.167  25.182  1.00  0.00     0.041 A 
ATOM     75  F   UNL A   1      42.585  29.190  26.338  1.00  0.00    -0.206 F 
ATOM     76  C   UNL A   1      42.721  25.783  25.128  1.00  0.00     0.022 A 
BRANCH  73  77
ATOM     77  S   UNL A   1      42.066  23.299  26.209  1.00  0.00     0.124 S 
ATOM     78  O   UNL A   1      42.821  22.978  27.416  1.00  0.00    -0.237 OA
ATOM     79  O   UNL A   1      40.629  23.049  26.267  1.00  0.00    -0.237 OA
ATOM     80  O   UNL A   1      42.711  22.928  24.952  1.00  0.00    -0.744 OA
ENDBRANCH  73  77
ENDBRANCH  46  70
BRANCH  58  81
ATOM     81  C   UNL A   1      44.430  27.699  33.838  1.00  0.00     0.023 A 
ATOM     82  C   UNL A   1      44.268  26.474  34.509  1.00  0.00     0.031 A 
ATOM     83  C   UNL A   1      45.707  28.287  33.840  1.00  0.00     0.131 A 
ATOM     84  C   UNL A   1      45.345  25.913  35.214  1.00  0.00     0.055 A 
ATOM     85  C   UNL A   1      46.792  27.691  34.487  1.00  0.00     0.041 A 
ATOM     86  F   UNL A   1      45.923  29.457  33.218  1.00  0.00    -0.206 F 
ATOM     87  C   UNL A   1      46.610  26.507  35.194  1.00  0.00     0.022 A 
BRANCH  84  88
ATOM     88  S   UNL A   1      45.043  24.459  36.255  1.00  0.00     0.124 S 
ATOM     89  O   UNL A   1      43.588  24.362  36.229  1.00  0.00    -0.237 OA
ATOM     90  O   UNL A   1      45.764  23.410  35.541  1.00  0.00    -0.237 OA
ATOM     91  O   UNL A   1      45.616  24.835  37.546  1.00  0.00    -0.744 OA
ENDBRANCH  84  88
ENDBRANCH  58  81
ENDBRANCH  32  33
ENDBRANCH  24  27
ENDBRANCH  22  23
ENDBRANCH  21  22
ENDBRANCH   1  21
TORSDOF 18
ENDMDL
MODEL 3
REMARK VINA RESULT:     -10.3      1.643      2.009
REMARK SMILES C[C@@H]1C[N@@H+]([C@@H](C)CC(=O)NCCCCCCNC(=O)c2ccc(-c3c4nc(c(-c5cc(S(=O)(=O)[O-])ccc5F)c5ccc([nH]5)c(-c5cc(S(=O)(=O)[O-])ccc5F)c5nc(c(-c6cc(S(=O)(=O)[O-])ccc6F)c6ccc3[nH]6)C=C5)C=C4)cc2)C[C@H](C)O1
REMARK SMILES IDX 14 1 13 2 12 3 11 4 10 5 8 6 9 7 7 9 5 10 6 11 4 12 1 13
REMARK SMILES IDX 2 14 3 15 86 16 84 17 83 18 85 20 15 21 16 22 17 23 18 24
REMARK SMILES IDX 19 26 20 27 21 28 82 29 22 30 81 31 23 32 24 33 25 34 75 35
REMARK SMILES IDX 26 36 80 37 74 38 76 39 27 40 79 41 73 42 72 43 28 45 60 46
REMARK SMILES IDX 40 47 59 48 41 49 44 50 58 51 77 52 42 53 43 54 57 56 78 57
REMARK SMILES IDX 45 58 29 59 30 60 38 61 31 62 37 63 39 64 36 65 32 66 33 67
REMARK SMILES IDX 34 68 35 69 61 70 62 71 70 72 63 73 69 74 71 75 68 76 64 77
REMARK SMILES IDX 65 78 66 79 67 80 46 81 47 82 55 83 48 84 54 85 56 86 53 87
REMARK SMILES IDX 49 88 50 89 51 90 52 91
REMARK H PARENT 10 8 4 19 17 25 76 44 44 55
REMARK Flexibility Score: inf
ROOT
ATOM      1  C   UNL A   1      32.076  29.220  24.687  1.00  0.00     0.002 C 
ENDROOT
BRANCH   1   2
ATOM      2  C   UNL A   1      33.472  29.293  24.052  1.00  0.00     0.002 C 
BRANCH   2   3
ATOM      3  C   UNL A   1      33.963  28.029  23.343  1.00  0.00     0.021 C 
BRANCH   3   4
ATOM      4  C   UNL A   1      32.873  27.167  22.706  1.00  0.00     0.116 C 
BRANCH   4   5
ATOM      5  N   UNL A   1      33.427  25.928  22.187  1.00  0.00    -0.356 N 
ATOM      6  C   UNL A   1      33.145  24.644  22.543  1.00  0.00     0.225 C 
ATOM      7  O   UNL A   1      33.825  23.735  22.061  1.00  0.00    -0.275 OA
ATOM      8  H   UNL A   1      34.102  26.032  21.479  1.00  0.00     0.163 HD
BRANCH   6   9
ATOM      9  C   UNL A   1      32.000  24.340  23.488  1.00  0.00     0.164 C 
BRANCH   9  10
ATOM     10  C   UNL A   1      32.473  24.084  24.938  1.00  0.00     0.190 C 
ATOM     11  C   UNL A   1      32.471  25.420  25.707  1.00  0.00     0.076 C 
BRANCH  10  12
ATOM     12  N   UNL A   1      33.762  23.336  25.002  1.00  0.00    -0.328 N 
ATOM     13  C   UNL A   1      35.137  20.342  24.862  1.00  0.00     0.045 C 
ATOM     14  C   UNL A   1      34.956  21.334  26.007  1.00  0.00     0.170 C 
ATOM     15  C   UNL A   1      33.665  22.178  25.921  1.00  0.00     0.294 C 
ATOM     16  O   UNL A   1      36.132  22.123  26.238  1.00  0.00    -0.364 OA
ATOM     17  C   UNL A   1      36.239  23.345  25.495  1.00  0.00     0.170 C 
ATOM     18  C   UNL A   1      34.917  24.147  25.449  1.00  0.00     0.294 C 
ATOM     19  H   UNL A   1      33.926  23.044  24.039  1.00  0.00     0.348 HD
ATOM     20  C   UNL A   1      36.850  23.123  24.120  1.00  0.00     0.045 C 
ENDBRANCH  10  12
ENDBRANCH   9  10
ENDBRANCH   6   9
ENDBRANCH   4   5
ENDBRANCH   3   4
ENDBRANCH   2   3
ENDBRANCH   1   2
BRANCH   1  21
ATOM     21  C   UNL A   1      31.994  29.221  26.220  1.00  0.00     0.021 C 
BRANCH  21  22
ATOM     22  C   UNL A   1      33.270  29.596  26.976  1.00  0.00     0.116 C 
BRANCH  22  23
ATOM     23  N   UNL A   1      33.310  31.009  27.302  1.00  0.00    -0.352 N 
ATOM     24  C   UNL A   1      34.215  31.741  28.032  1.00  0.00     0.251 C 
ATOM     25  H   UNL A   1      32.561  31.534  26.938  1.00  0.00     0.163 HD
ATOM     26  O   UNL A   1      33.903  32.883  28.363  1.00  0.00    -0.269 OA
BRANCH  24  27
ATOM     27  C   UNL A   1      35.539  31.198  28.434  1.00  0.00     0.039 A 
ATOM     28  C   UNL A   1      35.579  29.920  29.007  1.00  0.00     0.014 A 
ATOM     29  C   UNL A   1      36.717  31.948  28.363  1.00  0.00     0.014 A 
ATOM     30  C   UNL A   1      36.784  29.392  29.483  1.00  0.00     0.010 A 
ATOM     31  C   UNL A   1      37.934  31.396  28.790  1.00  0.00     0.010 A 
ATOM     32  C   UNL A   1      37.980  30.119  29.370  1.00  0.00    -0.014 A 
BRANCH  32  33
ATOM     33  C   UNL A   1      39.259  29.547  29.883  1.00  0.00     0.031 A 
ATOM     34  C   UNL A   1      39.908  30.101  31.127  1.00  0.00     0.074 A 
ATOM     35  C   UNL A   1      39.844  28.521  29.232  1.00  0.00     0.049 A 
ATOM     36  N   UNL A   1      41.001  29.713  31.737  1.00  0.00    -0.248 NA
ATOM     37  C   UNL A   1      39.251  31.256  31.755  1.00  0.00     0.031 C 
ATOM     38  C   UNL A   1      39.341  27.912  27.999  1.00  0.00     0.029 A 
ATOM     39  N   UNL A   1      40.981  27.804  29.513  1.00  0.00    -0.354 N 
ATOM     40  C   UNL A   1      41.165  30.576  32.817  1.00  0.00     0.074 A 
ATOM     41  C   UNL A   1      40.091  31.544  32.739  1.00  0.00     0.031 C 
ATOM     42  C   UNL A   1      40.146  26.897  27.648  1.00  0.00     0.029 A 
ATOM     43  C   UNL A   1      41.243  26.801  28.608  1.00  0.00     0.049 A 
ATOM     44  H   UNL A   1      41.555  27.990  30.291  1.00  0.00     0.167 HD
ATOM     45  C   UNL A   1      42.108  30.551  33.795  1.00  0.00     0.034 A 
ATOM     46  C   UNL A   1      42.247  25.902  28.554  1.00  0.00     0.034 A 
ATOM     47  C   UNL A   1      43.175  29.579  33.865  1.00  0.00     0.049 A 
ATOM     48  C   UNL A   1      43.290  25.900  29.644  1.00  0.00     0.074 A 
ATOM     49  C   UNL A   1      44.157  29.443  34.834  1.00  0.00     0.029 A 
ATOM     50  N   UNL A   1      43.408  28.580  32.928  1.00  0.00    -0.354 N 
ATOM     51  N   UNL A   1      43.398  26.692  30.686  1.00  0.00    -0.248 NA
ATOM     52  C   UNL A   1      44.331  24.868  29.561  1.00  0.00     0.031 C 
ATOM     53  C   UNL A   1      45.018  28.408  34.448  1.00  0.00     0.029 A 
ATOM     54  C   UNL A   1      44.530  27.843  33.282  1.00  0.00     0.049 A 
ATOM     55  H   UNL A   1      42.856  28.418  32.128  1.00  0.00     0.167 HD
ATOM     56  C   UNL A   1      44.500  26.227  31.401  1.00  0.00     0.074 A 
ATOM     57  C   UNL A   1      45.008  25.079  30.680  1.00  0.00     0.031 C 
ATOM     58  C   UNL A   1      45.039  26.703  32.553  1.00  0.00     0.034 A 
BRANCH  45  59
ATOM     59  C   UNL A   1      42.041  31.631  34.853  1.00  0.00     0.023 A 
ATOM     60  C   UNL A   1      41.046  31.633  35.846  1.00  0.00     0.031 A 
ATOM     61  C   UNL A   1      42.974  32.684  34.859  1.00  0.00     0.131 A 
ATOM     62  C   UNL A   1      40.958  32.702  36.751  1.00  0.00     0.055 A 
ATOM     63  C   UNL A   1      42.932  33.702  35.815  1.00  0.00     0.041 A 
ATOM     64  F   UNL A   1      43.938  32.750  33.928  1.00  0.00    -0.206 F 
ATOM     65  C   UNL A   1      41.909  33.724  36.759  1.00  0.00     0.022 A 
BRANCH  62  66
ATOM     66  S   UNL A   1      39.497  32.814  37.821  1.00  0.00     0.124 S 
ATOM     67  O   UNL A   1      38.717  31.662  37.377  1.00  0.00    -0.237 OA
ATOM     68  O   UNL A   1      40.076  32.721  39.156  1.00  0.00    -0.237 OA
ATOM     69  O   UNL A   1      38.921  34.115  37.480  1.00  0.00    -0.744 OA
ENDBRANCH  62  66
ENDBRANCH  45  59
BRANCH  46  70
ATOM     70  C   UNL A   1      42.323  24.922  27.432  1.00  0.00     0.023 A 
ATOM     71  C   UNL A   1      41.553  23.748  27.438  1.00  0.00     0.031 A 
ATOM     72  C   UNL A   1      43.205  25.125  26.355  1.00  0.00     0.131 A 
ATOM     73  C   UNL A   1      41.712  22.800  26.415  1.00  0.00     0.055 A 
ATOM     74  C   UNL A   1      43.321  24.205  25.312  1.00  0.00     0.041 A 
ATOM     75  F   UNL A   1      43.962  26.233  26.298  1.00  0.00    -0.206 F 
ATOM     76  C   UNL A   1      42.582  23.027  25.346  1.00  0.00     0.022 A 
BRANCH  73  77
ATOM     77  S   UNL A   1      40.829  21.221  26.546  1.00  0.00     0.124 S 
ATOM     78  O   UNL A   1      40.817  21.005  27.989  1.00  0.00    -0.237 OA
ATOM     79  O   UNL A   1      39.543  21.541  25.934  1.00  0.00    -0.237 OA
ATOM     80  O   UNL A   1      41.667  20.298  25.784  1.00  0.00    -0.744 OA
ENDBRANCH  73  77
ENDBRANCH  46  70
BRANCH  58  81
ATOM     81  C   UNL A   1      46.211  25.942  33.129  1.00  0.00     0.023 A 
ATOM     82  C   UNL A   1      46.036  24.863  34.015  1.00  0.00     0.031 A 
ATOM     83  C   UNL A   1      47.526  26.325  32.811  1.00  0.00     0.131 A 
ATOM     84  C   UNL A   1      47.154  24.253  34.606  1.00  0.00     0.055 A 
ATOM     85  C   UNL A   1      48.635  25.671  33.350  1.00  0.00     0.041 A 
ATOM     86  F   UNL A   1      47.756  27.349  31.973  1.00  0.00    -0.206 F 
ATOM     87  C   UNL A   1      48.452  24.641  34.267  1.00  0.00     0.022 A 
BRANCH  84  88
ATOM     88  S   UNL A   1      46.887  23.024  35.912  1.00  0.00     0.124 S 
ATOM     89  O   UNL A   1      45.446  22.807  35.837  1.00  0.00    -0.237 OA
ATOM     90  O   UNL A   1      47.723  21.912  35.470  1.00  0.00    -0.237 OA
ATOM     91  O   UNL A   1      47.348  23.702  37.122  1.00  0.00    -0.744 OA
ENDBRANCH  84  88
ENDBRANCH  58  81
ENDBRANCH  32  33
ENDBRANCH  24  27
ENDBRANCH  22  23
ENDBRANCH  21  22
ENDBRANCH   1  21
TORSDOF 18
ENDMDL
