MODEL 1
REMARK VINA RESULT:      -9.5      0.000      0.000
REMARK SMILES C[C@@H](O)[C@@H](NC(=O)CN(C)C(=O)c1cccs1)C(=O)NCCCCCCNC(=O)c1ccc(-c2c3nc(c(-c4cc(S(=O)(=O)[O-])ccc4F)c4ccc([nH]4)c(-c4cc(S(=O)(=O)[O-])ccc4F)c4nc(c(-c5cc(S(=O)(=O)[O-])ccc5F)c5ccc2[nH]5)C=C4)C=C3)cc1
REMARK SMILES IDX 22 1 21 2 20 3 18 4 19 5 4 7 2 8 1 9 3 10 5 12 6 13 7 15
REMARK SMILES IDX 8 16 9 17 10 18 11 19 12 20 13 21 14 22 17 23 15 24 16 25
REMARK SMILES IDX 23 26 24 27 25 28 26 29 27 30 28 31 29 33 30 34 31 35 92 36
REMARK SMILES IDX 32 37 91 38 33 39 34 40 35 41 85 42 36 43 90 44 84 45 86 46
REMARK SMILES IDX 37 47 89 48 83 49 82 50 38 52 70 53 50 54 69 55 51 56 54 57
REMARK SMILES IDX 68 58 87 59 52 60 53 61 67 63 88 64 55 65 39 66 40 67 48 68
REMARK SMILES IDX 41 69 47 70 49 71 46 72 42 73 43 74 44 75 45 76 71 77 72 78
REMARK SMILES IDX 80 79 73 80 79 81 81 82 78 83 74 84 75 85 76 86 77 87 56 88
REMARK SMILES IDX 57 89 65 90 58 91 64 92 66 93 63 94 59 95 60 96 61 97 62 98
REMARK H PARENT 20 6 3 11 5 14 27 32 86 51 54 62
REMARK Flexibility Score: inf
ROOT
ATOM      1  C   UNL A   1      36.320  23.157  24.177  1.00  0.00     0.021 C 
ENDROOT
BRANCH   1   2
ATOM      2  C   UNL A   1      34.943  23.819  23.806  1.00  0.00     0.116 C 
BRANCH   2   3
ATOM      3  N   UNL A   1      33.775  22.985  23.585  1.00  0.00    -0.354 N 
ATOM      4  C   UNL A   1      32.516  23.301  23.127  1.00  0.00     0.245 C 
ATOM      5  O   UNL A   1      31.796  22.325  22.860  1.00  0.00    -0.273 OA
ATOM      6  H   UNL A   1      33.906  22.033  23.798  1.00  0.00     0.163 HD
BRANCH   4   7
ATOM      7  C   UNL A   1      31.955  24.750  22.853  1.00  0.00     0.200 C 
BRANCH   7   8
ATOM      8  C   UNL A   1      32.292  25.423  21.499  1.00  0.00     0.143 C 
ATOM      9  C   UNL A   1      33.284  26.591  21.645  1.00  0.00     0.041 C 
BRANCH   8  10
ATOM     10  O   UNL A   1      32.926  24.456  20.651  1.00  0.00    -0.391 OA
ATOM     11  H   UNL A   1      32.677  23.563  20.936  1.00  0.00     0.211 HD
ENDBRANCH   8  10
ENDBRANCH   7   8
BRANCH   7  12
ATOM     12  N   UNL A   1      30.675  25.218  23.433  1.00  0.00    -0.341 N 
ATOM     13  C   UNL A   1      30.292  26.110  24.379  1.00  0.00     0.240 C 
ATOM     14  H   UNL A   1      29.903  24.765  23.026  1.00  0.00     0.164 HD
ATOM     15  O   UNL A   1      29.131  26.020  24.787  1.00  0.00    -0.273 OA
BRANCH  13  16
ATOM     16  C   UNL A   1      31.125  27.330  24.689  1.00  0.00     0.219 C 
BRANCH  16  17
ATOM     17  N   UNL A   1      32.147  27.168  25.707  1.00  0.00    -0.332 N 
ATOM     18  C   UNL A   1      33.460  27.222  25.082  1.00  0.00     0.147 C 
BRANCH  17  19
ATOM     19  C   UNL A   1      31.909  27.931  26.894  1.00  0.00     0.264 C 
ATOM     20  O   UNL A   1      31.043  27.555  27.682  1.00  0.00    -0.268 OA
BRANCH  19  21
ATOM     21  C   UNL A   1      32.740  29.109  27.205  1.00  0.00     0.092 A 
ATOM     22  C   UNL A   1      34.051  29.233  27.627  1.00  0.00     0.025 A 
ATOM     23  S   UNL A   1      32.121  30.683  26.874  1.00  0.00    -0.139 S 
ATOM     24  C   UNL A   1      34.571  30.556  27.638  1.00  0.00     0.012 A 
ATOM     25  C   UNL A   1      33.609  31.454  27.258  1.00  0.00     0.065 A 
ENDBRANCH  19  21
ENDBRANCH  17  19
ENDBRANCH  16  17
ENDBRANCH  13  16
ENDBRANCH   7  12
ENDBRANCH   4   7
ENDBRANCH   2   3
ENDBRANCH   1   2
BRANCH   1  26
ATOM     26  C   UNL A   1      37.169  23.011  25.514  1.00  0.00     0.002 C 
BRANCH  26  27
ATOM     27  C   UNL A   1      38.525  22.374  26.104  1.00  0.00     0.002 C 
BRANCH  27  28
ATOM     28  C   UNL A   1      39.537  21.234  25.734  1.00  0.00     0.021 C 
BRANCH  28  29
ATOM     29  C   UNL A   1      39.958  20.045  26.645  1.00  0.00     0.116 C 
BRANCH  29  30
ATOM     30  N   UNL A   1      41.058  19.244  26.171  1.00  0.00    -0.352 N 
ATOM     31  C   UNL A   1      42.327  19.655  25.816  1.00  0.00     0.251 C 
ATOM     32  H   UNL A   1      40.882  18.278  26.090  1.00  0.00     0.163 HD
ATOM     33  O   UNL A   1      43.055  18.854  25.232  1.00  0.00    -0.269 OA
BRANCH  31  34
ATOM     34  C   UNL A   1      42.840  21.032  26.080  1.00  0.00     0.039 A 
ATOM     35  C   UNL A   1      43.002  21.435  27.414  1.00  0.00     0.014 A 
ATOM     36  C   UNL A   1      42.999  21.986  25.070  1.00  0.00     0.014 A 
ATOM     37  C   UNL A   1      43.343  22.762  27.731  1.00  0.00     0.010 A 
ATOM     38  C   UNL A   1      43.357  23.314  25.388  1.00  0.00     0.010 A 
ATOM     39  C   UNL A   1      43.530  23.722  26.723  1.00  0.00    -0.014 A 
BRANCH  39  40
ATOM     40  C   UNL A   1      43.921  25.127  27.077  1.00  0.00     0.031 A 
ATOM     41  C   UNL A   1      45.337  25.623  26.898  1.00  0.00     0.074 A 
ATOM     42  C   UNL A   1      42.996  25.979  27.565  1.00  0.00     0.049 A 
ATOM     43  N   UNL A   1      45.840  26.811  27.138  1.00  0.00    -0.248 NA
ATOM     44  C   UNL A   1      46.316  24.652  26.391  1.00  0.00     0.031 C 
ATOM     45  C   UNL A   1      41.592  25.643  27.804  1.00  0.00     0.029 A 
ATOM     46  N   UNL A   1      43.090  27.298  27.948  1.00  0.00    -0.354 N 
ATOM     47  C   UNL A   1      47.191  26.737  26.810  1.00  0.00     0.074 A 
ATOM     48  C   UNL A   1      47.434  25.367  26.400  1.00  0.00     0.031 C 
ATOM     49  C   UNL A   1      40.955  26.727  28.276  1.00  0.00     0.029 A 
ATOM     50  C   UNL A   1      41.906  27.829  28.411  1.00  0.00     0.049 A 
ATOM     51  H   UNL A   1      43.927  27.815  27.896  1.00  0.00     0.167 HD
ATOM     52  C   UNL A   1      48.136  27.714  26.831  1.00  0.00     0.034 A 
ATOM     53  C   UNL A   1      41.611  29.053  28.896  1.00  0.00     0.034 A 
ATOM     54  C   UNL A   1      47.894  29.078  27.248  1.00  0.00     0.049 A 
ATOM     55  C   UNL A   1      42.690  30.108  28.963  1.00  0.00     0.074 A 
ATOM     56  C   UNL A   1      48.779  30.147  27.259  1.00  0.00     0.029 A 
ATOM     57  N   UNL A   1      46.690  29.565  27.740  1.00  0.00    -0.354 N 
ATOM     58  N   UNL A   1      43.948  30.027  28.601  1.00  0.00    -0.248 NA
ATOM     59  C   UNL A   1      42.302  31.422  29.495  1.00  0.00     0.031 C 
ATOM     60  C   UNL A   1      48.133  31.253  27.826  1.00  0.00     0.029 A 
ATOM     61  C   UNL A   1      46.822  30.902  28.094  1.00  0.00     0.049 A 
ATOM     62  H   UNL A   1      45.864  29.038  27.827  1.00  0.00     0.167 HD
ATOM     63  C   UNL A   1      44.491  31.290  28.831  1.00  0.00     0.074 A 
ATOM     64  C   UNL A   1      43.421  32.116  29.349  1.00  0.00     0.031 C 
ATOM     65  C   UNL A   1      45.760  31.727  28.625  1.00  0.00     0.034 A 
BRANCH  52  66
ATOM     66  C   UNL A   1      49.542  27.335  26.417  1.00  0.00     0.023 A 
ATOM     67  C   UNL A   1      50.566  27.149  27.362  1.00  0.00     0.031 A 
ATOM     68  C   UNL A   1      49.865  27.158  25.058  1.00  0.00     0.131 A 
ATOM     69  C   UNL A   1      51.876  26.872  26.935  1.00  0.00     0.055 A 
ATOM     70  C   UNL A   1      51.152  26.803  24.645  1.00  0.00     0.041 A 
ATOM     71  F   UNL A   1      48.936  27.333  24.106  1.00  0.00    -0.206 F 
ATOM     72  C   UNL A   1      52.170  26.673  25.585  1.00  0.00     0.022 A 
BRANCH  69  73
ATOM     73  S   UNL A   1      53.213  26.917  28.160  1.00  0.00     0.124 S 
ATOM     74  O   UNL A   1      52.738  25.956  29.151  1.00  0.00    -0.237 OA
ATOM     75  O   UNL A   1      54.373  26.513  27.377  1.00  0.00    -0.237 OA
ATOM     76  O   UNL A   1      53.217  28.311  28.609  1.00  0.00    -0.744 OA
ENDBRANCH  69  73
ENDBRANCH  52  66
BRANCH  53  77
ATOM     77  C   UNL A   1      40.234  29.360  29.384  1.00  0.00     0.023 A 
ATOM     78  C   UNL A   1      39.934  29.371  30.756  1.00  0.00     0.031 A 
ATOM     79  C   UNL A   1      39.183  29.592  28.478  1.00  0.00     0.131 A 
ATOM     80  C   UNL A   1      38.609  29.563  31.182  1.00  0.00     0.055 A 
ATOM     81  C   UNL A   1      37.878  29.838  28.908  1.00  0.00     0.041 A 
ATOM     82  F   UNL A   1      39.415  29.588  27.156  1.00  0.00    -0.206 F 
ATOM     83  C   UNL A   1      37.582  29.811  30.267  1.00  0.00     0.022 A 
BRANCH  80  84
ATOM     84  S   UNL A   1      38.228  29.394  32.948  1.00  0.00     0.124 S 
ATOM     85  O   UNL A   1      37.394  28.197  32.958  1.00  0.00    -0.237 OA
ATOM     86  O   UNL A   1      39.558  29.253  33.532  1.00  0.00    -0.237 OA
ATOM     87  O   UNL A   1      37.538  30.641  33.269  1.00  0.00    -0.744 OA
ENDBRANCH  80  84
ENDBRANCH  53  77
BRANCH  65  88
ATOM     88  C   UNL A   1      46.048  33.181  28.922  1.00  0.00     0.023 A 
ATOM     89  C   UNL A   1      45.827  34.194  27.972  1.00  0.00     0.031 A 
ATOM     90  C   UNL A   1      46.573  33.556  30.173  1.00  0.00     0.131 A 
ATOM     91  C   UNL A   1      46.178  35.521  28.266  1.00  0.00     0.055 A 
ATOM     92  C   UNL A   1      46.865  34.886  30.481  1.00  0.00     0.041 A 
ATOM     93  F   UNL A   1      46.810  32.634  31.119  1.00  0.00    -0.206 F 
ATOM     94  C   UNL A   1      46.680  35.876  29.520  1.00  0.00     0.022 A 
BRANCH  91  95
ATOM     95  S   UNL A   1      46.052  36.771  26.956  1.00  0.00     0.124 S 
ATOM     96  O   UNL A   1      47.233  37.592  27.204  1.00  0.00    -0.237 OA
ATOM     97  O   UNL A   1      46.084  35.958  25.744  1.00  0.00    -0.237 OA
ATOM     98  O   UNL A   1      44.774  37.427  27.227  1.00  0.00    -0.744 OA
ENDBRANCH  91  95
ENDBRANCH  65  88
ENDBRANCH  39  40
ENDBRANCH  31  34
ENDBRANCH  29  30
ENDBRANCH  28  29
ENDBRANCH  27  28
ENDBRANCH  26  27
ENDBRANCH   1  26
TORSDOF 23
ENDMDL
MODEL 2
REMARK VINA RESULT:      -9.3      2.058      7.662
REMARK SMILES C[C@@H](O)[C@@H](NC(=O)CN(C)C(=O)c1cccs1)C(=O)NCCCCCCNC(=O)c1ccc(-c2c3nc(c(-c4cc(S(=O)(=O)[O-])ccc4F)c4ccc([nH]4)c(-c4cc(S(=O)(=O)[O-])ccc4F)c4nc(c(-c5cc(S(=O)(=O)[O-])ccc5F)c5ccc2[nH]5)C=C4)C=C3)cc1
REMARK SMILES IDX 22 1 21 2 20 3 18 4 19 5 4 7 2 8 1 9 3 10 5 12 6 13 7 15
REMARK SMILES IDX 8 16 9 17 10 18 11 19 12 20 13 21 14 22 17 23 15 24 16 25
REMARK SMILES IDX 23 26 24 27 25 28 26 29 27 30 28 31 29 33 30 34 31 35 92 36
REMARK SMILES IDX 32 37 91 38 33 39 34 40 35 41 85 42 36 43 90 44 84 45 86 46
REMARK SMILES IDX 37 47 89 48 83 49 82 50 38 52 70 53 50 54 69 55 51 56 54 57
REMARK SMILES IDX 68 58 87 59 52 60 53 61 67 63 88 64 55 65 39 66 40 67 48 68
REMARK SMILES IDX 41 69 47 70 49 71 46 72 42 73 43 74 44 75 45 76 71 77 72 78
REMARK SMILES IDX 80 79 73 80 79 81 81 82 78 83 74 84 75 85 76 86 77 87 56 88
REMARK SMILES IDX 57 89 65 90 58 91 64 92 66 93 63 94 59 95 60 96 61 97 62 98
REMARK H PARENT 20 6 3 11 5 14 27 32 86 51 54 62
REMARK Flexibility Score: inf
ROOT
ATOM      1  C   UNL A   1      36.658  22.758  23.852  1.00  0.00     0.021 C 
ENDROOT
BRANCH   1   2
ATOM      2  C   UNL A   1      35.310  23.346  23.293  1.00  0.00     0.116 C 
BRANCH   2   3
ATOM      3  N   UNL A   1      34.079  22.590  23.431  1.00  0.00    -0.354 N 
ATOM      4  C   UNL A   1      32.765  23.003  23.461  1.00  0.00     0.245 C 
ATOM      5  O   UNL A   1      31.928  22.090  23.389  1.00  0.00    -0.273 OA
ATOM      6  H   UNL A   1      34.203  21.617  23.516  1.00  0.00     0.163 HD
BRANCH   4   7
ATOM      7  C   UNL A   1      32.254  24.494  23.504  1.00  0.00     0.200 C 
BRANCH   7   8
ATOM      8  C   UNL A   1      32.399  25.356  22.225  1.00  0.00     0.143 C 
ATOM      9  C   UNL A   1      33.408  26.507  22.392  1.00  0.00     0.041 C 
BRANCH   8  10
ATOM     10  O   UNL A   1      32.899  24.528  21.167  1.00  0.00    -0.391 OA
ATOM     11  H   UNL A   1      33.699  24.068  21.466  1.00  0.00     0.211 HD
ENDBRANCH   8  10
ENDBRANCH   7   8
BRANCH   7  12
ATOM     12  N   UNL A   1      31.121  24.911  24.362  1.00  0.00    -0.341 N 
ATOM     13  C   UNL A   1      30.967  25.534  25.556  1.00  0.00     0.240 C 
ATOM     14  H   UNL A   1      30.254  24.673  23.960  1.00  0.00     0.164 HD
ATOM     15  O   UNL A   1      29.855  25.454  26.083  1.00  0.00    -0.273 OA
BRANCH  13  16
ATOM     16  C   UNL A   1      31.989  26.523  26.060  1.00  0.00     0.219 C 
BRANCH  16  17
ATOM     17  N   UNL A   1      31.493  27.847  26.390  1.00  0.00    -0.332 N 
ATOM     18  C   UNL A   1      31.324  27.949  27.832  1.00  0.00     0.147 C 
BRANCH  17  19
ATOM     19  C   UNL A   1      32.154  28.905  25.691  1.00  0.00     0.264 C 
ATOM     20  O   UNL A   1      31.972  29.026  24.481  1.00  0.00    -0.268 OA
BRANCH  19  21
ATOM     21  C   UNL A   1      32.985  29.881  26.421  1.00  0.00     0.092 A 
ATOM     22  C   UNL A   1      32.710  31.142  26.918  1.00  0.00     0.025 A 
ATOM     23  S   UNL A   1      34.559  29.419  26.945  1.00  0.00    -0.139 S 
ATOM     24  C   UNL A   1      33.718  31.710  27.744  1.00  0.00     0.012 A 
ATOM     25  C   UNL A   1      34.797  30.871  27.832  1.00  0.00     0.065 A 
ENDBRANCH  19  21
ENDBRANCH  17  19
ENDBRANCH  16  17
ENDBRANCH  13  16
ENDBRANCH   7  12
ENDBRANCH   4   7
ENDBRANCH   2   3
ENDBRANCH   1   2
BRANCH   1  26
ATOM     26  C   UNL A   1      37.375  22.751  25.272  1.00  0.00     0.002 C 
BRANCH  26  27
ATOM     27  C   UNL A   1      38.686  22.219  26.039  1.00  0.00     0.002 C 
BRANCH  27  28
ATOM     28  C   UNL A   1      39.850  21.196  25.791  1.00  0.00     0.021 C 
BRANCH  28  29
ATOM     29  C   UNL A   1      40.144  19.915  26.623  1.00  0.00     0.116 C 
BRANCH  29  30
ATOM     30  N   UNL A   1      41.240  19.100  26.165  1.00  0.00    -0.352 N 
ATOM     31  C   UNL A   1      42.514  19.498  25.811  1.00  0.00     0.251 C 
ATOM     32  H   UNL A   1      41.057  18.135  26.095  1.00  0.00     0.163 HD
ATOM     33  O   UNL A   1      43.238  18.684  25.240  1.00  0.00    -0.269 OA
BRANCH  31  34
ATOM     34  C   UNL A   1      43.036  20.874  26.061  1.00  0.00     0.039 A 
ATOM     35  C   UNL A   1      43.083  21.335  27.385  1.00  0.00     0.014 A 
ATOM     36  C   UNL A   1      43.314  21.775  25.028  1.00  0.00     0.014 A 
ATOM     37  C   UNL A   1      43.428  22.667  27.673  1.00  0.00     0.010 A 
ATOM     38  C   UNL A   1      43.676  23.109  25.320  1.00  0.00     0.010 A 
ATOM     39  C   UNL A   1      43.734  23.575  26.646  1.00  0.00    -0.014 A 
BRANCH  39  40
ATOM     40  C   UNL A   1      44.127  24.986  26.972  1.00  0.00     0.031 A 
ATOM     41  C   UNL A   1      43.135  25.971  27.544  1.00  0.00     0.074 A 
ATOM     42  C   UNL A   1      45.394  25.397  26.758  1.00  0.00     0.049 A 
ATOM     43  N   UNL A   1      43.314  27.223  27.898  1.00  0.00    -0.248 NA
ATOM     44  C   UNL A   1      41.761  25.489  27.733  1.00  0.00     0.031 C 
ATOM     45  C   UNL A   1      46.461  24.565  26.201  1.00  0.00     0.029 A 
ATOM     46  N   UNL A   1      46.004  26.611  26.979  1.00  0.00    -0.354 N 
ATOM     47  C   UNL A   1      42.080  27.679  28.355  1.00  0.00     0.074 A 
ATOM     48  C   UNL A   1      41.152  26.577  28.185  1.00  0.00     0.031 C 
ATOM     49  C   UNL A   1      47.594  25.284  26.139  1.00  0.00     0.029 A 
ATOM     50  C   UNL A   1      47.333  26.642  26.616  1.00  0.00     0.049 A 
ATOM     51  H   UNL A   1      45.534  27.387  27.363  1.00  0.00     0.167 HD
ATOM     52  C   UNL A   1      41.752  28.889  28.881  1.00  0.00     0.034 A 
ATOM     53  C   UNL A   1      48.240  27.640  26.650  1.00  0.00     0.034 A 
ATOM     54  C   UNL A   1      42.677  29.989  29.043  1.00  0.00     0.049 A 
ATOM     55  C   UNL A   1      47.839  28.993  27.186  1.00  0.00     0.074 A 
ATOM     56  C   UNL A   1      42.446  31.236  29.607  1.00  0.00     0.029 A 
ATOM     57  N   UNL A   1      44.003  29.989  28.632  1.00  0.00    -0.354 N 
ATOM     58  N   UNL A   1      46.680  29.385  27.659  1.00  0.00    -0.248 NA
ATOM     59  C   UNL A   1      48.876  30.035  27.204  1.00  0.00     0.031 C 
ATOM     60  C   UNL A   1      43.605  32.009  29.468  1.00  0.00     0.029 A 
ATOM     61  C   UNL A   1      44.587  31.223  28.892  1.00  0.00     0.049 A 
ATOM     62  H   UNL A   1      44.463  29.226  28.215  1.00  0.00     0.167 HD
ATOM     63  C   UNL A   1      46.860  30.707  28.058  1.00  0.00     0.074 A 
ATOM     64  C   UNL A   1      48.242  31.041  27.786  1.00  0.00     0.031 C 
ATOM     65  C   UNL A   1      45.962  31.565  28.608  1.00  0.00     0.034 A 
BRANCH  52  66
ATOM     66  C   UNL A   1      40.312  29.102  29.296  1.00  0.00     0.023 A 
ATOM     67  C   UNL A   1      39.914  29.038  30.643  1.00  0.00     0.031 A 
ATOM     68  C   UNL A   1      39.322  29.372  28.333  1.00  0.00     0.131 A 
ATOM     69  C   UNL A   1      38.556  29.167  30.982  1.00  0.00     0.055 A 
ATOM     70  C   UNL A   1      37.985  29.580  28.685  1.00  0.00     0.041 A 
ATOM     71  F   UNL A   1      39.635  29.434  27.030  1.00  0.00    -0.206 F 
ATOM     72  C   UNL A   1      37.593  29.462  30.015  1.00  0.00     0.022 A 
BRANCH  69  73
ATOM     73  S   UNL A   1      38.052  28.802  32.685  1.00  0.00     0.124 S 
ATOM     74  O   UNL A   1      36.718  29.394  32.732  1.00  0.00    -0.237 OA
ATOM     75  O   UNL A   1      38.110  27.347  32.728  1.00  0.00    -0.237 OA
ATOM     76  O   UNL A   1      39.058  29.492  33.495  1.00  0.00    -0.744 OA
ENDBRANCH  69  73
ENDBRANCH  52  66
BRANCH  53  77
ATOM     77  C   UNL A   1      49.626  27.417  26.142  1.00  0.00     0.023 A 
ATOM     78  C   UNL A   1      50.020  27.877  24.875  1.00  0.00     0.031 A 
ATOM     79  C   UNL A   1      50.562  26.689  26.899  1.00  0.00     0.131 A 
ATOM     80  C   UNL A   1      51.298  27.565  24.383  1.00  0.00     0.055 A 
ATOM     81  C   UNL A   1      51.851  26.429  26.428  1.00  0.00     0.041 A 
ATOM     82  F   UNL A   1      50.236  26.223  28.115  1.00  0.00    -0.206 F 
ATOM     83  C   UNL A   1      52.221  26.857  25.158  1.00  0.00     0.022 A 
BRANCH  80  84
ATOM     84  S   UNL A   1      51.709  28.022  22.676  1.00  0.00     0.124 S 
ATOM     85  O   UNL A   1      51.823  26.715  22.038  1.00  0.00    -0.237 OA
ATOM     86  O   UNL A   1      50.552  28.823  22.290  1.00  0.00    -0.237 OA
ATOM     87  O   UNL A   1      52.960  28.763  22.812  1.00  0.00    -0.744 OA
ENDBRANCH  80  84
ENDBRANCH  53  77
BRANCH  65  88
ATOM     88  C   UNL A   1      46.463  32.939  28.992  1.00  0.00     0.023 A 
ATOM     89  C   UNL A   1      46.953  33.222  30.280  1.00  0.00     0.031 A 
ATOM     90  C   UNL A   1      46.432  33.990  28.055  1.00  0.00     0.131 A 
ATOM     91  C   UNL A   1      47.339  34.530  30.612  1.00  0.00     0.055 A 
ATOM     92  C   UNL A   1      46.873  35.275  28.374  1.00  0.00     0.041 A 
ATOM     93  F   UNL A   1      45.972  33.782  26.811  1.00  0.00    -0.206 F 
ATOM     94  C   UNL A   1      47.317  35.555  29.663  1.00  0.00     0.022 A 
BRANCH  91  95
ATOM     95  S   UNL A   1      47.789  34.900  32.332  1.00  0.00     0.124 S 
ATOM     96  O   UNL A   1      49.132  35.450  32.183  1.00  0.00    -0.237 OA
ATOM     97  O   UNL A   1      46.752  35.847  32.730  1.00  0.00    -0.237 OA
ATOM     98  O   UNL A   1      47.723  33.597  32.993  1.00  0.00    -0.744 OA
ENDBRANCH  91  95
ENDBRANCH  65  88
ENDBRANCH  39  40
ENDBRANCH  31  34
ENDBRANCH  29  30
ENDBRANCH  28  29
ENDBRANCH  27  28
ENDBRANCH  26  27
ENDBRANCH   1  26
TORSDOF 23
ENDMDL
MODEL 3
REMARK VINA RESULT:      -9.1      0.894      7.398
REMARK SMILES C[C@@H](O)[C@@H](NC(=O)CN(C)C(=O)c1cccs1)C(=O)NCCCCCCNC(=O)c1ccc(-c2c3nc(c(-c4cc(S(=O)(=O)[O-])ccc4F)c4ccc([nH]4)c(-c4cc(S(=O)(=O)[O-])ccc4F)c4nc(c(-c5cc(S(=O)(=O)[O-])ccc5F)c5ccc2[nH]5)C=C4)C=C3)cc1
REMARK SMILES IDX 22 1 21 2 20 3 18 4 19 5 4 7 2 8 1 9 3 10 5 12 6 13 7 15
REMARK SMILES IDX 8 16 9 17 10 18 11 19 12 20 13 21 14 22 17 23 15 24 16 25
REMARK SMILES IDX 23 26 24 27 25 28 26 29 27 30 28 31 29 33 30 34 31 35 92 36
REMARK SMILES IDX 32 37 91 38 33 39 34 40 35 41 85 42 36 43 90 44 84 45 86 46
REMARK SMILES IDX 37 47 89 48 83 49 82 50 38 52 70 53 50 54 69 55 51 56 54 57
REMARK SMILES IDX 68 58 87 59 52 60 53 61 67 63 88 64 55 65 39 66 40 67 48 68
REMARK SMILES IDX 41 69 47 70 49 71 46 72 42 73 43 74 44 75 45 76 71 77 72 78
REMARK SMILES IDX 80 79 73 80 79 81 81 82 78 83 74 84 75 85 76 86 77 87 56 88
REMARK SMILES IDX 57 89 65 90 58 91 64 92 66 93 63 94 59 95 60 96 61 97 62 98
REMARK H PARENT 20 6 3 11 5 14 27 32 86 51 54 62
REMARK Flexibility Score: inf
ROOT
ATOM      1  C   UNL A   1      36.596  22.701  23.788  1.00  0.00     0.021 C 
ENDROOT
BRANCH   1   2
ATOM      2  C   UNL A   1      35.234  23.253  23.227  1.00  0.00     0.116 C 
BRANCH   2   3
ATOM      3  N   UNL A   1      34.006  22.513  23.450  1.00  0.00    -0.354 N 
ATOM      4  C   UNL A   1      32.703  22.943  23.566  1.00  0.00     0.245 C 
ATOM      5  O   UNL A   1      31.851  22.040  23.556  1.00  0.00    -0.273 OA
ATOM      6  H   UNL A   1      34.124  21.539  23.532  1.00  0.00     0.163 HD
BRANCH   4   7
ATOM      7  C   UNL A   1      32.214  24.441  23.636  1.00  0.00     0.200 C 
BRANCH   7   8
ATOM      8  C   UNL A   1      32.248  25.285  22.337  1.00  0.00     0.143 C 
ATOM      9  C   UNL A   1      33.231  26.466  22.420  1.00  0.00     0.041 C 
BRANCH   8  10
ATOM     10  O   UNL A   1      32.703  24.453  21.261  1.00  0.00    -0.391 OA
ATOM     11  H   UNL A   1      31.976  24.307  20.635  1.00  0.00     0.211 HD
ENDBRANCH   8  10
ENDBRANCH   7   8
BRANCH   7  12
ATOM     12  N   UNL A   1      31.170  24.882  24.589  1.00  0.00    -0.341 N 
ATOM     13  C   UNL A   1      31.136  25.424  25.831  1.00  0.00     0.240 C 
ATOM     14  H   UNL A   1      30.265  24.748  24.226  1.00  0.00     0.164 HD
ATOM     15  O   UNL A   1      30.053  25.395  26.419  1.00  0.00    -0.273 OA
BRANCH  13  16
ATOM     16  C   UNL A   1      32.266  26.285  26.340  1.00  0.00     0.219 C 
BRANCH  16  17
ATOM     17  N   UNL A   1      31.968  27.695  26.520  1.00  0.00    -0.332 N 
ATOM     18  C   UNL A   1      31.373  27.896  27.833  1.00  0.00     0.147 C 
BRANCH  17  19
ATOM     19  C   UNL A   1      33.016  28.568  26.091  1.00  0.00     0.264 C 
ATOM     20  O   UNL A   1      33.861  28.145  25.304  1.00  0.00    -0.268 OA
BRANCH  19  21
ATOM     21  C   UNL A   1      33.042  29.977  26.525  1.00  0.00     0.092 A 
ATOM     22  C   UNL A   1      32.104  30.991  26.440  1.00  0.00     0.025 A 
ATOM     23  S   UNL A   1      34.374  30.543  27.461  1.00  0.00    -0.139 S 
ATOM     24  C   UNL A   1      32.419  32.180  27.151  1.00  0.00     0.012 A 
ATOM     25  C   UNL A   1      33.647  32.074  27.748  1.00  0.00     0.065 A 
ENDBRANCH  19  21
ENDBRANCH  17  19
ENDBRANCH  16  17
ENDBRANCH  13  16
ENDBRANCH   7  12
ENDBRANCH   4   7
ENDBRANCH   2   3
ENDBRANCH   1   2
BRANCH   1  26
ATOM     26  C   UNL A   1      37.327  22.744  25.200  1.00  0.00     0.002 C 
BRANCH  26  27
ATOM     27  C   UNL A   1      38.613  22.185  25.991  1.00  0.00     0.002 C 
BRANCH  27  28
ATOM     28  C   UNL A   1      39.743  21.118  25.777  1.00  0.00     0.021 C 
BRANCH  28  29
ATOM     29  C   UNL A   1      40.030  19.886  26.682  1.00  0.00     0.116 C 
BRANCH  29  30
ATOM     30  N   UNL A   1      41.114  19.034  26.266  1.00  0.00    -0.352 N 
ATOM     31  C   UNL A   1      42.399  19.393  25.911  1.00  0.00     0.251 C 
ATOM     32  H   UNL A   1      40.912  18.071  26.228  1.00  0.00     0.163 HD
ATOM     33  O   UNL A   1      43.113  18.544  25.378  1.00  0.00    -0.269 OA
BRANCH  31  34
ATOM     34  C   UNL A   1      42.946  20.767  26.117  1.00  0.00     0.039 A 
ATOM     35  C   UNL A   1      43.027  21.259  27.428  1.00  0.00     0.014 A 
ATOM     36  C   UNL A   1      43.217  21.638  25.057  1.00  0.00     0.014 A 
ATOM     37  C   UNL A   1      43.397  22.592  27.677  1.00  0.00     0.010 A 
ATOM     38  C   UNL A   1      43.604  22.973  25.309  1.00  0.00     0.010 A 
ATOM     39  C   UNL A   1      43.696  23.470  26.622  1.00  0.00    -0.014 A 
BRANCH  39  40
ATOM     40  C   UNL A   1      44.116  24.882  26.905  1.00  0.00     0.031 A 
ATOM     41  C   UNL A   1      43.140  25.906  27.437  1.00  0.00     0.074 A 
ATOM     42  C   UNL A   1      45.393  25.260  26.689  1.00  0.00     0.049 A 
ATOM     43  N   UNL A   1      43.343  27.164  27.751  1.00  0.00    -0.248 NA
ATOM     44  C   UNL A   1      41.755  25.459  27.630  1.00  0.00     0.031 C 
ATOM     45  C   UNL A   1      46.447  24.388  26.168  1.00  0.00     0.029 A 
ATOM     46  N   UNL A   1      46.026  26.467  26.875  1.00  0.00    -0.354 N 
ATOM     47  C   UNL A   1      42.115  27.661  28.183  1.00  0.00     0.074 A 
ATOM     48  C   UNL A   1      41.165  26.574  28.040  1.00  0.00     0.031 C 
ATOM     49  C   UNL A   1      47.594  25.081  26.092  1.00  0.00     0.029 A 
ATOM     50  C   UNL A   1      47.358  26.458  26.523  1.00  0.00     0.049 A 
ATOM     51  H   UNL A   1      45.570  27.265  27.230  1.00  0.00     0.167 HD
ATOM     52  C   UNL A   1      41.809  28.894  28.667  1.00  0.00     0.034 A 
ATOM     53  C   UNL A   1      48.286  27.438  26.532  1.00  0.00     0.034 A 
ATOM     54  C   UNL A   1      42.755  29.979  28.801  1.00  0.00     0.049 A 
ATOM     55  C   UNL A   1      47.910  28.816  27.021  1.00  0.00     0.074 A 
ATOM     56  C   UNL A   1      42.546  31.248  29.322  1.00  0.00     0.029 A 
ATOM     57  N   UNL A   1      44.085  29.939  28.401  1.00  0.00    -0.354 N 
ATOM     58  N   UNL A   1      46.755  29.247  27.471  1.00  0.00    -0.248 NA
ATOM     59  C   UNL A   1      48.969  29.836  27.013  1.00  0.00     0.031 C 
ATOM     60  C   UNL A   1      43.722  31.993  29.168  1.00  0.00     0.029 A 
ATOM     61  C   UNL A   1      44.692  31.168  28.626  1.00  0.00     0.049 A 
ATOM     62  H   UNL A   1      44.532  29.152  28.013  1.00  0.00     0.167 HD
ATOM     63  C   UNL A   1      46.960  30.578  27.829  1.00  0.00     0.074 A 
ATOM     64  C   UNL A   1      48.351  30.874  27.557  1.00  0.00     0.031 C 
ATOM     65  C   UNL A   1      46.077  31.472  28.343  1.00  0.00     0.034 A 
BRANCH  52  66
ATOM     66  C   UNL A   1      40.370  29.151  29.062  1.00  0.00     0.023 A 
ATOM     67  C   UNL A   1      39.959  29.136  30.407  1.00  0.00     0.031 A 
ATOM     68  C   UNL A   1      39.394  29.413  28.083  1.00  0.00     0.131 A 
ATOM     69  C   UNL A   1      38.603  29.304  30.730  1.00  0.00     0.055 A 
ATOM     70  C   UNL A   1      38.060  29.660  28.416  1.00  0.00     0.041 A 
ATOM     71  F   UNL A   1      39.719  29.429  26.781  1.00  0.00    -0.206 F 
ATOM     72  C   UNL A   1      37.654  29.591  29.746  1.00  0.00     0.022 A 
BRANCH  69  73
ATOM     73  S   UNL A   1      38.076  29.001  32.438  1.00  0.00     0.124 S 
ATOM     74  O   UNL A   1      36.640  29.253  32.354  1.00  0.00    -0.237 OA
ATOM     75  O   UNL A   1      38.474  27.616  32.651  1.00  0.00    -0.237 OA
ATOM     76  O   UNL A   1      38.829  29.993  33.209  1.00  0.00    -0.744 OA
ENDBRANCH  69  73
ENDBRANCH  52  66
BRANCH  53  77
ATOM     77  C   UNL A   1      49.672  27.170  26.044  1.00  0.00     0.023 A 
ATOM     78  C   UNL A   1      50.724  26.924  26.940  1.00  0.00     0.031 A 
ATOM     79  C   UNL A   1      49.972  27.214  24.671  1.00  0.00     0.131 A 
ATOM     80  C   UNL A   1      52.035  26.776  26.458  1.00  0.00     0.055 A 
ATOM     81  C   UNL A   1      51.267  27.010  24.191  1.00  0.00     0.041 A 
ATOM     82  F   UNL A   1      49.004  27.449  23.771  1.00  0.00    -0.206 F 
ATOM     83  C   UNL A   1      52.310  26.803  25.088  1.00  0.00     0.022 A 
BRANCH  80  84
ATOM     84  S   UNL A   1      53.393  26.637  27.653  1.00  0.00     0.124 S 
ATOM     85  O   UNL A   1      54.260  25.660  27.003  1.00  0.00    -0.237 OA
ATOM     86  O   UNL A   1      53.894  28.006  27.702  1.00  0.00    -0.237 OA
ATOM     87  O   UNL A   1      52.731  26.174  28.869  1.00  0.00    -0.744 OA
ENDBRANCH  80  84
ENDBRANCH  53  77
BRANCH  65  88
ATOM     88  C   UNL A   1      46.603  32.847  28.686  1.00  0.00     0.023 A 
ATOM     89  C   UNL A   1      46.453  33.942  27.816  1.00  0.00     0.031 A 
ATOM     90  C   UNL A   1      47.285  33.060  29.899  1.00  0.00     0.131 A 
ATOM     91  C   UNL A   1      47.022  35.183  28.143  1.00  0.00     0.055 A 
ATOM     92  C   UNL A   1      47.797  34.312  30.246  1.00  0.00     0.041 A 
ATOM     93  F   UNL A   1      47.464  32.053  30.768  1.00  0.00    -0.206 F 
ATOM     94  C   UNL A   1      47.679  35.378  29.360  1.00  0.00     0.022 A 
BRANCH  91  95
ATOM     95  S   UNL A   1      46.970  36.521  26.918  1.00  0.00     0.124 S 
ATOM     96  O   UNL A   1      47.854  37.516  27.516  1.00  0.00    -0.237 OA
ATOM     97  O   UNL A   1      47.472  35.863  25.715  1.00  0.00    -0.237 OA
ATOM     98  O   UNL A   1      45.557  36.894  26.875  1.00  0.00    -0.744 OA
ENDBRANCH  91  95
ENDBRANCH  65  88
ENDBRANCH  39  40
ENDBRANCH  31  34
ENDBRANCH  29  30
ENDBRANCH  28  29
ENDBRANCH  27  28
ENDBRANCH  26  27
ENDBRANCH   1  26
TORSDOF 23
ENDMDL
