MODEL 1
REMARK VINA RESULT:     -10.8      0.000      0.000
REMARK SMILES CCC(CC)COc1cc2c(cc1Cl)C=C(C(=O)NCCCCCCNC(=O)c1ccc(-c3c4nc(c(-c5cc(S(=O)(=O)[O-])ccc5F)c5ccc([nH]5)c(-c5cc(S(=O)(=O)[O-])ccc5F)c5nc(c(-c6cc(S(=O)(=O)[O-])ccc6F)c6ccc3[nH]6)C=C5)C=C4)cc1)[C@@H](C(F)(F)F)O2
REMARK SMILES IDX 22 1 21 2 20 3 19 4 17 5 18 6 16 8 8 9 9 10 13 11 10 12
REMARK SMILES IDX 12 13 14 14 11 15 97 16 15 17 92 18 7 19 6 20 3 21 2 22 1 23
REMARK SMILES IDX 4 24 5 25 93 26 94 27 95 28 96 29 23 30 24 31 25 32 26 33
REMARK SMILES IDX 27 34 28 36 29 37 30 38 91 39 31 40 90 41 32 42 33 43 34 44
REMARK SMILES IDX 84 45 35 46 89 47 83 48 85 49 36 50 88 51 82 52 81 53 37 55
REMARK SMILES IDX 69 56 49 57 68 58 50 59 53 60 67 61 86 62 51 63 52 64 66 66
REMARK SMILES IDX 87 67 54 68 38 69 39 70 47 71 40 72 46 73 48 74 45 75 41 76
REMARK SMILES IDX 42 77 43 78 44 79 70 80 71 81 79 82 72 83 78 84 80 85 77 86
REMARK SMILES IDX 73 87 74 88 75 89 76 90 55 91 56 92 64 93 57 94 63 95 65 96
REMARK SMILES IDX 62 97 58 98 59 99 60 100 61 101
REMARK H PARENT 19 7 26 35 85 54 53 65
REMARK Flexibility Score: inf
ROOT
ATOM      1  C   UNL A   1      33.254  30.107  26.238  1.00  0.00     0.002 C 
ENDROOT
BRANCH   1   2
ATOM      2  C   UNL A   1      32.600  29.733  24.905  1.00  0.00     0.021 C 
BRANCH   2   3
ATOM      3  C   UNL A   1      31.083  29.881  24.895  1.00  0.00     0.116 C 
BRANCH   3   4
ATOM      4  N   UNL A   1      30.555  29.712  23.555  1.00  0.00    -0.352 N 
ATOM      5  C   UNL A   1      30.440  28.703  22.664  1.00  0.00     0.251 C 
ATOM      6  O   UNL A   1      29.882  28.996  21.602  1.00  0.00    -0.270 OA
ATOM      7  H   UNL A   1      30.183  30.553  23.201  1.00  0.00     0.163 HD
BRANCH   5   8
ATOM      8  C   UNL A   1      30.924  27.313  22.879  1.00  0.00     0.067 C 
ATOM      9  C   UNL A   1      31.468  22.635  24.577  1.00  0.00     0.141 A 
ATOM     10  C   UNL A   1      31.597  23.203  23.310  1.00  0.00     0.095 A 
ATOM     11  C   UNL A   1      31.209  23.448  25.690  1.00  0.00     0.083 A 
ATOM     12  C   UNL A   1      31.351  24.564  23.159  1.00  0.00     0.131 A 
ATOM     13  C   UNL A   1      30.849  24.782  25.510  1.00  0.00     0.036 A 
ATOM     14  Cl  UNL A   1      31.285  22.844  27.306  1.00  0.00    -0.080 Cl
ATOM     15  C   UNL A   1      30.888  25.333  24.232  1.00  0.00     0.019 A 
ATOM     16  O   UNL A   1      31.576  25.128  21.930  1.00  0.00    -0.475 OA
ATOM     17  C   UNL A   1      30.452  26.700  23.980  1.00  0.00     0.025 C 
ATOM     18  C   UNL A   1      31.878  26.559  21.991  1.00  0.00     0.314 C 
BRANCH   9  19
ATOM     19  O   UNL A   1      31.608  21.279  24.724  1.00  0.00    -0.492 OA
BRANCH  19  20
ATOM     20  C   UNL A   1      32.757  20.762  24.012  1.00  0.00     0.233 C 
BRANCH  20  21
ATOM     21  C   UNL A   1      33.662  19.902  24.931  1.00  0.00     0.026 C 
BRANCH  21  22
ATOM     22  C   UNL A   1      33.603  18.405  24.542  1.00  0.00     0.003 C 
ATOM     23  C   UNL A   1      34.981  17.805  24.302  1.00  0.00     0.004 C 
ENDBRANCH  21  22
BRANCH  21  24
ATOM     24  C   UNL A   1      35.109  20.434  24.994  1.00  0.00     0.003 C 
ATOM     25  C   UNL A   1      35.320  21.840  24.456  1.00  0.00     0.004 C 
ENDBRANCH  21  24
ENDBRANCH  20  21
ENDBRANCH  19  20
ENDBRANCH   9  19
BRANCH  18  26
ATOM     26  C   UNL A   1      33.350  26.806  22.401  1.00  0.00     0.429 C 
ATOM     27  F   UNL A   1      34.104  25.704  22.176  1.00  0.00    -0.167 F 
ATOM     28  F   UNL A   1      33.912  27.812  21.687  1.00  0.00    -0.167 F 
ATOM     29  F   UNL A   1      33.491  27.138  23.704  1.00  0.00    -0.167 F 
ENDBRANCH  18  26
ENDBRANCH   5   8
ENDBRANCH   3   4
ENDBRANCH   2   3
ENDBRANCH   1   2
BRANCH   1  30
ATOM     30  C   UNL A   1      32.284  30.515  27.355  1.00  0.00     0.002 C 
BRANCH  30  31
ATOM     31  C   UNL A   1      31.698  31.923  27.232  1.00  0.00     0.021 C 
BRANCH  31  32
ATOM     32  C   UNL A   1      32.705  33.003  26.858  1.00  0.00     0.116 C 
BRANCH  32  33
ATOM     33  N   UNL A   1      32.543  34.210  27.651  1.00  0.00    -0.352 N 
ATOM     34  C   UNL A   1      33.227  34.598  28.777  1.00  0.00     0.251 C 
ATOM     35  H   UNL A   1      31.848  34.834  27.339  1.00  0.00     0.163 HD
ATOM     36  O   UNL A   1      32.847  35.568  29.426  1.00  0.00    -0.269 OA
BRANCH  34  37
ATOM     37  C   UNL A   1      34.403  33.814  29.212  1.00  0.00     0.039 A 
ATOM     38  C   UNL A   1      34.234  32.656  29.978  1.00  0.00     0.014 A 
ATOM     39  C   UNL A   1      35.684  34.264  28.887  1.00  0.00     0.014 A 
ATOM     40  C   UNL A   1      35.343  32.042  30.548  1.00  0.00     0.010 A 
ATOM     41  C   UNL A   1      36.801  33.593  29.392  1.00  0.00     0.010 A 
ATOM     42  C   UNL A   1      36.639  32.503  30.261  1.00  0.00    -0.014 A 
BRANCH  42  43
ATOM     43  C   UNL A   1      37.811  31.812  30.859  1.00  0.00     0.031 A 
ATOM     44  C   UNL A   1      38.555  30.751  30.096  1.00  0.00     0.074 A 
ATOM     45  C   UNL A   1      38.222  32.175  32.089  1.00  0.00     0.049 A 
ATOM     46  N   UNL A   1      39.598  30.053  30.465  1.00  0.00    -0.248 NA
ATOM     47  C   UNL A   1      38.067  30.426  28.746  1.00  0.00     0.031 C 
ATOM     48  C   UNL A   1      37.576  33.198  32.913  1.00  0.00     0.029 A 
ATOM     49  N   UNL A   1      39.277  31.749  32.856  1.00  0.00    -0.354 N 
ATOM     50  C   UNL A   1      39.882  29.198  29.405  1.00  0.00     0.074 A 
ATOM     51  C   UNL A   1      38.881  29.440  28.391  1.00  0.00     0.031 C 
ATOM     52  C   UNL A   1      38.277  33.358  34.043  1.00  0.00     0.029 A 
ATOM     53  C   UNL A   1      39.374  32.395  34.067  1.00  0.00     0.049 A 
ATOM     54  H   UNL A   1      39.906  31.049  32.566  1.00  0.00     0.167 HD
ATOM     55  C   UNL A   1      40.895  28.306  29.291  1.00  0.00     0.034 A 
ATOM     56  C   UNL A   1      40.233  32.223  35.093  1.00  0.00     0.034 A 
ATOM     57  C   UNL A   1      41.894  28.094  30.309  1.00  0.00     0.049 A 
ATOM     58  C   UNL A   1      41.325  31.196  34.955  1.00  0.00     0.074 A 
ATOM     59  C   UNL A   1      42.978  27.236  30.272  1.00  0.00     0.029 A 
ATOM     60  N   UNL A   1      41.938  28.739  31.536  1.00  0.00    -0.354 N 
ATOM     61  N   UNL A   1      41.606  30.427  33.928  1.00  0.00    -0.248 NA
ATOM     62  C   UNL A   1      42.219  31.008  36.105  1.00  0.00     0.031 C 
ATOM     63  C   UNL A   1      43.638  27.313  31.498  1.00  0.00     0.029 A 
ATOM     64  C   UNL A   1      43.014  28.276  32.276  1.00  0.00     0.049 A 
ATOM     65  H   UNL A   1      41.299  29.426  31.837  1.00  0.00     0.167 HD
ATOM     66  C   UNL A   1      42.716  29.677  34.303  1.00  0.00     0.074 A 
ATOM     67  C   UNL A   1      43.073  30.104  35.640  1.00  0.00     0.031 C 
ATOM     68  C   UNL A   1      43.372  28.718  33.603  1.00  0.00     0.034 A 
BRANCH  55  69
ATOM     69  C   UNL A   1      41.006  27.486  28.028  1.00  0.00     0.023 A 
ATOM     70  C   UNL A   1      40.722  26.107  28.058  1.00  0.00     0.031 A 
ATOM     71  C   UNL A   1      41.525  28.032  26.841  1.00  0.00     0.131 A 
ATOM     72  C   UNL A   1      40.998  25.314  26.936  1.00  0.00     0.055 A 
ATOM     73  C   UNL A   1      41.761  27.245  25.712  1.00  0.00     0.041 A 
ATOM     74  F   UNL A   1      41.813  29.341  26.761  1.00  0.00    -0.206 F 
ATOM     75  C   UNL A   1      41.509  25.876  25.762  1.00  0.00     0.022 A 
BRANCH  72  76
ATOM     76  S   UNL A   1      40.771  23.515  26.978  1.00  0.00     0.124 S 
ATOM     77  O   UNL A   1      39.341  23.387  26.707  1.00  0.00    -0.237 OA
ATOM     78  O   UNL A   1      41.652  23.070  25.902  1.00  0.00    -0.237 OA
ATOM     79  O   UNL A   1      41.183  23.141  28.327  1.00  0.00    -0.744 OA
ENDBRANCH  72  76
ENDBRANCH  55  69
BRANCH  56  80
ATOM     80  C   UNL A   1      40.091  33.081  36.306  1.00  0.00     0.023 A 
ATOM     81  C   UNL A   1      40.902  34.217  36.486  1.00  0.00     0.031 A 
ATOM     82  C   UNL A   1      39.242  32.704  37.358  1.00  0.00     0.131 A 
ATOM     83  C   UNL A   1      40.912  34.880  37.719  1.00  0.00     0.055 A 
ATOM     84  C   UNL A   1      39.196  33.417  38.558  1.00  0.00     0.041 A 
ATOM     85  F   UNL A   1      38.459  31.620  37.241  1.00  0.00    -0.206 F 
ATOM     86  C   UNL A   1      40.050  34.499  38.751  1.00  0.00     0.022 A 
BRANCH  83  87
ATOM     87  S   UNL A   1      42.153  36.155  38.076  1.00  0.00     0.124 S 
ATOM     88  O   UNL A   1      41.451  37.003  39.034  1.00  0.00    -0.237 OA
ATOM     89  O   UNL A   1      43.249  35.358  38.624  1.00  0.00    -0.237 OA
ATOM     90  O   UNL A   1      42.417  36.754  36.773  1.00  0.00    -0.744 OA
ENDBRANCH  83  87
ENDBRANCH  56  80
BRANCH  68  91
ATOM     91  C   UNL A   1      44.558  28.039  34.244  1.00  0.00     0.023 A 
ATOM     92  C   UNL A   1      44.373  26.857  34.988  1.00  0.00     0.031 A 
ATOM     93  C   UNL A   1      45.824  28.647  34.266  1.00  0.00     0.131 A 
ATOM     94  C   UNL A   1      45.422  26.350  35.763  1.00  0.00     0.055 A 
ATOM     95  C   UNL A   1      46.882  28.109  35.000  1.00  0.00     0.041 A 
ATOM     96  F   UNL A   1      46.047  29.780  33.581  1.00  0.00    -0.206 F 
ATOM     97  C   UNL A   1      46.678  26.965  35.767  1.00  0.00     0.022 A 
BRANCH  94  98
ATOM     98  S   UNL A   1      45.170  24.934  36.868  1.00  0.00     0.124 S 
ATOM     99  O   UNL A   1      44.089  24.215  36.197  1.00  0.00    -0.237 OA
ATOM    100  O   UNL A   1      46.474  24.277  36.828  1.00  0.00    -0.237 OA
ATOM    101  O   UNL A   1      44.812  25.542  38.145  1.00  0.00    -0.744 OA
ENDBRANCH  94  98
ENDBRANCH  68  91
ENDBRANCH  42  43
ENDBRANCH  34  37
ENDBRANCH  32  33
ENDBRANCH  31  32
ENDBRANCH  30  31
ENDBRANCH   1  30
TORSDOF 22
ENDMDL
MODEL 2
REMARK VINA RESULT:     -10.7      1.833      2.181
REMARK SMILES CCC(CC)COc1cc2c(cc1Cl)C=C(C(=O)NCCCCCCNC(=O)c1ccc(-c3c4nc(c(-c5cc(S(=O)(=O)[O-])ccc5F)c5ccc([nH]5)c(-c5cc(S(=O)(=O)[O-])ccc5F)c5nc(c(-c6cc(S(=O)(=O)[O-])ccc6F)c6ccc3[nH]6)C=C5)C=C4)cc1)[C@@H](C(F)(F)F)O2
REMARK SMILES IDX 22 1 21 2 20 3 19 4 17 5 18 6 16 8 8 9 9 10 13 11 10 12
REMARK SMILES IDX 12 13 14 14 11 15 97 16 15 17 92 18 7 19 6 20 3 21 2 22 1 23
REMARK SMILES IDX 4 24 5 25 93 26 94 27 95 28 96 29 23 30 24 31 25 32 26 33
REMARK SMILES IDX 27 34 28 36 29 37 30 38 91 39 31 40 90 41 32 42 33 43 34 44
REMARK SMILES IDX 84 45 35 46 89 47 83 48 85 49 36 50 88 51 82 52 81 53 37 55
REMARK SMILES IDX 69 56 49 57 68 58 50 59 53 60 67 61 86 62 51 63 52 64 66 66
REMARK SMILES IDX 87 67 54 68 38 69 39 70 47 71 40 72 46 73 48 74 45 75 41 76
REMARK SMILES IDX 42 77 43 78 44 79 70 80 71 81 79 82 72 83 78 84 80 85 77 86
REMARK SMILES IDX 73 87 74 88 75 89 76 90 55 91 56 92 64 93 57 94 63 95 65 96
REMARK SMILES IDX 62 97 58 98 59 99 60 100 61 101
REMARK H PARENT 19 7 26 35 85 54 53 65
REMARK Flexibility Score: inf
ROOT
ATOM      1  C   UNL A   1      33.132  30.045  26.217  1.00  0.00     0.002 C 
ENDROOT
BRANCH   1   2
ATOM      2  C   UNL A   1      32.466  29.794  24.860  1.00  0.00     0.021 C 
BRANCH   2   3
ATOM      3  C   UNL A   1      30.953  29.981  24.867  1.00  0.00     0.116 C 
BRANCH   3   4
ATOM      4  N   UNL A   1      30.404  29.805  23.536  1.00  0.00    -0.352 N 
ATOM      5  C   UNL A   1      30.306  28.801  22.639  1.00  0.00     0.251 C 
ATOM      6  O   UNL A   1      29.716  29.083  21.592  1.00  0.00    -0.270 OA
ATOM      7  H   UNL A   1      29.996  30.636  23.198  1.00  0.00     0.163 HD
BRANCH   5   8
ATOM      8  C   UNL A   1      30.843  27.427  22.831  1.00  0.00     0.067 C 
ATOM      9  C   UNL A   1      31.555  22.739  24.438  1.00  0.00     0.141 A 
ATOM     10  C   UNL A   1      31.675  23.339  23.184  1.00  0.00     0.095 A 
ATOM     11  C   UNL A   1      31.252  23.517  25.564  1.00  0.00     0.083 A 
ATOM     12  C   UNL A   1      31.377  24.692  23.059  1.00  0.00     0.131 A 
ATOM     13  C   UNL A   1      30.840  24.840  25.407  1.00  0.00     0.036 A 
ATOM     14  Cl  UNL A   1      31.334  22.883  27.168  1.00  0.00    -0.080 Cl
ATOM     15  C   UNL A   1      30.871  25.419  24.142  1.00  0.00     0.019 A 
ATOM     16  O   UNL A   1      31.592  25.290  21.845  1.00  0.00    -0.475 OA
ATOM     17  C   UNL A   1      30.384  26.772  23.913  1.00  0.00     0.025 C 
ATOM     18  C   UNL A   1      31.836  26.731  21.939  1.00  0.00     0.314 C 
BRANCH   9  19
ATOM     19  O   UNL A   1      31.748  21.387  24.558  1.00  0.00    -0.492 OA
BRANCH  19  20
ATOM     20  C   UNL A   1      32.966  20.943  23.914  1.00  0.00     0.233 C 
BRANCH  20  21
ATOM     21  C   UNL A   1      34.215  21.244  24.781  1.00  0.00     0.026 C 
BRANCH  21  22
ATOM     22  C   UNL A   1      35.078  19.976  24.989  1.00  0.00     0.003 C 
ATOM     23  C   UNL A   1      34.366  18.702  24.557  1.00  0.00     0.004 C 
ENDBRANCH  21  22
BRANCH  21  24
ATOM     24  C   UNL A   1      35.039  22.428  24.231  1.00  0.00     0.003 C 
ATOM     25  C   UNL A   1      36.519  22.159  24.014  1.00  0.00     0.004 C 
ENDBRANCH  21  24
ENDBRANCH  20  21
ENDBRANCH  19  20
ENDBRANCH   9  19
BRANCH  18  26
ATOM     26  C   UNL A   1      33.293  27.027  22.371  1.00  0.00     0.429 C 
ATOM     27  F   UNL A   1      33.738  28.174  21.808  1.00  0.00    -0.167 F 
ATOM     28  F   UNL A   1      33.399  27.188  23.714  1.00  0.00    -0.167 F 
ATOM     29  F   UNL A   1      34.157  26.044  22.035  1.00  0.00    -0.167 F 
ENDBRANCH  18  26
ENDBRANCH   5   8
ENDBRANCH   3   4
ENDBRANCH   2   3
ENDBRANCH   1   2
BRANCH   1  30
ATOM     30  C   UNL A   1      32.203  30.579  27.315  1.00  0.00     0.002 C 
BRANCH  30  31
ATOM     31  C   UNL A   1      31.745  32.027  27.140  1.00  0.00     0.021 C 
BRANCH  31  32
ATOM     32  C   UNL A   1      32.872  33.037  26.964  1.00  0.00     0.116 C 
BRANCH  32  33
ATOM     33  N   UNL A   1      32.705  34.206  27.811  1.00  0.00    -0.352 N 
ATOM     34  C   UNL A   1      33.384  34.543  28.957  1.00  0.00     0.251 C 
ATOM     35  H   UNL A   1      32.010  34.843  27.525  1.00  0.00     0.163 HD
ATOM     36  O   UNL A   1      33.000  35.482  29.648  1.00  0.00    -0.269 OA
BRANCH  34  37
ATOM     37  C   UNL A   1      34.559  33.741  29.361  1.00  0.00     0.039 A 
ATOM     38  C   UNL A   1      34.392  32.575  30.114  1.00  0.00     0.014 A 
ATOM     39  C   UNL A   1      35.839  34.182  29.018  1.00  0.00     0.014 A 
ATOM     40  C   UNL A   1      35.504  31.943  30.657  1.00  0.00     0.010 A 
ATOM     41  C   UNL A   1      36.957  33.493  29.494  1.00  0.00     0.010 A 
ATOM     42  C   UNL A   1      36.800  32.394  30.352  1.00  0.00    -0.014 A 
BRANCH  42  43
ATOM     43  C   UNL A   1      37.974  31.683  30.920  1.00  0.00     0.031 A 
ATOM     44  C   UNL A   1      38.697  30.628  30.128  1.00  0.00     0.074 A 
ATOM     45  C   UNL A   1      38.408  32.022  32.150  1.00  0.00     0.049 A 
ATOM     46  N   UNL A   1      39.739  29.916  30.469  1.00  0.00    -0.248 NA
ATOM     47  C   UNL A   1      38.186  30.330  28.780  1.00  0.00     0.031 C 
ATOM     48  C   UNL A   1      37.784  33.037  33.001  1.00  0.00     0.029 A 
ATOM     49  N   UNL A   1      39.471  31.574  32.892  1.00  0.00    -0.354 N 
ATOM     50  C   UNL A   1      40.000  29.076  29.391  1.00  0.00     0.074 A 
ATOM     51  C   UNL A   1      38.985  29.344  28.396  1.00  0.00     0.031 C 
ATOM     52  C   UNL A   1      38.503  33.171  34.122  1.00  0.00     0.029 A 
ATOM     53  C   UNL A   1      39.592  32.198  34.112  1.00  0.00     0.049 A 
ATOM     54  H   UNL A   1      40.089  30.873  32.581  1.00  0.00     0.167 HD
ATOM     55  C   UNL A   1      41.003  28.178  29.246  1.00  0.00     0.034 A 
ATOM     56  C   UNL A   1      40.465  32.002  35.122  1.00  0.00     0.034 A 
ATOM     57  C   UNL A   1      42.015  27.940  30.244  1.00  0.00     0.049 A 
ATOM     58  C   UNL A   1      41.547  30.968  34.950  1.00  0.00     0.074 A 
ATOM     59  C   UNL A   1      43.092  27.074  30.176  1.00  0.00     0.029 A 
ATOM     60  N   UNL A   1      42.085  28.564  31.481  1.00  0.00    -0.354 N 
ATOM     61  N   UNL A   1      41.804  30.214  33.906  1.00  0.00    -0.248 NA
ATOM     62  C   UNL A   1      42.456  30.754  36.083  1.00  0.00     0.031 C 
ATOM     63  C   UNL A   1      43.771  27.124  31.393  1.00  0.00     0.029 A 
ATOM     64  C   UNL A   1      43.167  28.080  32.197  1.00  0.00     0.049 A 
ATOM     65  H   UNL A   1      41.456  29.251  31.803  1.00  0.00     0.167 HD
ATOM     66  C   UNL A   1      42.913  29.449  34.250  1.00  0.00     0.074 A 
ATOM     67  C   UNL A   1      43.295  29.851  35.589  1.00  0.00     0.031 C 
ATOM     68  C   UNL A   1      43.550  28.496  33.525  1.00  0.00     0.034 A 
BRANCH  55  69
ATOM     69  C   UNL A   1      41.087  27.379  27.968  1.00  0.00     0.023 A 
ATOM     70  C   UNL A   1      40.775  26.005  27.975  1.00  0.00     0.031 A 
ATOM     71  C   UNL A   1      41.608  27.935  26.787  1.00  0.00     0.131 A 
ATOM     72  C   UNL A   1      41.026  25.227  26.838  1.00  0.00     0.055 A 
ATOM     73  C   UNL A   1      41.818  27.163  25.642  1.00  0.00     0.041 A 
ATOM     74  F   UNL A   1      41.922  29.239  26.727  1.00  0.00    -0.206 F 
ATOM     75  C   UNL A   1      41.540  25.799  25.670  1.00  0.00     0.022 A 
BRANCH  72  76
ATOM     76  S   UNL A   1      40.763  23.432  26.850  1.00  0.00     0.124 S 
ATOM     77  O   UNL A   1      40.946  23.113  28.264  1.00  0.00    -0.237 OA
ATOM     78  O   UNL A   1      39.393  23.320  26.357  1.00  0.00    -0.237 OA
ATOM     79  O   UNL A   1      41.799  22.919  25.959  1.00  0.00    -0.744 OA
ENDBRANCH  72  76
ENDBRANCH  55  69
BRANCH  56  80
ATOM     80  C   UNL A   1      40.350  32.841  36.351  1.00  0.00     0.023 A 
ATOM     81  C   UNL A   1      39.545  32.432  37.431  1.00  0.00     0.031 A 
ATOM     82  C   UNL A   1      40.933  34.117  36.408  1.00  0.00     0.131 A 
ATOM     83  C   UNL A   1      39.274  33.324  38.476  1.00  0.00     0.055 A 
ATOM     84  C   UNL A   1      40.724  34.973  37.492  1.00  0.00     0.041 A 
ATOM     85  F   UNL A   1      41.697  34.558  35.397  1.00  0.00    -0.206 F 
ATOM     86  C   UNL A   1      39.872  34.585  38.523  1.00  0.00     0.022 A 
BRANCH  83  87
ATOM     87  S   UNL A   1      38.013  32.935  39.722  1.00  0.00     0.124 S 
ATOM     88  O   UNL A   1      37.871  34.209  40.419  1.00  0.00    -0.237 OA
ATOM     89  O   UNL A   1      36.880  32.543  38.887  1.00  0.00    -0.237 OA
ATOM     90  O   UNL A   1      38.614  31.854  40.495  1.00  0.00    -0.744 OA
ENDBRANCH  83  87
ENDBRANCH  56  80
BRANCH  68  91
ATOM     91  C   UNL A   1      44.740  27.797  34.136  1.00  0.00     0.023 A 
ATOM     92  C   UNL A   1      46.043  28.253  33.855  1.00  0.00     0.031 A 
ATOM     93  C   UNL A   1      44.596  26.592  34.844  1.00  0.00     0.131 A 
ATOM     94  C   UNL A   1      47.148  27.483  34.234  1.00  0.00     0.055 A 
ATOM     95  C   UNL A   1      45.703  25.853  35.265  1.00  0.00     0.041 A 
ATOM     96  F   UNL A   1      43.375  26.111  35.127  1.00  0.00    -0.206 F 
ATOM     97  C   UNL A   1      46.985  26.289  34.944  1.00  0.00     0.022 A 
BRANCH  94  98
ATOM     98  S   UNL A   1      48.829  27.949  33.737  1.00  0.00     0.124 S 
ATOM     99  O   UNL A   1      48.573  28.859  32.622  1.00  0.00    -0.237 OA
ATOM    100  O   UNL A   1      49.345  28.578  34.950  1.00  0.00    -0.237 OA
ATOM    101  O   UNL A   1      49.454  26.682  33.372  1.00  0.00    -0.744 OA
ENDBRANCH  94  98
ENDBRANCH  68  91
ENDBRANCH  42  43
ENDBRANCH  34  37
ENDBRANCH  32  33
ENDBRANCH  31  32
ENDBRANCH  30  31
ENDBRANCH   1  30
TORSDOF 22
ENDMDL
MODEL 3
REMARK VINA RESULT:     -10.6      2.419      7.621
REMARK SMILES CCC(CC)COc1cc2c(cc1Cl)C=C(C(=O)NCCCCCCNC(=O)c1ccc(-c3c4nc(c(-c5cc(S(=O)(=O)[O-])ccc5F)c5ccc([nH]5)c(-c5cc(S(=O)(=O)[O-])ccc5F)c5nc(c(-c6cc(S(=O)(=O)[O-])ccc6F)c6ccc3[nH]6)C=C5)C=C4)cc1)[C@@H](C(F)(F)F)O2
REMARK SMILES IDX 22 1 21 2 20 3 19 4 17 5 18 6 16 8 8 9 9 10 13 11 10 12
REMARK SMILES IDX 12 13 14 14 11 15 97 16 15 17 92 18 7 19 6 20 3 21 2 22 1 23
REMARK SMILES IDX 4 24 5 25 93 26 94 27 95 28 96 29 23 30 24 31 25 32 26 33
REMARK SMILES IDX 27 34 28 36 29 37 30 38 91 39 31 40 90 41 32 42 33 43 34 44
REMARK SMILES IDX 84 45 35 46 89 47 83 48 85 49 36 50 88 51 82 52 81 53 37 55
REMARK SMILES IDX 69 56 49 57 68 58 50 59 53 60 67 61 86 62 51 63 52 64 66 66
REMARK SMILES IDX 87 67 54 68 38 69 39 70 47 71 40 72 46 73 48 74 45 75 41 76
REMARK SMILES IDX 42 77 43 78 44 79 70 80 71 81 79 82 72 83 78 84 80 85 77 86
REMARK SMILES IDX 73 87 74 88 75 89 76 90 55 91 56 92 64 93 57 94 63 95 65 96
REMARK SMILES IDX 62 97 58 98 59 99 60 100 61 101
REMARK H PARENT 19 7 26 35 85 54 53 65
REMARK Flexibility Score: inf
ROOT
ATOM      1  C   UNL A   1      33.802  28.842  24.747  1.00  0.00     0.002 C 
ENDROOT
BRANCH   1   2
ATOM      2  C   UNL A   1      33.779  28.809  23.216  1.00  0.00     0.021 C 
BRANCH   2   3
ATOM      3  C   UNL A   1      32.539  28.147  22.628  1.00  0.00     0.116 C 
BRANCH   3   4
ATOM      4  N   UNL A   1      32.888  27.302  21.501  1.00  0.00    -0.352 N 
ATOM      5  C   UNL A   1      32.923  25.978  21.241  1.00  0.00     0.251 C 
ATOM      6  O   UNL A   1      33.274  25.673  20.096  1.00  0.00    -0.270 OA
ATOM      7  H   UNL A   1      33.174  27.834  20.723  1.00  0.00     0.163 HD
BRANCH   5   8
ATOM      8  C   UNL A   1      32.575  24.905  22.211  1.00  0.00     0.067 C 
ATOM      9  C   UNL A   1      32.240  20.505  24.575  1.00  0.00     0.141 A 
ATOM     10  C   UNL A   1      32.325  21.821  25.031  1.00  0.00     0.095 A 
ATOM     11  C   UNL A   1      32.148  20.240  23.202  1.00  0.00     0.083 A 
ATOM     12  C   UNL A   1      32.432  22.846  24.097  1.00  0.00     0.131 A 
ATOM     13  C   UNL A   1      32.375  21.260  22.278  1.00  0.00     0.036 A 
ATOM     14  Cl  UNL A   1      31.791  18.665  22.591  1.00  0.00    -0.080 Cl
ATOM     15  C   UNL A   1      32.552  22.564  22.732  1.00  0.00     0.019 A 
ATOM     16  O   UNL A   1      32.418  24.138  24.553  1.00  0.00    -0.475 OA
ATOM     17  C   UNL A   1      32.864  23.651  21.815  1.00  0.00     0.025 C 
ATOM     18  C   UNL A   1      31.939  25.102  23.560  1.00  0.00     0.314 C 
BRANCH   9  19
ATOM     19  O   UNL A   1      32.236  19.478  25.483  1.00  0.00    -0.492 OA
BRANCH  19  20
ATOM     20  C   UNL A   1      33.569  19.121  25.918  1.00  0.00     0.233 C 
BRANCH  20  21
ATOM     21  C   UNL A   1      34.597  19.222  24.762  1.00  0.00     0.026 C 
BRANCH  21  22
ATOM     22  C   UNL A   1      35.799  20.117  25.150  1.00  0.00     0.003 C 
ATOM     23  C   UNL A   1      35.836  21.423  24.371  1.00  0.00     0.004 C 
ENDBRANCH  21  22
BRANCH  21  24
ATOM     24  C   UNL A   1      35.040  17.836  24.248  1.00  0.00     0.003 C 
ATOM     25  C   UNL A   1      34.308  16.645  24.844  1.00  0.00     0.004 C 
ENDBRANCH  21  24
ENDBRANCH  20  21
ENDBRANCH  19  20
ENDBRANCH   9  19
BRANCH  18  26
ATOM     26  C   UNL A   1      30.393  25.091  23.466  1.00  0.00     0.429 C 
ATOM     27  F   UNL A   1      29.942  23.868  23.104  1.00  0.00    -0.167 F 
ATOM     28  F   UNL A   1      29.813  25.382  24.657  1.00  0.00    -0.167 F 
ATOM     29  F   UNL A   1      29.908  25.986  22.576  1.00  0.00    -0.167 F 
ENDBRANCH  18  26
ENDBRANCH   5   8
ENDBRANCH   3   4
ENDBRANCH   2   3
ENDBRANCH   1   2
BRANCH   1  30
ATOM     30  C   UNL A   1      32.779  27.931  25.439  1.00  0.00     0.002 C 
BRANCH  30  31
ATOM     31  C   UNL A   1      31.641  28.654  26.161  1.00  0.00     0.021 C 
BRANCH  31  32
ATOM     32  C   UNL A   1      32.082  29.548  27.313  1.00  0.00     0.116 C 
BRANCH  32  33
ATOM     33  N   UNL A   1      32.135  30.950  26.935  1.00  0.00    -0.352 N 
ATOM     34  C   UNL A   1      33.121  31.873  27.189  1.00  0.00     0.251 C 
ATOM     35  H   UNL A   1      31.359  31.285  26.430  1.00  0.00     0.163 HD
ATOM     36  O   UNL A   1      32.930  33.061  26.949  1.00  0.00    -0.269 OA
BRANCH  34  37
ATOM     37  C   UNL A   1      34.397  31.419  27.783  1.00  0.00     0.039 A 
ATOM     38  C   UNL A   1      34.566  30.082  28.154  1.00  0.00     0.014 A 
ATOM     39  C   UNL A   1      35.415  32.348  28.009  1.00  0.00     0.014 A 
ATOM     40  C   UNL A   1      35.684  29.710  28.891  1.00  0.00     0.010 A 
ATOM     41  C   UNL A   1      36.577  31.951  28.675  1.00  0.00     0.010 A 
ATOM     42  C   UNL A   1      36.703  30.640  29.160  1.00  0.00    -0.014 A 
BRANCH  42  43
ATOM     43  C   UNL A   1      37.903  30.211  29.924  1.00  0.00     0.031 A 
ATOM     44  C   UNL A   1      38.113  30.654  31.346  1.00  0.00     0.074 A 
ATOM     45  C   UNL A   1      38.789  29.385  29.334  1.00  0.00     0.049 A 
ATOM     46  N   UNL A   1      39.098  30.369  32.157  1.00  0.00    -0.248 NA
ATOM     47  C   UNL A   1      37.089  31.533  31.935  1.00  0.00     0.031 C 
ATOM     48  C   UNL A   1      38.676  28.889  27.961  1.00  0.00     0.029 A 
ATOM     49  N   UNL A   1      39.939  28.804  29.804  1.00  0.00    -0.354 N 
ATOM     50  C   UNL A   1      38.825  31.042  33.343  1.00  0.00     0.074 A 
ATOM     51  C   UNL A   1      37.598  31.778  33.136  1.00  0.00     0.031 C 
ATOM     52  C   UNL A   1      39.683  28.040  27.718  1.00  0.00     0.029 A 
ATOM     53  C   UNL A   1      40.560  27.991  28.884  1.00  0.00     0.049 A 
ATOM     54  H   UNL A   1      40.287  28.954  30.713  1.00  0.00     0.167 HD
ATOM     55  C   UNL A   1      39.531  31.032  34.500  1.00  0.00     0.034 A 
ATOM     56  C   UNL A   1      41.715  27.297  28.957  1.00  0.00     0.034 A 
ATOM     57  C   UNL A   1      40.744  30.276  34.691  1.00  0.00     0.049 A 
ATOM     58  C   UNL A   1      42.500  27.335  30.241  1.00  0.00     0.074 A 
ATOM     59  C   UNL A   1      41.513  30.175  35.836  1.00  0.00     0.029 A 
ATOM     60  N   UNL A   1      41.362  29.494  33.726  1.00  0.00    -0.354 N 
ATOM     61  N   UNL A   1      42.205  27.942  31.367  1.00  0.00    -0.248 NA
ATOM     62  C   UNL A   1      43.771  26.600  30.272  1.00  0.00     0.031 C 
ATOM     63  C   UNL A   1      42.628  29.388  35.546  1.00  0.00     0.029 A 
ATOM     64  C   UNL A   1      42.518  28.931  34.241  1.00  0.00     0.049 A 
ATOM     65  H   UNL A   1      41.027  29.357  32.809  1.00  0.00     0.167 HD
ATOM     66  C   UNL A   1      43.243  27.649  32.245  1.00  0.00     0.074 A 
ATOM     67  C   UNL A   1      44.161  26.787  31.527  1.00  0.00     0.031 C 
ATOM     68  C   UNL A   1      43.421  28.062  33.524  1.00  0.00     0.034 A 
BRANCH  55  69
ATOM     69  C   UNL A   1      39.027  31.843  35.669  1.00  0.00     0.023 A 
ATOM     70  C   UNL A   1      38.399  31.199  36.753  1.00  0.00     0.031 A 
ATOM     71  C   UNL A   1      39.037  33.249  35.646  1.00  0.00     0.131 A 
ATOM     72  C   UNL A   1      37.773  31.961  37.748  1.00  0.00     0.055 A 
ATOM     73  C   UNL A   1      38.446  34.003  36.662  1.00  0.00     0.041 A 
ATOM     74  F   UNL A   1      39.622  33.911  34.635  1.00  0.00    -0.206 F 
ATOM     75  C   UNL A   1      37.798  33.359  37.712  1.00  0.00     0.022 A 
BRANCH  72  76
ATOM     76  S   UNL A   1      36.841  31.171  39.089  1.00  0.00     0.124 S 
ATOM     77  O   UNL A   1      35.655  32.021  39.171  1.00  0.00    -0.237 OA
ATOM     78  O   UNL A   1      36.612  29.831  38.555  1.00  0.00    -0.237 OA
ATOM     79  O   UNL A   1      37.741  31.248  40.235  1.00  0.00    -0.744 OA
ENDBRANCH  72  76
ENDBRANCH  55  69
BRANCH  56  80
ATOM     80  C   UNL A   1      42.149  26.491  27.778  1.00  0.00     0.023 A 
ATOM     81  C   UNL A   1      41.684  25.176  27.592  1.00  0.00     0.031 A 
ATOM     82  C   UNL A   1      43.133  26.973  26.900  1.00  0.00     0.131 A 
ATOM     83  C   UNL A   1      42.265  24.362  26.612  1.00  0.00     0.055 A 
ATOM     84  C   UNL A   1      43.653  26.183  25.872  1.00  0.00     0.041 A 
ATOM     85  F   UNL A   1      43.619  28.216  27.045  1.00  0.00    -0.206 F 
ATOM     86  C   UNL A   1      43.235  24.862  25.739  1.00  0.00     0.022 A 
BRANCH  83  87
ATOM     87  S   UNL A   1      41.898  22.586  26.544  1.00  0.00     0.124 S 
ATOM     88  O   UNL A   1      40.444  22.571  26.671  1.00  0.00    -0.237 OA
ATOM     89  O   UNL A   1      42.420  22.224  25.228  1.00  0.00    -0.237 OA
ATOM     90  O   UNL A   1      42.638  22.037  27.675  1.00  0.00    -0.744 OA
ENDBRANCH  83  87
ENDBRANCH  56  80
BRANCH  68  91
ATOM     91  C   UNL A   1      44.652  27.604  34.268  1.00  0.00     0.023 A 
ATOM     92  C   UNL A   1      44.573  26.503  35.144  1.00  0.00     0.031 A 
ATOM     93  C   UNL A   1      45.840  28.351  34.245  1.00  0.00     0.131 A 
ATOM     94  C   UNL A   1      45.643  26.213  35.998  1.00  0.00     0.055 A 
ATOM     95  C   UNL A   1      46.925  28.027  35.061  1.00  0.00     0.041 A 
ATOM     96  F   UNL A   1      45.960  29.414  33.434  1.00  0.00    -0.206 F 
ATOM     97  C   UNL A   1      46.822  26.965  35.955  1.00  0.00     0.022 A 
BRANCH  94  98
ATOM     98  S   UNL A   1      45.511  24.916  37.258  1.00  0.00     0.124 S 
ATOM     99  O   UNL A   1      45.045  25.670  38.420  1.00  0.00    -0.237 OA
ATOM    100  O   UNL A   1      44.530  24.011  36.667  1.00  0.00    -0.237 OA
ATOM    101  O   UNL A   1      46.868  24.388  37.365  1.00  0.00    -0.744 OA
ENDBRANCH  94  98
ENDBRANCH  68  91
ENDBRANCH  42  43
ENDBRANCH  34  37
ENDBRANCH  32  33
ENDBRANCH  31  32
ENDBRANCH  30  31
ENDBRANCH   1  30
TORSDOF 22
ENDMDL
