MODEL 1
REMARK VINA RESULT:     -12.5      0.000      0.000
REMARK SMILES C/C(=N\Nc1nc(-c2ccc(Cl)cc2)cs1)c1nnn(-c2ccc(C(=O)NCCCCCCNC(=O)c3ccc(-c4c5nc(c(-c6cc(S(=O)(=O)[O-])ccc6F)c6ccc([nH]6)c(-c6cc(S(=O)(=O)[O-])ccc6F)c6nc(c(-c7cc(S(=O)(=O)[O-])ccc7F)c7ccc4[nH]7)C=C6)C=C5)cc3)cc2)c1C
REMARK SMILES IDX 29 1 28 2 27 3 25 4 26 5 24 7 21 8 22 9 101 10 23 11 100 12
REMARK SMILES IDX 20 13 17 14 18 15 102 16 19 17 103 18 2 19 1 20 3 21 4 22
REMARK SMILES IDX 5 24 6 25 16 26 7 27 15 28 8 29 9 30 14 31 10 32 13 33 11 34
REMARK SMILES IDX 12 35 30 36 31 37 32 38 33 39 34 40 35 41 36 43 37 44 38 45
REMARK SMILES IDX 99 46 39 47 98 48 40 49 41 50 42 51 92 52 43 53 97 54 91 55
REMARK SMILES IDX 93 56 44 57 96 58 90 59 89 60 45 62 77 63 57 64 76 65 58 66
REMARK SMILES IDX 61 67 75 68 94 69 59 70 60 71 74 73 95 74 62 75 46 76 47 77
REMARK SMILES IDX 55 78 48 79 54 80 56 81 53 82 49 83 50 84 51 85 52 86 78 87
REMARK SMILES IDX 79 88 87 89 80 90 86 91 88 92 85 93 81 94 82 95 83 96 84 97
REMARK SMILES IDX 63 98 64 99 72 100 65 101 71 102 73 103 70 104 66 105 67 106
REMARK SMILES IDX 68 107 69 108
REMARK H PARENT 27 6 4 23 34 42 93 61 61 72
REMARK Flexibility Score: inf
ROOT
ATOM      1  C   UNL A   1      33.959  20.960  25.682  1.00  0.00     0.021 C 
ENDROOT
BRANCH   1   2
ATOM      2  C   UNL A   1      32.554  20.398  25.451  1.00  0.00     0.116 C 
BRANCH   2   3
ATOM      3  N   UNL A   1      32.369  20.026  24.059  1.00  0.00    -0.352 N 
ATOM      4  C   UNL A   1      32.196  20.759  22.912  1.00  0.00     0.251 C 
ATOM      5  O   UNL A   1      32.134  20.148  21.844  1.00  0.00    -0.269 OA
ATOM      6  H   UNL A   1      32.369  19.053  23.909  1.00  0.00     0.163 HD
BRANCH   4   7
ATOM      7  C   UNL A   1      32.174  22.248  22.894  1.00  0.00     0.039 A 
ATOM      8  C   UNL A   1      32.368  25.018  23.171  1.00  0.00     0.067 A 
ATOM      9  C   UNL A   1      33.487  24.303  22.746  1.00  0.00     0.029 A 
ATOM     10  C   UNL A   1      31.131  24.388  23.326  1.00  0.00     0.029 A 
ATOM     11  C   UNL A   1      33.389  22.913  22.638  1.00  0.00     0.016 A 
ATOM     12  C   UNL A   1      31.029  23.012  23.134  1.00  0.00     0.016 A 
BRANCH   8  13
ATOM     13  N   UNL A   1      32.509  26.354  23.585  1.00  0.00    -0.217 N 
ATOM     14  C   UNL A   1      32.812  28.156  24.767  1.00  0.00     0.132 A 
ATOM     15  N   UNL A   1      32.902  28.480  23.442  1.00  0.00    -0.128 NA
ATOM     16  C   UNL A   1      32.587  26.793  24.894  1.00  0.00     0.071 A 
ATOM     17  N   UNL A   1      32.822  27.355  22.737  1.00  0.00    -0.061 NA
ATOM     18  C   UNL A   1      32.606  25.900  26.082  1.00  0.00     0.069 C 
BRANCH  14  19
ATOM     19  C   UNL A   1      33.110  29.073  25.857  1.00  0.00     0.087 C 
ATOM     20  C   UNL A   1      34.445  28.844  26.522  1.00  0.00     0.071 C 
ATOM     21  N   UNL A   1      32.176  29.928  26.169  1.00  0.00    -0.176 NA
BRANCH  21  22
ATOM     22  N   UNL A   1      32.230  30.758  27.267  1.00  0.00    -0.252 N 
ATOM     23  H   UNL A   1      31.704  30.454  28.041  1.00  0.00     0.193 HD
BRANCH  22  24
ATOM     24  C   UNL A   1      32.892  31.927  27.454  1.00  0.00     0.203 A 
ATOM     25  N   UNL A   1      34.104  32.055  27.939  1.00  0.00    -0.219 NA
ATOM     26  S   UNL A   1      32.099  33.439  27.173  1.00  0.00    -0.103 S 
ATOM     27  C   UNL A   1      34.286  33.325  28.443  1.00  0.00     0.084 A 
ATOM     28  C   UNL A   1      33.295  34.227  28.129  1.00  0.00     0.097 A 
BRANCH  27  29
ATOM     29  C   UNL A   1      35.391  33.566  29.351  1.00  0.00     0.001 A 
ATOM     30  C   UNL A   1      36.660  33.850  28.830  1.00  0.00     0.012 A 
ATOM     31  C   UNL A   1      35.243  33.344  30.728  1.00  0.00     0.012 A 
ATOM     32  C   UNL A   1      37.767  33.935  29.678  1.00  0.00     0.021 A 
ATOM     33  C   UNL A   1      36.355  33.415  31.573  1.00  0.00     0.021 A 
ATOM     34  C   UNL A   1      37.610  33.714  31.045  1.00  0.00     0.041 A 
ATOM     35  Cl  UNL A   1      38.979  33.786  32.084  1.00  0.00    -0.084 Cl
ENDBRANCH  27  29
ENDBRANCH  22  24
ENDBRANCH  21  22
ENDBRANCH  14  19
ENDBRANCH   8  13
ENDBRANCH   4   7
ENDBRANCH   2   3
ENDBRANCH   1   2
BRANCH   1  36
ATOM     36  C   UNL A   1      35.053  20.245  24.876  1.00  0.00     0.002 C 
BRANCH  36  37
ATOM     37  C   UNL A   1      36.469  20.829  25.006  1.00  0.00     0.002 C 
BRANCH  37  38
ATOM     38  C   UNL A   1      37.628  19.833  24.861  1.00  0.00     0.021 C 
BRANCH  38  39
ATOM     39  C   UNL A   1      38.897  20.267  25.580  1.00  0.00     0.116 C 
BRANCH  39  40
ATOM     40  N   UNL A   1      39.855  19.169  25.713  1.00  0.00    -0.352 N 
ATOM     41  C   UNL A   1      41.214  19.246  25.974  1.00  0.00     0.251 C 
ATOM     42  H   UNL A   1      39.488  18.262  25.601  1.00  0.00     0.163 HD
ATOM     43  O   UNL A   1      41.958  18.327  25.690  1.00  0.00    -0.269 OA
BRANCH  41  44
ATOM     44  C   UNL A   1      41.719  20.476  26.609  1.00  0.00     0.039 A 
ATOM     45  C   UNL A   1      42.619  21.326  25.959  1.00  0.00     0.014 A 
ATOM     46  C   UNL A   1      41.214  20.792  27.865  1.00  0.00     0.014 A 
ATOM     47  C   UNL A   1      42.942  22.546  26.555  1.00  0.00     0.010 A 
ATOM     48  C   UNL A   1      41.402  22.052  28.367  1.00  0.00     0.010 A 
ATOM     49  C   UNL A   1      42.315  22.909  27.755  1.00  0.00    -0.014 A 
BRANCH  49  50
ATOM     50  C   UNL A   1      42.535  24.213  28.374  1.00  0.00     0.031 A 
ATOM     51  C   UNL A   1      41.506  25.257  28.093  1.00  0.00     0.074 A 
ATOM     52  C   UNL A   1      43.436  24.366  29.371  1.00  0.00     0.049 A 
ATOM     53  N   UNL A   1      41.661  26.417  27.547  1.00  0.00    -0.248 NA
ATOM     54  C   UNL A   1      40.099  24.929  28.375  1.00  0.00     0.031 C 
ATOM     55  C   UNL A   1      44.270  23.336  30.007  1.00  0.00     0.029 A 
ATOM     56  N   UNL A   1      43.682  25.457  30.142  1.00  0.00    -0.354 N 
ATOM     57  C   UNL A   1      40.418  27.051  27.591  1.00  0.00     0.074 A 
ATOM     58  C   UNL A   1      39.473  26.028  27.947  1.00  0.00     0.031 C 
ATOM     59  C   UNL A   1      44.711  23.782  31.203  1.00  0.00     0.029 A 
ATOM     60  C   UNL A   1      44.362  25.185  31.325  1.00  0.00     0.049 A 
ATOM     61  H   UNL A   1      43.401  26.366  29.885  1.00  0.00     0.167 HD
ATOM     62  C   UNL A   1      40.299  28.409  27.516  1.00  0.00     0.034 A 
ATOM     63  C   UNL A   1      44.594  26.039  32.353  1.00  0.00     0.034 A 
ATOM     64  C   UNL A   1      41.526  29.004  27.037  1.00  0.00     0.049 A 
ATOM     65  C   UNL A   1      44.445  27.410  31.803  1.00  0.00     0.074 A 
ATOM     66  C   UNL A   1      42.259  28.901  25.870  1.00  0.00     0.029 A 
ATOM     67  N   UNL A   1      42.388  29.549  27.961  1.00  0.00    -0.354 N 
ATOM     68  N   UNL A   1      45.217  27.895  30.867  1.00  0.00    -0.248 NA
ATOM     69  C   UNL A   1      43.151  28.060  31.932  1.00  0.00     0.031 C 
ATOM     70  C   UNL A   1      43.620  28.879  26.299  1.00  0.00     0.029 A 
ATOM     71  C   UNL A   1      43.641  29.056  27.685  1.00  0.00     0.049 A 
ATOM     72  H   UNL A   1      42.153  30.174  28.685  1.00  0.00     0.167 HD
ATOM     73  C   UNL A   1      44.368  28.596  30.024  1.00  0.00     0.074 A 
ATOM     74  C   UNL A   1      43.128  28.748  30.786  1.00  0.00     0.031 C 
ATOM     75  C   UNL A   1      44.640  28.741  28.693  1.00  0.00     0.034 A 
BRANCH  62  76
ATOM     76  C   UNL A   1      39.207  29.250  28.150  1.00  0.00     0.023 A 
ATOM     77  C   UNL A   1      39.129  29.264  29.560  1.00  0.00     0.031 A 
ATOM     78  C   UNL A   1      38.101  29.815  27.479  1.00  0.00     0.131 A 
ATOM     79  C   UNL A   1      37.976  29.721  30.225  1.00  0.00     0.055 A 
ATOM     80  C   UNL A   1      36.982  30.330  28.147  1.00  0.00     0.041 A 
ATOM     81  F   UNL A   1      37.988  29.821  26.146  1.00  0.00    -0.206 F 
ATOM     82  C   UNL A   1      36.900  30.257  29.525  1.00  0.00     0.022 A 
BRANCH  79  83
ATOM     83  S   UNL A   1      37.832  29.434  32.009  1.00  0.00     0.124 S 
ATOM     84  O   UNL A   1      36.432  29.767  32.251  1.00  0.00    -0.237 OA
ATOM     85  O   UNL A   1      38.187  28.023  32.115  1.00  0.00    -0.237 OA
ATOM     86  O   UNL A   1      38.800  30.366  32.581  1.00  0.00    -0.744 OA
ENDBRANCH  79  83
ENDBRANCH  62  76
BRANCH  63  87
ATOM     87  C   UNL A   1      44.562  25.707  33.802  1.00  0.00     0.023 A 
ATOM     88  C   UNL A   1      43.481  26.040  34.641  1.00  0.00     0.031 A 
ATOM     89  C   UNL A   1      45.537  24.832  34.337  1.00  0.00     0.131 A 
ATOM     90  C   UNL A   1      43.408  25.507  35.951  1.00  0.00     0.055 A 
ATOM     91  C   UNL A   1      45.461  24.313  35.631  1.00  0.00     0.041 A 
ATOM     92  F   UNL A   1      46.558  24.389  33.586  1.00  0.00    -0.206 F 
ATOM     93  C   UNL A   1      44.388  24.643  36.444  1.00  0.00     0.022 A 
BRANCH  90  94
ATOM     94  S   UNL A   1      41.973  25.873  37.013  1.00  0.00     0.124 S 
ATOM     95  O   UNL A   1      42.607  26.270  38.265  1.00  0.00    -0.237 OA
ATOM     96  O   UNL A   1      41.294  26.927  36.267  1.00  0.00    -0.237 OA
ATOM     97  O   UNL A   1      41.252  24.601  37.065  1.00  0.00    -0.744 OA
ENDBRANCH  90  94
ENDBRANCH  63  87
BRANCH  75  98
ATOM     98  C   UNL A   1      46.014  28.342  28.181  1.00  0.00     0.023 A 
ATOM     99  C   UNL A   1      46.348  27.070  27.658  1.00  0.00     0.031 A 
ATOM    100  C   UNL A   1      46.982  29.357  28.084  1.00  0.00     0.131 A 
ATOM    101  C   UNL A   1      47.612  26.857  27.069  1.00  0.00     0.055 A 
ATOM    102  C   UNL A   1      48.223  29.150  27.482  1.00  0.00     0.041 A 
ATOM    103  F   UNL A   1      46.716  30.595  28.535  1.00  0.00    -0.206 F 
ATOM    104  C   UNL A   1      48.544  27.897  26.975  1.00  0.00     0.022 A 
BRANCH 101 105
ATOM    105  S   UNL A   1      48.076  25.221  26.411  1.00  0.00     0.124 S 
ATOM    106  O   UNL A   1      49.259  24.864  27.186  1.00  0.00    -0.237 OA
ATOM    107  O   UNL A   1      46.879  24.424  26.667  1.00  0.00    -0.237 OA
ATOM    108  O   UNL A   1      48.335  25.484  24.994  1.00  0.00    -0.744 OA
ENDBRANCH 101 105
ENDBRANCH  75  98
ENDBRANCH  49  50
ENDBRANCH  41  44
ENDBRANCH  39  40
ENDBRANCH  38  39
ENDBRANCH  37  38
ENDBRANCH  36  37
ENDBRANCH   1  36
TORSDOF 21
ENDMDL
MODEL 2
REMARK VINA RESULT:     -11.2      3.737     10.063
REMARK SMILES C/C(=N\Nc1nc(-c2ccc(Cl)cc2)cs1)c1nnn(-c2ccc(C(=O)NCCCCCCNC(=O)c3ccc(-c4c5nc(c(-c6cc(S(=O)(=O)[O-])ccc6F)c6ccc([nH]6)c(-c6cc(S(=O)(=O)[O-])ccc6F)c6nc(c(-c7cc(S(=O)(=O)[O-])ccc7F)c7ccc4[nH]7)C=C6)C=C5)cc3)cc2)c1C
REMARK SMILES IDX 29 1 28 2 27 3 25 4 26 5 24 7 21 8 22 9 101 10 23 11 100 12
REMARK SMILES IDX 20 13 17 14 18 15 102 16 19 17 103 18 2 19 1 20 3 21 4 22
REMARK SMILES IDX 5 24 6 25 16 26 7 27 15 28 8 29 9 30 14 31 10 32 13 33 11 34
REMARK SMILES IDX 12 35 30 36 31 37 32 38 33 39 34 40 35 41 36 43 37 44 38 45
REMARK SMILES IDX 99 46 39 47 98 48 40 49 41 50 42 51 92 52 43 53 97 54 91 55
REMARK SMILES IDX 93 56 44 57 96 58 90 59 89 60 45 62 77 63 57 64 76 65 58 66
REMARK SMILES IDX 61 67 75 68 94 69 59 70 60 71 74 73 95 74 62 75 46 76 47 77
REMARK SMILES IDX 55 78 48 79 54 80 56 81 53 82 49 83 50 84 51 85 52 86 78 87
REMARK SMILES IDX 79 88 87 89 80 90 86 91 88 92 85 93 81 94 82 95 83 96 84 97
REMARK SMILES IDX 63 98 64 99 72 100 65 101 71 102 73 103 70 104 66 105 67 106
REMARK SMILES IDX 68 107 69 108
REMARK H PARENT 27 6 4 23 34 42 93 61 61 72
REMARK Flexibility Score: inf
ROOT
ATOM      1  C   UNL A   1      35.554  32.452  32.064  1.00  0.00     0.021 C 
ENDROOT
BRANCH   1   2
ATOM      2  C   UNL A   1      34.423  32.684  31.060  1.00  0.00     0.116 C 
BRANCH   2   3
ATOM      3  N   UNL A   1      34.885  33.483  29.937  1.00  0.00    -0.352 N 
ATOM      4  C   UNL A   1      34.644  33.423  28.587  1.00  0.00     0.251 C 
ATOM      5  O   UNL A   1      35.135  34.302  27.878  1.00  0.00    -0.269 OA
ATOM      6  H   UNL A   1      35.490  34.215  30.198  1.00  0.00     0.163 HD
BRANCH   4   7
ATOM      7  C   UNL A   1      33.751  32.407  27.965  1.00  0.00     0.039 A 
ATOM      8  C   UNL A   1      32.324  30.510  26.498  1.00  0.00     0.067 A 
ATOM      9  C   UNL A   1      33.569  30.162  27.018  1.00  0.00     0.029 A 
ATOM     10  C   UNL A   1      31.732  31.735  26.813  1.00  0.00     0.029 A 
ATOM     11  C   UNL A   1      34.290  31.127  27.728  1.00  0.00     0.016 A 
ATOM     12  C   UNL A   1      32.429  32.658  27.592  1.00  0.00     0.016 A 
BRANCH   8  13
ATOM     13  N   UNL A   1      31.716  29.688  25.533  1.00  0.00    -0.217 N 
ATOM     14  C   UNL A   1      30.902  27.985  24.450  1.00  0.00     0.132 A 
ATOM     15  N   UNL A   1      30.461  29.135  23.855  1.00  0.00    -0.128 NA
ATOM     16  C   UNL A   1      31.687  28.306  25.547  1.00  0.00     0.071 A 
ATOM     17  N   UNL A   1      30.878  30.163  24.589  1.00  0.00    -0.061 NA
ATOM     18  C   UNL A   1      32.242  27.463  26.638  1.00  0.00     0.069 C 
BRANCH  14  19
ATOM     19  C   UNL A   1      30.441  26.651  24.095  1.00  0.00     0.087 C 
ATOM     20  C   UNL A   1      29.023  26.347  24.509  1.00  0.00     0.071 C 
ATOM     21  N   UNL A   1      31.316  25.866  23.530  1.00  0.00    -0.176 NA
BRANCH  21  22
ATOM     22  N   UNL A   1      31.096  24.530  23.272  1.00  0.00    -0.252 N 
ATOM     23  H   UNL A   1      30.150  24.278  23.181  1.00  0.00     0.193 HD
BRANCH  22  24
ATOM     24  C   UNL A   1      31.974  23.507  23.122  1.00  0.00     0.203 A 
ATOM     25  N   UNL A   1      31.680  22.230  23.160  1.00  0.00    -0.219 NA
ATOM     26  S   UNL A   1      33.671  23.821  22.993  1.00  0.00    -0.103 S 
ATOM     27  C   UNL A   1      32.802  21.489  23.462  1.00  0.00     0.084 A 
ATOM     28  C   UNL A   1      33.991  22.183  23.420  1.00  0.00     0.097 A 
BRANCH  27  29
ATOM     29  C   UNL A   1      32.638  20.124  23.921  1.00  0.00     0.001 A 
ATOM     30  C   UNL A   1      32.655  19.852  25.294  1.00  0.00     0.012 A 
ATOM     31  C   UNL A   1      32.640  19.060  23.006  1.00  0.00     0.012 A 
ATOM     32  C   UNL A   1      32.652  18.532  25.753  1.00  0.00     0.021 A 
ATOM     33  C   UNL A   1      32.650  17.739  23.466  1.00  0.00     0.021 A 
ATOM     34  C   UNL A   1      32.652  17.482  24.836  1.00  0.00     0.041 A 
ATOM     35  Cl  UNL A   1      32.681  15.857  25.400  1.00  0.00    -0.084 Cl
ENDBRANCH  27  29
ENDBRANCH  22  24
ENDBRANCH  21  22
ENDBRANCH  14  19
ENDBRANCH   8  13
ENDBRANCH   4   7
ENDBRANCH   2   3
ENDBRANCH   1   2
BRANCH   1  36
ATOM     36  C   UNL A   1      35.590  33.478  33.205  1.00  0.00     0.002 C 
BRANCH  36  37
ATOM     37  C   UNL A   1      36.920  33.579  33.970  1.00  0.00     0.002 C 
BRANCH  37  38
ATOM     38  C   UNL A   1      38.140  32.935  33.296  1.00  0.00     0.021 C 
BRANCH  38  39
ATOM     39  C   UNL A   1      38.944  33.904  32.442  1.00  0.00     0.116 C 
BRANCH  39  40
ATOM     40  N   UNL A   1      38.428  33.988  31.075  1.00  0.00    -0.352 N 
ATOM     41  C   UNL A   1      38.812  33.247  29.968  1.00  0.00     0.251 C 
ATOM     42  H   UNL A   1      37.720  34.655  30.923  1.00  0.00     0.163 HD
ATOM     43  O   UNL A   1      38.599  33.651  28.841  1.00  0.00    -0.269 OA
BRANCH  41  44
ATOM     44  C   UNL A   1      39.482  31.957  30.208  1.00  0.00     0.039 A 
ATOM     45  C   UNL A   1      38.762  30.766  30.347  1.00  0.00     0.014 A 
ATOM     46  C   UNL A   1      40.872  31.961  30.231  1.00  0.00     0.014 A 
ATOM     47  C   UNL A   1      39.463  29.562  30.424  1.00  0.00     0.010 A 
ATOM     48  C   UNL A   1      41.548  30.774  30.142  1.00  0.00     0.010 A 
ATOM     49  C   UNL A   1      40.859  29.574  30.305  1.00  0.00    -0.014 A 
BRANCH  49  50
ATOM     50  C   UNL A   1      41.639  28.339  30.277  1.00  0.00     0.031 A 
ATOM     51  C   UNL A   1      42.185  27.877  31.587  1.00  0.00     0.074 A 
ATOM     52  C   UNL A   1      41.605  27.519  29.202  1.00  0.00     0.049 A 
ATOM     53  N   UNL A   1      43.415  27.666  31.920  1.00  0.00    -0.248 NA
ATOM     54  C   UNL A   1      41.242  27.713  32.706  1.00  0.00     0.031 C 
ATOM     55  C   UNL A   1      40.815  27.668  27.971  1.00  0.00     0.029 A 
ATOM     56  N   UNL A   1      42.155  26.286  29.050  1.00  0.00    -0.354 N 
ATOM     57  C   UNL A   1      43.398  27.157  33.220  1.00  0.00     0.074 A 
ATOM     58  C   UNL A   1      42.061  27.374  33.704  1.00  0.00     0.031 C 
ATOM     59  C   UNL A   1      40.729  26.478  27.340  1.00  0.00     0.029 A 
ATOM     60  C   UNL A   1      41.613  25.541  28.007  1.00  0.00     0.049 A 
ATOM     61  H   UNL A   1      42.875  25.948  29.629  1.00  0.00     0.167 HD
ATOM     62  C   UNL A   1      44.437  26.426  33.721  1.00  0.00     0.034 A 
ATOM     63  C   UNL A   1      41.845  24.234  27.726  1.00  0.00     0.034 A 
ATOM     64  C   UNL A   1      45.614  26.581  32.897  1.00  0.00     0.049 A 
ATOM     65  C   UNL A   1      43.121  23.879  28.397  1.00  0.00     0.074 A 
ATOM     66  C   UNL A   1      46.409  27.653  32.538  1.00  0.00     0.029 A 
ATOM     67  N   UNL A   1      45.905  25.591  31.986  1.00  0.00    -0.354 N 
ATOM     68  N   UNL A   1      44.267  24.429  28.094  1.00  0.00    -0.248 NA
ATOM     69  C   UNL A   1      43.053  23.287  29.723  1.00  0.00     0.031 C 
ATOM     70  C   UNL A   1      46.705  27.436  31.159  1.00  0.00     0.029 A 
ATOM     71  C   UNL A   1      46.151  26.209  30.783  1.00  0.00     0.049 A 
ATOM     72  H   UNL A   1      45.931  24.623  32.162  1.00  0.00     0.167 HD
ATOM     73  C   UNL A   1      44.902  24.636  29.310  1.00  0.00     0.074 A 
ATOM     74  C   UNL A   1      44.152  23.820  30.265  1.00  0.00     0.031 C 
ATOM     75  C   UNL A   1      45.790  25.659  29.488  1.00  0.00     0.034 A 
BRANCH  62  76
ATOM     76  C   UNL A   1      44.340  25.331  34.767  1.00  0.00     0.023 A 
ATOM     77  C   UNL A   1      44.940  25.572  36.022  1.00  0.00     0.031 A 
ATOM     78  C   UNL A   1      43.940  23.997  34.535  1.00  0.00     0.131 A 
ATOM     79  C   UNL A   1      45.202  24.522  36.921  1.00  0.00     0.055 A 
ATOM     80  C   UNL A   1      44.143  22.966  35.461  1.00  0.00     0.041 A 
ATOM     81  F   UNL A   1      43.418  23.588  33.373  1.00  0.00    -0.206 F 
ATOM     82  C   UNL A   1      44.805  23.217  36.649  1.00  0.00     0.022 A 
BRANCH  79  83
ATOM     83  S   UNL A   1      46.234  24.860  38.374  1.00  0.00     0.124 S 
ATOM     84  O   UNL A   1      47.518  24.303  37.960  1.00  0.00    -0.237 OA
ATOM     85  O   UNL A   1      46.159  26.314  38.461  1.00  0.00    -0.237 OA
ATOM     86  O   UNL A   1      45.558  24.134  39.446  1.00  0.00    -0.744 OA
ENDBRANCH  79  83
ENDBRANCH  62  76
BRANCH  63  87
ATOM     87  C   UNL A   1      40.846  23.244  27.242  1.00  0.00     0.023 A 
ATOM     88  C   UNL A   1      39.522  23.591  26.910  1.00  0.00     0.031 A 
ATOM     89  C   UNL A   1      41.272  21.944  26.881  1.00  0.00     0.131 A 
ATOM     90  C   UNL A   1      38.687  22.657  26.250  1.00  0.00     0.055 A 
ATOM     91  C   UNL A   1      40.443  21.026  26.233  1.00  0.00     0.041 A 
ATOM     92  F   UNL A   1      42.542  21.551  27.077  1.00  0.00    -0.206 F 
ATOM     93  C   UNL A   1      39.145  21.383  25.907  1.00  0.00     0.022 A 
BRANCH  90  94
ATOM     94  S   UNL A   1      36.999  23.127  25.751  1.00  0.00     0.124 S 
ATOM     95  O   UNL A   1      36.759  24.321  26.554  1.00  0.00    -0.237 OA
ATOM     96  O   UNL A   1      37.145  23.331  24.314  1.00  0.00    -0.237 OA
ATOM     97  O   UNL A   1      36.195  21.963  26.125  1.00  0.00    -0.744 OA
ENDBRANCH  90  94
ENDBRANCH  63  87
BRANCH  75  98
ATOM     98  C   UNL A   1      46.275  26.425  28.269  1.00  0.00     0.023 A 
ATOM     99  C   UNL A   1      45.909  27.753  27.945  1.00  0.00     0.031 A 
ATOM    100  C   UNL A   1      47.275  25.820  27.487  1.00  0.00     0.131 A 
ATOM    101  C   UNL A   1      46.540  28.420  26.874  1.00  0.00     0.055 A 
ATOM    102  C   UNL A   1      47.912  26.489  26.442  1.00  0.00     0.041 A 
ATOM    103  F   UNL A   1      47.689  24.571  27.761  1.00  0.00    -0.206 F 
ATOM    104  C   UNL A   1      47.543  27.791  26.129  1.00  0.00     0.022 A 
BRANCH 101 105
ATOM    105  S   UNL A   1      46.067  30.122  26.421  1.00  0.00     0.124 S 
ATOM    106  O   UNL A   1      46.879  30.949  27.307  1.00  0.00    -0.237 OA
ATOM    107  O   UNL A   1      46.405  30.180  25.002  1.00  0.00    -0.237 OA
ATOM    108  O   UNL A   1      44.631  30.163  26.703  1.00  0.00    -0.744 OA
ENDBRANCH 101 105
ENDBRANCH  75  98
ENDBRANCH  49  50
ENDBRANCH  41  44
ENDBRANCH  39  40
ENDBRANCH  38  39
ENDBRANCH  37  38
ENDBRANCH  36  37
ENDBRANCH   1  36
TORSDOF 21
ENDMDL
MODEL 3
REMARK VINA RESULT:     -10.9      3.408      7.598
REMARK SMILES C/C(=N\Nc1nc(-c2ccc(Cl)cc2)cs1)c1nnn(-c2ccc(C(=O)NCCCCCCNC(=O)c3ccc(-c4c5nc(c(-c6cc(S(=O)(=O)[O-])ccc6F)c6ccc([nH]6)c(-c6cc(S(=O)(=O)[O-])ccc6F)c6nc(c(-c7cc(S(=O)(=O)[O-])ccc7F)c7ccc4[nH]7)C=C6)C=C5)cc3)cc2)c1C
REMARK SMILES IDX 29 1 28 2 27 3 25 4 26 5 24 7 21 8 22 9 101 10 23 11 100 12
REMARK SMILES IDX 20 13 17 14 18 15 102 16 19 17 103 18 2 19 1 20 3 21 4 22
REMARK SMILES IDX 5 24 6 25 16 26 7 27 15 28 8 29 9 30 14 31 10 32 13 33 11 34
REMARK SMILES IDX 12 35 30 36 31 37 32 38 33 39 34 40 35 41 36 43 37 44 38 45
REMARK SMILES IDX 99 46 39 47 98 48 40 49 41 50 42 51 92 52 43 53 97 54 91 55
REMARK SMILES IDX 93 56 44 57 96 58 90 59 89 60 45 62 77 63 57 64 76 65 58 66
REMARK SMILES IDX 61 67 75 68 94 69 59 70 60 71 74 73 95 74 62 75 46 76 47 77
REMARK SMILES IDX 55 78 48 79 54 80 56 81 53 82 49 83 50 84 51 85 52 86 78 87
REMARK SMILES IDX 79 88 87 89 80 90 86 91 88 92 85 93 81 94 82 95 83 96 84 97
REMARK SMILES IDX 63 98 64 99 72 100 65 101 71 102 73 103 70 104 66 105 67 106
REMARK SMILES IDX 68 107 69 108
REMARK H PARENT 27 6 4 23 34 42 93 61 61 72
REMARK Flexibility Score: inf
ROOT
ATOM      1  C   UNL A   1      35.582  21.070  25.649  1.00  0.00     0.021 C 
ENDROOT
BRANCH   1   2
ATOM      2  C   UNL A   1      35.446  19.860  24.722  1.00  0.00     0.116 C 
BRANCH   2   3
ATOM      3  N   UNL A   1      34.245  19.104  25.032  1.00  0.00    -0.352 N 
ATOM      4  C   UNL A   1      32.918  19.451  25.112  1.00  0.00     0.251 C 
ATOM      5  O   UNL A   1      32.104  18.554  25.332  1.00  0.00    -0.269 OA
ATOM      6  H   UNL A   1      34.415  18.153  25.220  1.00  0.00     0.163 HD
BRANCH   4   7
ATOM      7  C   UNL A   1      32.422  20.832  24.855  1.00  0.00     0.039 A 
ATOM      8  C   UNL A   1      31.866  23.516  24.334  1.00  0.00     0.067 A 
ATOM      9  C   UNL A   1      32.356  22.717  23.303  1.00  0.00     0.029 A 
ATOM     10  C   UNL A   1      31.527  22.963  25.571  1.00  0.00     0.029 A 
ATOM     11  C   UNL A   1      32.659  21.380  23.580  1.00  0.00     0.016 A 
ATOM     12  C   UNL A   1      31.757  21.608  25.807  1.00  0.00     0.016 A 
BRANCH   8  13
ATOM     13  N   UNL A   1      31.844  24.913  24.185  1.00  0.00    -0.217 N 
ATOM     14  C   UNL A   1      32.370  27.025  24.182  1.00  0.00     0.132 A 
ATOM     15  N   UNL A   1      31.249  26.851  23.419  1.00  0.00    -0.128 NA
ATOM     16  C   UNL A   1      32.793  25.796  24.666  1.00  0.00     0.071 A 
ATOM     17  N   UNL A   1      31.003  25.547  23.342  1.00  0.00    -0.061 NA
ATOM     18  C   UNL A   1      34.040  25.392  25.366  1.00  0.00     0.069 C 
BRANCH  14  19
ATOM     19  C   UNL A   1      33.103  28.278  24.289  1.00  0.00     0.087 C 
ATOM     20  C   UNL A   1      33.813  28.698  23.026  1.00  0.00     0.071 C 
ATOM     21  N   UNL A   1      33.114  28.846  25.463  1.00  0.00    -0.176 NA
BRANCH  21  22
ATOM     22  N   UNL A   1      33.881  29.947  25.776  1.00  0.00    -0.252 N 
ATOM     23  H   UNL A   1      34.184  30.474  25.002  1.00  0.00     0.193 HD
BRANCH  22  24
ATOM     24  C   UNL A   1      34.287  30.422  26.981  1.00  0.00     0.203 A 
ATOM     25  N   UNL A   1      33.637  31.285  27.725  1.00  0.00    -0.219 NA
ATOM     26  S   UNL A   1      35.845  30.006  27.608  1.00  0.00    -0.103 S 
ATOM     27  C   UNL A   1      34.501  31.910  28.598  1.00  0.00     0.084 A 
ATOM     28  C   UNL A   1      35.758  31.354  28.676  1.00  0.00     0.097 A 
BRANCH  27  29
ATOM     29  C   UNL A   1      34.082  33.143  29.235  1.00  0.00     0.001 A 
ATOM     30  C   UNL A   1      33.441  34.129  28.473  1.00  0.00     0.012 A 
ATOM     31  C   UNL A   1      34.466  33.430  30.553  1.00  0.00     0.012 A 
ATOM     32  C   UNL A   1      33.167  35.381  29.028  1.00  0.00     0.021 A 
ATOM     33  C   UNL A   1      34.203  34.689  31.102  1.00  0.00     0.021 A 
ATOM     34  C   UNL A   1      33.552  35.657  30.339  1.00  0.00     0.041 A 
ATOM     35  Cl  UNL A   1      33.243  37.210  31.010  1.00  0.00    -0.084 Cl
ENDBRANCH  27  29
ENDBRANCH  22  24
ENDBRANCH  21  22
ENDBRANCH  14  19
ENDBRANCH   8  13
ENDBRANCH   4   7
ENDBRANCH   2   3
ENDBRANCH   1   2
BRANCH   1  36
ATOM     36  C   UNL A   1      36.988  21.686  25.664  1.00  0.00     0.002 C 
BRANCH  36  37
ATOM     37  C   UNL A   1      37.064  23.186  25.336  1.00  0.00     0.002 C 
BRANCH  37  38
ATOM     38  C   UNL A   1      37.626  24.093  26.441  1.00  0.00     0.021 C 
BRANCH  38  39
ATOM     39  C   UNL A   1      39.130  23.967  26.624  1.00  0.00     0.116 C 
BRANCH  39  40
ATOM     40  N   UNL A   1      39.513  22.646  27.124  1.00  0.00    -0.352 N 
ATOM     41  C   UNL A   1      40.779  22.086  27.181  1.00  0.00     0.251 C 
ATOM     42  H   UNL A   1      38.777  22.083  27.460  1.00  0.00     0.163 HD
ATOM     43  O   UNL A   1      40.928  20.881  27.253  1.00  0.00    -0.269 OA
BRANCH  41  44
ATOM     44  C   UNL A   1      41.933  23.003  27.156  1.00  0.00     0.039 A 
ATOM     45  C   UNL A   1      42.121  23.924  26.122  1.00  0.00     0.014 A 
ATOM     46  C   UNL A   1      42.801  22.956  28.242  1.00  0.00     0.014 A 
ATOM     47  C   UNL A   1      43.150  24.860  26.235  1.00  0.00     0.010 A 
ATOM     48  C   UNL A   1      43.700  23.971  28.427  1.00  0.00     0.010 A 
ATOM     49  C   UNL A   1      43.927  24.887  27.401  1.00  0.00    -0.014 A 
BRANCH  49  50
ATOM     50  C   UNL A   1      44.951  25.905  27.620  1.00  0.00     0.031 A 
ATOM     51  C   UNL A   1      46.259  25.679  26.939  1.00  0.00     0.074 A 
ATOM     52  C   UNL A   1      44.632  27.110  28.145  1.00  0.00     0.049 A 
ATOM     53  N   UNL A   1      47.435  25.573  27.464  1.00  0.00    -0.248 NA
ATOM     54  C   UNL A   1      46.248  25.451  25.484  1.00  0.00     0.031 C 
ATOM     55  C   UNL A   1      43.304  27.610  28.529  1.00  0.00     0.029 A 
ATOM     56  N   UNL A   1      45.414  28.209  28.301  1.00  0.00    -0.354 N 
ATOM     57  C   UNL A   1      48.339  25.461  26.405  1.00  0.00     0.074 A 
ATOM     58  C   UNL A   1      47.538  25.218  25.236  1.00  0.00     0.031 C 
ATOM     59  C   UNL A   1      43.333  28.957  28.613  1.00  0.00     0.029 A 
ATOM     60  C   UNL A   1      44.710  29.394  28.487  1.00  0.00     0.049 A 
ATOM     61  H   UNL A   1      46.398  28.171  28.282  1.00  0.00     0.167 HD
ATOM     62  C   UNL A   1      49.661  25.768  26.552  1.00  0.00     0.034 A 
ATOM     63  C   UNL A   1      45.214  30.654  28.503  1.00  0.00     0.034 A 
ATOM     64  C   UNL A   1      50.015  25.847  27.951  1.00  0.00     0.049 A 
ATOM     65  C   UNL A   1      46.666  30.524  28.784  1.00  0.00     0.074 A 
ATOM     66  C   UNL A   1      50.001  24.953  29.004  1.00  0.00     0.029 A 
ATOM     67  N   UNL A   1      50.091  27.093  28.532  1.00  0.00    -0.354 N 
ATOM     68  N   UNL A   1      47.140  30.027  29.896  1.00  0.00    -0.248 NA
ATOM     69  C   UNL A   1      47.578  30.480  27.652  1.00  0.00     0.031 C 
ATOM     70  C   UNL A   1      49.532  25.713  30.117  1.00  0.00     0.029 A 
ATOM     71  C   UNL A   1      49.370  27.038  29.702  1.00  0.00     0.049 A 
ATOM     72  H   UNL A   1      50.571  27.876  28.178  1.00  0.00     0.167 HD
ATOM     73  C   UNL A   1      48.211  29.234  29.511  1.00  0.00     0.074 A 
ATOM     74  C   UNL A   1      48.495  29.635  28.133  1.00  0.00     0.031 C 
ATOM     75  C   UNL A   1      48.586  28.138  30.235  1.00  0.00     0.034 A 
BRANCH  62  76
ATOM     76  C   UNL A   1      50.583  26.299  25.470  1.00  0.00     0.023 A 
ATOM     77  C   UNL A   1      50.000  27.044  24.422  1.00  0.00     0.031 A 
ATOM     78  C   UNL A   1      51.925  25.912  25.262  1.00  0.00     0.131 A 
ATOM     79  C   UNL A   1      50.693  27.284  23.221  1.00  0.00     0.055 A 
ATOM     80  C   UNL A   1      52.633  26.210  24.091  1.00  0.00     0.041 A 
ATOM     81  F   UNL A   1      52.602  25.148  26.126  1.00  0.00    -0.206 F 
ATOM     82  C   UNL A   1      52.010  26.872  23.049  1.00  0.00     0.022 A 
BRANCH  79  83
ATOM     83  S   UNL A   1      49.781  27.983  21.818  1.00  0.00     0.124 S 
ATOM     84  O   UNL A   1      50.023  26.986  20.781  1.00  0.00    -0.237 OA
ATOM     85  O   UNL A   1      48.423  28.048  22.347  1.00  0.00    -0.237 OA
ATOM     86  O   UNL A   1      50.430  29.275  21.604  1.00  0.00    -0.744 OA
ENDBRANCH  79  83
ENDBRANCH  62  76
BRANCH  63  87
ATOM     87  C   UNL A   1      44.575  31.869  27.931  1.00  0.00     0.023 A 
ATOM     88  C   UNL A   1      43.981  32.869  28.725  1.00  0.00     0.031 A 
ATOM     89  C   UNL A   1      44.748  32.166  26.559  1.00  0.00     0.131 A 
ATOM     90  C   UNL A   1      43.588  34.098  28.143  1.00  0.00     0.055 A 
ATOM     91  C   UNL A   1      44.355  33.379  25.989  1.00  0.00     0.041 A 
ATOM     92  F   UNL A   1      45.383  31.311  25.739  1.00  0.00    -0.206 F 
ATOM     93  C   UNL A   1      43.779  34.357  26.783  1.00  0.00     0.022 A 
BRANCH  90  94
ATOM     94  S   UNL A   1      42.890  35.425  29.180  1.00  0.00     0.124 S 
ATOM     95  O   UNL A   1      43.237  34.981  30.525  1.00  0.00    -0.237 OA
ATOM     96  O   UNL A   1      43.588  36.606  28.686  1.00  0.00    -0.237 OA
ATOM     97  O   UNL A   1      41.461  35.386  28.869  1.00  0.00    -0.744 OA
ENDBRANCH  90  94
ENDBRANCH  63  87
BRANCH  75  98
ATOM     98  C   UNL A   1      47.977  27.929  31.612  1.00  0.00     0.023 A 
ATOM     99  C   UNL A   1      46.742  27.286  31.865  1.00  0.00     0.031 A 
ATOM    100  C   UNL A   1      48.770  28.269  32.721  1.00  0.00     0.131 A 
ATOM    101  C   UNL A   1      46.347  27.009  33.191  1.00  0.00     0.055 A 
ATOM    102  C   UNL A   1      48.387  27.975  34.030  1.00  0.00     0.041 A 
ATOM    103  F   UNL A   1      49.967  28.854  32.548  1.00  0.00    -0.206 F 
ATOM    104  C   UNL A   1      47.171  27.347  34.270  1.00  0.00     0.022 A 
BRANCH 101 105
ATOM    105  S   UNL A   1      44.749  26.205  33.544  1.00  0.00     0.124 S 
ATOM    106  O   UNL A   1      44.093  26.162  32.242  1.00  0.00    -0.237 OA
ATOM    107  O   UNL A   1      45.156  24.917  34.099  1.00  0.00    -0.237 OA
ATOM    108  O   UNL A   1      44.120  27.108  34.510  1.00  0.00    -0.744 OA
ENDBRANCH 101 105
ENDBRANCH  75  98
ENDBRANCH  49  50
ENDBRANCH  41  44
ENDBRANCH  39  40
ENDBRANCH  38  39
ENDBRANCH  37  38
ENDBRANCH  36  37
ENDBRANCH   1  36
TORSDOF 21
ENDMDL
