MODEL 1
REMARK VINA RESULT:      -9.0      0.000      0.000
REMARK SMILES COc1cc(OC)c([C@H]2CC(=O)Nc3c(C(=O)NCCCCCCNC(=O)c4ccc(-c5c6nc(c(-c7cc(S(=O)(=O)[O-])ccc7F)c7ccc([nH]7)c(-c7cc(S(=O)(=O)[O-])ccc7F)c7nc(c(-c8cc(S(=O)(=O)[O-])ccc8F)c8ccc5[nH]8)C=C7)C=C6)cc4)cn(-c4ccccc4)c32)cc1OC
REMARK SMILES IDX 22 1 21 2 20 3 19 4 18 5 16 6 17 7 15 9 9 10 10 11 99 12
REMARK SMILES IDX 11 13 14 14 92 15 12 16 13 17 91 18 8 20 3 21 4 22 101 23
REMARK SMILES IDX 5 24 100 25 2 26 1 27 102 28 103 29 6 30 7 31 93 32 94 33
REMARK SMILES IDX 98 34 95 35 97 36 96 37 23 38 24 39 25 40 26 41 27 43 28 44
REMARK SMILES IDX 29 45 90 46 30 47 89 48 31 49 32 50 33 51 83 52 34 53 88 54
REMARK SMILES IDX 82 55 84 56 35 57 87 58 81 59 80 60 36 62 68 63 48 64 67 65
REMARK SMILES IDX 49 66 52 67 66 68 85 69 50 70 51 71 65 73 86 74 53 75 37 76
REMARK SMILES IDX 38 77 46 78 39 79 45 80 47 81 44 82 40 83 41 84 42 85 43 86
REMARK SMILES IDX 69 87 70 88 78 89 71 90 77 91 79 92 76 93 72 94 73 95 74 96
REMARK SMILES IDX 75 97 54 98 55 99 63 100 56 101 62 102 64 103 61 104 57 105
REMARK SMILES IDX 58 106 59 107 60 108
REMARK H PARENT 18 8 13 19 25 42 84 61 52 72
REMARK Flexibility Score: inf
ROOT
ATOM      1  C   UNL A   1      43.814  23.717  25.715  1.00  0.00     0.002 C 
ENDROOT
BRANCH   1   2
ATOM      2  C   UNL A   1      42.854  22.564  26.052  1.00  0.00     0.002 C 
BRANCH   2   3
ATOM      3  C   UNL A   1      42.856  22.154  27.524  1.00  0.00     0.021 C 
BRANCH   3   4
ATOM      4  C   UNL A   1      42.410  23.283  28.468  1.00  0.00     0.116 C 
BRANCH   4   5
ATOM      5  N   UNL A   1      42.897  23.066  29.806  1.00  0.00    -0.352 N 
ATOM      6  C   UNL A   1      43.893  23.610  30.567  1.00  0.00     0.254 C 
ATOM      7  O   UNL A   1      43.920  23.199  31.733  1.00  0.00    -0.269 OA
ATOM      8  H   UNL A   1      42.397  22.363  30.282  1.00  0.00     0.163 HD
BRANCH   6   9
ATOM      9  C   UNL A   1      44.851  24.634  30.122  1.00  0.00     0.081 A 
ATOM     10  C   UNL A   1      47.722  27.063  29.951  1.00  0.00     0.082 C 
ATOM     11  C   UNL A   1      47.811  27.342  31.467  1.00  0.00     0.115 C 
ATOM     12  C   UNL A   1      46.495  26.197  29.691  1.00  0.00     0.055 A 
ATOM     13  C   UNL A   1      47.566  26.125  32.293  1.00  0.00     0.225 C 
ATOM     14  C   UNL A   1      45.941  25.372  30.663  1.00  0.00     0.076 A 
ATOM     15  N   UNL A   1      45.806  25.957  28.518  1.00  0.00    -0.317 N 
ATOM     16  O   UNL A   1      48.181  25.878  33.327  1.00  0.00    -0.275 OA
ATOM     17  N   UNL A   1      46.525  25.346  31.902  1.00  0.00    -0.324 N 
ATOM     18  C   UNL A   1      44.765  25.106  28.814  1.00  0.00     0.107 A 
ATOM     19  H   UNL A   1      46.161  24.712  32.562  1.00  0.00     0.170 HD
BRANCH  10  20
ATOM     20  C   UNL A   1      47.903  28.447  29.334  1.00  0.00     0.008 A 
ATOM     21  C   UNL A   1      48.664  31.124  28.757  1.00  0.00     0.164 A 
ATOM     22  C   UNL A   1      49.334  30.043  28.174  1.00  0.00     0.097 A 
ATOM     23  C   UNL A   1      47.555  30.890  29.566  1.00  0.00     0.161 A 
ATOM     24  C   UNL A   1      48.950  28.714  28.422  1.00  0.00     0.126 A 
ATOM     25  C   UNL A   1      47.219  29.559  29.869  1.00  0.00     0.058 A 
BRANCH  21  26
ATOM     26  O   UNL A   1      49.115  32.376  28.435  1.00  0.00    -0.493 OA
ATOM     27  C   UNL A   1      49.414  32.487  27.038  1.00  0.00     0.278 C 
ENDBRANCH  21  26
BRANCH  23  28
ATOM     28  O   UNL A   1      46.703  31.783  30.152  1.00  0.00    -0.493 OA
ATOM     29  C   UNL A   1      45.790  31.336  31.139  1.00  0.00     0.278 C 
ENDBRANCH  23  28
BRANCH  24  30
ATOM     30  O   UNL A   1      49.814  27.817  27.843  1.00  0.00    -0.496 OA
ATOM     31  C   UNL A   1      49.980  27.806  26.433  1.00  0.00     0.278 C 
ENDBRANCH  24  30
ENDBRANCH  10  20
BRANCH  15  32
ATOM     32  C   UNL A   1      46.063  26.439  27.215  1.00  0.00     0.045 A 
ATOM     33  C   UNL A   1      46.866  25.711  26.334  1.00  0.00     0.026 A 
ATOM     34  C   UNL A   1      45.518  27.673  26.831  1.00  0.00     0.026 A 
ATOM     35  C   UNL A   1      47.157  26.242  25.078  1.00  0.00     0.002 A 
ATOM     36  C   UNL A   1      45.847  28.212  25.590  1.00  0.00     0.002 A 
ATOM     37  C   UNL A   1      46.668  27.500  24.716  1.00  0.00     0.000 A 
ENDBRANCH  15  32
ENDBRANCH   6   9
ENDBRANCH   4   5
ENDBRANCH   3   4
ENDBRANCH   2   3
ENDBRANCH   1   2
BRANCH   1  38
ATOM     38  C   UNL A   1      43.199  24.929  24.992  1.00  0.00     0.021 C 
BRANCH  38  39
ATOM     39  C   UNL A   1      42.180  25.671  25.841  1.00  0.00     0.116 C 
BRANCH  39  40
ATOM     40  N   UNL A   1      40.829  25.139  25.639  1.00  0.00    -0.352 N 
ATOM     41  C   UNL A   1      39.722  25.201  26.470  1.00  0.00     0.251 C 
ATOM     42  H   UNL A   1      40.686  24.669  24.785  1.00  0.00     0.163 HD
ATOM     43  O   UNL A   1      38.801  24.417  26.330  1.00  0.00    -0.269 OA
BRANCH  41  44
ATOM     44  C   UNL A   1      39.688  26.245  27.510  1.00  0.00     0.039 A 
ATOM     45  C   UNL A   1      39.394  25.962  28.848  1.00  0.00     0.014 A 
ATOM     46  C   UNL A   1      39.982  27.541  27.108  1.00  0.00     0.014 A 
ATOM     47  C   UNL A   1      39.455  27.003  29.774  1.00  0.00     0.010 A 
ATOM     48  C   UNL A   1      40.276  28.490  28.040  1.00  0.00     0.010 A 
ATOM     49  C   UNL A   1      39.902  28.264  29.353  1.00  0.00    -0.014 A 
BRANCH  49  50
ATOM     50  C   UNL A   1      40.102  29.381  30.263  1.00  0.00     0.031 A 
ATOM     51  C   UNL A   1      38.858  30.134  30.548  1.00  0.00     0.074 A 
ATOM     52  C   UNL A   1      41.234  29.518  30.992  1.00  0.00     0.049 A 
ATOM     53  N   UNL A   1      38.528  31.297  30.097  1.00  0.00    -0.248 NA
ATOM     54  C   UNL A   1      37.756  29.430  31.225  1.00  0.00     0.031 C 
ATOM     55  C   UNL A   1      42.407  28.634  31.037  1.00  0.00     0.029 A 
ATOM     56  N   UNL A   1      41.532  30.435  31.949  1.00  0.00    -0.354 N 
ATOM     57  C   UNL A   1      37.299  31.589  30.678  1.00  0.00     0.074 A 
ATOM     58  C   UNL A   1      36.772  30.325  31.110  1.00  0.00     0.031 C 
ATOM     59  C   UNL A   1      43.164  28.929  32.119  1.00  0.00     0.029 A 
ATOM     60  C   UNL A   1      42.628  30.122  32.753  1.00  0.00     0.049 A 
ATOM     61  H   UNL A   1      41.010  31.262  32.065  1.00  0.00     0.167 HD
ATOM     62  C   UNL A   1      36.976  32.871  31.009  1.00  0.00     0.034 A 
ATOM     63  C   UNL A   1      43.046  30.787  33.867  1.00  0.00     0.034 A 
ATOM     64  C   UNL A   1      37.915  33.796  30.399  1.00  0.00     0.049 A 
ATOM     65  C   UNL A   1      42.466  32.153  33.770  1.00  0.00     0.074 A 
ATOM     66  C   UNL A   1      38.293  34.076  29.099  1.00  0.00     0.029 A 
ATOM     67  N   UNL A   1      38.929  34.296  31.191  1.00  0.00    -0.354 N 
ATOM     68  N   UNL A   1      42.789  32.994  32.825  1.00  0.00    -0.248 NA
ATOM     69  C   UNL A   1      41.159  32.379  34.373  1.00  0.00     0.031 C 
ATOM     70  C   UNL A   1      39.710  34.247  29.160  1.00  0.00     0.029 A 
ATOM     71  C   UNL A   1      40.109  34.175  30.497  1.00  0.00     0.049 A 
ATOM     72  H   UNL A   1      38.826  34.673  32.095  1.00  0.00     0.167 HD
ATOM     73  C   UNL A   1      41.588  33.553  32.410  1.00  0.00     0.074 A 
ATOM     74  C   UNL A   1      40.631  33.206  33.463  1.00  0.00     0.031 C 
ATOM     75  C   UNL A   1      41.407  33.974  31.121  1.00  0.00     0.034 A 
BRANCH  62  76
ATOM     76  C   UNL A   1      36.114  33.283  32.190  1.00  0.00     0.023 A 
ATOM     77  C   UNL A   1      34.958  34.027  31.882  1.00  0.00     0.031 A 
ATOM     78  C   UNL A   1      36.468  33.259  33.556  1.00  0.00     0.131 A 
ATOM     79  C   UNL A   1      34.327  34.826  32.849  1.00  0.00     0.055 A 
ATOM     80  C   UNL A   1      35.796  34.006  34.531  1.00  0.00     0.041 A 
ATOM     81  F   UNL A   1      37.513  32.577  34.032  1.00  0.00    -0.206 F 
ATOM     82  C   UNL A   1      34.745  34.830  34.172  1.00  0.00     0.022 A 
BRANCH  79  83
ATOM     83  S   UNL A   1      33.083  36.011  32.283  1.00  0.00     0.124 S 
ATOM     84  O   UNL A   1      33.446  36.159  30.876  1.00  0.00    -0.237 OA
ATOM     85  O   UNL A   1      31.842  35.296  32.558  1.00  0.00    -0.237 OA
ATOM     86  O   UNL A   1      33.329  37.182  33.119  1.00  0.00    -0.744 OA
ENDBRANCH  79  83
ENDBRANCH  62  76
BRANCH  63  87
ATOM     87  C   UNL A   1      43.591  30.203  35.134  1.00  0.00     0.023 A 
ATOM     88  C   UNL A   1      43.219  28.933  35.640  1.00  0.00     0.031 A 
ATOM     89  C   UNL A   1      44.707  30.817  35.747  1.00  0.00     0.131 A 
ATOM     90  C   UNL A   1      43.951  28.342  36.705  1.00  0.00     0.055 A 
ATOM     91  C   UNL A   1      45.425  30.227  36.791  1.00  0.00     0.041 A 
ATOM     92  F   UNL A   1      45.195  31.981  35.291  1.00  0.00    -0.206 F 
ATOM     93  C   UNL A   1      45.056  28.983  37.270  1.00  0.00     0.022 A 
BRANCH  90  94
ATOM     94  S   UNL A   1      43.528  26.679  37.338  1.00  0.00     0.124 S 
ATOM     95  O   UNL A   1      44.149  26.678  38.656  1.00  0.00    -0.237 OA
ATOM     96  O   UNL A   1      42.069  26.691  37.306  1.00  0.00    -0.237 OA
ATOM     97  O   UNL A   1      44.149  25.775  36.368  1.00  0.00    -0.744 OA
ENDBRANCH  90  94
ENDBRANCH  63  87
BRANCH  75  98
ATOM     98  C   UNL A   1      42.622  34.064  30.213  1.00  0.00     0.023 A 
ATOM     99  C   UNL A   1      42.993  33.102  29.242  1.00  0.00     0.031 A 
ATOM    100  C   UNL A   1      43.364  35.257  30.256  1.00  0.00     0.131 A 
ATOM    101  C   UNL A   1      44.075  33.355  28.372  1.00  0.00     0.055 A 
ATOM    102  C   UNL A   1      44.417  35.514  29.379  1.00  0.00     0.041 A 
ATOM    103  F   UNL A   1      43.049  36.222  31.137  1.00  0.00    -0.206 F 
ATOM    104  C   UNL A   1      44.780  34.562  28.436  1.00  0.00     0.022 A 
BRANCH 101 105
ATOM    105  S   UNL A   1      44.608  32.111  27.148  1.00  0.00     0.124 S 
ATOM    106  O   UNL A   1      46.013  32.429  26.927  1.00  0.00    -0.237 OA
ATOM    107  O   UNL A   1      44.338  30.851  27.836  1.00  0.00    -0.237 OA
ATOM    108  O   UNL A   1      43.738  32.370  25.998  1.00  0.00    -0.744 OA
ENDBRANCH 101 105
ENDBRANCH  75  98
ENDBRANCH  49  50
ENDBRANCH  41  44
ENDBRANCH  39  40
ENDBRANCH  38  39
ENDBRANCH   1  38
TORSDOF 21
ENDMDL
MODEL 2
REMARK VINA RESULT:      -8.7      3.337     10.887
REMARK SMILES COc1cc(OC)c([C@H]2CC(=O)Nc3c(C(=O)NCCCCCCNC(=O)c4ccc(-c5c6nc(c(-c7cc(S(=O)(=O)[O-])ccc7F)c7ccc([nH]7)c(-c7cc(S(=O)(=O)[O-])ccc7F)c7nc(c(-c8cc(S(=O)(=O)[O-])ccc8F)c8ccc5[nH]8)C=C7)C=C6)cc4)cn(-c4ccccc4)c32)cc1OC
REMARK SMILES IDX 22 1 21 2 20 3 19 4 18 5 16 6 17 7 15 9 9 10 10 11 99 12
REMARK SMILES IDX 11 13 14 14 92 15 12 16 13 17 91 18 8 20 3 21 4 22 101 23
REMARK SMILES IDX 5 24 100 25 2 26 1 27 102 28 103 29 6 30 7 31 93 32 94 33
REMARK SMILES IDX 98 34 95 35 97 36 96 37 23 38 24 39 25 40 26 41 27 43 28 44
REMARK SMILES IDX 29 45 90 46 30 47 89 48 31 49 32 50 33 51 83 52 34 53 88 54
REMARK SMILES IDX 82 55 84 56 35 57 87 58 81 59 80 60 36 62 68 63 48 64 67 65
REMARK SMILES IDX 49 66 52 67 66 68 85 69 50 70 51 71 65 73 86 74 53 75 37 76
REMARK SMILES IDX 38 77 46 78 39 79 45 80 47 81 44 82 40 83 41 84 42 85 43 86
REMARK SMILES IDX 69 87 70 88 78 89 71 90 77 91 79 92 76 93 72 94 73 95 74 96
REMARK SMILES IDX 75 97 54 98 55 99 63 100 56 101 62 102 64 103 61 104 57 105
REMARK SMILES IDX 58 106 59 107 60 108
REMARK H PARENT 18 8 13 19 25 42 84 61 52 72
REMARK Flexibility Score: inf
ROOT
ATOM      1  C   UNL A   1      40.084  26.506  28.471  1.00  0.00     0.002 C 
ENDROOT
BRANCH   1   2
ATOM      2  C   UNL A   1      39.636  27.486  27.373  1.00  0.00     0.002 C 
BRANCH   2   3
ATOM      3  C   UNL A   1      39.656  28.954  27.795  1.00  0.00     0.021 C 
BRANCH   3   4
ATOM      4  C   UNL A   1      38.256  29.588  27.850  1.00  0.00     0.116 C 
BRANCH   4   5
ATOM      5  N   UNL A   1      37.535  29.158  29.021  1.00  0.00    -0.352 N 
ATOM      6  C   UNL A   1      37.532  29.526  30.337  1.00  0.00     0.254 C 
ATOM      7  O   UNL A   1      36.670  28.959  31.018  1.00  0.00    -0.269 OA
ATOM      8  H   UNL A   1      36.898  28.432  28.828  1.00  0.00     0.163 HD
BRANCH   6   9
ATOM      9  C   UNL A   1      38.412  30.534  30.948  1.00  0.00     0.081 A 
ATOM     10  C   UNL A   1      39.731  33.635  32.625  1.00  0.00     0.082 C 
ATOM     11  C   UNL A   1      38.645  34.599  32.100  1.00  0.00     0.115 C 
ATOM     12  C   UNL A   1      39.538  32.280  31.956  1.00  0.00     0.055 A 
ATOM     13  C   UNL A   1      37.293  33.974  32.055  1.00  0.00     0.225 C 
ATOM     14  C   UNL A   1      38.312  31.862  31.451  1.00  0.00     0.076 A 
ATOM     15  N   UNL A   1      40.409  31.216  31.831  1.00  0.00    -0.317 N 
ATOM     16  O   UNL A   1      36.261  34.578  32.338  1.00  0.00    -0.275 OA
ATOM     17  N   UNL A   1      37.242  32.711  31.560  1.00  0.00    -0.324 N 
ATOM     18  C   UNL A   1      39.756  30.223  31.135  1.00  0.00     0.107 A 
ATOM     19  H   UNL A   1      36.367  32.379  31.255  1.00  0.00     0.170 HD
BRANCH  10  20
ATOM     20  C   UNL A   1      41.014  34.451  32.485  1.00  0.00     0.008 A 
ATOM     21  C   UNL A   1      43.712  35.340  32.385  1.00  0.00     0.164 A 
ATOM     22  C   UNL A   1      43.035  34.957  31.222  1.00  0.00     0.097 A 
ATOM     23  C   UNL A   1      43.030  35.365  33.599  1.00  0.00     0.161 A 
ATOM     24  C   UNL A   1      41.691  34.547  31.248  1.00  0.00     0.126 A 
ATOM     25  C   UNL A   1      41.709  34.886  33.633  1.00  0.00     0.058 A 
BRANCH  21  26
ATOM     26  O   UNL A   1      45.015  35.734  32.240  1.00  0.00    -0.493 OA
ATOM     27  C   UNL A   1      45.907  34.613  32.217  1.00  0.00     0.278 C 
ENDBRANCH  21  26
BRANCH  23  28
ATOM     28  O   UNL A   1      43.455  35.790  34.826  1.00  0.00    -0.493 OA
ATOM     29  C   UNL A   1      44.054  34.867  35.718  1.00  0.00     0.278 C 
ENDBRANCH  23  28
BRANCH  24  30
ATOM     30  O   UNL A   1      41.268  34.109  30.017  1.00  0.00    -0.496 OA
ATOM     31  C   UNL A   1      40.831  35.047  29.045  1.00  0.00     0.278 C 
ENDBRANCH  24  30
ENDBRANCH  10  20
BRANCH  15  32
ATOM     32  C   UNL A   1      41.731  31.080  32.311  1.00  0.00     0.045 A 
ATOM     33  C   UNL A   1      41.993  31.083  33.683  1.00  0.00     0.026 A 
ATOM     34  C   UNL A   1      42.779  30.968  31.385  1.00  0.00     0.026 A 
ATOM     35  C   UNL A   1      43.313  31.015  34.126  1.00  0.00     0.002 A 
ATOM     36  C   UNL A   1      44.095  30.941  31.837  1.00  0.00     0.002 A 
ATOM     37  C   UNL A   1      44.363  30.968  33.206  1.00  0.00     0.000 A 
ENDBRANCH  15  32
ENDBRANCH   6   9
ENDBRANCH   4   5
ENDBRANCH   3   4
ENDBRANCH   2   3
ENDBRANCH   1   2
BRANCH   1  38
ATOM     38  C   UNL A   1      39.222  25.246  28.656  1.00  0.00     0.021 C 
BRANCH  38  39
ATOM     39  C   UNL A   1      38.826  24.600  27.338  1.00  0.00     0.116 C 
BRANCH  39  40
ATOM     40  N   UNL A   1      39.366  23.242  27.226  1.00  0.00    -0.352 N 
ATOM     41  C   UNL A   1      40.594  22.817  26.747  1.00  0.00     0.251 C 
ATOM     42  H   UNL A   1      38.767  22.525  27.536  1.00  0.00     0.163 HD
ATOM     43  O   UNL A   1      40.751  21.666  26.384  1.00  0.00    -0.269 OA
BRANCH  41  44
ATOM     44  C   UNL A   1      41.701  23.790  26.705  1.00  0.00     0.039 A 
ATOM     45  C   UNL A   1      41.835  24.730  25.679  1.00  0.00     0.014 A 
ATOM     46  C   UNL A   1      42.612  23.751  27.753  1.00  0.00     0.014 A 
ATOM     47  C   UNL A   1      42.874  25.658  25.760  1.00  0.00     0.010 A 
ATOM     48  C   UNL A   1      43.462  24.795  27.952  1.00  0.00     0.010 A 
ATOM     49  C   UNL A   1      43.679  25.679  26.908  1.00  0.00    -0.014 A 
BRANCH  49  50
ATOM     50  C   UNL A   1      44.715  26.674  27.134  1.00  0.00     0.031 A 
ATOM     51  C   UNL A   1      45.999  26.344  26.470  1.00  0.00     0.074 A 
ATOM     52  C   UNL A   1      44.436  27.898  27.639  1.00  0.00     0.049 A 
ATOM     53  N   UNL A   1      47.081  25.918  27.028  1.00  0.00    -0.248 NA
ATOM     54  C   UNL A   1      46.022  26.261  24.999  1.00  0.00     0.031 C 
ATOM     55  C   UNL A   1      43.131  28.455  28.022  1.00  0.00     0.029 A 
ATOM     56  N   UNL A   1      45.261  28.962  27.813  1.00  0.00    -0.354 N 
ATOM     57  C   UNL A   1      48.009  25.795  26.001  1.00  0.00     0.074 A 
ATOM     58  C   UNL A   1      47.236  25.746  24.793  1.00  0.00     0.031 C 
ATOM     59  C   UNL A   1      43.226  29.798  28.158  1.00  0.00     0.029 A 
ATOM     60  C   UNL A   1      44.622  30.182  28.036  1.00  0.00     0.049 A 
ATOM     61  H   UNL A   1      46.242  28.878  27.785  1.00  0.00     0.167 HD
ATOM     62  C   UNL A   1      49.330  26.046  26.227  1.00  0.00     0.034 A 
ATOM     63  C   UNL A   1      45.201  31.415  28.094  1.00  0.00     0.034 A 
ATOM     64  C   UNL A   1      49.586  26.124  27.655  1.00  0.00     0.049 A 
ATOM     65  C   UNL A   1      46.638  31.178  28.394  1.00  0.00     0.074 A 
ATOM     66  C   UNL A   1      49.421  25.255  28.718  1.00  0.00     0.029 A 
ATOM     67  N   UNL A   1      49.687  27.380  28.220  1.00  0.00    -0.354 N 
ATOM     68  N   UNL A   1      47.050  30.641  29.512  1.00  0.00    -0.248 NA
ATOM     69  C   UNL A   1      47.550  31.026  27.268  1.00  0.00     0.031 C 
ATOM     70  C   UNL A   1      48.921  26.069  29.780  1.00  0.00     0.029 A 
ATOM     71  C   UNL A   1      48.909  27.399  29.353  1.00  0.00     0.049 A 
ATOM     72  H   UNL A   1      50.222  28.130  27.873  1.00  0.00     0.167 HD
ATOM     73  C   UNL A   1      48.020  29.722  29.138  1.00  0.00     0.074 A 
ATOM     74  C   UNL A   1      48.352  30.072  27.754  1.00  0.00     0.031 C 
ATOM     75  C   UNL A   1      48.241  28.585  29.865  1.00  0.00     0.034 A 
BRANCH  62  76
ATOM     76  C   UNL A   1      50.298  26.635  25.216  1.00  0.00     0.023 A 
ATOM     77  C   UNL A   1      49.721  27.361  24.157  1.00  0.00     0.031 A 
ATOM     78  C   UNL A   1      51.663  26.313  25.053  1.00  0.00     0.131 A 
ATOM     79  C   UNL A   1      50.417  27.578  22.957  1.00  0.00     0.055 A 
ATOM     80  C   UNL A   1      52.375  26.590  23.879  1.00  0.00     0.041 A 
ATOM     81  F   UNL A   1      52.380  25.660  25.971  1.00  0.00    -0.206 F 
ATOM     82  C   UNL A   1      51.741  27.186  22.806  1.00  0.00     0.022 A 
BRANCH  79  83
ATOM     83  S   UNL A   1      49.482  28.196  21.538  1.00  0.00     0.124 S 
ATOM     84  O   UNL A   1      49.726  27.146  20.553  1.00  0.00    -0.237 OA
ATOM     85  O   UNL A   1      48.130  28.271  22.081  1.00  0.00    -0.237 OA
ATOM     86  O   UNL A   1      50.114  29.481  21.253  1.00  0.00    -0.744 OA
ENDBRANCH  79  83
ENDBRANCH  62  76
BRANCH  63  87
ATOM     87  C   UNL A   1      44.666  32.706  27.558  1.00  0.00     0.023 A 
ATOM     88  C   UNL A   1      44.900  33.968  28.158  1.00  0.00     0.031 A 
ATOM     89  C   UNL A   1      44.098  32.727  26.262  1.00  0.00     0.131 A 
ATOM     90  C   UNL A   1      44.571  35.165  27.466  1.00  0.00     0.055 A 
ATOM     91  C   UNL A   1      43.782  33.908  25.587  1.00  0.00     0.041 A 
ATOM     92  F   UNL A   1      43.911  31.593  25.570  1.00  0.00    -0.206 F 
ATOM     93  C   UNL A   1      44.025  35.134  26.182  1.00  0.00     0.022 A 
BRANCH  90  94
ATOM     94  S   UNL A   1      44.918  36.806  28.194  1.00  0.00     0.124 S 
ATOM     95  O   UNL A   1      45.917  36.495  29.209  1.00  0.00    -0.237 OA
ATOM     96  O   UNL A   1      45.380  37.572  27.041  1.00  0.00    -0.237 OA
ATOM     97  O   UNL A   1      43.620  37.228  28.723  1.00  0.00    -0.744 OA
ENDBRANCH  90  94
ENDBRANCH  63  87
BRANCH  75  98
ATOM     98  C   UNL A   1      47.591  28.465  31.233  1.00  0.00     0.023 A 
ATOM     99  C   UNL A   1      46.323  27.889  31.492  1.00  0.00     0.031 A 
ATOM    100  C   UNL A   1      48.368  28.843  32.343  1.00  0.00     0.131 A 
ATOM    101  C   UNL A   1      45.879  27.723  32.821  1.00  0.00     0.055 A 
ATOM    102  C   UNL A   1      47.936  28.654  33.655  1.00  0.00     0.041 A 
ATOM    103  F   UNL A   1      49.590  29.372  32.168  1.00  0.00    -0.206 F 
ATOM    104  C   UNL A   1      46.688  28.098  33.900  1.00  0.00     0.022 A 
BRANCH 101 105
ATOM    105  S   UNL A   1      44.228  27.034  33.181  1.00  0.00     0.124 S 
ATOM    106  O   UNL A   1      44.453  25.594  33.189  1.00  0.00    -0.237 OA
ATOM    107  O   UNL A   1      43.904  27.639  34.471  1.00  0.00    -0.237 OA
ATOM    108  O   UNL A   1      43.409  27.515  32.066  1.00  0.00    -0.744 OA
ENDBRANCH 101 105
ENDBRANCH  75  98
ENDBRANCH  49  50
ENDBRANCH  41  44
ENDBRANCH  39  40
ENDBRANCH  38  39
ENDBRANCH   1  38
TORSDOF 21
ENDMDL
MODEL 3
REMARK VINA RESULT:      -8.6      1.399      2.010
REMARK SMILES COc1cc(OC)c([C@H]2CC(=O)Nc3c(C(=O)NCCCCCCNC(=O)c4ccc(-c5c6nc(c(-c7cc(S(=O)(=O)[O-])ccc7F)c7ccc([nH]7)c(-c7cc(S(=O)(=O)[O-])ccc7F)c7nc(c(-c8cc(S(=O)(=O)[O-])ccc8F)c8ccc5[nH]8)C=C7)C=C6)cc4)cn(-c4ccccc4)c32)cc1OC
REMARK SMILES IDX 22 1 21 2 20 3 19 4 18 5 16 6 17 7 15 9 9 10 10 11 99 12
REMARK SMILES IDX 11 13 14 14 92 15 12 16 13 17 91 18 8 20 3 21 4 22 101 23
REMARK SMILES IDX 5 24 100 25 2 26 1 27 102 28 103 29 6 30 7 31 93 32 94 33
REMARK SMILES IDX 98 34 95 35 97 36 96 37 23 38 24 39 25 40 26 41 27 43 28 44
REMARK SMILES IDX 29 45 90 46 30 47 89 48 31 49 32 50 33 51 83 52 34 53 88 54
REMARK SMILES IDX 82 55 84 56 35 57 87 58 81 59 80 60 36 62 68 63 48 64 67 65
REMARK SMILES IDX 49 66 52 67 66 68 85 69 50 70 51 71 65 73 86 74 53 75 37 76
REMARK SMILES IDX 38 77 46 78 39 79 45 80 47 81 44 82 40 83 41 84 42 85 43 86
REMARK SMILES IDX 69 87 70 88 78 89 71 90 77 91 79 92 76 93 72 94 73 95 74 96
REMARK SMILES IDX 75 97 54 98 55 99 63 100 56 101 62 102 64 103 61 104 57 105
REMARK SMILES IDX 58 106 59 107 60 108
REMARK H PARENT 18 8 13 19 25 42 84 61 52 72
REMARK Flexibility Score: inf
ROOT
ATOM      1  C   UNL A   1      43.790  24.119  25.529  1.00  0.00     0.002 C 
ENDROOT
BRANCH   1   2
ATOM      2  C   UNL A   1      42.980  22.826  25.722  1.00  0.00     0.002 C 
BRANCH   2   3
ATOM      3  C   UNL A   1      43.019  22.267  27.143  1.00  0.00     0.021 C 
BRANCH   3   4
ATOM      4  C   UNL A   1      42.385  23.207  28.182  1.00  0.00     0.116 C 
BRANCH   4   5
ATOM      5  N   UNL A   1      42.868  22.919  29.509  1.00  0.00    -0.352 N 
ATOM      6  C   UNL A   1      43.827  23.456  30.321  1.00  0.00     0.254 C 
ATOM      7  O   UNL A   1      43.863  22.964  31.454  1.00  0.00    -0.269 OA
ATOM      8  H   UNL A   1      42.399  22.160  29.926  1.00  0.00     0.163 HD
BRANCH   6   9
ATOM      9  C   UNL A   1      44.737  24.555  29.963  1.00  0.00     0.081 A 
ATOM     10  C   UNL A   1      47.177  27.418  30.114  1.00  0.00     0.082 C 
ATOM     11  C   UNL A   1      46.742  27.951  31.497  1.00  0.00     0.115 C 
ATOM     12  C   UNL A   1      46.218  26.307  29.702  1.00  0.00     0.055 A 
ATOM     13  C   UNL A   1      46.406  26.860  32.455  1.00  0.00     0.225 C 
ATOM     14  C   UNL A   1      45.494  25.562  30.626  1.00  0.00     0.076 A 
ATOM     15  N   UNL A   1      45.975  25.756  28.460  1.00  0.00    -0.317 N 
ATOM     16  O   UNL A   1      46.686  26.903  33.651  1.00  0.00    -0.275 OA
ATOM     17  N   UNL A   1      45.652  25.846  31.957  1.00  0.00    -0.324 N 
ATOM     18  C   UNL A   1      45.012  24.784  28.617  1.00  0.00     0.107 A 
ATOM     19  H   UNL A   1      45.182  25.271  32.602  1.00  0.00     0.170 HD
BRANCH  10  20
ATOM     20  C   UNL A   1      47.365  28.693  29.296  1.00  0.00     0.008 A 
ATOM     21  C   UNL A   1      47.587  30.623  27.221  1.00  0.00     0.164 A 
ATOM     22  C   UNL A   1      46.388  30.452  27.922  1.00  0.00     0.097 A 
ATOM     23  C   UNL A   1      48.713  29.896  27.600  1.00  0.00     0.161 A 
ATOM     24  C   UNL A   1      46.270  29.527  28.973  1.00  0.00     0.126 A 
ATOM     25  C   UNL A   1      48.572  28.921  28.602  1.00  0.00     0.058 A 
BRANCH  21  26
ATOM     26  O   UNL A   1      47.592  31.562  26.225  1.00  0.00    -0.493 OA
ATOM     27  C   UNL A   1      46.383  32.332  26.218  1.00  0.00     0.278 C 
ENDBRANCH  21  26
BRANCH  23  28
ATOM     28  O   UNL A   1      49.993  29.970  27.130  1.00  0.00    -0.493 OA
ATOM     29  C   UNL A   1      50.836  28.834  27.210  1.00  0.00     0.278 C 
ENDBRANCH  23  28
BRANCH  24  30
ATOM     30  O   UNL A   1      44.980  29.444  29.437  1.00  0.00    -0.496 OA
ATOM     31  C   UNL A   1      43.911  29.260  28.522  1.00  0.00     0.278 C 
ENDBRANCH  24  30
ENDBRANCH  10  20
BRANCH  15  32
ATOM     32  C   UNL A   1      46.569  26.060  27.214  1.00  0.00     0.045 A 
ATOM     33  C   UNL A   1      47.748  25.425  26.815  1.00  0.00     0.026 A 
ATOM     34  C   UNL A   1      45.967  27.028  26.396  1.00  0.00     0.026 A 
ATOM     35  C   UNL A   1      48.347  25.792  25.611  1.00  0.00     0.002 A 
ATOM     36  C   UNL A   1      46.596  27.416  25.216  1.00  0.00     0.002 A 
ATOM     37  C   UNL A   1      47.786  26.801  24.825  1.00  0.00     0.000 A 
ENDBRANCH  15  32
ENDBRANCH   6   9
ENDBRANCH   4   5
ENDBRANCH   3   4
ENDBRANCH   2   3
ENDBRANCH   1   2
BRANCH   1  38
ATOM     38  C   UNL A   1      43.008  25.347  25.030  1.00  0.00     0.021 C 
BRANCH  38  39
ATOM     39  C   UNL A   1      42.035  25.890  26.063  1.00  0.00     0.116 C 
BRANCH  39  40
ATOM     40  N   UNL A   1      40.688  25.347  25.865  1.00  0.00    -0.352 N 
ATOM     41  C   UNL A   1      39.586  25.390  26.705  1.00  0.00     0.251 C 
ATOM     42  H   UNL A   1      40.544  24.882  25.009  1.00  0.00     0.163 HD
ATOM     43  O   UNL A   1      38.673  24.598  26.565  1.00  0.00    -0.269 OA
BRANCH  41  44
ATOM     44  C   UNL A   1      39.549  26.425  27.754  1.00  0.00     0.039 A 
ATOM     45  C   UNL A   1      39.368  26.117  29.106  1.00  0.00     0.014 A 
ATOM     46  C   UNL A   1      39.722  27.740  27.344  1.00  0.00     0.014 A 
ATOM     47  C   UNL A   1      39.417  27.155  30.035  1.00  0.00     0.010 A 
ATOM     48  C   UNL A   1      40.011  28.704  28.262  1.00  0.00     0.010 A 
ATOM     49  C   UNL A   1      39.744  28.447  29.596  1.00  0.00    -0.014 A 
BRANCH  49  50
ATOM     50  C   UNL A   1      39.926  29.572  30.500  1.00  0.00     0.031 A 
ATOM     51  C   UNL A   1      38.676  30.327  30.753  1.00  0.00     0.074 A 
ATOM     52  C   UNL A   1      41.043  29.715  31.250  1.00  0.00     0.049 A 
ATOM     53  N   UNL A   1      38.355  31.486  30.285  1.00  0.00    -0.248 NA
ATOM     54  C   UNL A   1      37.560  29.628  31.414  1.00  0.00     0.031 C 
ATOM     55  C   UNL A   1      42.215  28.832  31.327  1.00  0.00     0.029 A 
ATOM     56  N   UNL A   1      41.321  30.641  32.204  1.00  0.00    -0.354 N 
ATOM     57  C   UNL A   1      37.114  31.782  30.838  1.00  0.00     0.074 A 
ATOM     58  C   UNL A   1      36.579  30.523  31.271  1.00  0.00     0.031 C 
ATOM     59  C   UNL A   1      42.950  29.138  32.421  1.00  0.00     0.029 A 
ATOM     60  C   UNL A   1      42.401  30.335  33.033  1.00  0.00     0.049 A 
ATOM     61  H   UNL A   1      40.797  31.469  32.303  1.00  0.00     0.167 HD
ATOM     62  C   UNL A   1      36.784  33.068  31.152  1.00  0.00     0.034 A 
ATOM     63  C   UNL A   1      42.797  31.011  34.150  1.00  0.00     0.034 A 
ATOM     64  C   UNL A   1      37.736  33.988  30.553  1.00  0.00     0.049 A 
ATOM     65  C   UNL A   1      42.218  32.375  34.029  1.00  0.00     0.074 A 
ATOM     66  C   UNL A   1      38.140  34.256  29.258  1.00  0.00     0.029 A 
ATOM     67  N   UNL A   1      38.734  34.495  31.361  1.00  0.00    -0.354 N 
ATOM     68  N   UNL A   1      42.560  33.208  33.083  1.00  0.00    -0.248 NA
ATOM     69  C   UNL A   1      40.899  32.606  34.604  1.00  0.00     0.031 C 
ATOM     70  C   UNL A   1      39.555  34.428  29.346  1.00  0.00     0.029 A 
ATOM     71  C   UNL A   1      39.927  34.367  30.692  1.00  0.00     0.049 A 
ATOM     72  H   UNL A   1      38.612  34.879  32.259  1.00  0.00     0.167 HD
ATOM     73  C   UNL A   1      41.368  33.763  32.639  1.00  0.00     0.074 A 
ATOM     74  C   UNL A   1      40.389  33.425  33.676  1.00  0.00     0.031 C 
ATOM     75  C   UNL A   1      41.212  34.173  31.344  1.00  0.00     0.034 A 
BRANCH  62  76
ATOM     76  C   UNL A   1      35.899  33.490  32.312  1.00  0.00     0.023 A 
ATOM     77  C   UNL A   1      34.791  34.295  31.982  1.00  0.00     0.031 A 
ATOM     78  C   UNL A   1      36.200  33.414  33.689  1.00  0.00     0.131 A 
ATOM     79  C   UNL A   1      34.162  35.098  32.947  1.00  0.00     0.055 A 
ATOM     80  C   UNL A   1      35.527  34.167  34.658  1.00  0.00     0.041 A 
ATOM     81  F   UNL A   1      37.194  32.672  34.184  1.00  0.00    -0.206 F 
ATOM     82  C   UNL A   1      34.530  35.049  34.284  1.00  0.00     0.022 A 
BRANCH  79  83
ATOM     83  S   UNL A   1      32.996  36.353  32.368  1.00  0.00     0.124 S 
ATOM     84  O   UNL A   1      31.898  35.524  31.880  1.00  0.00    -0.237 OA
ATOM     85  O   UNL A   1      32.740  37.110  33.589  1.00  0.00    -0.237 OA
ATOM     86  O   UNL A   1      33.749  37.063  31.339  1.00  0.00    -0.744 OA
ENDBRANCH  79  83
ENDBRANCH  62  76
BRANCH  63  87
ATOM     87  C   UNL A   1      43.316  30.438  35.432  1.00  0.00     0.023 A 
ATOM     88  C   UNL A   1      43.279  29.058  35.752  1.00  0.00     0.031 A 
ATOM     89  C   UNL A   1      44.101  31.254  36.279  1.00  0.00     0.131 A 
ATOM     90  C   UNL A   1      44.004  28.559  36.867  1.00  0.00     0.055 A 
ATOM     91  C   UNL A   1      44.815  30.755  37.371  1.00  0.00     0.041 A 
ATOM     92  F   UNL A   1      44.272  32.559  36.020  1.00  0.00    -0.206 F 
ATOM     93  C   UNL A   1      44.777  29.403  37.666  1.00  0.00     0.022 A 
BRANCH  90  94
ATOM     94  S   UNL A   1      44.021  26.774  37.266  1.00  0.00     0.124 S 
ATOM     95  O   UNL A   1      45.172  26.662  38.153  1.00  0.00    -0.237 OA
ATOM     96  O   UNL A   1      42.710  26.574  37.872  1.00  0.00    -0.237 OA
ATOM     97  O   UNL A   1      44.191  26.133  35.961  1.00  0.00    -0.744 OA
ENDBRANCH  90  94
ENDBRANCH  63  87
BRANCH  75  98
ATOM     98  C   UNL A   1      42.446  34.255  30.459  1.00  0.00     0.023 A 
ATOM     99  C   UNL A   1      43.379  35.320  30.449  1.00  0.00     0.031 A 
ATOM    100  C   UNL A   1      42.749  33.122  29.682  1.00  0.00     0.131 A 
ATOM    101  C   UNL A   1      44.553  35.224  29.671  1.00  0.00     0.055 A 
ATOM    102  C   UNL A   1      43.921  33.022  28.935  1.00  0.00     0.041 A 
ATOM    103  F   UNL A   1      41.918  32.066  29.668  1.00  0.00    -0.206 F 
ATOM    104  C   UNL A   1      44.826  34.075  28.923  1.00  0.00     0.022 A 
BRANCH 101 105
ATOM    105  S   UNL A   1      45.745  36.604  29.597  1.00  0.00     0.124 S 
ATOM    106  O   UNL A   1      46.579  36.400  30.775  1.00  0.00    -0.237 OA
ATOM    107  O   UNL A   1      46.398  36.392  28.307  1.00  0.00    -0.237 OA
ATOM    108  O   UNL A   1      44.893  37.794  29.655  1.00  0.00    -0.744 OA
ENDBRANCH 101 105
ENDBRANCH  75  98
ENDBRANCH  49  50
ENDBRANCH  41  44
ENDBRANCH  39  40
ENDBRANCH  38  39
ENDBRANCH   1  38
TORSDOF 21
ENDMDL
