MODEL 1
REMARK VINA RESULT:      -9.9      0.000      0.000
REMARK SMILES Cc1nccn1CCC[NH+]1CCC2(CC1)[C@@H](C(=O)NCCCCCCNC(=O)c1ccc(-c3c4nc(c(-c5cc(S(=O)(=O)[O-])ccc5F)c5ccc([nH]5)c(-c5cc(S(=O)(=O)[O-])ccc5F)c5nc(c(-c6cc(S(=O)(=O)[O-])ccc6F)c6ccc3[nH]6)C=C5)C=C4)cc1)CC(=O)N2C
REMARK SMILES IDX 22 1 21 2 20 3 19 4 17 5 18 6 16 8 10 9 11 10 15 11 12 13
REMARK SMILES IDX 14 14 13 15 95 16 92 17 93 18 96 19 94 20 9 21 8 22 7 23
REMARK SMILES IDX 6 24 1 25 2 26 3 27 4 28 5 29 23 30 24 31 25 32 26 33 27 34
REMARK SMILES IDX 28 36 29 37 30 38 91 39 31 40 90 41 32 42 33 43 34 44 84 45
REMARK SMILES IDX 35 46 89 47 83 48 85 49 36 50 88 51 82 52 81 53 37 55 69 56
REMARK SMILES IDX 49 57 68 58 50 59 53 60 67 61 86 62 51 63 52 64 66 66 87 67
REMARK SMILES IDX 54 68 38 69 39 70 47 71 40 72 46 73 48 74 45 75 41 76 42 77
REMARK SMILES IDX 43 78 44 79 70 80 71 81 79 82 72 83 78 84 80 85 77 86 73 87
REMARK SMILES IDX 74 88 75 89 76 90 55 91 56 92 64 93 57 94 63 95 65 96 62 97
REMARK SMILES IDX 58 98 59 99 60 100 61 101
REMARK H PARENT 19 7 10 12 26 35 85 54 53 65
REMARK Flexibility Score: inf
ROOT
ATOM      1  C   UNL A   1      45.213  24.361  25.734  1.00  0.00     0.002 C 
ENDROOT
BRANCH   1   2
ATOM      2  C   UNL A   1      44.447  25.626  25.355  1.00  0.00     0.021 C 
BRANCH   2   3
ATOM      3  C   UNL A   1      45.052  26.962  25.810  1.00  0.00     0.116 C 
BRANCH   3   4
ATOM      4  N   UNL A   1      45.544  27.731  24.688  1.00  0.00    -0.356 N 
ATOM      5  C   UNL A   1      46.780  27.848  24.128  1.00  0.00     0.226 C 
ATOM      6  O   UNL A   1      46.848  28.681  23.217  1.00  0.00    -0.275 OA
ATOM      7  H   UNL A   1      44.852  28.275  24.246  1.00  0.00     0.163 HD
BRANCH   5   8
ATOM      8  C   UNL A   1      47.956  26.889  24.431  1.00  0.00     0.114 C 
ATOM      9  N   UNL A   1      48.174  26.091  28.488  1.00  0.00    -0.335 N 
ATOM     10  C   UNL A   1      49.176  25.347  27.774  1.00  0.00     0.264 C 
ATOM     11  C   UNL A   1      48.314  27.523  28.279  1.00  0.00     0.264 C 
ATOM     12  H   UNL A   1      48.415  25.889  29.458  1.00  0.00     0.348 HD
ATOM     13  C   UNL A   1      48.888  25.453  26.288  1.00  0.00     0.091 C 
ATOM     14  C   UNL A   1      48.399  27.975  26.807  1.00  0.00     0.091 C 
ATOM     15  C   UNL A   1      48.826  26.920  25.754  1.00  0.00     0.065 C 
ATOM     16  N   UNL A   1      50.178  27.253  25.264  1.00  0.00    -0.339 N 
ATOM     17  C   UNL A   1      48.985  26.957  23.276  1.00  0.00     0.116 C 
ATOM     18  C   UNL A   1      50.337  27.105  23.902  1.00  0.00     0.223 C 
ATOM     19  C   UNL A   1      51.338  27.450  26.118  1.00  0.00     0.147 C 
ATOM     20  O   UNL A   1      51.387  27.091  23.293  1.00  0.00    -0.275 OA
BRANCH   9  21
ATOM     21  C   UNL A   1      46.878  25.531  28.838  1.00  0.00     0.264 C 
BRANCH  21  22
ATOM     22  C   UNL A   1      45.650  26.404  29.192  1.00  0.00     0.083 C 
BRANCH  22  23
ATOM     23  C   UNL A   1      45.423  26.901  30.622  1.00  0.00     0.129 C 
BRANCH  23  24
ATOM     24  N   UNL A   1      45.410  25.891  31.656  1.00  0.00    -0.335 N 
ATOM     25  C   UNL A   1      47.517  26.630  32.848  1.00  0.00     0.087 C 
ATOM     26  C   UNL A   1      46.386  25.699  32.609  1.00  0.00     0.105 A 
ATOM     27  N   UNL A   1      46.153  24.592  33.288  1.00  0.00    -0.242 NA
ATOM     28  C   UNL A   1      44.934  24.144  32.857  1.00  0.00     0.131 A 
ATOM     29  C   UNL A   1      44.415  24.994  31.911  1.00  0.00     0.107 A 
ENDBRANCH  23  24
ENDBRANCH  22  23
ENDBRANCH  21  22
ENDBRANCH   9  21
ENDBRANCH   5   8
ENDBRANCH   3   4
ENDBRANCH   2   3
ENDBRANCH   1   2
BRANCH   1  30
ATOM     30  C   UNL A   1      45.067  23.151  24.802  1.00  0.00     0.002 C 
BRANCH  30  31
ATOM     31  C   UNL A   1      43.868  22.217  25.025  1.00  0.00     0.021 C 
BRANCH  31  32
ATOM     32  C   UNL A   1      42.561  22.921  25.349  1.00  0.00     0.116 C 
BRANCH  32  33
ATOM     33  N   UNL A   1      41.728  22.184  26.294  1.00  0.00    -0.352 N 
ATOM     34  C   UNL A   1      41.251  22.597  27.525  1.00  0.00     0.251 C 
ATOM     35  H   UNL A   1      41.472  21.274  26.020  1.00  0.00     0.163 HD
ATOM     36  O   UNL A   1      40.875  21.767  28.346  1.00  0.00    -0.269 OA
BRANCH  34  37
ATOM     37  C   UNL A   1      41.193  24.041  27.832  1.00  0.00     0.039 A 
ATOM     38  C   UNL A   1      40.106  24.835  27.447  1.00  0.00     0.014 A 
ATOM     39  C   UNL A   1      42.273  24.616  28.497  1.00  0.00     0.014 A 
ATOM     40  C   UNL A   1      40.107  26.188  27.783  1.00  0.00     0.010 A 
ATOM     41  C   UNL A   1      42.195  25.892  28.982  1.00  0.00     0.010 A 
ATOM     42  C   UNL A   1      41.159  26.706  28.556  1.00  0.00    -0.014 A 
BRANCH  42  43
ATOM     43  C   UNL A   1      41.152  28.072  29.061  1.00  0.00     0.031 A 
ATOM     44  C   UNL A   1      42.171  28.936  28.421  1.00  0.00     0.074 A 
ATOM     45  C   UNL A   1      40.168  28.565  29.846  1.00  0.00     0.049 A 
ATOM     46  N   UNL A   1      43.260  29.369  28.958  1.00  0.00    -0.248 NA
ATOM     47  C   UNL A   1      42.089  29.183  26.971  1.00  0.00     0.031 C 
ATOM     48  C   UNL A   1      38.958  27.886  30.324  1.00  0.00     0.029 A 
ATOM     49  N   UNL A   1      39.981  29.835  30.298  1.00  0.00    -0.354 N 
ATOM     50  C   UNL A   1      43.853  30.182  28.003  1.00  0.00     0.074 A 
ATOM     51  C   UNL A   1      43.241  29.825  26.752  1.00  0.00     0.031 C 
ATOM     52  C   UNL A   1      38.071  28.800  30.778  1.00  0.00     0.029 A 
ATOM     53  C   UNL A   1      38.696  30.113  30.764  1.00  0.00     0.049 A 
ATOM     54  H   UNL A   1      40.701  30.508  30.297  1.00  0.00     0.167 HD
ATOM     55  C   UNL A   1      44.587  31.266  28.378  1.00  0.00     0.034 A 
ATOM     56  C   UNL A   1      38.176  31.333  31.084  1.00  0.00     0.034 A 
ATOM     57  C   UNL A   1      44.885  31.214  29.797  1.00  0.00     0.049 A 
ATOM     58  C   UNL A   1      39.339  32.209  31.392  1.00  0.00     0.074 A 
ATOM     59  C   UNL A   1      45.505  30.290  30.617  1.00  0.00     0.029 A 
ATOM     60  N   UNL A   1      44.143  32.016  30.640  1.00  0.00    -0.354 N 
ATOM     61  N   UNL A   1      40.129  31.999  32.410  1.00  0.00    -0.248 NA
ATOM     62  C   UNL A   1      39.933  32.965  30.299  1.00  0.00     0.031 C 
ATOM     63  C   UNL A   1      44.701  30.253  31.795  1.00  0.00     0.029 A 
ATOM     64  C   UNL A   1      43.711  31.234  31.685  1.00  0.00     0.049 A 
ATOM     65  H   UNL A   1      43.956  32.975  30.516  1.00  0.00     0.167 HD
ATOM     66  C   UNL A   1      41.411  32.161  31.905  1.00  0.00     0.074 A 
ATOM     67  C   UNL A   1      41.226  32.854  30.628  1.00  0.00     0.031 C 
ATOM     68  C   UNL A   1      42.470  31.454  32.408  1.00  0.00     0.034 A 
BRANCH  55  69
ATOM     69  C   UNL A   1      44.708  32.550  27.590  1.00  0.00     0.023 A 
ATOM     70  C   UNL A   1      44.056  33.681  28.115  1.00  0.00     0.031 A 
ATOM     71  C   UNL A   1      45.157  32.665  26.255  1.00  0.00     0.131 A 
ATOM     72  C   UNL A   1      43.774  34.793  27.306  1.00  0.00     0.055 A 
ATOM     73  C   UNL A   1      44.940  33.804  25.476  1.00  0.00     0.041 A 
ATOM     74  F   UNL A   1      45.741  31.659  25.594  1.00  0.00    -0.206 F 
ATOM     75  C   UNL A   1      44.214  34.865  25.989  1.00  0.00     0.022 A 
BRANCH  72  76
ATOM     76  S   UNL A   1      42.661  36.061  27.959  1.00  0.00     0.124 S 
ATOM     77  O   UNL A   1      41.417  35.742  27.264  1.00  0.00    -0.237 OA
ATOM     78  O   UNL A   1      42.691  35.780  29.390  1.00  0.00    -0.237 OA
ATOM     79  O   UNL A   1      43.299  37.312  27.555  1.00  0.00    -0.744 OA
ENDBRANCH  72  76
ENDBRANCH  55  69
BRANCH  56  80
ATOM     80  C   UNL A   1      36.797  31.849  30.807  1.00  0.00     0.023 A 
ATOM     81  C   UNL A   1      36.042  32.598  31.742  1.00  0.00     0.031 A 
ATOM     82  C   UNL A   1      36.293  31.817  29.486  1.00  0.00     0.131 A 
ATOM     83  C   UNL A   1      34.859  33.273  31.339  1.00  0.00     0.055 A 
ATOM     84  C   UNL A   1      35.130  32.486  29.095  1.00  0.00     0.041 A 
ATOM     85  F   UNL A   1      36.963  31.206  28.496  1.00  0.00    -0.206 F 
ATOM     86  C   UNL A   1      34.414  33.228  30.017  1.00  0.00     0.022 A 
BRANCH  83  87
ATOM     87  S   UNL A   1      33.916  34.316  32.507  1.00  0.00     0.124 S 
ATOM     88  O   UNL A   1      33.328  33.327  33.402  1.00  0.00    -0.237 OA
ATOM     89  O   UNL A   1      34.950  35.175  33.074  1.00  0.00    -0.237 OA
ATOM     90  O   UNL A   1      32.956  35.009  31.645  1.00  0.00    -0.744 OA
ENDBRANCH  83  87
ENDBRANCH  56  80
BRANCH  68  91
ATOM     91  C   UNL A   1      42.280  30.688  33.709  1.00  0.00     0.023 A 
ATOM     92  C   UNL A   1      42.063  29.293  33.813  1.00  0.00     0.031 A 
ATOM     93  C   UNL A   1      42.431  31.407  34.908  1.00  0.00     0.131 A 
ATOM     94  C   UNL A   1      41.981  28.679  35.081  1.00  0.00     0.055 A 
ATOM     95  C   UNL A   1      42.378  30.793  36.160  1.00  0.00     0.041 A 
ATOM     96  F   UNL A   1      42.664  32.729  34.885  1.00  0.00    -0.206 F 
ATOM     97  C   UNL A   1      42.142  29.428  36.251  1.00  0.00     0.022 A 
BRANCH  94  98
ATOM     98  S   UNL A   1      41.618  26.899  35.239  1.00  0.00     0.124 S 
ATOM     99  O   UNL A   1      42.879  26.258  34.885  1.00  0.00    -0.237 OA
ATOM    100  O   UNL A   1      41.212  26.782  36.637  1.00  0.00    -0.237 OA
ATOM    101  O   UNL A   1      40.536  26.687  34.274  1.00  0.00    -0.744 OA
ENDBRANCH  94  98
ENDBRANCH  68  91
ENDBRANCH  42  43
ENDBRANCH  34  37
ENDBRANCH  32  33
ENDBRANCH  31  32
ENDBRANCH  30  31
ENDBRANCH   1  30
TORSDOF 20
ENDMDL
MODEL 2
REMARK VINA RESULT:      -9.7      4.574     11.207
REMARK SMILES Cc1nccn1CCC[NH+]1CCC2(CC1)[C@@H](C(=O)NCCCCCCNC(=O)c1ccc(-c3c4nc(c(-c5cc(S(=O)(=O)[O-])ccc5F)c5ccc([nH]5)c(-c5cc(S(=O)(=O)[O-])ccc5F)c5nc(c(-c6cc(S(=O)(=O)[O-])ccc6F)c6ccc3[nH]6)C=C5)C=C4)cc1)CC(=O)N2C
REMARK SMILES IDX 22 1 21 2 20 3 19 4 17 5 18 6 16 8 10 9 11 10 15 11 12 13
REMARK SMILES IDX 14 14 13 15 95 16 92 17 93 18 96 19 94 20 9 21 8 22 7 23
REMARK SMILES IDX 6 24 1 25 2 26 3 27 4 28 5 29 23 30 24 31 25 32 26 33 27 34
REMARK SMILES IDX 28 36 29 37 30 38 91 39 31 40 90 41 32 42 33 43 34 44 84 45
REMARK SMILES IDX 35 46 89 47 83 48 85 49 36 50 88 51 82 52 81 53 37 55 69 56
REMARK SMILES IDX 49 57 68 58 50 59 53 60 67 61 86 62 51 63 52 64 66 66 87 67
REMARK SMILES IDX 54 68 38 69 39 70 47 71 40 72 46 73 48 74 45 75 41 76 42 77
REMARK SMILES IDX 43 78 44 79 70 80 71 81 79 82 72 83 78 84 80 85 77 86 73 87
REMARK SMILES IDX 74 88 75 89 76 90 55 91 56 92 64 93 57 94 63 95 65 96 62 97
REMARK SMILES IDX 58 98 59 99 60 100 61 101
REMARK H PARENT 19 7 10 12 26 35 85 54 53 65
REMARK Flexibility Score: inf
ROOT
ATOM      1  C   UNL A   1      35.543  31.438  27.622  1.00  0.00     0.002 C 
ENDROOT
BRANCH   1   2
ATOM      2  C   UNL A   1      34.266  30.603  27.670  1.00  0.00     0.021 C 
BRANCH   2   3
ATOM      3  C   UNL A   1      34.321  29.220  27.005  1.00  0.00     0.116 C 
BRANCH   3   4
ATOM      4  N   UNL A   1      34.079  29.306  25.582  1.00  0.00    -0.356 N 
ATOM      5  C   UNL A   1      33.391  28.507  24.719  1.00  0.00     0.226 C 
ATOM      6  O   UNL A   1      33.473  28.850  23.534  1.00  0.00    -0.275 OA
ATOM      7  H   UNL A   1      34.492  30.092  25.155  1.00  0.00     0.163 HD
BRANCH   5   8
ATOM      8  C   UNL A   1      32.413  27.395  25.170  1.00  0.00     0.114 C 
ATOM      9  N   UNL A   1      34.279  23.700  25.105  1.00  0.00    -0.335 N 
ATOM     10  C   UNL A   1      32.934  23.576  25.597  1.00  0.00     0.264 C 
ATOM     11  C   UNL A   1      34.315  24.272  23.768  1.00  0.00     0.264 C 
ATOM     12  H   UNL A   1      34.568  22.725  25.039  1.00  0.00     0.348 HD
ATOM     13  C   UNL A   1      32.387  24.967  25.862  1.00  0.00     0.091 C 
ATOM     14  C   UNL A   1      33.533  25.589  23.587  1.00  0.00     0.091 C 
ATOM     15  C   UNL A   1      32.419  25.911  24.617  1.00  0.00     0.065 C 
ATOM     16  N   UNL A   1      31.105  25.790  23.955  1.00  0.00    -0.339 N 
ATOM     17  C   UNL A   1      30.957  27.885  24.980  1.00  0.00     0.116 C 
ATOM     18  C   UNL A   1      30.212  26.787  24.287  1.00  0.00     0.223 C 
ATOM     19  C   UNL A   1      30.651  24.609  23.239  1.00  0.00     0.147 C 
ATOM     20  O   UNL A   1      29.018  26.791  24.067  1.00  0.00    -0.275 OA
BRANCH   9  21
ATOM     21  C   UNL A   1      35.430  23.838  25.985  1.00  0.00     0.264 C 
BRANCH  21  22
ATOM     22  C   UNL A   1      36.498  22.731  26.155  1.00  0.00     0.083 C 
BRANCH  22  23
ATOM     23  C   UNL A   1      37.847  22.822  25.440  1.00  0.00     0.129 C 
BRANCH  23  24
ATOM     24  N   UNL A   1      38.835  21.832  25.808  1.00  0.00    -0.335 N 
ATOM     25  C   UNL A   1      37.737  19.852  24.676  1.00  0.00     0.087 C 
ATOM     26  C   UNL A   1      38.758  20.481  25.550  1.00  0.00     0.105 A 
ATOM     27  N   UNL A   1      39.732  19.841  26.167  1.00  0.00    -0.242 NA
ATOM     28  C   UNL A   1      40.526  20.812  26.712  1.00  0.00     0.131 A 
ATOM     29  C   UNL A   1      40.034  22.059  26.416  1.00  0.00     0.107 A 
ENDBRANCH  23  24
ENDBRANCH  22  23
ENDBRANCH  21  22
ENDBRANCH   9  21
ENDBRANCH   5   8
ENDBRANCH   3   4
ENDBRANCH   2   3
ENDBRANCH   1   2
BRANCH   1  30
ATOM     30  C   UNL A   1      35.686  32.555  28.664  1.00  0.00     0.002 C 
BRANCH  30  31
ATOM     31  C   UNL A   1      37.104  32.941  29.109  1.00  0.00     0.021 C 
BRANCH  31  32
ATOM     32  C   UNL A   1      37.565  32.296  30.406  1.00  0.00     0.116 C 
BRANCH  32  33
ATOM     33  N   UNL A   1      36.730  31.172  30.818  1.00  0.00    -0.352 N 
ATOM     34  C   UNL A   1      36.856  29.837  30.478  1.00  0.00     0.251 C 
ATOM     35  H   UNL A   1      35.980  31.392  31.416  1.00  0.00     0.163 HD
ATOM     36  O   UNL A   1      35.899  29.080  30.603  1.00  0.00    -0.269 OA
BRANCH  34  37
ATOM     37  C   UNL A   1      38.151  29.336  29.975  1.00  0.00     0.039 A 
ATOM     38  C   UNL A   1      38.575  29.574  28.662  1.00  0.00     0.014 A 
ATOM     39  C   UNL A   1      38.944  28.583  30.836  1.00  0.00     0.014 A 
ATOM     40  C   UNL A   1      39.816  29.086  28.255  1.00  0.00     0.010 A 
ATOM     41  C   UNL A   1      40.230  28.261  30.499  1.00  0.00     0.010 A 
ATOM     42  C   UNL A   1      40.639  28.433  29.187  1.00  0.00    -0.014 A 
BRANCH  42  43
ATOM     43  C   UNL A   1      42.001  28.025  28.870  1.00  0.00     0.031 A 
ATOM     44  C   UNL A   1      42.067  26.773  28.081  1.00  0.00     0.074 A 
ATOM     45  C   UNL A   1      43.075  28.825  29.057  1.00  0.00     0.049 A 
ATOM     46  N   UNL A   1      42.447  25.616  28.505  1.00  0.00    -0.248 NA
ATOM     47  C   UNL A   1      41.455  26.738  26.742  1.00  0.00     0.031 C 
ATOM     48  C   UNL A   1      43.108  30.198  29.575  1.00  0.00     0.029 A 
ATOM     49  N   UNL A   1      44.374  28.617  28.712  1.00  0.00    -0.354 N 
ATOM     50  C   UNL A   1      42.398  24.776  27.402  1.00  0.00     0.074 A 
ATOM     51  C   UNL A   1      41.554  25.439  26.445  1.00  0.00     0.031 C 
ATOM     52  C   UNL A   1      44.300  30.766  29.286  1.00  0.00     0.029 A 
ATOM     53  C   UNL A   1      45.171  29.763  28.694  1.00  0.00     0.049 A 
ATOM     54  H   UNL A   1      44.727  27.724  28.493  1.00  0.00     0.167 HD
ATOM     55  C   UNL A   1      43.285  23.750  27.274  1.00  0.00     0.034 A 
ATOM     56  C   UNL A   1      46.437  29.884  28.202  1.00  0.00     0.034 A 
ATOM     57  C   UNL A   1      43.979  23.517  28.526  1.00  0.00     0.049 A 
ATOM     58  C   UNL A   1      47.017  28.514  28.215  1.00  0.00     0.074 A 
ATOM     59  C   UNL A   1      43.570  23.236  29.817  1.00  0.00     0.029 A 
ATOM     60  N   UNL A   1      45.269  23.993  28.645  1.00  0.00    -0.354 N 
ATOM     61  N   UNL A   1      47.240  27.853  29.319  1.00  0.00    -0.248 NA
ATOM     62  C   UNL A   1      46.845  27.687  27.029  1.00  0.00     0.031 C 
ATOM     63  C   UNL A   1      44.407  24.040  30.646  1.00  0.00     0.029 A 
ATOM     64  C   UNL A   1      45.355  24.672  29.837  1.00  0.00     0.049 A 
ATOM     65  H   UNL A   1      45.997  23.868  27.993  1.00  0.00     0.167 HD
ATOM     66  C   UNL A   1      46.768  26.572  29.069  1.00  0.00     0.074 A 
ATOM     67  C   UNL A   1      46.630  26.502  27.613  1.00  0.00     0.031 C 
ATOM     68  C   UNL A   1      46.242  25.800  30.069  1.00  0.00     0.034 A 
BRANCH  55  69
ATOM     69  C   UNL A   1      43.814  23.216  25.964  1.00  0.00     0.023 A 
ATOM     70  C   UNL A   1      43.741  21.824  25.770  1.00  0.00     0.031 A 
ATOM     71  C   UNL A   1      44.626  23.922  25.047  1.00  0.00     0.131 A 
ATOM     72  C   UNL A   1      44.529  21.187  24.798  1.00  0.00     0.055 A 
ATOM     73  C   UNL A   1      45.351  23.291  24.033  1.00  0.00     0.041 A 
ATOM     74  F   UNL A   1      44.845  25.239  25.132  1.00  0.00    -0.206 F 
ATOM     75  C   UNL A   1      45.334  21.912  23.925  1.00  0.00     0.022 A 
BRANCH  72  76
ATOM     76  S   UNL A   1      44.621  19.381  24.826  1.00  0.00     0.124 S 
ATOM     77  O   UNL A   1      44.602  19.067  23.400  1.00  0.00    -0.237 OA
ATOM     78  O   UNL A   1      45.885  19.155  25.519  1.00  0.00    -0.237 OA
ATOM     79  O   UNL A   1      43.424  18.993  25.567  1.00  0.00    -0.744 OA
ENDBRANCH  72  76
ENDBRANCH  55  69
BRANCH  56  80
ATOM     80  C   UNL A   1      47.020  31.026  27.428  1.00  0.00     0.023 A 
ATOM     81  C   UNL A   1      46.243  32.083  26.893  1.00  0.00     0.031 A 
ATOM     82  C   UNL A   1      48.421  31.221  27.420  1.00  0.00     0.131 A 
ATOM     83  C   UNL A   1      46.867  33.258  26.396  1.00  0.00     0.055 A 
ATOM     84  C   UNL A   1      49.029  32.381  26.933  1.00  0.00     0.041 A 
ATOM     85  F   UNL A   1      49.254  30.325  27.972  1.00  0.00    -0.206 F 
ATOM     86  C   UNL A   1      48.254  33.411  26.430  1.00  0.00     0.022 A 
BRANCH  83  87
ATOM     87  S   UNL A   1      45.883  34.670  25.781  1.00  0.00     0.124 S 
ATOM     88  O   UNL A   1      44.839  34.786  26.793  1.00  0.00    -0.237 OA
ATOM     89  O   UNL A   1      46.865  35.746  25.731  1.00  0.00    -0.237 OA
ATOM     90  O   UNL A   1      45.415  34.213  24.470  1.00  0.00    -0.744 OA
ENDBRANCH  83  87
ENDBRANCH  56  80
BRANCH  68  91
ATOM     91  C   UNL A   1      46.428  26.250  31.510  1.00  0.00     0.023 A 
ATOM     92  C   UNL A   1      45.434  26.865  32.310  1.00  0.00     0.031 A 
ATOM     93  C   UNL A   1      47.652  25.941  32.130  1.00  0.00     0.131 A 
ATOM     94  C   UNL A   1      45.698  27.168  33.663  1.00  0.00     0.055 A 
ATOM     95  C   UNL A   1      47.899  26.216  33.475  1.00  0.00     0.041 A 
ATOM     96  F   UNL A   1      48.631  25.335  31.439  1.00  0.00    -0.206 F 
ATOM     97  C   UNL A   1      46.926  26.839  34.244  1.00  0.00     0.022 A 
BRANCH  94  98
ATOM     98  S   UNL A   1      44.463  28.035  34.687  1.00  0.00     0.124 S 
ATOM     99  O   UNL A   1      43.957  26.994  35.572  1.00  0.00    -0.237 OA
ATOM    100  O   UNL A   1      45.259  29.082  35.322  1.00  0.00    -0.237 OA
ATOM    101  O   UNL A   1      43.492  28.524  33.705  1.00  0.00    -0.744 OA
ENDBRANCH  94  98
ENDBRANCH  68  91
ENDBRANCH  42  43
ENDBRANCH  34  37
ENDBRANCH  32  33
ENDBRANCH  31  32
ENDBRANCH  30  31
ENDBRANCH   1  30
TORSDOF 20
ENDMDL
MODEL 3
REMARK VINA RESULT:      -9.7      3.825     11.305
REMARK SMILES Cc1nccn1CCC[NH+]1CCC2(CC1)[C@@H](C(=O)NCCCCCCNC(=O)c1ccc(-c3c4nc(c(-c5cc(S(=O)(=O)[O-])ccc5F)c5ccc([nH]5)c(-c5cc(S(=O)(=O)[O-])ccc5F)c5nc(c(-c6cc(S(=O)(=O)[O-])ccc6F)c6ccc3[nH]6)C=C5)C=C4)cc1)CC(=O)N2C
REMARK SMILES IDX 22 1 21 2 20 3 19 4 17 5 18 6 16 8 10 9 11 10 15 11 12 13
REMARK SMILES IDX 14 14 13 15 95 16 92 17 93 18 96 19 94 20 9 21 8 22 7 23
REMARK SMILES IDX 6 24 1 25 2 26 3 27 4 28 5 29 23 30 24 31 25 32 26 33 27 34
REMARK SMILES IDX 28 36 29 37 30 38 91 39 31 40 90 41 32 42 33 43 34 44 84 45
REMARK SMILES IDX 35 46 89 47 83 48 85 49 36 50 88 51 82 52 81 53 37 55 69 56
REMARK SMILES IDX 49 57 68 58 50 59 53 60 67 61 86 62 51 63 52 64 66 66 87 67
REMARK SMILES IDX 54 68 38 69 39 70 47 71 40 72 46 73 48 74 45 75 41 76 42 77
REMARK SMILES IDX 43 78 44 79 70 80 71 81 79 82 72 83 78 84 80 85 77 86 73 87
REMARK SMILES IDX 74 88 75 89 76 90 55 91 56 92 64 93 57 94 63 95 65 96 62 97
REMARK SMILES IDX 58 98 59 99 60 100 61 101
REMARK H PARENT 19 7 10 12 26 35 85 54 53 65
REMARK Flexibility Score: inf
ROOT
ATOM      1  C   UNL A   1      39.469  32.293  29.980  1.00  0.00     0.002 C 
ENDROOT
BRANCH   1   2
ATOM      2  C   UNL A   1      39.824  32.594  31.434  1.00  0.00     0.021 C 
BRANCH   2   3
ATOM      3  C   UNL A   1      40.294  31.409  32.290  1.00  0.00     0.116 C 
BRANCH   3   4
ATOM      4  N   UNL A   1      41.588  31.663  32.884  1.00  0.00    -0.356 N 
ATOM      5  C   UNL A   1      41.971  31.943  34.161  1.00  0.00     0.226 C 
ATOM      6  O   UNL A   1      43.175  32.194  34.286  1.00  0.00    -0.275 OA
ATOM      7  H   UNL A   1      42.334  31.628  32.242  1.00  0.00     0.163 HD
BRANCH   5   8
ATOM      8  C   UNL A   1      41.054  31.761  35.394  1.00  0.00     0.114 C 
ATOM      9  N   UNL A   1      37.604  34.012  34.989  1.00  0.00    -0.335 N 
ATOM     10  C   UNL A   1      37.566  33.247  36.205  1.00  0.00     0.264 C 
ATOM     11  C   UNL A   1      38.756  34.899  34.945  1.00  0.00     0.264 C 
ATOM     12  H   UNL A   1      36.766  34.588  35.077  1.00  0.00     0.348 HD
ATOM     13  C   UNL A   1      38.703  32.243  36.180  1.00  0.00     0.091 C 
ATOM     14  C   UNL A   1      40.118  34.234  35.226  1.00  0.00     0.091 C 
ATOM     15  C   UNL A   1      40.115  32.887  35.994  1.00  0.00     0.065 C 
ATOM     16  N   UNL A   1      40.667  33.104  37.345  1.00  0.00    -0.339 N 
ATOM     17  C   UNL A   1      41.899  31.266  36.593  1.00  0.00     0.116 C 
ATOM     18  C   UNL A   1      41.528  32.114  37.770  1.00  0.00     0.223 C 
ATOM     19  C   UNL A   1      40.171  34.095  38.286  1.00  0.00     0.147 C 
ATOM     20  O   UNL A   1      41.926  31.938  38.903  1.00  0.00    -0.275 OA
BRANCH   9  21
ATOM     21  C   UNL A   1      36.992  33.555  33.751  1.00  0.00     0.264 C 
BRANCH  21  22
ATOM     22  C   UNL A   1      36.480  34.521  32.656  1.00  0.00     0.083 C 
BRANCH  22  23
ATOM     23  C   UNL A   1      35.058  34.403  32.103  1.00  0.00     0.129 C 
BRANCH  23  24
ATOM     24  N   UNL A   1      34.306  35.634  32.004  1.00  0.00    -0.335 N 
ATOM     25  C   UNL A   1      33.040  35.063  29.888  1.00  0.00     0.087 C 
ATOM     26  C   UNL A   1      33.463  35.984  30.972  1.00  0.00     0.105 A 
ATOM     27  N   UNL A   1      33.072  37.237  31.105  1.00  0.00    -0.242 NA
ATOM     28  C   UNL A   1      33.559  37.650  32.314  1.00  0.00     0.131 A 
ATOM     29  C   UNL A   1      34.246  36.633  32.930  1.00  0.00     0.107 A 
ENDBRANCH  23  24
ENDBRANCH  22  23
ENDBRANCH  21  22
ENDBRANCH   9  21
ENDBRANCH   5   8
ENDBRANCH   3   4
ENDBRANCH   2   3
ENDBRANCH   1   2
BRANCH   1  30
ATOM     30  C   UNL A   1      38.403  33.179  29.324  1.00  0.00     0.002 C 
BRANCH  30  31
ATOM     31  C   UNL A   1      36.941  32.714  29.398  1.00  0.00     0.021 C 
BRANCH  31  32
ATOM     32  C   UNL A   1      36.718  31.432  30.182  1.00  0.00     0.116 C 
BRANCH  32  33
ATOM     33  N   UNL A   1      35.828  30.491  29.506  1.00  0.00    -0.352 N 
ATOM     34  C   UNL A   1      36.144  29.547  28.546  1.00  0.00     0.251 C 
ATOM     35  H   UNL A   1      34.881  30.535  29.769  1.00  0.00     0.163 HD
ATOM     36  O   UNL A   1      35.263  29.087  27.827  1.00  0.00    -0.269 OA
BRANCH  34  37
ATOM     37  C   UNL A   1      37.544  29.096  28.406  1.00  0.00     0.039 A 
ATOM     38  C   UNL A   1      38.372  29.567  27.380  1.00  0.00     0.014 A 
ATOM     39  C   UNL A   1      38.025  28.153  29.311  1.00  0.00     0.014 A 
ATOM     40  C   UNL A   1      39.688  29.112  27.313  1.00  0.00     0.010 A 
ATOM     41  C   UNL A   1      39.357  27.846  29.356  1.00  0.00     0.010 A 
ATOM     42  C   UNL A   1      40.172  28.253  28.313  1.00  0.00    -0.014 A 
BRANCH  42  43
ATOM     43  C   UNL A   1      41.571  27.854  28.384  1.00  0.00     0.031 A 
ATOM     44  C   UNL A   1      41.879  26.656  27.569  1.00  0.00     0.074 A 
ATOM     45  C   UNL A   1      42.534  28.630  28.932  1.00  0.00     0.049 A 
ATOM     46  N   UNL A   1      42.130  25.471  28.009  1.00  0.00    -0.248 NA
ATOM     47  C   UNL A   1      41.689  26.716  26.110  1.00  0.00     0.031 C 
ATOM     48  C   UNL A   1      42.398  29.964  29.526  1.00  0.00     0.029 A 
ATOM     49  N   UNL A   1      43.879  28.432  28.972  1.00  0.00    -0.354 N 
ATOM     50  C   UNL A   1      42.416  24.705  26.888  1.00  0.00     0.074 A 
ATOM     51  C   UNL A   1      41.885  25.438  25.770  1.00  0.00     0.031 C 
ATOM     52  C   UNL A   1      43.617  30.539  29.639  1.00  0.00     0.029 A 
ATOM     53  C   UNL A   1      44.634  29.569  29.265  1.00  0.00     0.049 A 
ATOM     54  H   UNL A   1      44.290  27.553  28.808  1.00  0.00     0.167 HD
ATOM     55  C   UNL A   1      43.311  23.682  26.959  1.00  0.00     0.034 A 
ATOM     56  C   UNL A   1      45.988  29.710  29.177  1.00  0.00     0.034 A 
ATOM     57  C   UNL A   1      43.609  23.360  28.342  1.00  0.00     0.049 A 
ATOM     58  C   UNL A   1      46.552  28.337  29.270  1.00  0.00     0.074 A 
ATOM     59  C   UNL A   1      42.841  22.999  29.433  1.00  0.00     0.029 A 
ATOM     60  N   UNL A   1      44.802  23.814  28.866  1.00  0.00    -0.354 N 
ATOM     61  N   UNL A   1      46.447  27.602  30.344  1.00  0.00    -0.248 NA
ATOM     62  C   UNL A   1      46.745  27.592  28.034  1.00  0.00     0.031 C 
ATOM     63  C   UNL A   1      43.389  23.738  30.524  1.00  0.00     0.029 A 
ATOM     64  C   UNL A   1      44.526  24.412  30.073  1.00  0.00     0.049 A 
ATOM     65  H   UNL A   1      45.690  23.726  28.451  1.00  0.00     0.167 HD
ATOM     66  C   UNL A   1      46.083  26.346  29.883  1.00  0.00     0.074 A 
ATOM     67  C   UNL A   1      46.380  26.373  28.449  1.00  0.00     0.031 C 
ATOM     68  C   UNL A   1      45.294  25.514  30.630  1.00  0.00     0.034 A 
BRANCH  55  69
ATOM     69  C   UNL A   1      44.209  23.230  25.831  1.00  0.00     0.023 A 
ATOM     70  C   UNL A   1      44.264  21.847  25.578  1.00  0.00     0.031 A 
ATOM     71  C   UNL A   1      45.205  24.009  25.200  1.00  0.00     0.131 A 
ATOM     72  C   UNL A   1      45.321  21.288  24.843  1.00  0.00     0.055 A 
ATOM     73  C   UNL A   1      46.213  23.456  24.407  1.00  0.00     0.041 A 
ATOM     74  F   UNL A   1      45.325  25.329  25.386  1.00  0.00    -0.206 F 
ATOM     75  C   UNL A   1      46.297  22.083  24.252  1.00  0.00     0.022 A 
BRANCH  72  76
ATOM     76  S   UNL A   1      45.494  19.487  24.834  1.00  0.00     0.124 S 
ATOM     77  O   UNL A   1      46.865  19.324  25.306  1.00  0.00    -0.237 OA
ATOM     78  O   UNL A   1      44.441  19.080  25.758  1.00  0.00    -0.237 OA
ATOM     79  O   UNL A   1      45.269  19.133  23.435  1.00  0.00    -0.744 OA
ENDBRANCH  72  76
ENDBRANCH  55  69
BRANCH  56  80
ATOM     80  C   UNL A   1      46.761  30.896  28.686  1.00  0.00     0.023 A 
ATOM     81  C   UNL A   1      47.914  31.400  29.337  1.00  0.00     0.031 A 
ATOM     82  C   UNL A   1      46.505  31.407  27.392  1.00  0.00     0.131 A 
ATOM     83  C   UNL A   1      48.746  32.354  28.694  1.00  0.00     0.055 A 
ATOM     84  C   UNL A   1      47.330  32.344  26.763  1.00  0.00     0.041 A 
ATOM     85  F   UNL A   1      45.488  30.948  26.646  1.00  0.00    -0.206 F 
ATOM     86  C   UNL A   1      48.462  32.813  27.406  1.00  0.00     0.022 A 
BRANCH  83  87
ATOM     87  S   UNL A   1      50.284  32.954  29.478  1.00  0.00     0.124 S 
ATOM     88  O   UNL A   1      51.155  31.789  29.386  1.00  0.00    -0.237 OA
ATOM     89  O   UNL A   1      50.638  34.101  28.648  1.00  0.00    -0.237 OA
ATOM     90  O   UNL A   1      49.862  33.297  30.838  1.00  0.00    -0.744 OA
ENDBRANCH  83  87
ENDBRANCH  56  80
BRANCH  68  91
ATOM     91  C   UNL A   1      45.042  25.866  32.089  1.00  0.00     0.023 A 
ATOM     92  C   UNL A   1      43.873  26.488  32.590  1.00  0.00     0.031 A 
ATOM     93  C   UNL A   1      46.003  25.451  33.027  1.00  0.00     0.131 A 
ATOM     94  C   UNL A   1      43.717  26.694  33.977  1.00  0.00     0.055 A 
ATOM     95  C   UNL A   1      45.833  25.630  34.400  1.00  0.00     0.041 A 
ATOM     96  F   UNL A   1      47.125  24.832  32.625  1.00  0.00    -0.206 F 
ATOM     97  C   UNL A   1      44.694  26.262  34.880  1.00  0.00     0.022 A 
BRANCH  94  98
ATOM     98  S   UNL A   1      42.260  27.569  34.637  1.00  0.00     0.124 S 
ATOM     99  O   UNL A   1      42.076  28.680  33.710  1.00  0.00    -0.237 OA
ATOM    100  O   UNL A   1      41.229  26.535  34.605  1.00  0.00    -0.237 OA
ATOM    101  O   UNL A   1      42.681  27.963  35.983  1.00  0.00    -0.744 OA
ENDBRANCH  94  98
ENDBRANCH  68  91
ENDBRANCH  42  43
ENDBRANCH  34  37
ENDBRANCH  32  33
ENDBRANCH  31  32
ENDBRANCH  30  31
ENDBRANCH   1  30
TORSDOF 20
ENDMDL
