MODEL 1
REMARK VINA RESULT:     -10.3      0.000      0.000
REMARK SMILES CCN(c1cccc(C)c1)c1nc(OCC(=O)NCCCCCCNC(=O)c2ccc(-c3c4nc(c(-c5cc(S(=O)(=O)[O-])ccc5F)c5ccc([nH]5)c(-c5cc(S(=O)(=O)[O-])ccc5F)c5nc(c(-c6cc(S(=O)(=O)[O-])ccc6F)c6ccc3[nH]6)C=C5)C=C4)cc2)cc(-c2ccc(C)cc2)n1
REMARK SMILES IDX 21 1 20 2 19 3 18 4 16 5 17 6 15 8 14 9 13 10 11 11 12 12
REMARK SMILES IDX 100 13 92 14 91 15 3 16 2 17 1 18 4 19 5 20 10 21 6 22 8 23
REMARK SMILES IDX 7 24 9 25 93 26 94 27 99 28 95 29 98 30 96 31 97 32 22 33
REMARK SMILES IDX 23 34 24 35 25 36 26 37 27 39 28 40 29 41 90 42 30 43 89 44
REMARK SMILES IDX 31 45 32 46 33 47 83 48 34 49 88 50 82 51 84 52 35 53 87 54
REMARK SMILES IDX 81 55 80 56 36 58 68 59 48 60 67 61 49 62 52 63 66 64 85 65
REMARK SMILES IDX 50 66 51 67 65 69 86 70 53 71 37 72 38 73 46 74 39 75 45 76
REMARK SMILES IDX 47 77 44 78 40 79 41 80 42 81 43 82 69 83 70 84 78 85 71 86
REMARK SMILES IDX 77 87 79 88 76 89 72 90 73 91 74 92 75 93 54 94 55 95 63 96
REMARK SMILES IDX 56 97 62 98 64 99 61 100 57 101 58 102 59 103 60 104
REMARK H PARENT 18 7 25 38 84 57 52 68
REMARK Flexibility Score: inf
ROOT
ATOM      1  C   UNL A   1      45.650  24.069  24.753  1.00  0.00     0.002 C 
ENDROOT
BRANCH   1   2
ATOM      2  C   UNL A   1      46.057  22.596  24.904  1.00  0.00     0.021 C 
BRANCH   2   3
ATOM      3  C   UNL A   1      45.061  21.691  25.627  1.00  0.00     0.116 C 
BRANCH   3   4
ATOM      4  N   UNL A   1      45.444  20.294  25.595  1.00  0.00    -0.353 N 
ATOM      5  C   UNL A   1      44.650  19.199  25.454  1.00  0.00     0.258 C 
ATOM      6  O   UNL A   1      45.173  18.087  25.342  1.00  0.00    -0.271 OA
ATOM      7  H   UNL A   1      46.407  20.113  25.688  1.00  0.00     0.163 HD
BRANCH   5   8
ATOM      8  C   UNL A   1      43.122  19.356  25.410  1.00  0.00     0.331 C 
BRANCH   8   9
ATOM      9  O   UNL A   1      42.445  19.683  26.607  1.00  0.00    -0.467 OA
BRANCH   9  10
ATOM     10  C   UNL A   1      41.655  20.795  26.624  1.00  0.00     0.219 A 
ATOM     11  C   UNL A   1      41.602  23.016  27.262  1.00  0.00     0.233 A 
ATOM     12  N   UNL A   1      42.285  21.866  27.124  1.00  0.00    -0.177 NA
ATOM     13  N   UNL A   1      40.318  23.134  26.886  1.00  0.00    -0.212 NA
ATOM     14  C   UNL A   1      39.722  22.062  26.336  1.00  0.00     0.080 A 
ATOM     15  C   UNL A   1      40.363  20.856  26.178  1.00  0.00     0.097 A 
BRANCH  11  16
ATOM     16  N   UNL A   1      42.277  24.134  27.781  1.00  0.00    -0.311 N 
BRANCH  16  17
ATOM     17  C   UNL A   1      43.063  23.890  29.000  1.00  0.00     0.122 C 
ATOM     18  C   UNL A   1      44.568  23.917  28.760  1.00  0.00     0.028 C 
ENDBRANCH  16  17
BRANCH  16  19
ATOM     19  C   UNL A   1      42.311  25.403  27.173  1.00  0.00     0.044 A 
ATOM     20  C   UNL A   1      42.393  25.584  25.785  1.00  0.00     0.026 A 
ATOM     21  C   UNL A   1      42.257  26.564  27.969  1.00  0.00     0.029 A 
ATOM     22  C   UNL A   1      42.442  26.863  25.220  1.00  0.00     0.002 A 
ATOM     23  C   UNL A   1      42.314  27.854  27.416  1.00  0.00    -0.049 A 
ATOM     24  C   UNL A   1      42.409  27.993  26.032  1.00  0.00     0.003 A 
ATOM     25  C   UNL A   1      42.305  29.052  28.319  1.00  0.00     0.044 C 
ENDBRANCH  16  19
ENDBRANCH  11  16
BRANCH  14  26
ATOM     26  C   UNL A   1      38.356  22.241  25.837  1.00  0.00     0.000 A 
ATOM     27  C   UNL A   1      37.677  21.193  25.198  1.00  0.00     0.010 A 
ATOM     28  C   UNL A   1      37.735  23.498  25.897  1.00  0.00     0.010 A 
ATOM     29  C   UNL A   1      36.433  21.403  24.596  1.00  0.00     0.004 A 
ATOM     30  C   UNL A   1      36.496  23.713  25.287  1.00  0.00     0.004 A 
ATOM     31  C   UNL A   1      35.842  22.670  24.621  1.00  0.00    -0.051 A 
ATOM     32  C   UNL A   1      34.541  22.925  23.920  1.00  0.00     0.044 C 
ENDBRANCH  14  26
ENDBRANCH   9  10
ENDBRANCH   8   9
ENDBRANCH   5   8
ENDBRANCH   3   4
ENDBRANCH   2   3
ENDBRANCH   1   2
BRANCH   1  33
ATOM     33  C   UNL A   1      46.617  25.130  25.303  1.00  0.00     0.002 C 
BRANCH  33  34
ATOM     34  C   UNL A   1      46.010  26.479  25.689  1.00  0.00     0.021 C 
BRANCH  34  35
ATOM     35  C   UNL A   1      46.809  27.688  25.223  1.00  0.00     0.116 C 
BRANCH  35  36
ATOM     36  N   UNL A   1      48.200  27.695  25.645  1.00  0.00    -0.352 N 
ATOM     37  C   UNL A   1      48.887  28.635  26.395  1.00  0.00     0.251 C 
ATOM     38  H   UNL A   1      48.731  26.918  25.356  1.00  0.00     0.163 HD
ATOM     39  O   UNL A   1      50.101  28.554  26.525  1.00  0.00    -0.269 OA
BRANCH  37  40
ATOM     40  C   UNL A   1      48.135  29.680  27.140  1.00  0.00     0.039 A 
ATOM     41  C   UNL A   1      48.704  30.174  28.323  1.00  0.00     0.014 A 
ATOM     42  C   UNL A   1      46.832  30.032  26.801  1.00  0.00     0.014 A 
ATOM     43  C   UNL A   1      47.900  30.823  29.260  1.00  0.00     0.010 A 
ATOM     44  C   UNL A   1      46.011  30.574  27.766  1.00  0.00     0.010 A 
ATOM     45  C   UNL A   1      46.532  30.922  29.014  1.00  0.00    -0.014 A 
BRANCH  45  46
ATOM     46  C   UNL A   1      45.541  31.255  30.025  1.00  0.00     0.031 A 
ATOM     47  C   UNL A   1      44.846  30.199  30.785  1.00  0.00     0.074 A 
ATOM     48  C   UNL A   1      45.359  32.552  30.359  1.00  0.00     0.049 A 
ATOM     49  N   UNL A   1      43.722  30.376  31.391  1.00  0.00    -0.248 NA
ATOM     50  C   UNL A   1      45.350  28.834  30.901  1.00  0.00     0.031 C 
ATOM     51  C   UNL A   1      44.683  33.080  31.541  1.00  0.00     0.029 A 
ATOM     52  N   UNL A   1      45.564  33.667  29.551  1.00  0.00    -0.354 N 
ATOM     53  C   UNL A   1      43.499  29.282  32.190  1.00  0.00     0.074 A 
ATOM     54  C   UNL A   1      44.508  28.321  31.804  1.00  0.00     0.031 C 
ATOM     55  C   UNL A   1      44.299  34.341  31.294  1.00  0.00     0.029 A 
ATOM     56  C   UNL A   1      44.582  34.611  29.897  1.00  0.00     0.049 A 
ATOM     57  H   UNL A   1      46.265  33.773  28.867  1.00  0.00     0.167 HD
ATOM     58  C   UNL A   1      42.574  29.353  33.184  1.00  0.00     0.034 A 
ATOM     59  C   UNL A   1      43.668  35.040  28.977  1.00  0.00     0.034 A 
ATOM     60  C   UNL A   1      41.921  30.656  33.221  1.00  0.00     0.049 A 
ATOM     61  C   UNL A   1      42.237  34.740  29.362  1.00  0.00     0.074 A 
ATOM     62  C   UNL A   1      42.117  31.788  33.997  1.00  0.00     0.029 A 
ATOM     63  N   UNL A   1      41.095  31.035  32.172  1.00  0.00    -0.354 N 
ATOM     64  N   UNL A   1      41.891  33.883  30.285  1.00  0.00    -0.248 NA
ATOM     65  C   UNL A   1      41.081  35.376  28.740  1.00  0.00     0.031 C 
ATOM     66  C   UNL A   1      41.431  32.865  33.379  1.00  0.00     0.029 A 
ATOM     67  C   UNL A   1      40.794  32.379  32.250  1.00  0.00     0.049 A 
ATOM     68  H   UNL A   1      40.769  30.427  31.469  1.00  0.00     0.167 HD
ATOM     69  C   UNL A   1      40.521  33.833  30.389  1.00  0.00     0.074 A 
ATOM     70  C   UNL A   1      40.064  34.803  29.410  1.00  0.00     0.031 C 
ATOM     71  C   UNL A   1      39.903  32.989  31.272  1.00  0.00     0.034 A 
BRANCH  58  72
ATOM     72  C   UNL A   1      42.463  28.340  34.291  1.00  0.00     0.023 A 
ATOM     73  C   UNL A   1      43.384  28.381  35.358  1.00  0.00     0.031 A 
ATOM     74  C   UNL A   1      41.499  27.318  34.352  1.00  0.00     0.131 A 
ATOM     75  C   UNL A   1      43.387  27.397  36.361  1.00  0.00     0.055 A 
ATOM     76  C   UNL A   1      41.531  26.307  35.322  1.00  0.00     0.041 A 
ATOM     77  F   UNL A   1      40.470  27.277  33.493  1.00  0.00    -0.206 F 
ATOM     78  C   UNL A   1      42.486  26.336  36.329  1.00  0.00     0.022 A 
BRANCH  75  79
ATOM     79  S   UNL A   1      44.589  27.529  37.713  1.00  0.00     0.124 S 
ATOM     80  O   UNL A   1      44.568  28.959  38.007  1.00  0.00    -0.237 OA
ATOM     81  O   UNL A   1      44.013  26.653  38.727  1.00  0.00    -0.237 OA
ATOM     82  O   UNL A   1      45.830  27.042  37.112  1.00  0.00    -0.744 OA
ENDBRANCH  75  79
ENDBRANCH  58  72
BRANCH  59  83
ATOM     83  C   UNL A   1      44.225  35.083  27.594  1.00  0.00     0.023 A 
ATOM     84  C   UNL A   1      45.024  36.203  27.270  1.00  0.00     0.031 A 
ATOM     85  C   UNL A   1      44.368  33.928  26.815  1.00  0.00     0.131 A 
ATOM     86  C   UNL A   1      46.057  36.085  26.329  1.00  0.00     0.055 A 
ATOM     87  C   UNL A   1      45.353  33.842  25.819  1.00  0.00     0.041 A 
ATOM     88  F   UNL A   1      43.660  32.823  27.092  1.00  0.00    -0.206 F 
ATOM     89  C   UNL A   1      46.235  34.904  25.608  1.00  0.00     0.022 A 
BRANCH  86  90
ATOM     90  S   UNL A   1      47.336  37.380  26.287  1.00  0.00     0.124 S 
ATOM     91  O   UNL A   1      46.602  38.515  25.739  1.00  0.00    -0.237 OA
ATOM     92  O   UNL A   1      47.727  37.494  27.691  1.00  0.00    -0.237 OA
ATOM     93  O   UNL A   1      48.367  36.817  25.420  1.00  0.00    -0.744 OA
ENDBRANCH  86  90
ENDBRANCH  59  83
BRANCH  71  94
ATOM     94  C   UNL A   1      38.417  32.682  31.376  1.00  0.00     0.023 A 
ATOM     95  C   UNL A   1      37.499  33.476  32.076  1.00  0.00     0.031 A 
ATOM     96  C   UNL A   1      37.850  31.576  30.684  1.00  0.00     0.131 A 
ATOM     97  C   UNL A   1      36.128  33.144  32.125  1.00  0.00     0.055 A 
ATOM     98  C   UNL A   1      36.482  31.290  30.673  1.00  0.00     0.041 A 
ATOM     99  F   UNL A   1      38.599  30.720  29.974  1.00  0.00    -0.206 F 
ATOM    100  C   UNL A   1      35.609  32.073  31.407  1.00  0.00     0.022 A 
BRANCH  97 101
ATOM    101  S   UNL A   1      35.047  34.127  33.194  1.00  0.00     0.124 S 
ATOM    102  O   UNL A   1      33.790  34.107  32.450  1.00  0.00    -0.237 OA
ATOM    103  O   UNL A   1      35.057  33.364  34.438  1.00  0.00    -0.237 OA
ATOM    104  O   UNL A   1      35.710  35.428  33.256  1.00  0.00    -0.744 OA
ENDBRANCH  97 101
ENDBRANCH  71  94
ENDBRANCH  45  46
ENDBRANCH  37  40
ENDBRANCH  35  36
ENDBRANCH  34  35
ENDBRANCH  33  34
ENDBRANCH   1  33
TORSDOF 22
ENDMDL
MODEL 2
REMARK VINA RESULT:     -10.0      4.437     10.337
REMARK SMILES CCN(c1cccc(C)c1)c1nc(OCC(=O)NCCCCCCNC(=O)c2ccc(-c3c4nc(c(-c5cc(S(=O)(=O)[O-])ccc5F)c5ccc([nH]5)c(-c5cc(S(=O)(=O)[O-])ccc5F)c5nc(c(-c6cc(S(=O)(=O)[O-])ccc6F)c6ccc3[nH]6)C=C5)C=C4)cc2)cc(-c2ccc(C)cc2)n1
REMARK SMILES IDX 21 1 20 2 19 3 18 4 16 5 17 6 15 8 14 9 13 10 11 11 12 12
REMARK SMILES IDX 100 13 92 14 91 15 3 16 2 17 1 18 4 19 5 20 10 21 6 22 8 23
REMARK SMILES IDX 7 24 9 25 93 26 94 27 99 28 95 29 98 30 96 31 97 32 22 33
REMARK SMILES IDX 23 34 24 35 25 36 26 37 27 39 28 40 29 41 90 42 30 43 89 44
REMARK SMILES IDX 31 45 32 46 33 47 83 48 34 49 88 50 82 51 84 52 35 53 87 54
REMARK SMILES IDX 81 55 80 56 36 58 68 59 48 60 67 61 49 62 52 63 66 64 85 65
REMARK SMILES IDX 50 66 51 67 65 69 86 70 53 71 37 72 38 73 46 74 39 75 45 76
REMARK SMILES IDX 47 77 44 78 40 79 41 80 42 81 43 82 69 83 70 84 78 85 71 86
REMARK SMILES IDX 77 87 79 88 76 89 72 90 73 91 74 92 75 93 54 94 55 95 63 96
REMARK SMILES IDX 56 97 62 98 64 99 61 100 57 101 58 102 59 103 60 104
REMARK H PARENT 18 7 25 38 84 57 52 68
REMARK Flexibility Score: inf
ROOT
ATOM      1  C   UNL A   1      37.730  33.292  37.530  1.00  0.00     0.002 C 
ENDROOT
BRANCH   1   2
ATOM      2  C   UNL A   1      37.861  31.793  37.221  1.00  0.00     0.021 C 
BRANCH   2   3
ATOM      3  C   UNL A   1      38.146  31.426  35.766  1.00  0.00     0.116 C 
BRANCH   3   4
ATOM      4  N   UNL A   1      37.339  32.179  34.827  1.00  0.00    -0.353 N 
ATOM      5  C   UNL A   1      36.978  31.845  33.559  1.00  0.00     0.258 C 
ATOM      6  O   UNL A   1      36.192  32.572  32.947  1.00  0.00    -0.271 OA
ATOM      7  H   UNL A   1      37.008  33.048  35.150  1.00  0.00     0.163 HD
BRANCH   5   8
ATOM      8  C   UNL A   1      37.526  30.563  32.915  1.00  0.00     0.331 C 
BRANCH   8   9
ATOM      9  O   UNL A   1      36.647  29.768  32.143  1.00  0.00    -0.467 OA
BRANCH   9  10
ATOM     10  C   UNL A   1      36.857  29.684  30.798  1.00  0.00     0.219 A 
ATOM     11  C   UNL A   1      35.908  30.161  28.745  1.00  0.00     0.233 A 
ATOM     12  N   UNL A   1      35.863  30.233  30.087  1.00  0.00    -0.177 NA
ATOM     13  N   UNL A   1      36.932  29.585  28.094  1.00  0.00    -0.212 NA
ATOM     14  C   UNL A   1      37.944  29.089  28.826  1.00  0.00     0.080 A 
ATOM     15  C   UNL A   1      37.953  29.123  30.201  1.00  0.00     0.097 A 
BRANCH  11  16
ATOM     16  N   UNL A   1      34.863  30.748  28.011  1.00  0.00    -0.311 N 
BRANCH  16  17
ATOM     17  C   UNL A   1      34.841  32.218  28.003  1.00  0.00     0.122 C 
ATOM     18  C   UNL A   1      36.233  32.839  27.997  1.00  0.00     0.028 C 
ENDBRANCH  16  17
BRANCH  16  19
ATOM     19  C   UNL A   1      33.924  30.033  27.243  1.00  0.00     0.044 A 
ATOM     20  C   UNL A   1      32.696  30.573  26.838  1.00  0.00     0.026 A 
ATOM     21  C   UNL A   1      34.206  28.711  26.844  1.00  0.00     0.029 A 
ATOM     22  C   UNL A   1      31.783  29.824  26.089  1.00  0.00     0.002 A 
ATOM     23  C   UNL A   1      33.295  27.943  26.100  1.00  0.00    -0.049 A 
ATOM     24  C   UNL A   1      32.078  28.512  25.727  1.00  0.00     0.003 A 
ATOM     25  C   UNL A   1      33.630  26.524  25.749  1.00  0.00     0.044 C 
ENDBRANCH  16  19
ENDBRANCH  11  16
BRANCH  14  26
ATOM     26  C   UNL A   1      39.099  28.560  28.096  1.00  0.00     0.000 A 
ATOM     27  C   UNL A   1      39.760  29.334  27.130  1.00  0.00     0.010 A 
ATOM     28  C   UNL A   1      39.506  27.229  28.276  1.00  0.00     0.010 A 
ATOM     29  C   UNL A   1      40.769  28.782  26.335  1.00  0.00     0.004 A 
ATOM     30  C   UNL A   1      40.507  26.673  27.475  1.00  0.00     0.004 A 
ATOM     31  C   UNL A   1      41.136  27.442  26.489  1.00  0.00    -0.051 A 
ATOM     32  C   UNL A   1      42.168  26.820  25.596  1.00  0.00     0.044 C 
ENDBRANCH  14  26
ENDBRANCH   9  10
ENDBRANCH   8   9
ENDBRANCH   5   8
ENDBRANCH   3   4
ENDBRANCH   2   3
ENDBRANCH   1   2
BRANCH   1  33
ATOM     33  C   UNL A   1      39.022  34.068  37.833  1.00  0.00     0.002 C 
BRANCH  33  34
ATOM     34  C   UNL A   1      40.086  33.338  38.652  1.00  0.00     0.021 C 
BRANCH  34  35
ATOM     35  C   UNL A   1      41.508  33.825  38.415  1.00  0.00     0.116 C 
BRANCH  35  36
ATOM     36  N   UNL A   1      41.708  34.527  37.157  1.00  0.00    -0.352 N 
ATOM     37  C   UNL A   1      42.359  34.106  36.009  1.00  0.00     0.251 C 
ATOM     38  H   UNL A   1      41.326  35.432  37.116  1.00  0.00     0.163 HD
ATOM     39  O   UNL A   1      42.567  34.892  35.095  1.00  0.00    -0.269 OA
BRANCH  37  40
ATOM     40  C   UNL A   1      42.703  32.669  35.838  1.00  0.00     0.039 A 
ATOM     41  C   UNL A   1      44.019  32.354  35.468  1.00  0.00     0.014 A 
ATOM     42  C   UNL A   1      41.732  31.673  35.852  1.00  0.00     0.014 A 
ATOM     43  C   UNL A   1      44.300  31.110  34.903  1.00  0.00     0.010 A 
ATOM     44  C   UNL A   1      41.979  30.486  35.197  1.00  0.00     0.010 A 
ATOM     45  C   UNL A   1      43.249  30.225  34.677  1.00  0.00    -0.014 A 
BRANCH  45  46
ATOM     46  C   UNL A   1      43.331  29.063  33.805  1.00  0.00     0.031 A 
ATOM     47  C   UNL A   1      44.269  27.961  34.094  1.00  0.00     0.074 A 
ATOM     48  C   UNL A   1      42.440  28.938  32.796  1.00  0.00     0.049 A 
ATOM     49  N   UNL A   1      44.675  27.117  33.208  1.00  0.00    -0.248 NA
ATOM     50  C   UNL A   1      44.855  27.734  35.412  1.00  0.00     0.031 C 
ATOM     51  C   UNL A   1      42.129  27.737  32.028  1.00  0.00     0.029 A 
ATOM     52  N   UNL A   1      41.792  29.963  32.113  1.00  0.00    -0.354 N 
ATOM     53  C   UNL A   1      45.322  26.099  33.865  1.00  0.00     0.074 A 
ATOM     54  C   UNL A   1      45.464  26.558  35.228  1.00  0.00     0.031 C 
ATOM     55  C   UNL A   1      41.579  28.099  30.859  1.00  0.00     0.029 A 
ATOM     56  C   UNL A   1      41.658  29.546  30.778  1.00  0.00     0.049 A 
ATOM     57  H   UNL A   1      41.487  30.819  32.494  1.00  0.00     0.167 HD
ATOM     58  C   UNL A   1      45.549  24.923  33.221  1.00  0.00     0.034 A 
ATOM     59  C   UNL A   1      42.243  30.247  29.762  1.00  0.00     0.034 A 
ATOM     60  C   UNL A   1      45.052  24.952  31.851  1.00  0.00     0.049 A 
ATOM     61  C   UNL A   1      43.250  29.440  28.973  1.00  0.00     0.074 A 
ATOM     62  C   UNL A   1      43.891  24.482  31.258  1.00  0.00     0.029 A 
ATOM     63  N   UNL A   1      45.657  25.789  30.924  1.00  0.00    -0.354 N 
ATOM     64  N   UNL A   1      43.771  28.316  29.385  1.00  0.00    -0.248 NA
ATOM     65  C   UNL A   1      43.751  29.832  27.661  1.00  0.00     0.031 C 
ATOM     66  C   UNL A   1      43.782  25.080  29.976  1.00  0.00     0.029 A 
ATOM     67  C   UNL A   1      44.892  25.884  29.780  1.00  0.00     0.049 A 
ATOM     68  H   UNL A   1      46.515  26.253  31.065  1.00  0.00     0.167 HD
ATOM     69  C   UNL A   1      44.654  27.837  28.446  1.00  0.00     0.074 A 
ATOM     70  C   UNL A   1      44.589  28.817  27.377  1.00  0.00     0.031 C 
ATOM     71  C   UNL A   1      45.355  26.679  28.651  1.00  0.00     0.034 A 
BRANCH  58  72
ATOM     72  C   UNL A   1      45.969  23.659  33.922  1.00  0.00     0.023 A 
ATOM     73  C   UNL A   1      47.313  23.504  34.320  1.00  0.00     0.031 A 
ATOM     74  C   UNL A   1      45.115  22.580  34.212  1.00  0.00     0.131 A 
ATOM     75  C   UNL A   1      47.776  22.303  34.882  1.00  0.00     0.055 A 
ATOM     76  C   UNL A   1      45.584  21.363  34.727  1.00  0.00     0.041 A 
ATOM     77  F   UNL A   1      43.788  22.673  34.040  1.00  0.00    -0.206 F 
ATOM     78  C   UNL A   1      46.925  21.216  35.056  1.00  0.00     0.022 A 
BRANCH  75  79
ATOM     79  S   UNL A   1      49.514  22.188  35.390  1.00  0.00     0.124 S 
ATOM     80  O   UNL A   1      49.516  22.919  36.654  1.00  0.00    -0.237 OA
ATOM     81  O   UNL A   1      49.717  20.746  35.477  1.00  0.00    -0.237 OA
ATOM     82  O   UNL A   1      50.231  22.845  34.297  1.00  0.00    -0.744 OA
ENDBRANCH  75  79
ENDBRANCH  58  72
BRANCH  59  83
ATOM     83  C   UNL A   1      42.298  31.712  30.036  1.00  0.00     0.023 A 
ATOM     84  C   UNL A   1      41.085  32.424  29.910  1.00  0.00     0.031 A 
ATOM     85  C   UNL A   1      43.318  32.286  30.806  1.00  0.00     0.131 A 
ATOM     86  C   UNL A   1      40.850  33.564  30.691  1.00  0.00     0.055 A 
ATOM     87  C   UNL A   1      43.105  33.471  31.525  1.00  0.00     0.041 A 
ATOM     88  F   UNL A   1      44.482  31.645  30.988  1.00  0.00    -0.206 F 
ATOM     89  C   UNL A   1      41.851  34.087  31.510  1.00  0.00     0.022 A 
BRANCH  86  90
ATOM     90  S   UNL A   1      39.137  34.163  30.850  1.00  0.00     0.124 S 
ATOM     91  O   UNL A   1      39.108  35.255  29.884  1.00  0.00    -0.237 OA
ATOM     92  O   UNL A   1      38.349  32.983  30.500  1.00  0.00    -0.237 OA
ATOM     93  O   UNL A   1      39.040  34.558  32.252  1.00  0.00    -0.744 OA
ENDBRANCH  86  90
ENDBRANCH  59  83
BRANCH  71  94
ATOM     94  C   UNL A   1      46.492  26.122  27.807  1.00  0.00     0.023 A 
ATOM     95  C   UNL A   1      47.828  26.074  28.225  1.00  0.00     0.031 A 
ATOM     96  C   UNL A   1      46.238  25.535  26.536  1.00  0.00     0.131 A 
ATOM     97  C   UNL A   1      48.836  25.532  27.400  1.00  0.00     0.055 A 
ATOM     98  C   UNL A   1      47.226  24.934  25.751  1.00  0.00     0.041 A 
ATOM     99  F   UNL A   1      45.011  25.509  25.996  1.00  0.00    -0.206 F 
ATOM    100  C   UNL A   1      48.542  24.939  26.178  1.00  0.00     0.022 A 
BRANCH  97 101
ATOM    101  S   UNL A   1      50.557  25.669  27.948  1.00  0.00     0.124 S 
ATOM    102  O   UNL A   1      50.482  25.140  29.307  1.00  0.00    -0.237 OA
ATOM    103  O   UNL A   1      51.262  24.833  26.982  1.00  0.00    -0.237 OA
ATOM    104  O   UNL A   1      50.838  27.101  27.855  1.00  0.00    -0.744 OA
ENDBRANCH  97 101
ENDBRANCH  71  94
ENDBRANCH  45  46
ENDBRANCH  37  40
ENDBRANCH  35  36
ENDBRANCH  34  35
ENDBRANCH  33  34
ENDBRANCH   1  33
TORSDOF 22
ENDMDL
MODEL 3
REMARK VINA RESULT:      -9.7      3.901     10.483
REMARK SMILES CCN(c1cccc(C)c1)c1nc(OCC(=O)NCCCCCCNC(=O)c2ccc(-c3c4nc(c(-c5cc(S(=O)(=O)[O-])ccc5F)c5ccc([nH]5)c(-c5cc(S(=O)(=O)[O-])ccc5F)c5nc(c(-c6cc(S(=O)(=O)[O-])ccc6F)c6ccc3[nH]6)C=C5)C=C4)cc2)cc(-c2ccc(C)cc2)n1
REMARK SMILES IDX 21 1 20 2 19 3 18 4 16 5 17 6 15 8 14 9 13 10 11 11 12 12
REMARK SMILES IDX 100 13 92 14 91 15 3 16 2 17 1 18 4 19 5 20 10 21 6 22 8 23
REMARK SMILES IDX 7 24 9 25 93 26 94 27 99 28 95 29 98 30 96 31 97 32 22 33
REMARK SMILES IDX 23 34 24 35 25 36 26 37 27 39 28 40 29 41 90 42 30 43 89 44
REMARK SMILES IDX 31 45 32 46 33 47 83 48 34 49 88 50 82 51 84 52 35 53 87 54
REMARK SMILES IDX 81 55 80 56 36 58 68 59 48 60 67 61 49 62 52 63 66 64 85 65
REMARK SMILES IDX 50 66 51 67 65 69 86 70 53 71 37 72 38 73 46 74 39 75 45 76
REMARK SMILES IDX 47 77 44 78 40 79 41 80 42 81 43 82 69 83 70 84 78 85 71 86
REMARK SMILES IDX 77 87 79 88 76 89 72 90 73 91 74 92 75 93 54 94 55 95 63 96
REMARK SMILES IDX 56 97 62 98 64 99 61 100 57 101 58 102 59 103 60 104
REMARK H PARENT 18 7 25 38 84 57 52 68
REMARK Flexibility Score: inf
ROOT
ATOM      1  C   UNL A   1      45.898  33.633  28.184  1.00  0.00     0.002 C 
ENDROOT
BRANCH   1   2
ATOM      2  C   UNL A   1      45.849  32.937  26.815  1.00  0.00     0.021 C 
BRANCH   2   3
ATOM      3  C   UNL A   1      44.784  31.856  26.646  1.00  0.00     0.116 C 
BRANCH   3   4
ATOM      4  N   UNL A   1      45.348  30.530  26.490  1.00  0.00    -0.353 N 
ATOM      5  C   UNL A   1      44.744  29.324  26.670  1.00  0.00     0.258 C 
ATOM      6  O   UNL A   1      45.362  28.295  26.385  1.00  0.00    -0.271 OA
ATOM      7  H   UNL A   1      46.293  30.497  26.218  1.00  0.00     0.163 HD
BRANCH   5   8
ATOM      8  C   UNL A   1      43.304  29.255  27.199  1.00  0.00     0.331 C 
BRANCH   8   9
ATOM      9  O   UNL A   1      43.073  28.620  28.442  1.00  0.00    -0.467 OA
BRANCH   9  10
ATOM     10  C   UNL A   1      41.993  27.794  28.558  1.00  0.00     0.219 A 
ATOM     11  C   UNL A   1      39.812  27.698  29.317  1.00  0.00     0.233 A 
ATOM     12  N   UNL A   1      40.927  28.413  29.082  1.00  0.00    -0.177 NA
ATOM     13  N   UNL A   1      39.723  26.392  29.014  1.00  0.00    -0.212 NA
ATOM     14  C   UNL A   1      40.786  25.805  28.439  1.00  0.00     0.080 A 
ATOM     15  C   UNL A   1      41.958  26.479  28.183  1.00  0.00     0.097 A 
BRANCH  11  16
ATOM     16  N   UNL A   1      38.698  28.361  29.859  1.00  0.00    -0.311 N 
BRANCH  16  17
ATOM     17  C   UNL A   1      38.310  27.945  31.215  1.00  0.00     0.122 C 
ATOM     18  C   UNL A   1      38.180  29.112  32.187  1.00  0.00     0.028 C 
ENDBRANCH  16  17
BRANCH  16  19
ATOM     19  C   UNL A   1      38.014  29.420  29.233  1.00  0.00     0.044 A 
ATOM     20  C   UNL A   1      37.020  29.223  28.265  1.00  0.00     0.026 A 
ATOM     21  C   UNL A   1      38.317  30.752  29.579  1.00  0.00     0.029 A 
ATOM     22  C   UNL A   1      36.375  30.304  27.654  1.00  0.00     0.002 A 
ATOM     23  C   UNL A   1      37.685  31.847  28.967  1.00  0.00    -0.049 A 
ATOM     24  C   UNL A   1      36.711  31.611  27.998  1.00  0.00     0.003 A 
ATOM     25  C   UNL A   1      38.087  33.243  29.340  1.00  0.00     0.044 C 
ENDBRANCH  16  19
ENDBRANCH  11  16
BRANCH  14  26
ATOM     26  C   UNL A   1      40.633  24.410  28.021  1.00  0.00     0.000 A 
ATOM     27  C   UNL A   1      41.545  23.427  28.434  1.00  0.00     0.010 A 
ATOM     28  C   UNL A   1      39.627  24.045  27.114  1.00  0.00     0.010 A 
ATOM     29  C   UNL A   1      41.482  22.128  27.922  1.00  0.00     0.004 A 
ATOM     30  C   UNL A   1      39.569  22.749  26.593  1.00  0.00     0.004 A 
ATOM     31  C   UNL A   1      40.505  21.785  26.984  1.00  0.00    -0.051 A 
ATOM     32  C   UNL A   1      40.470  20.414  26.376  1.00  0.00     0.044 C 
ENDBRANCH  14  26
ENDBRANCH   9  10
ENDBRANCH   8   9
ENDBRANCH   5   8
ENDBRANCH   3   4
ENDBRANCH   2   3
ENDBRANCH   1   2
BRANCH   1  33
ATOM     33  C   UNL A   1      46.182  35.143  28.200  1.00  0.00     0.002 C 
BRANCH  33  34
ATOM     34  C   UNL A   1      47.647  35.568  28.106  1.00  0.00     0.021 C 
BRANCH  34  35
ATOM     35  C   UNL A   1      48.539  35.009  29.206  1.00  0.00     0.116 C 
BRANCH  35  36
ATOM     36  N   UNL A   1      48.240  35.505  30.540  1.00  0.00    -0.352 N 
ATOM     37  C   UNL A   1      47.832  34.809  31.665  1.00  0.00     0.251 C 
ATOM     38  H   UNL A   1      48.342  36.476  30.660  1.00  0.00     0.163 HD
ATOM     39  O   UNL A   1      47.474  35.412  32.668  1.00  0.00    -0.269 OA
BRANCH  37  40
ATOM     40  C   UNL A   1      47.938  33.325  31.697  1.00  0.00     0.039 A 
ATOM     41  C   UNL A   1      49.215  32.767  31.851  1.00  0.00     0.014 A 
ATOM     42  C   UNL A   1      46.856  32.503  31.399  1.00  0.00     0.014 A 
ATOM     43  C   UNL A   1      49.439  31.439  31.485  1.00  0.00     0.010 A 
ATOM     44  C   UNL A   1      47.091  31.228  30.934  1.00  0.00     0.010 A 
ATOM     45  C   UNL A   1      48.389  30.713  30.929  1.00  0.00    -0.014 A 
BRANCH  45  46
ATOM     46  C   UNL A   1      48.554  29.463  30.201  1.00  0.00     0.031 A 
ATOM     47  C   UNL A   1      48.726  29.454  28.736  1.00  0.00     0.074 A 
ATOM     48  C   UNL A   1      48.684  28.313  30.900  1.00  0.00     0.049 A 
ATOM     49  N   UNL A   1      48.493  28.424  27.996  1.00  0.00    -0.248 NA
ATOM     50  C   UNL A   1      49.149  30.624  27.973  1.00  0.00     0.031 C 
ATOM     51  C   UNL A   1      49.177  27.028  30.413  1.00  0.00     0.029 A 
ATOM     52  N   UNL A   1      48.168  28.031  32.161  1.00  0.00    -0.354 N 
ATOM     53  C   UNL A   1      48.991  28.688  26.744  1.00  0.00     0.074 A 
ATOM     54  C   UNL A   1      49.333  30.092  26.760  1.00  0.00     0.031 C 
ATOM     55  C   UNL A   1      48.728  26.057  31.221  1.00  0.00     0.029 A 
ATOM     56  C   UNL A   1      47.811  26.671  32.164  1.00  0.00     0.049 A 
ATOM     57  H   UNL A   1      48.071  28.663  32.909  1.00  0.00     0.167 HD
ATOM     58  C   UNL A   1      49.187  27.664  25.870  1.00  0.00     0.034 A 
ATOM     59  C   UNL A   1      46.517  26.287  32.367  1.00  0.00     0.034 A 
ATOM     60  C   UNL A   1      48.792  26.383  26.442  1.00  0.00     0.049 A 
ATOM     61  C   UNL A   1      45.926  25.516  31.207  1.00  0.00     0.074 A 
ATOM     62  C   UNL A   1      49.505  25.355  27.039  1.00  0.00     0.029 A 
ATOM     63  N   UNL A   1      47.452  26.141  26.712  1.00  0.00    -0.354 N 
ATOM     64  N   UNL A   1      46.441  25.490  30.008  1.00  0.00    -0.248 NA
ATOM     65  C   UNL A   1      44.710  24.717  31.303  1.00  0.00     0.031 C 
ATOM     66  C   UNL A   1      48.580  24.513  27.708  1.00  0.00     0.029 A 
ATOM     67  C   UNL A   1      47.307  25.010  27.489  1.00  0.00     0.049 A 
ATOM     68  H   UNL A   1      46.707  26.701  26.393  1.00  0.00     0.167 HD
ATOM     69  C   UNL A   1      45.666  24.710  29.182  1.00  0.00     0.074 A 
ATOM     70  C   UNL A   1      44.604  24.235  30.051  1.00  0.00     0.031 C 
ATOM     71  C   UNL A   1      45.979  24.540  27.860  1.00  0.00     0.034 A 
BRANCH  58  72
ATOM     72  C   UNL A   1      49.995  27.791  24.607  1.00  0.00     0.023 A 
ATOM     73  C   UNL A   1      49.401  27.459  23.372  1.00  0.00     0.031 A 
ATOM     74  C   UNL A   1      51.335  28.213  24.549  1.00  0.00     0.131 A 
ATOM     75  C   UNL A   1      50.142  27.461  22.179  1.00  0.00     0.055 A 
ATOM     76  C   UNL A   1      52.091  28.169  23.369  1.00  0.00     0.041 A 
ATOM     77  F   UNL A   1      51.955  28.717  25.626  1.00  0.00    -0.206 F 
ATOM     78  C   UNL A   1      51.498  27.780  22.175  1.00  0.00     0.022 A 
BRANCH  75  79
ATOM     79  S   UNL A   1      49.303  27.043  20.625  1.00  0.00     0.124 S 
ATOM     80  O   UNL A   1      49.557  25.610  20.512  1.00  0.00    -0.237 OA
ATOM     81  O   UNL A   1      47.926  27.436  20.902  1.00  0.00    -0.237 OA
ATOM     82  O   UNL A   1      49.991  27.871  19.635  1.00  0.00    -0.744 OA
ENDBRANCH  75  79
ENDBRANCH  58  72
BRANCH  59  83
ATOM     83  C   UNL A   1      45.785  27.204  33.288  1.00  0.00     0.023 A 
ATOM     84  C   UNL A   1      45.022  28.228  32.684  1.00  0.00     0.031 A 
ATOM     85  C   UNL A   1      45.470  26.839  34.603  1.00  0.00     0.131 A 
ATOM     86  C   UNL A   1      43.868  28.714  33.315  1.00  0.00     0.055 A 
ATOM     87  C   UNL A   1      44.359  27.388  35.261  1.00  0.00     0.041 A 
ATOM     88  F   UNL A   1      46.139  25.854  35.220  1.00  0.00    -0.206 F 
ATOM     89  C   UNL A   1      43.524  28.291  34.599  1.00  0.00     0.022 A 
BRANCH  86  90
ATOM     90  S   UNL A   1      42.677  29.665  32.318  1.00  0.00     0.124 S 
ATOM     91  O   UNL A   1      41.635  28.676  32.067  1.00  0.00    -0.237 OA
ATOM     92  O   UNL A   1      42.310  30.761  33.213  1.00  0.00    -0.237 OA
ATOM     93  O   UNL A   1      43.454  30.074  31.152  1.00  0.00    -0.744 OA
ENDBRANCH  86  90
ENDBRANCH  59  83
BRANCH  71  94
ATOM     94  C   UNL A   1      45.134  23.873  26.786  1.00  0.00     0.023 A 
ATOM     95  C   UNL A   1      45.224  22.516  26.447  1.00  0.00     0.031 A 
ATOM     96  C   UNL A   1      44.125  24.599  26.094  1.00  0.00     0.131 A 
ATOM     97  C   UNL A   1      44.402  21.953  25.448  1.00  0.00     0.055 A 
ATOM     98  C   UNL A   1      43.263  24.024  25.157  1.00  0.00     0.041 A 
ATOM     99  F   UNL A   1      43.920  25.908  26.303  1.00  0.00    -0.206 F 
ATOM    100  C   UNL A   1      43.405  22.690  24.819  1.00  0.00     0.022 A 
BRANCH  97 101
ATOM    101  S   UNL A   1      44.706  20.236  24.957  1.00  0.00     0.124 S 
ATOM    102  O   UNL A   1      43.742  19.513  25.782  1.00  0.00    -0.237 OA
ATOM    103  O   UNL A   1      44.420  20.264  23.526  1.00  0.00    -0.237 OA
ATOM    104  O   UNL A   1      46.108  20.019  25.307  1.00  0.00    -0.744 OA
ENDBRANCH  97 101
ENDBRANCH  71  94
ENDBRANCH  45  46
ENDBRANCH  37  40
ENDBRANCH  35  36
ENDBRANCH  34  35
ENDBRANCH  33  34
ENDBRANCH   1  33
TORSDOF 22
ENDMDL
