MODEL 1
REMARK VINA RESULT:     -11.7      0.000      0.000
REMARK SMILES N#CCOc1ccc2[nH]cc([C@H](C(=O)NCCCCCCNC(=O)c3ccc(-c4c5nc(c(-c6cc(S(=O)(=O)[O-])ccc6F)c6ccc([nH]6)c(-c6cc(S(=O)(=O)[O-])ccc6F)c6nc(c(-c7cc(S(=O)(=O)[O-])ccc7F)c7ccc4[nH]7)C=C6)C=C5)cc3)[NH+]3CC[NH+]([C@@H]4CCS(=O)(=O)C4)CC3)c2c1
REMARK SMILES IDX 18 1 17 2 16 3 15 4 13 5 14 6 12 8 11 9 5 10 6 11 102 12
REMARK SMILES IDX 7 13 101 14 8 15 9 16 10 17 4 19 3 20 2 21 1 22 88 23 89 24
REMARK SMILES IDX 100 25 90 27 99 28 91 29 92 31 93 32 98 33 94 34 95 35 96 36
REMARK SMILES IDX 97 37 19 38 20 39 21 40 22 41 23 42 24 44 25 45 26 46 87 47
REMARK SMILES IDX 27 48 86 49 28 50 29 51 30 52 80 53 31 54 85 55 79 56 81 57
REMARK SMILES IDX 32 58 84 59 78 60 77 61 33 63 65 64 45 65 64 66 46 67 49 68
REMARK SMILES IDX 63 69 82 70 47 71 48 72 62 74 83 75 50 76 34 77 35 78 43 79
REMARK SMILES IDX 36 80 42 81 44 82 41 83 37 84 38 85 39 86 40 87 66 88 67 89
REMARK SMILES IDX 75 90 68 91 74 92 76 93 73 94 69 95 70 96 71 97 72 98 51 99
REMARK SMILES IDX 52 100 60 101 53 102 59 103 61 104 58 105 54 106 55 107
REMARK SMILES IDX 56 108 57 109
REMARK H PARENT 15 7 9 18 88 26 91 30 22 43 81 62 49 73
REMARK Flexibility Score: inf
ROOT
ATOM      1  C   UNL A   1      32.323  29.867  27.091  1.00  0.00     0.002 C 
ENDROOT
BRANCH   1   2
ATOM      2  C   UNL A   1      31.802  28.458  27.399  1.00  0.00     0.021 C 
BRANCH   2   3
ATOM      3  C   UNL A   1      32.484  27.328  26.613  1.00  0.00     0.116 C 
BRANCH   3   4
ATOM      4  N   UNL A   1      31.887  26.037  26.902  1.00  0.00    -0.351 N 
ATOM      5  C   UNL A   1      31.469  25.048  26.055  1.00  0.00     0.283 C 
ATOM      6  O   UNL A   1      30.526  24.371  26.477  1.00  0.00    -0.268 OA
ATOM      7  H   UNL A   1      31.764  25.842  27.859  1.00  0.00     0.163 HD
BRANCH   5   8
ATOM      8  C   UNL A   1      32.092  24.892  24.648  1.00  0.00     0.308 C 
BRANCH   8   9
ATOM      9  C   UNL A   1      32.563  23.508  24.264  1.00  0.00     0.045 A 
ATOM     10  C   UNL A   1      35.935  22.353  25.608  1.00  0.00     0.121 A 
ATOM     11  C   UNL A   1      35.649  20.995  25.449  1.00  0.00     0.048 A 
ATOM     12  C   UNL A   1      35.021  23.276  25.135  1.00  0.00     0.057 A 
ATOM     13  C   UNL A   1      34.550  20.543  24.707  1.00  0.00     0.030 A 
ATOM     14  C   UNL A   1      33.806  22.862  24.556  1.00  0.00     0.013 A 
ATOM     15  C   UNL A   1      33.632  21.502  24.298  1.00  0.00     0.046 A 
ATOM     16  N   UNL A   1      32.422  21.353  23.667  1.00  0.00    -0.361 N 
ATOM     17  C   UNL A   1      31.757  22.546  23.666  1.00  0.00     0.094 A 
ATOM     18  H   UNL A   1      32.085  20.515  23.276  1.00  0.00     0.166 HD
BRANCH  10  19
ATOM     19  O   UNL A   1      36.950  22.904  26.364  1.00  0.00    -0.479 OA
BRANCH  19  20
ATOM     20  C   UNL A   1      38.222  23.078  25.700  1.00  0.00     0.349 C 
BRANCH  20  21
ATOM     21  C   UNL A   1      39.243  22.322  26.534  1.00  0.00     0.104 C 
ATOM     22  N   UNL A   1      40.090  21.695  27.226  1.00  0.00    -0.195 NA
ENDBRANCH  20  21
ENDBRANCH  19  20
ENDBRANCH  10  19
ENDBRANCH   8   9
BRANCH   8  23
ATOM     23  N   UNL A   1      31.231  25.423  23.560  1.00  0.00    -0.312 N 
ATOM     24  C   UNL A   1      29.769  25.471  23.744  1.00  0.00     0.325 C 
ATOM     25  C   UNL A   1      31.733  26.682  23.032  1.00  0.00     0.325 C 
ATOM     26  H   UNL A   1      31.323  24.674  22.873  1.00  0.00     0.349 HD
ATOM     27  C   UNL A   1      29.099  26.823  24.135  1.00  0.00     0.324 C 
ATOM     28  C   UNL A   1      31.181  27.935  23.740  1.00  0.00     0.324 C 
ATOM     29  N   UNL A   1      29.735  28.061  23.648  1.00  0.00    -0.322 N 
ATOM     30  H   UNL A   1      29.453  28.802  24.290  1.00  0.00     0.348 HD
BRANCH  29  31
ATOM     31  C   UNL A   1      29.185  28.698  22.450  1.00  0.00     0.200 C 
ATOM     32  C   UNL A   1      30.030  29.708  21.653  1.00  0.00     0.082 C 
ATOM     33  C   UNL A   1      27.827  29.377  22.724  1.00  0.00     0.201 C 
ATOM     34  C   UNL A   1      29.746  31.135  22.113  1.00  0.00     0.143 C 
ATOM     35  S   UNL A   1      28.110  31.136  22.800  1.00  0.00     0.156 S 
ATOM     36  O   UNL A   1      28.204  31.561  24.186  1.00  0.00    -0.229 OA
ATOM     37  O   UNL A   1      27.221  31.790  21.867  1.00  0.00    -0.229 OA
ENDBRANCH  29  31
ENDBRANCH   8  23
ENDBRANCH   5   8
ENDBRANCH   3   4
ENDBRANCH   2   3
ENDBRANCH   1   2
BRANCH   1  38
ATOM     38  C   UNL A   1      31.376  30.692  26.221  1.00  0.00     0.002 C 
BRANCH  38  39
ATOM     39  C   UNL A   1      31.398  32.187  26.539  1.00  0.00     0.021 C 
BRANCH  39  40
ATOM     40  C   UNL A   1      32.710  32.668  27.148  1.00  0.00     0.116 C 
BRANCH  40  41
ATOM     41  N   UNL A   1      32.595  34.035  27.625  1.00  0.00    -0.352 N 
ATOM     42  C   UNL A   1      33.223  34.611  28.703  1.00  0.00     0.251 C 
ATOM     43  H   UNL A   1      31.994  34.622  27.112  1.00  0.00     0.163 HD
ATOM     44  O   UNL A   1      32.819  35.676  29.155  1.00  0.00    -0.269 OA
BRANCH  42  45
ATOM     45  C   UNL A   1      34.370  33.913  29.320  1.00  0.00     0.039 A 
ATOM     46  C   UNL A   1      35.665  34.309  28.989  1.00  0.00     0.014 A 
ATOM     47  C   UNL A   1      34.160  32.882  30.244  1.00  0.00     0.014 A 
ATOM     48  C   UNL A   1      36.752  33.705  29.623  1.00  0.00     0.010 A 
ATOM     49  C   UNL A   1      35.240  32.339  30.934  1.00  0.00     0.010 A 
ATOM     50  C   UNL A   1      36.550  32.738  30.624  1.00  0.00    -0.014 A 
BRANCH  50  51
ATOM     51  C   UNL A   1      37.698  32.130  31.348  1.00  0.00     0.031 A 
ATOM     52  C   UNL A   1      38.500  31.033  30.698  1.00  0.00     0.074 A 
ATOM     53  C   UNL A   1      37.988  32.533  32.601  1.00  0.00     0.049 A 
ATOM     54  N   UNL A   1      39.498  30.341  31.184  1.00  0.00    -0.248 NA
ATOM     55  C   UNL A   1      38.109  30.644  29.335  1.00  0.00     0.031 C 
ATOM     56  C   UNL A   1      37.260  33.561  33.347  1.00  0.00     0.029 A 
ATOM     57  N   UNL A   1      38.967  32.125  33.473  1.00  0.00    -0.354 N 
ATOM     58  C   UNL A   1      39.848  29.431  30.192  1.00  0.00     0.074 A 
ATOM     59  C   UNL A   1      38.914  29.618  29.104  1.00  0.00     0.031 C 
ATOM     60  C   UNL A   1      37.833  33.723  34.549  1.00  0.00     0.029 A 
ATOM     61  C   UNL A   1      38.934  32.775  34.687  1.00  0.00     0.049 A 
ATOM     62  H   UNL A   1      39.631  31.432  33.252  1.00  0.00     0.167 HD
ATOM     63  C   UNL A   1      40.867  28.536  30.184  1.00  0.00     0.034 A 
ATOM     64  C   UNL A   1      39.691  32.612  35.791  1.00  0.00     0.034 A 
ATOM     65  C   UNL A   1      41.795  28.370  31.276  1.00  0.00     0.049 A 
ATOM     66  C   UNL A   1      40.796  31.585  35.768  1.00  0.00     0.074 A 
ATOM     67  C   UNL A   1      42.897  27.535  31.348  1.00  0.00     0.029 A 
ATOM     68  N   UNL A   1      41.724  29.038  32.492  1.00  0.00    -0.354 N 
ATOM     69  N   UNL A   1      41.150  30.772  34.798  1.00  0.00    -0.248 NA
ATOM     70  C   UNL A   1      41.612  31.462  36.983  1.00  0.00     0.031 C 
ATOM     71  C   UNL A   1      43.439  27.635  32.633  1.00  0.00     0.029 A 
ATOM     72  C   UNL A   1      42.738  28.603  33.333  1.00  0.00     0.049 A 
ATOM     73  H   UNL A   1      41.053  29.720  32.723  1.00  0.00     0.167 HD
ATOM     74  C   UNL A   1      42.251  30.067  35.278  1.00  0.00     0.074 A 
ATOM     75  C   UNL A   1      42.512  30.563  36.613  1.00  0.00     0.031 C 
ATOM     76  C   UNL A   1      42.983  29.099  34.668  1.00  0.00     0.034 A 
BRANCH  63  77
ATOM     77  C   UNL A   1      41.011  27.649  28.969  1.00  0.00     0.023 A 
ATOM     78  C   UNL A   1      41.996  27.879  27.993  1.00  0.00     0.031 A 
ATOM     79  C   UNL A   1      40.146  26.555  28.784  1.00  0.00     0.131 A 
ATOM     80  C   UNL A   1      42.049  27.071  26.846  1.00  0.00     0.055 A 
ATOM     81  C   UNL A   1      40.258  25.704  27.682  1.00  0.00     0.041 A 
ATOM     82  F   UNL A   1      39.171  26.297  29.670  1.00  0.00    -0.206 F 
ATOM     83  C   UNL A   1      41.205  25.969  26.698  1.00  0.00     0.022 A 
BRANCH  80  84
ATOM     84  S   UNL A   1      43.145  27.565  25.488  1.00  0.00     0.124 S 
ATOM     85  O   UNL A   1      44.087  28.445  26.174  1.00  0.00    -0.237 OA
ATOM     86  O   UNL A   1      43.681  26.286  25.034  1.00  0.00    -0.237 OA
ATOM     87  O   UNL A   1      42.247  28.233  24.549  1.00  0.00    -0.744 OA
ENDBRANCH  80  84
ENDBRANCH  63  77
BRANCH  64  88
ATOM     88  C   UNL A   1      39.424  33.417  37.020  1.00  0.00     0.023 A 
ATOM     89  C   UNL A   1      40.087  34.632  37.252  1.00  0.00     0.031 A 
ATOM     90  C   UNL A   1      38.542  32.951  38.011  1.00  0.00     0.131 A 
ATOM     91  C   UNL A   1      39.904  35.309  38.469  1.00  0.00     0.055 A 
ATOM     92  C   UNL A   1      38.312  33.661  39.191  1.00  0.00     0.041 A 
ATOM     93  F   UNL A   1      37.880  31.794  37.844  1.00  0.00    -0.206 F 
ATOM     94  C   UNL A   1      39.008  34.840  39.433  1.00  0.00     0.022 A 
BRANCH  91  95
ATOM     95  S   UNL A   1      40.939  36.756  38.822  1.00  0.00     0.124 S 
ATOM     96  O   UNL A   1      39.936  37.796  39.020  1.00  0.00    -0.237 OA
ATOM     97  O   UNL A   1      41.663  36.328  40.013  1.00  0.00    -0.237 OA
ATOM     98  O   UNL A   1      41.753  36.894  37.616  1.00  0.00    -0.744 OA
ENDBRANCH  91  95
ENDBRANCH  64  88
BRANCH  76  99
ATOM     99  C   UNL A   1      44.171  28.552  35.424  1.00  0.00     0.023 A 
ATOM    100  C   UNL A   1      44.045  27.493  36.341  1.00  0.00     0.031 A 
ATOM    101  C   UNL A   1      45.448  29.106  35.227  1.00  0.00     0.131 A 
ATOM    102  C   UNL A   1      45.165  27.063  37.069  1.00  0.00     0.055 A 
ATOM    103  C   UNL A   1      46.572  28.627  35.902  1.00  0.00     0.041 A 
ATOM    104  F   UNL A   1      45.628  30.123  34.369  1.00  0.00    -0.206 F 
ATOM    105  C   UNL A   1      46.431  27.609  36.841  1.00  0.00     0.022 A 
BRANCH 102 106
ATOM    106  S   UNL A   1      44.927  25.852  38.398  1.00  0.00     0.124 S 
ATOM    107  O   UNL A   1      43.950  26.524  39.249  1.00  0.00    -0.237 OA
ATOM    108  O   UNL A   1      44.442  24.683  37.673  1.00  0.00    -0.237 OA
ATOM    109  O   UNL A   1      46.262  25.713  38.979  1.00  0.00    -0.744 OA
ENDBRANCH 102 106
ENDBRANCH  76  99
ENDBRANCH  50  51
ENDBRANCH  42  45
ENDBRANCH  40  41
ENDBRANCH  39  40
ENDBRANCH  38  39
ENDBRANCH   1  38
TORSDOF 22
ENDMDL
MODEL 2
REMARK VINA RESULT:     -11.4      1.144      7.150
REMARK SMILES N#CCOc1ccc2[nH]cc([C@H](C(=O)NCCCCCCNC(=O)c3ccc(-c4c5nc(c(-c6cc(S(=O)(=O)[O-])ccc6F)c6ccc([nH]6)c(-c6cc(S(=O)(=O)[O-])ccc6F)c6nc(c(-c7cc(S(=O)(=O)[O-])ccc7F)c7ccc4[nH]7)C=C6)C=C5)cc3)[NH+]3CC[NH+]([C@@H]4CCS(=O)(=O)C4)CC3)c2c1
REMARK SMILES IDX 18 1 17 2 16 3 15 4 13 5 14 6 12 8 11 9 5 10 6 11 102 12
REMARK SMILES IDX 7 13 101 14 8 15 9 16 10 17 4 19 3 20 2 21 1 22 88 23 89 24
REMARK SMILES IDX 100 25 90 27 99 28 91 29 92 31 93 32 98 33 94 34 95 35 96 36
REMARK SMILES IDX 97 37 19 38 20 39 21 40 22 41 23 42 24 44 25 45 26 46 87 47
REMARK SMILES IDX 27 48 86 49 28 50 29 51 30 52 80 53 31 54 85 55 79 56 81 57
REMARK SMILES IDX 32 58 84 59 78 60 77 61 33 63 65 64 45 65 64 66 46 67 49 68
REMARK SMILES IDX 63 69 82 70 47 71 48 72 62 74 83 75 50 76 34 77 35 78 43 79
REMARK SMILES IDX 36 80 42 81 44 82 41 83 37 84 38 85 39 86 40 87 66 88 67 89
REMARK SMILES IDX 75 90 68 91 74 92 76 93 73 94 69 95 70 96 71 97 72 98 51 99
REMARK SMILES IDX 52 100 60 101 53 102 59 103 61 104 58 105 54 106 55 107
REMARK SMILES IDX 56 108 57 109
REMARK H PARENT 15 7 9 18 88 26 91 30 22 43 81 62 49 73
REMARK Flexibility Score: inf
ROOT
ATOM      1  C   UNL A   1      32.444  30.059  26.861  1.00  0.00     0.002 C 
ENDROOT
BRANCH   1   2
ATOM      2  C   UNL A   1      31.828  28.761  27.395  1.00  0.00     0.021 C 
BRANCH   2   3
ATOM      3  C   UNL A   1      32.504  27.471  26.905  1.00  0.00     0.116 C 
BRANCH   3   4
ATOM      4  N   UNL A   1      31.666  26.307  27.128  1.00  0.00    -0.351 N 
ATOM      5  C   UNL A   1      31.216  25.362  26.249  1.00  0.00     0.283 C 
ATOM      6  O   UNL A   1      30.124  24.865  26.541  1.00  0.00    -0.268 OA
ATOM      7  H   UNL A   1      31.378  26.177  28.060  1.00  0.00     0.163 HD
BRANCH   5   8
ATOM      8  C   UNL A   1      31.998  25.046  24.953  1.00  0.00     0.308 C 
BRANCH   8   9
ATOM      9  C   UNL A   1      32.376  23.600  24.723  1.00  0.00     0.045 A 
ATOM     10  C   UNL A   1      36.084  22.730  24.669  1.00  0.00     0.121 A 
ATOM     11  C   UNL A   1      35.877  21.380  24.962  1.00  0.00     0.048 A 
ATOM     12  C   UNL A   1      34.979  23.531  24.451  1.00  0.00     0.057 A 
ATOM     13  C   UNL A   1      34.609  20.786  24.902  1.00  0.00     0.030 A 
ATOM     14  C   UNL A   1      33.675  23.017  24.576  1.00  0.00     0.013 A 
ATOM     15  C   UNL A   1      33.525  21.639  24.734  1.00  0.00     0.046 A 
ATOM     16  N   UNL A   1      32.179  21.369  24.751  1.00  0.00    -0.361 N 
ATOM     17  C   UNL A   1      31.477  22.540  24.774  1.00  0.00     0.094 A 
ATOM     18  H   UNL A   1      31.781  20.469  24.747  1.00  0.00     0.166 HD
BRANCH  10  19
ATOM     19  O   UNL A   1      37.274  23.425  24.756  1.00  0.00    -0.479 OA
BRANCH  19  20
ATOM     20  C   UNL A   1      37.852  23.544  26.075  1.00  0.00     0.349 C 
BRANCH  20  21
ATOM     21  C   UNL A   1      38.944  22.491  26.157  1.00  0.00     0.104 C 
ATOM     22  N   UNL A   1      39.850  21.617  26.225  1.00  0.00    -0.195 NA
ENDBRANCH  20  21
ENDBRANCH  19  20
ENDBRANCH  10  19
ENDBRANCH   8   9
BRANCH   8  23
ATOM     23  N   UNL A   1      31.343  25.570  23.726  1.00  0.00    -0.312 N 
ATOM     24  C   UNL A   1      29.880  25.468  23.580  1.00  0.00     0.325 C 
ATOM     25  C   UNL A   1      31.812  26.904  23.386  1.00  0.00     0.325 C 
ATOM     26  H   UNL A   1      31.662  24.883  23.042  1.00  0.00     0.349 HD
ATOM     27  C   UNL A   1      29.001  26.721  23.875  1.00  0.00     0.324 C 
ATOM     28  C   UNL A   1      30.988  28.047  24.011  1.00  0.00     0.324 C 
ATOM     29  N   UNL A   1      29.593  28.043  23.603  1.00  0.00    -0.322 N 
ATOM     30  H   UNL A   1      29.100  28.708  24.200  1.00  0.00     0.348 HD
BRANCH  29  31
ATOM     31  C   UNL A   1      29.252  28.709  22.344  1.00  0.00     0.200 C 
ATOM     32  C   UNL A   1      30.139  29.847  21.805  1.00  0.00     0.082 C 
ATOM     33  C   UNL A   1      27.803  29.239  22.341  1.00  0.00     0.201 C 
ATOM     34  C   UNL A   1      29.613  31.205  22.258  1.00  0.00     0.143 C 
ATOM     35  S   UNL A   1      27.876  31.007  22.561  1.00  0.00     0.156 S 
ATOM     36  O   UNL A   1      27.620  31.342  23.952  1.00  0.00    -0.229 OA
ATOM     37  O   UNL A   1      27.147  31.640  21.486  1.00  0.00    -0.229 OA
ENDBRANCH  29  31
ENDBRANCH   8  23
ENDBRANCH   5   8
ENDBRANCH   3   4
ENDBRANCH   2   3
ENDBRANCH   1   2
BRANCH   1  38
ATOM     38  C   UNL A   1      31.432  30.986  26.191  1.00  0.00     0.002 C 
BRANCH  38  39
ATOM     39  C   UNL A   1      31.422  32.403  26.766  1.00  0.00     0.021 C 
BRANCH  39  40
ATOM     40  C   UNL A   1      32.786  32.878  27.253  1.00  0.00     0.116 C 
BRANCH  40  41
ATOM     41  N   UNL A   1      32.702  34.211  27.823  1.00  0.00    -0.352 N 
ATOM     42  C   UNL A   1      33.352  34.700  28.931  1.00  0.00     0.251 C 
ATOM     43  H   UNL A   1      32.107  34.843  27.359  1.00  0.00     0.163 HD
ATOM     44  O   UNL A   1      32.973  35.740  29.459  1.00  0.00    -0.269 OA
BRANCH  42  45
ATOM     45  C   UNL A   1      34.492  33.941  29.485  1.00  0.00     0.039 A 
ATOM     46  C   UNL A   1      35.787  34.270  29.086  1.00  0.00     0.014 A 
ATOM     47  C   UNL A   1      34.277  32.920  30.418  1.00  0.00     0.014 A 
ATOM     48  C   UNL A   1      36.873  33.608  29.662  1.00  0.00     0.010 A 
ATOM     49  C   UNL A   1      35.363  32.319  31.048  1.00  0.00     0.010 A 
ATOM     50  C   UNL A   1      36.673  32.650  30.671  1.00  0.00    -0.014 A 
BRANCH  50  51
ATOM     51  C   UNL A   1      37.825  31.980  31.331  1.00  0.00     0.031 A 
ATOM     52  C   UNL A   1      38.299  32.454  32.679  1.00  0.00     0.074 A 
ATOM     53  C   UNL A   1      38.469  30.979  30.698  1.00  0.00     0.049 A 
ATOM     54  N   UNL A   1      39.315  32.038  33.392  1.00  0.00    -0.248 NA
ATOM     55  C   UNL A   1      37.548  33.559  33.295  1.00  0.00     0.031 C 
ATOM     56  C   UNL A   1      38.124  30.457  29.374  1.00  0.00     0.029 A 
ATOM     57  N   UNL A   1      39.551  30.224  31.078  1.00  0.00    -0.354 N 
ATOM     58  C   UNL A   1      39.331  32.836  34.531  1.00  0.00     0.074 A 
ATOM     59  C   UNL A   1      38.262  33.799  34.384  1.00  0.00     0.031 C 
ATOM     60  C   UNL A   1      38.958  29.453  29.065  1.00  0.00     0.029 A 
ATOM     61  C   UNL A   1      39.932  29.290  30.140  1.00  0.00     0.049 A 
ATOM     62  H   UNL A   1      40.013  30.338  31.940  1.00  0.00     0.167 HD
ATOM     63  C   UNL A   1      40.151  32.757  35.609  1.00  0.00     0.034 A 
ATOM     64  C   UNL A   1      40.959  28.416  30.137  1.00  0.00     0.034 A 
ATOM     65  C   UNL A   1      41.207  31.783  35.741  1.00  0.00     0.049 A 
ATOM     66  C   UNL A   1      41.878  28.373  31.333  1.00  0.00     0.074 A 
ATOM     67  C   UNL A   1      42.057  31.578  36.815  1.00  0.00     0.029 A 
ATOM     68  N   UNL A   1      41.569  30.861  34.768  1.00  0.00    -0.354 N 
ATOM     69  N   UNL A   1      41.843  29.096  32.429  1.00  0.00    -0.248 NA
ATOM     70  C   UNL A   1      42.966  27.388  31.298  1.00  0.00     0.031 C 
ATOM     71  C   UNL A   1      42.984  30.594  36.457  1.00  0.00     0.029 A 
ATOM     72  C   UNL A   1      42.656  30.114  35.200  1.00  0.00     0.049 A 
ATOM     73  H   UNL A   1      41.120  30.753  33.898  1.00  0.00     0.167 HD
ATOM     74  C   UNL A   1      42.885  28.627  33.226  1.00  0.00     0.074 A 
ATOM     75  C   UNL A   1      43.515  27.549  32.492  1.00  0.00     0.031 C 
ATOM     76  C   UNL A   1      43.282  29.047  34.455  1.00  0.00     0.034 A 
BRANCH  63  77
ATOM     77  C   UNL A   1      39.957  33.770  36.713  1.00  0.00     0.023 A 
ATOM     78  C   UNL A   1      39.439  33.411  37.969  1.00  0.00     0.031 A 
ATOM     79  C   UNL A   1      40.294  35.120  36.503  1.00  0.00     0.131 A 
ATOM     80  C   UNL A   1      39.210  34.396  38.941  1.00  0.00     0.055 A 
ATOM     81  C   UNL A   1      40.142  36.082  37.504  1.00  0.00     0.041 A 
ATOM     82  F   UNL A   1      40.772  35.530  35.317  1.00  0.00    -0.206 F 
ATOM     83  C   UNL A   1      39.584  35.725  38.728  1.00  0.00     0.022 A 
BRANCH  80  84
ATOM     84  S   UNL A   1      38.290  33.942  40.438  1.00  0.00     0.124 S 
ATOM     85  O   UNL A   1      37.080  33.353  39.872  1.00  0.00    -0.237 OA
ATOM     86  O   UNL A   1      39.202  33.015  41.099  1.00  0.00    -0.237 OA
ATOM     87  O   UNL A   1      38.095  35.219  41.120  1.00  0.00    -0.744 OA
ENDBRANCH  80  84
ENDBRANCH  63  77
BRANCH  64  88
ATOM     88  C   UNL A   1      41.196  27.527  28.961  1.00  0.00     0.023 A 
ATOM     89  C   UNL A   1      42.172  27.835  28.001  1.00  0.00     0.031 A 
ATOM     90  C   UNL A   1      40.407  26.382  28.750  1.00  0.00     0.131 A 
ATOM     91  C   UNL A   1      42.294  27.045  26.847  1.00  0.00     0.055 A 
ATOM     92  C   UNL A   1      40.576  25.561  27.633  1.00  0.00     0.041 A 
ATOM     93  F   UNL A   1      39.457  26.037  29.635  1.00  0.00    -0.206 F 
ATOM     94  C   UNL A   1      41.514  25.901  26.665  1.00  0.00     0.022 A 
BRANCH  91  95
ATOM     95  S   UNL A   1      43.413  27.598  25.530  1.00  0.00     0.124 S 
ATOM     96  O   UNL A   1      42.471  27.995  24.490  1.00  0.00    -0.237 OA
ATOM     97  O   UNL A   1      44.141  28.678  26.184  1.00  0.00    -0.237 OA
ATOM     98  O   UNL A   1      44.204  26.405  25.233  1.00  0.00    -0.744 OA
ENDBRANCH  91  95
ENDBRANCH  64  88
BRANCH  76  99
ATOM     99  C   UNL A   1      44.422  28.298  35.105  1.00  0.00     0.023 A 
ATOM    100  C   UNL A   1      44.204  27.325  36.096  1.00  0.00     0.031 A 
ATOM    101  C   UNL A   1      45.750  28.570  34.728  1.00  0.00     0.131 A 
ATOM    102  C   UNL A   1      45.298  26.704  36.718  1.00  0.00     0.055 A 
ATOM    103  C   UNL A   1      46.830  27.897  35.299  1.00  0.00     0.041 A 
ATOM    104  F   UNL A   1      46.019  29.493  33.790  1.00  0.00    -0.206 F 
ATOM    105  C   UNL A   1      46.609  26.969  36.312  1.00  0.00     0.022 A 
BRANCH 102 106
ATOM    106  S   UNL A   1      44.992  25.622  38.142  1.00  0.00     0.124 S 
ATOM    107  O   UNL A   1      46.328  25.492  38.716  1.00  0.00    -0.237 OA
ATOM    108  O   UNL A   1      44.036  26.399  38.924  1.00  0.00    -0.237 OA
ATOM    109  O   UNL A   1      44.456  24.403  37.538  1.00  0.00    -0.744 OA
ENDBRANCH 102 106
ENDBRANCH  76  99
ENDBRANCH  50  51
ENDBRANCH  42  45
ENDBRANCH  40  41
ENDBRANCH  39  40
ENDBRANCH  38  39
ENDBRANCH   1  38
TORSDOF 22
ENDMDL
MODEL 3
REMARK VINA RESULT:     -11.0      2.879      5.791
REMARK SMILES N#CCOc1ccc2[nH]cc([C@H](C(=O)NCCCCCCNC(=O)c3ccc(-c4c5nc(c(-c6cc(S(=O)(=O)[O-])ccc6F)c6ccc([nH]6)c(-c6cc(S(=O)(=O)[O-])ccc6F)c6nc(c(-c7cc(S(=O)(=O)[O-])ccc7F)c7ccc4[nH]7)C=C6)C=C5)cc3)[NH+]3CC[NH+]([C@@H]4CCS(=O)(=O)C4)CC3)c2c1
REMARK SMILES IDX 18 1 17 2 16 3 15 4 13 5 14 6 12 8 11 9 5 10 6 11 102 12
REMARK SMILES IDX 7 13 101 14 8 15 9 16 10 17 4 19 3 20 2 21 1 22 88 23 89 24
REMARK SMILES IDX 100 25 90 27 99 28 91 29 92 31 93 32 98 33 94 34 95 35 96 36
REMARK SMILES IDX 97 37 19 38 20 39 21 40 22 41 23 42 24 44 25 45 26 46 87 47
REMARK SMILES IDX 27 48 86 49 28 50 29 51 30 52 80 53 31 54 85 55 79 56 81 57
REMARK SMILES IDX 32 58 84 59 78 60 77 61 33 63 65 64 45 65 64 66 46 67 49 68
REMARK SMILES IDX 63 69 82 70 47 71 48 72 62 74 83 75 50 76 34 77 35 78 43 79
REMARK SMILES IDX 36 80 42 81 44 82 41 83 37 84 38 85 39 86 40 87 66 88 67 89
REMARK SMILES IDX 75 90 68 91 74 92 76 93 73 94 69 95 70 96 71 97 72 98 51 99
REMARK SMILES IDX 52 100 60 101 53 102 59 103 61 104 58 105 54 106 55 107
REMARK SMILES IDX 56 108 57 109
REMARK H PARENT 15 7 9 18 88 26 91 30 22 43 81 62 49 73
REMARK Flexibility Score: inf
ROOT
ATOM      1  C   UNL A   1      31.796  28.748  26.502  1.00  0.00     0.002 C 
ENDROOT
BRANCH   1   2
ATOM      2  C   UNL A   1      31.628  27.375  27.163  1.00  0.00     0.021 C 
BRANCH   2   3
ATOM      3  C   UNL A   1      32.273  26.206  26.402  1.00  0.00     0.116 C 
BRANCH   3   4
ATOM      4  N   UNL A   1      31.597  24.951  26.673  1.00  0.00    -0.351 N 
ATOM      5  C   UNL A   1      31.155  23.983  25.813  1.00  0.00     0.283 C 
ATOM      6  O   UNL A   1      30.163  23.360  26.203  1.00  0.00    -0.268 OA
ATOM      7  H   UNL A   1      31.429  24.766  27.625  1.00  0.00     0.163 HD
BRANCH   5   8
ATOM      8  C   UNL A   1      31.819  23.787  24.430  1.00  0.00     0.308 C 
BRANCH   8   9
ATOM      9  C   UNL A   1      32.270  25.037  23.710  1.00  0.00     0.045 A 
ATOM     10  C   UNL A   1      29.712  27.818  23.229  1.00  0.00     0.121 A 
ATOM     11  C   UNL A   1      30.675  28.815  23.055  1.00  0.00     0.048 A 
ATOM     12  C   UNL A   1      30.136  26.508  23.336  1.00  0.00     0.057 A 
ATOM     13  C   UNL A   1      32.028  28.520  22.843  1.00  0.00     0.030 A 
ATOM     14  C   UNL A   1      31.506  26.186  23.327  1.00  0.00     0.013 A 
ATOM     15  C   UNL A   1      32.415  27.196  23.014  1.00  0.00     0.046 A 
ATOM     16  N   UNL A   1      33.666  26.632  22.987  1.00  0.00    -0.361 N 
ATOM     17  C   UNL A   1      33.597  25.343  23.431  1.00  0.00     0.094 A 
ATOM     18  H   UNL A   1      34.488  27.088  22.693  1.00  0.00     0.166 HD
BRANCH  10  19
ATOM     19  O   UNL A   1      28.371  28.000  23.503  1.00  0.00    -0.479 OA
BRANCH  19  20
ATOM     20  C   UNL A   1      27.632  28.821  22.571  1.00  0.00     0.349 C 
BRANCH  20  21
ATOM     21  C   UNL A   1      27.438  30.166  23.252  1.00  0.00     0.104 C 
ATOM     22  N   UNL A   1      27.277  31.282  23.816  1.00  0.00    -0.195 NA
ENDBRANCH  20  21
ENDBRANCH  19  20
ENDBRANCH  10  19
ENDBRANCH   8   9
BRANCH   8  23
ATOM     23  N   UNL A   1      32.941  22.814  24.447  1.00  0.00    -0.312 N 
ATOM     24  C   UNL A   1      33.194  22.013  25.659  1.00  0.00     0.325 C 
ATOM     25  C   UNL A   1      32.958  21.979  23.256  1.00  0.00     0.325 C 
ATOM     26  H   UNL A   1      33.736  23.453  24.459  1.00  0.00     0.349 HD
ATOM     27  C   UNL A   1      32.690  20.539  25.711  1.00  0.00     0.324 C 
ATOM     28  C   UNL A   1      32.152  20.671  23.383  1.00  0.00     0.324 C 
ATOM     29  N   UNL A   1      32.635  19.796  24.439  1.00  0.00    -0.322 N 
ATOM     30  H   UNL A   1      31.940  19.060  24.565  1.00  0.00     0.348 HD
BRANCH  29  31
ATOM     31  C   UNL A   1      33.740  18.890  24.118  1.00  0.00     0.200 C 
ATOM     32  C   UNL A   1      33.584  17.846  22.996  1.00  0.00     0.082 C 
ATOM     33  C   UNL A   1      34.249  18.131  25.361  1.00  0.00     0.201 C 
ATOM     34  C   UNL A   1      33.116  16.509  23.562  1.00  0.00     0.143 C 
ATOM     35  S   UNL A   1      33.639  16.458  25.257  1.00  0.00     0.156 S 
ATOM     36  O   UNL A   1      32.456  16.312  26.089  1.00  0.00    -0.229 OA
ATOM     37  O   UNL A   1      34.757  15.549  25.366  1.00  0.00    -0.229 OA
ENDBRANCH  29  31
ENDBRANCH   8  23
ENDBRANCH   5   8
ENDBRANCH   3   4
ENDBRANCH   2   3
ENDBRANCH   1   2
BRANCH   1  38
ATOM     38  C   UNL A   1      33.253  29.182  26.355  1.00  0.00     0.002 C 
BRANCH  38  39
ATOM     39  C   UNL A   1      33.461  30.690  26.494  1.00  0.00     0.021 C 
BRANCH  39  40
ATOM     40  C   UNL A   1      32.353  31.396  27.268  1.00  0.00     0.116 C 
BRANCH  40  41
ATOM     41  N   UNL A   1      32.531  32.837  27.238  1.00  0.00    -0.352 N 
ATOM     42  C   UNL A   1      33.460  33.589  27.916  1.00  0.00     0.251 C 
ATOM     43  H   UNL A   1      31.910  33.337  26.661  1.00  0.00     0.163 HD
ATOM     44  O   UNL A   1      33.314  34.802  28.019  1.00  0.00    -0.269 OA
BRANCH  42  45
ATOM     45  C   UNL A   1      34.617  32.911  28.535  1.00  0.00     0.039 A 
ATOM     46  C   UNL A   1      35.903  33.218  28.092  1.00  0.00     0.014 A 
ATOM     47  C   UNL A   1      34.427  31.988  29.570  1.00  0.00     0.014 A 
ATOM     48  C   UNL A   1      37.004  32.636  28.722  1.00  0.00     0.010 A 
ATOM     49  C   UNL A   1      35.528  31.473  30.249  1.00  0.00     0.010 A 
ATOM     50  C   UNL A   1      36.829  31.784  29.827  1.00  0.00    -0.014 A 
BRANCH  50  51
ATOM     51  C   UNL A   1      37.998  31.205  30.542  1.00  0.00     0.031 A 
ATOM     52  C   UNL A   1      38.840  30.150  29.875  1.00  0.00     0.074 A 
ATOM     53  C   UNL A   1      38.270  31.595  31.804  1.00  0.00     0.049 A 
ATOM     54  N   UNL A   1      39.862  29.487  30.351  1.00  0.00    -0.248 NA
ATOM     55  C   UNL A   1      38.467  29.773  28.503  1.00  0.00     0.031 C 
ATOM     56  C   UNL A   1      37.503  32.583  32.566  1.00  0.00     0.029 A 
ATOM     57  N   UNL A   1      39.261  31.207  32.671  1.00  0.00    -0.354 N 
ATOM     58  C   UNL A   1      40.247  28.608  29.343  1.00  0.00     0.074 A 
ATOM     59  C   UNL A   1      39.309  28.782  28.256  1.00  0.00     0.031 C 
ATOM     60  C   UNL A   1      38.066  32.742  33.773  1.00  0.00     0.029 A 
ATOM     61  C   UNL A   1      39.201  31.833  33.896  1.00  0.00     0.049 A 
ATOM     62  H   UNL A   1      39.950  30.543  32.439  1.00  0.00     0.167 HD
ATOM     63  C   UNL A   1      41.298  27.752  29.322  1.00  0.00     0.034 A 
ATOM     64  C   UNL A   1      39.961  31.677  34.999  1.00  0.00     0.034 A 
ATOM     65  C   UNL A   1      42.229  27.599  30.414  1.00  0.00     0.049 A 
ATOM     66  C   UNL A   1      41.103  30.692  34.961  1.00  0.00     0.074 A 
ATOM     67  C   UNL A   1      43.361  26.804  30.474  1.00  0.00     0.029 A 
ATOM     68  N   UNL A   1      42.131  28.241  31.641  1.00  0.00    -0.354 N 
ATOM     69  N   UNL A   1      41.488  29.911  33.978  1.00  0.00    -0.248 NA
ATOM     70  C   UNL A   1      41.920  30.576  36.176  1.00  0.00     0.031 C 
ATOM     71  C   UNL A   1      43.895  26.900  31.761  1.00  0.00     0.029 A 
ATOM     72  C   UNL A   1      43.158  27.828  32.478  1.00  0.00     0.049 A 
ATOM     73  H   UNL A   1      41.435  28.894  31.883  1.00  0.00     0.167 HD
ATOM     74  C   UNL A   1      42.614  29.237  34.447  1.00  0.00     0.074 A 
ATOM     75  C   UNL A   1      42.853  29.718  35.792  1.00  0.00     0.031 C 
ATOM     76  C   UNL A   1      43.382  28.308  33.822  1.00  0.00     0.034 A 
BRANCH  63  77
ATOM     77  C   UNL A   1      41.478  26.893  28.091  1.00  0.00     0.023 A 
ATOM     78  C   UNL A   1      41.029  25.561  28.043  1.00  0.00     0.031 A 
ATOM     79  C   UNL A   1      42.111  27.414  26.949  1.00  0.00     0.131 A 
ATOM     80  C   UNL A   1      41.279  24.778  26.905  1.00  0.00     0.055 A 
ATOM     81  C   UNL A   1      42.281  26.655  25.789  1.00  0.00     0.041 A 
ATOM     82  F   UNL A   1      42.581  28.672  26.941  1.00  0.00    -0.206 F 
ATOM     83  C   UNL A   1      41.876  25.324  25.768  1.00  0.00     0.022 A 
BRANCH  80  84
ATOM     84  S   UNL A   1      40.934  22.998  26.985  1.00  0.00     0.124 S 
ATOM     85  O   UNL A   1      39.475  22.979  26.952  1.00  0.00    -0.237 OA
ATOM     86  O   UNL A   1      41.606  22.494  25.792  1.00  0.00    -0.237 OA
ATOM     87  O   UNL A   1      41.529  22.591  28.255  1.00  0.00    -0.744 OA
ENDBRANCH  80  84
ENDBRANCH  63  77
BRANCH  64  88
ATOM     88  C   UNL A   1      39.662  32.449  36.242  1.00  0.00     0.023 A 
ATOM     89  C   UNL A   1      38.715  31.991  37.172  1.00  0.00     0.031 A 
ATOM     90  C   UNL A   1      40.278  33.689  36.490  1.00  0.00     0.131 A 
ATOM     91  C   UNL A   1      38.369  32.793  38.272  1.00  0.00     0.055 A 
ATOM     92  C   UNL A   1      39.979  34.452  37.620  1.00  0.00     0.041 A 
ATOM     93  F   UNL A   1      41.192  34.177  35.635  1.00  0.00    -0.206 F 
ATOM     94  C   UNL A   1      39.006  34.012  38.511  1.00  0.00     0.022 A 
BRANCH  91  95
ATOM     95  S   UNL A   1      36.990  32.269  39.328  1.00  0.00     0.124 S 
ATOM     96  O   UNL A   1      35.838  32.692  38.541  1.00  0.00    -0.237 OA
ATOM     97  O   UNL A   1      37.210  30.831  39.423  1.00  0.00    -0.237 OA
ATOM     98  O   UNL A   1      37.208  33.014  40.566  1.00  0.00    -0.744 OA
ENDBRANCH  91  95
ENDBRANCH  64  88
BRANCH  76  99
ATOM     99  C   UNL A   1      44.587  27.791  34.571  1.00  0.00     0.023 A 
ATOM    100  C   UNL A   1      44.534  26.619  35.347  1.00  0.00     0.031 A 
ATOM    101  C   UNL A   1      45.807  28.488  34.512  1.00  0.00     0.131 A 
ATOM    102  C   UNL A   1      45.661  26.214  36.080  1.00  0.00     0.055 A 
ATOM    103  C   UNL A   1      46.945  28.041  35.185  1.00  0.00     0.041 A 
ATOM    104  F   UNL A   1      45.916  29.616  33.791  1.00  0.00    -0.206 F 
ATOM    105  C   UNL A   1      46.871  26.906  35.987  1.00  0.00     0.022 A 
BRANCH 102 106
ATOM    106  S   UNL A   1      45.494  24.831  37.240  1.00  0.00     0.124 S 
ATOM    107  O   UNL A   1      44.573  23.949  36.530  1.00  0.00    -0.237 OA
ATOM    108  O   UNL A   1      46.868  24.354  37.357  1.00  0.00    -0.237 OA
ATOM    109  O   UNL A   1      44.949  25.456  38.444  1.00  0.00    -0.744 OA
ENDBRANCH 102 106
ENDBRANCH  76  99
ENDBRANCH  50  51
ENDBRANCH  42  45
ENDBRANCH  40  41
ENDBRANCH  39  40
ENDBRANCH  38  39
ENDBRANCH   1  38
TORSDOF 22
ENDMDL
