MODEL 1
REMARK VINA RESULT:     -11.4      0.000      0.000
REMARK SMILES COc1ccc(CC(=O)Nc2ccc(N3CC[NH+](C)CC3)cc2C(=O)NCCCCCCNC(=O)c2ccc(-c3c4nc(c(-c5cc(S(=O)(=O)[O-])ccc5F)c5ccc([nH]5)c(-c5cc(S(=O)(=O)[O-])ccc5F)c5nc(c(-c6cc(S(=O)(=O)[O-])ccc6F)c6ccc3[nH]6)C=C5)C=C4)cc2)cc1
REMARK SMILES IDX 29 1 28 2 27 3 26 4 24 5 25 6 23 8 11 9 12 10 13 11 22 12
REMARK SMILES IDX 14 13 10 14 8 15 9 16 7 18 6 19 3 20 4 21 100 22 5 23 99 24
REMARK SMILES IDX 2 25 1 26 15 27 16 28 21 29 17 30 20 31 18 32 19 33 30 35
REMARK SMILES IDX 31 36 32 37 33 38 34 39 35 41 36 42 37 43 98 44 38 45 97 46
REMARK SMILES IDX 39 47 40 48 41 49 91 50 42 51 96 52 90 53 92 54 43 55 95 56
REMARK SMILES IDX 89 57 88 58 44 60 76 61 56 62 75 63 57 64 60 65 74 66 93 67
REMARK SMILES IDX 58 68 59 69 73 71 94 72 61 73 45 74 46 75 54 76 47 77 53 78
REMARK SMILES IDX 55 79 52 80 48 81 49 82 50 83 51 84 77 85 78 86 86 87 79 88
REMARK SMILES IDX 85 89 87 90 84 91 80 92 81 93 82 94 83 95 62 96 63 97 71 98
REMARK SMILES IDX 64 99 70 100 72 101 69 102 65 103 66 104 67 105 68 106
REMARK H PARENT 26 7 10 17 18 34 33 40 92 59 60 70
REMARK Flexibility Score: inf
ROOT
ATOM      1  C   UNL A   1      35.408  31.066  28.558  1.00  0.00     0.002 C 
ENDROOT
BRANCH   1   2
ATOM      2  C   UNL A   1      35.265  29.914  27.548  1.00  0.00     0.021 C 
BRANCH   2   3
ATOM      3  C   UNL A   1      33.879  29.780  26.923  1.00  0.00     0.116 C 
BRANCH   3   4
ATOM      4  N   UNL A   1      33.919  29.561  25.495  1.00  0.00    -0.352 N 
ATOM      5  C   UNL A   1      33.656  28.469  24.707  1.00  0.00     0.253 C 
ATOM      6  O   UNL A   1      34.024  28.574  23.531  1.00  0.00    -0.269 OA
ATOM      7  H   UNL A   1      34.191  30.357  24.984  1.00  0.00     0.163 HD
BRANCH   5   8
ATOM      8  C   UNL A   1      33.062  27.161  25.157  1.00  0.00     0.065 A 
ATOM      9  C   UNL A   1      31.717  26.822  25.347  1.00  0.00     0.054 A 
ATOM     10  C   UNL A   1      31.411  25.707  26.133  1.00  0.00     0.029 A 
ATOM     11  C   UNL A   1      32.396  24.779  26.468  1.00  0.00     0.028 A 
ATOM     12  C   UNL A   1      34.029  26.161  25.459  1.00  0.00     0.042 A 
ATOM     13  C   UNL A   1      33.713  24.921  26.030  1.00  0.00     0.038 A 
BRANCH   9  14
ATOM     14  N   UNL A   1      30.595  27.467  24.818  1.00  0.00    -0.325 N 
ATOM     15  C   UNL A   1      30.200  27.641  23.518  1.00  0.00     0.228 C 
ATOM     16  O   UNL A   1      29.179  28.318  23.336  1.00  0.00    -0.274 OA
ATOM     17  H   UNL A   1      29.992  27.860  25.489  1.00  0.00     0.169 HD
BRANCH  15  18
ATOM     18  C   UNL A   1      30.807  26.881  22.356  1.00  0.00     0.135 C 
BRANCH  18  19
ATOM     19  C   UNL A   1      31.384  25.512  22.586  1.00  0.00    -0.038 A 
ATOM     20  C   UNL A   1      32.389  22.913  23.027  1.00  0.00     0.118 A 
ATOM     21  C   UNL A   1      33.194  23.900  22.451  1.00  0.00     0.047 A 
ATOM     22  C   UNL A   1      31.066  23.217  23.341  1.00  0.00     0.047 A 
ATOM     23  C   UNL A   1      32.696  25.189  22.223  1.00  0.00     0.008 A 
ATOM     24  C   UNL A   1      30.568  24.504  23.117  1.00  0.00     0.008 A 
BRANCH  20  25
ATOM     25  O   UNL A   1      33.003  21.709  23.238  1.00  0.00    -0.497 OA
ATOM     26  C   UNL A   1      32.162  20.561  23.243  1.00  0.00     0.278 C 
ENDBRANCH  20  25
ENDBRANCH  18  19
ENDBRANCH  15  18
ENDBRANCH   9  14
BRANCH  13  27
ATOM     27  N   UNL A   1      34.617  23.880  26.103  1.00  0.00    -0.360 N 
ATOM     28  C   UNL A   1      35.963  23.909  25.506  1.00  0.00     0.178 C 
ATOM     29  C   UNL A   1      34.352  22.704  26.952  1.00  0.00     0.178 C 
ATOM     30  C   UNL A   1      36.293  22.559  24.818  1.00  0.00     0.283 C 
ATOM     31  C   UNL A   1      34.715  21.398  26.211  1.00  0.00     0.283 C 
ATOM     32  N   UNL A   1      36.103  21.389  25.707  1.00  0.00    -0.334 N 
ATOM     33  C   UNL A   1      36.379  20.142  24.999  1.00  0.00     0.332 C 
ATOM     34  H   UNL A   1      36.757  21.450  26.488  1.00  0.00     0.347 HD
ENDBRANCH  13  27
ENDBRANCH   5   8
ENDBRANCH   3   4
ENDBRANCH   2   3
ENDBRANCH   1   2
BRANCH   1  35
ATOM     35  C   UNL A   1      35.393  32.498  28.004  1.00  0.00     0.002 C 
BRANCH  35  36
ATOM     36  C   UNL A   1      34.053  33.233  27.999  1.00  0.00     0.021 C 
BRANCH  36  37
ATOM     37  C   UNL A   1      34.107  34.734  28.245  1.00  0.00     0.116 C 
BRANCH  37  38
ATOM     38  N   UNL A   1      33.225  35.190  29.301  1.00  0.00    -0.352 N 
ATOM     39  C   UNL A   1      33.358  35.023  30.663  1.00  0.00     0.251 C 
ATOM     40  H   UNL A   1      32.426  35.684  29.008  1.00  0.00     0.163 HD
ATOM     41  O   UNL A   1      32.478  35.414  31.413  1.00  0.00    -0.269 OA
BRANCH  39  42
ATOM     42  C   UNL A   1      34.552  34.323  31.205  1.00  0.00     0.039 A 
ATOM     43  C   UNL A   1      34.396  33.025  31.696  1.00  0.00     0.014 A 
ATOM     44  C   UNL A   1      35.812  34.928  31.225  1.00  0.00     0.014 A 
ATOM     45  C   UNL A   1      35.511  32.312  32.149  1.00  0.00     0.010 A 
ATOM     46  C   UNL A   1      36.932  34.194  31.609  1.00  0.00     0.010 A 
ATOM     47  C   UNL A   1      36.794  32.878  32.080  1.00  0.00    -0.014 A 
BRANCH  47  48
ATOM     48  C   UNL A   1      37.996  32.121  32.521  1.00  0.00     0.031 A 
ATOM     49  C   UNL A   1      38.627  32.428  33.853  1.00  0.00     0.074 A 
ATOM     50  C   UNL A   1      38.546  31.196  31.709  1.00  0.00     0.049 A 
ATOM     51  N   UNL A   1      39.719  31.942  34.385  1.00  0.00    -0.248 NA
ATOM     52  C   UNL A   1      37.951  33.435  34.684  1.00  0.00     0.031 C 
ATOM     53  C   UNL A   1      38.044  30.828  30.384  1.00  0.00     0.029 A 
ATOM     54  N   UNL A   1      39.651  30.398  31.874  1.00  0.00    -0.354 N 
ATOM     55  C   UNL A   1      39.867  32.590  35.608  1.00  0.00     0.074 A 
ATOM     56  C   UNL A   1      38.786  33.549  35.705  1.00  0.00     0.031 C 
ATOM     57  C   UNL A   1      38.822  29.863  29.869  1.00  0.00     0.029 A 
ATOM     58  C   UNL A   1      39.906  29.571  30.804  1.00  0.00     0.049 A 
ATOM     59  H   UNL A   1      40.210  30.415  32.686  1.00  0.00     0.167 HD
ATOM     60  C   UNL A   1      40.801  32.388  36.571  1.00  0.00     0.034 A 
ATOM     61  C   UNL A   1      40.903  28.688  30.595  1.00  0.00     0.034 A 
ATOM     62  C   UNL A   1      41.864  31.418  36.467  1.00  0.00     0.049 A 
ATOM     63  C   UNL A   1      41.946  28.500  31.671  1.00  0.00     0.074 A 
ATOM     64  C   UNL A   1      42.846  31.112  37.393  1.00  0.00     0.029 A 
ATOM     65  N   UNL A   1      42.084  30.595  35.370  1.00  0.00    -0.354 N 
ATOM     66  N   UNL A   1      42.052  29.103  32.834  1.00  0.00    -0.248 NA
ATOM     67  C   UNL A   1      42.995  27.505  31.411  1.00  0.00     0.031 C 
ATOM     68  C   UNL A   1      43.691  30.146  36.835  1.00  0.00     0.029 A 
ATOM     69  C   UNL A   1      43.196  29.797  35.590  1.00  0.00     0.049 A 
ATOM     70  H   UNL A   1      41.531  30.581  34.555  1.00  0.00     0.167 HD
ATOM     71  C   UNL A   1      43.156  28.527  33.458  1.00  0.00     0.074 A 
ATOM     72  C   UNL A   1      43.672  27.525  32.549  1.00  0.00     0.031 C 
ATOM     73  C   UNL A   1      43.694  28.798  34.673  1.00  0.00     0.034 A 
BRANCH  60  74
ATOM     74  C   UNL A   1      40.716  33.246  37.810  1.00  0.00     0.023 A 
ATOM     75  C   UNL A   1      39.848  32.926  38.869  1.00  0.00     0.031 A 
ATOM     76  C   UNL A   1      41.496  34.410  37.928  1.00  0.00     0.131 A 
ATOM     77  C   UNL A   1      39.727  33.795  39.963  1.00  0.00     0.055 A 
ATOM     78  C   UNL A   1      41.430  35.230  39.057  1.00  0.00     0.041 A 
ATOM     79  F   UNL A   1      42.328  34.778  36.941  1.00  0.00    -0.206 F 
ATOM     80  C   UNL A   1      40.531  34.932  40.077  1.00  0.00     0.022 A 
BRANCH  77  81
ATOM     81  S   UNL A   1      38.409  33.490  41.170  1.00  0.00     0.124 S 
ATOM     82  O   UNL A   1      37.939  34.847  41.440  1.00  0.00    -0.237 OA
ATOM     83  O   UNL A   1      37.492  32.632  40.428  1.00  0.00    -0.237 OA
ATOM     84  O   UNL A   1      39.104  32.845  42.282  1.00  0.00    -0.744 OA
ENDBRANCH  77  81
ENDBRANCH  60  74
BRANCH  61  85
ATOM     85  C   UNL A   1      40.984  27.912  29.324  1.00  0.00     0.023 A 
ATOM     86  C   UNL A   1      41.970  28.198  28.366  1.00  0.00     0.031 A 
ATOM     87  C   UNL A   1      40.035  26.922  29.014  1.00  0.00     0.131 A 
ATOM     88  C   UNL A   1      41.949  27.548  27.121  1.00  0.00     0.055 A 
ATOM     89  C   UNL A   1      40.054  26.234  27.798  1.00  0.00     0.041 A 
ATOM     90  F   UNL A   1      39.070  26.605  29.893  1.00  0.00    -0.206 F 
ATOM     91  C   UNL A   1      41.005  26.559  26.836  1.00  0.00     0.022 A 
BRANCH  88  92
ATOM     92  S   UNL A   1      43.107  28.097  25.837  1.00  0.00     0.124 S 
ATOM     93  O   UNL A   1      43.544  29.385  26.362  1.00  0.00    -0.237 OA
ATOM     94  O   UNL A   1      44.100  27.028  25.849  1.00  0.00    -0.237 OA
ATOM     95  O   UNL A   1      42.277  28.161  24.637  1.00  0.00    -0.744 OA
ENDBRANCH  88  92
ENDBRANCH  61  85
BRANCH  73  96
ATOM     96  C   UNL A   1      44.863  27.950  35.111  1.00  0.00     0.023 A 
ATOM     97  C   UNL A   1      44.688  26.773  35.858  1.00  0.00     0.031 A 
ATOM     98  C   UNL A   1      46.175  28.339  34.784  1.00  0.00     0.131 A 
ATOM     99  C   UNL A   1      45.808  26.055  36.303  1.00  0.00     0.055 A 
ATOM    100  C   UNL A   1      47.283  27.589  35.180  1.00  0.00     0.041 A 
ATOM    101  F   UNL A   1      46.400  29.455  34.073  1.00  0.00    -0.206 F 
ATOM    102  C   UNL A   1      47.105  26.447  35.954  1.00  0.00     0.022 A 
BRANCH  99 103
ATOM    103  S   UNL A   1      45.555  24.648  37.419  1.00  0.00     0.124 S 
ATOM    104  O   UNL A   1      44.168  24.833  37.833  1.00  0.00    -0.237 OA
ATOM    105  O   UNL A   1      45.813  23.507  36.547  1.00  0.00    -0.237 OA
ATOM    106  O   UNL A   1      46.550  24.859  38.470  1.00  0.00    -0.744 OA
ENDBRANCH  99 103
ENDBRANCH  73  96
ENDBRANCH  47  48
ENDBRANCH  39  42
ENDBRANCH  37  38
ENDBRANCH  36  37
ENDBRANCH  35  36
ENDBRANCH   1  35
TORSDOF 21
ENDMDL
MODEL 2
REMARK VINA RESULT:     -11.3      5.647     10.438
REMARK SMILES COc1ccc(CC(=O)Nc2ccc(N3CC[NH+](C)CC3)cc2C(=O)NCCCCCCNC(=O)c2ccc(-c3c4nc(c(-c5cc(S(=O)(=O)[O-])ccc5F)c5ccc([nH]5)c(-c5cc(S(=O)(=O)[O-])ccc5F)c5nc(c(-c6cc(S(=O)(=O)[O-])ccc6F)c6ccc3[nH]6)C=C5)C=C4)cc2)cc1
REMARK SMILES IDX 29 1 28 2 27 3 26 4 24 5 25 6 23 8 11 9 12 10 13 11 22 12
REMARK SMILES IDX 14 13 10 14 8 15 9 16 7 18 6 19 3 20 4 21 100 22 5 23 99 24
REMARK SMILES IDX 2 25 1 26 15 27 16 28 21 29 17 30 20 31 18 32 19 33 30 35
REMARK SMILES IDX 31 36 32 37 33 38 34 39 35 41 36 42 37 43 98 44 38 45 97 46
REMARK SMILES IDX 39 47 40 48 41 49 91 50 42 51 96 52 90 53 92 54 43 55 95 56
REMARK SMILES IDX 89 57 88 58 44 60 76 61 56 62 75 63 57 64 60 65 74 66 93 67
REMARK SMILES IDX 58 68 59 69 73 71 94 72 61 73 45 74 46 75 54 76 47 77 53 78
REMARK SMILES IDX 55 79 52 80 48 81 49 82 50 83 51 84 77 85 78 86 86 87 79 88
REMARK SMILES IDX 85 89 87 90 84 91 80 92 81 93 82 94 83 95 62 96 63 97 71 98
REMARK SMILES IDX 64 99 70 100 72 101 69 102 65 103 66 104 67 105 68 106
REMARK H PARENT 26 7 10 17 18 34 33 40 92 59 60 70
REMARK Flexibility Score: inf
ROOT
ATOM      1  C   UNL A   1      36.966  22.492  24.020  1.00  0.00     0.002 C 
ENDROOT
BRANCH   1   2
ATOM      2  C   UNL A   1      36.350  23.666  24.800  1.00  0.00     0.021 C 
BRANCH   2   3
ATOM      3  C   UNL A   1      35.743  23.288  26.149  1.00  0.00     0.116 C 
BRANCH   3   4
ATOM      4  N   UNL A   1      34.389  23.766  26.316  1.00  0.00    -0.352 N 
ATOM      5  C   UNL A   1      33.245  23.619  25.573  1.00  0.00     0.253 C 
ATOM      6  O   UNL A   1      32.315  24.368  25.896  1.00  0.00    -0.269 OA
ATOM      7  H   UNL A   1      34.262  24.308  27.128  1.00  0.00     0.163 HD
BRANCH   5   8
ATOM      8  C   UNL A   1      33.060  22.721  24.379  1.00  0.00     0.065 A 
ATOM      9  C   UNL A   1      33.043  23.054  23.020  1.00  0.00     0.054 A 
ATOM     10  C   UNL A   1      32.471  22.153  22.115  1.00  0.00     0.029 A 
ATOM     11  C   UNL A   1      32.200  20.839  22.494  1.00  0.00     0.028 A 
ATOM     12  C   UNL A   1      32.833  21.356  24.713  1.00  0.00     0.042 A 
ATOM     13  C   UNL A   1      32.494  20.372  23.776  1.00  0.00     0.038 A 
BRANCH   9  14
ATOM     14  N   UNL A   1      33.561  24.206  22.420  1.00  0.00    -0.325 N 
ATOM     15  C   UNL A   1      32.956  25.395  22.107  1.00  0.00     0.228 C 
ATOM     16  O   UNL A   1      33.652  26.230  21.514  1.00  0.00    -0.274 OA
ATOM     17  H   UNL A   1      34.515  24.153  22.183  1.00  0.00     0.169 HD
BRANCH  15  18
ATOM     18  C   UNL A   1      31.595  25.800  22.638  1.00  0.00     0.135 C 
BRANCH  18  19
ATOM     19  C   UNL A   1      31.439  27.111  23.356  1.00  0.00    -0.038 A 
ATOM     20  C   UNL A   1      31.218  29.558  24.745  1.00  0.00     0.118 A 
ATOM     21  C   UNL A   1      30.456  29.318  23.598  1.00  0.00     0.047 A 
ATOM     22  C   UNL A   1      32.124  28.587  25.170  1.00  0.00     0.047 A 
ATOM     23  C   UNL A   1      30.569  28.108  22.901  1.00  0.00     0.008 A 
ATOM     24  C   UNL A   1      32.236  27.378  24.478  1.00  0.00     0.008 A 
BRANCH  20  25
ATOM     25  O   UNL A   1      30.986  30.758  25.359  1.00  0.00    -0.497 OA
ATOM     26  C   UNL A   1      31.707  31.003  26.561  1.00  0.00     0.278 C 
ENDBRANCH  20  25
ENDBRANCH  18  19
ENDBRANCH  15  18
ENDBRANCH   9  14
BRANCH  13  27
ATOM     27  N   UNL A   1      32.505  19.023  24.069  1.00  0.00    -0.360 N 
ATOM     28  C   UNL A   1      32.225  18.465  25.403  1.00  0.00     0.178 C 
ATOM     29  C   UNL A   1      32.634  18.015  23.002  1.00  0.00     0.178 C 
ATOM     30  C   UNL A   1      33.216  17.322  25.745  1.00  0.00     0.283 C 
ATOM     31  C   UNL A   1      33.624  16.902  23.413  1.00  0.00     0.283 C 
ATOM     32  N   UNL A   1      33.276  16.271  24.702  1.00  0.00    -0.334 N 
ATOM     33  C   UNL A   1      34.256  15.245  25.048  1.00  0.00     0.332 C 
ATOM     34  H   UNL A   1      32.366  15.814  24.631  1.00  0.00     0.347 HD
ENDBRANCH  13  27
ENDBRANCH   5   8
ENDBRANCH   3   4
ENDBRANCH   2   3
ENDBRANCH   1   2
BRANCH   1  35
ATOM     35  C   UNL A   1      36.658  21.072  24.517  1.00  0.00     0.002 C 
BRANCH  35  36
ATOM     36  C   UNL A   1      37.836  20.232  25.011  1.00  0.00     0.021 C 
BRANCH  36  37
ATOM     37  C   UNL A   1      38.937  20.984  25.746  1.00  0.00     0.116 C 
BRANCH  37  38
ATOM     38  N   UNL A   1      40.074  20.159  26.104  1.00  0.00    -0.352 N 
ATOM     39  C   UNL A   1      41.269  20.543  26.674  1.00  0.00     0.251 C 
ATOM     40  H   UNL A   1      39.981  19.197  25.916  1.00  0.00     0.163 HD
ATOM     41  O   UNL A   1      42.153  19.720  26.846  1.00  0.00    -0.269 OA
BRANCH  39  42
ATOM     42  C   UNL A   1      41.489  21.969  27.030  1.00  0.00     0.039 A 
ATOM     43  C   UNL A   1      41.848  22.279  28.344  1.00  0.00     0.014 A 
ATOM     44  C   UNL A   1      41.356  22.990  26.085  1.00  0.00     0.014 A 
ATOM     45  C   UNL A   1      42.131  23.602  28.695  1.00  0.00     0.010 A 
ATOM     46  C   UNL A   1      41.706  24.297  26.418  1.00  0.00     0.010 A 
ATOM     47  C   UNL A   1      42.094  24.620  27.728  1.00  0.00    -0.014 A 
BRANCH  47  48
ATOM     48  C   UNL A   1      42.429  26.027  28.075  1.00  0.00     0.031 A 
ATOM     49  C   UNL A   1      43.853  26.504  27.977  1.00  0.00     0.074 A 
ATOM     50  C   UNL A   1      41.466  26.859  28.521  1.00  0.00     0.049 A 
ATOM     51  N   UNL A   1      44.365  27.662  28.308  1.00  0.00    -0.248 NA
ATOM     52  C   UNL A   1      44.836  25.540  27.462  1.00  0.00     0.031 C 
ATOM     53  C   UNL A   1      40.054  26.506  28.685  1.00  0.00     0.029 A 
ATOM     54  N   UNL A   1      41.525  28.170  28.922  1.00  0.00    -0.354 N 
ATOM     55  C   UNL A   1      45.729  27.563  28.052  1.00  0.00     0.074 A 
ATOM     56  C   UNL A   1      45.970  26.209  27.598  1.00  0.00     0.031 C 
ATOM     57  C   UNL A   1      39.380  27.580  29.129  1.00  0.00     0.029 A 
ATOM     58  C   UNL A   1      40.314  28.685  29.325  1.00  0.00     0.049 A 
ATOM     59  H   UNL A   1      42.360  28.695  28.922  1.00  0.00     0.167 HD
ATOM     60  C   UNL A   1      46.687  28.517  28.158  1.00  0.00     0.034 A 
ATOM     61  C   UNL A   1      39.995  29.904  29.805  1.00  0.00     0.034 A 
ATOM     62  C   UNL A   1      46.429  29.867  28.598  1.00  0.00     0.049 A 
ATOM     63  C   UNL A   1      41.085  30.940  29.942  1.00  0.00     0.074 A 
ATOM     64  C   UNL A   1      47.319  30.920  28.717  1.00  0.00     0.029 A 
ATOM     65  N   UNL A   1      45.188  30.352  28.990  1.00  0.00    -0.354 N 
ATOM     66  N   UNL A   1      42.365  30.836  29.665  1.00  0.00    -0.248 NA
ATOM     67  C   UNL A   1      40.683  32.262  30.441  1.00  0.00     0.031 C 
ATOM     68  C   UNL A   1      46.629  32.024  29.232  1.00  0.00     0.029 A 
ATOM     69  C   UNL A   1      45.294  31.681  29.368  1.00  0.00     0.049 A 
ATOM     70  H   UNL A   1      44.354  29.828  28.998  1.00  0.00     0.167 HD
ATOM     71  C   UNL A   1      42.910  32.092  29.920  1.00  0.00     0.074 A 
ATOM     72  C   UNL A   1      41.819  32.937  30.359  1.00  0.00     0.031 C 
ATOM     73  C   UNL A   1      44.194  32.512  29.799  1.00  0.00     0.034 A 
BRANCH  60  74
ATOM     74  C   UNL A   1      48.101  28.122  27.807  1.00  0.00     0.023 A 
ATOM     75  C   UNL A   1      48.605  28.271  26.504  1.00  0.00     0.031 A 
ATOM     76  C   UNL A   1      48.951  27.570  28.782  1.00  0.00     0.131 A 
ATOM     77  C   UNL A   1      49.891  27.809  26.192  1.00  0.00     0.055 A 
ATOM     78  C   UNL A   1      50.261  27.185  28.484  1.00  0.00     0.041 A 
ATOM     79  F   UNL A   1      48.520  27.384  30.039  1.00  0.00    -0.206 F 
ATOM     80  C   UNL A   1      50.733  27.290  27.179  1.00  0.00     0.022 A 
BRANCH  77  81
ATOM     81  S   UNL A   1      50.401  27.771  24.452  1.00  0.00     0.124 S 
ATOM     82  O   UNL A   1      51.135  26.508  24.390  1.00  0.00    -0.237 OA
ATOM     83  O   UNL A   1      49.124  27.804  23.748  1.00  0.00    -0.237 OA
ATOM     84  O   UNL A   1      51.224  28.970  24.309  1.00  0.00    -0.744 OA
ENDBRANCH  77  81
ENDBRANCH  60  74
BRANCH  61  85
ATOM     85  C   UNL A   1      38.594  30.225  30.205  1.00  0.00     0.023 A 
ATOM     86  C   UNL A   1      37.703  30.820  29.296  1.00  0.00     0.031 A 
ATOM     87  C   UNL A   1      38.145  30.010  31.519  1.00  0.00     0.131 A 
ATOM     88  C   UNL A   1      36.433  31.234  29.728  1.00  0.00     0.055 A 
ATOM     89  C   UNL A   1      36.859  30.369  31.929  1.00  0.00     0.041 A 
ATOM     90  F   UNL A   1      38.953  29.443  32.430  1.00  0.00    -0.206 F 
ATOM     91  C   UNL A   1      36.001  31.002  31.035  1.00  0.00     0.022 A 
BRANCH  88  92
ATOM     92  S   UNL A   1      35.397  32.186  28.583  1.00  0.00     0.124 S 
ATOM     93  O   UNL A   1      35.069  31.184  27.576  1.00  0.00    -0.237 OA
ATOM     94  O   UNL A   1      34.302  32.611  29.449  1.00  0.00    -0.237 OA
ATOM     95  O   UNL A   1      36.284  33.257  28.133  1.00  0.00    -0.744 OA
ENDBRANCH  88  92
ENDBRANCH  61  85
BRANCH  73  96
ATOM     96  C   UNL A   1      44.471  33.968  30.085  1.00  0.00     0.023 A 
ATOM     97  C   UNL A   1      44.320  34.959  29.101  1.00  0.00     0.031 A 
ATOM     98  C   UNL A   1      44.905  34.362  31.363  1.00  0.00     0.131 A 
ATOM     99  C   UNL A   1      44.656  36.290  29.393  1.00  0.00     0.055 A 
ATOM    100  C   UNL A   1      45.182  35.696  31.665  1.00  0.00     0.041 A 
ATOM    101  F   UNL A   1      45.066  33.457  32.340  1.00  0.00    -0.206 F 
ATOM    102  C   UNL A   1      45.071  36.667  30.674  1.00  0.00     0.022 A 
BRANCH  99 103
ATOM    103  S   UNL A   1      44.630  37.510  28.052  1.00  0.00     0.124 S 
ATOM    104  O   UNL A   1      43.275  38.043  28.152  1.00  0.00    -0.237 OA
ATOM    105  O   UNL A   1      45.703  38.421  28.438  1.00  0.00    -0.237 OA
ATOM    106  O   UNL A   1      44.896  36.712  26.856  1.00  0.00    -0.744 OA
ENDBRANCH  99 103
ENDBRANCH  73  96
ENDBRANCH  47  48
ENDBRANCH  39  42
ENDBRANCH  37  38
ENDBRANCH  36  37
ENDBRANCH  35  36
ENDBRANCH   1  35
TORSDOF 21
ENDMDL
MODEL 3
REMARK VINA RESULT:     -11.2      5.875      9.826
REMARK SMILES COc1ccc(CC(=O)Nc2ccc(N3CC[NH+](C)CC3)cc2C(=O)NCCCCCCNC(=O)c2ccc(-c3c4nc(c(-c5cc(S(=O)(=O)[O-])ccc5F)c5ccc([nH]5)c(-c5cc(S(=O)(=O)[O-])ccc5F)c5nc(c(-c6cc(S(=O)(=O)[O-])ccc6F)c6ccc3[nH]6)C=C5)C=C4)cc2)cc1
REMARK SMILES IDX 29 1 28 2 27 3 26 4 24 5 25 6 23 8 11 9 12 10 13 11 22 12
REMARK SMILES IDX 14 13 10 14 8 15 9 16 7 18 6 19 3 20 4 21 100 22 5 23 99 24
REMARK SMILES IDX 2 25 1 26 15 27 16 28 21 29 17 30 20 31 18 32 19 33 30 35
REMARK SMILES IDX 31 36 32 37 33 38 34 39 35 41 36 42 37 43 98 44 38 45 97 46
REMARK SMILES IDX 39 47 40 48 41 49 91 50 42 51 96 52 90 53 92 54 43 55 95 56
REMARK SMILES IDX 89 57 88 58 44 60 76 61 56 62 75 63 57 64 60 65 74 66 93 67
REMARK SMILES IDX 58 68 59 69 73 71 94 72 61 73 45 74 46 75 54 76 47 77 53 78
REMARK SMILES IDX 55 79 52 80 48 81 49 82 50 83 51 84 77 85 78 86 86 87 79 88
REMARK SMILES IDX 85 89 87 90 84 91 80 92 81 93 82 94 83 95 62 96 63 97 71 98
REMARK SMILES IDX 64 99 70 100 72 101 69 102 65 103 66 104 67 105 68 106
REMARK H PARENT 26 7 10 17 18 34 33 40 92 59 60 70
REMARK Flexibility Score: inf
ROOT
ATOM      1  C   UNL A   1      36.835  21.995  23.944  1.00  0.00     0.002 C 
ENDROOT
BRANCH   1   2
ATOM      2  C   UNL A   1      36.651  23.282  24.766  1.00  0.00     0.021 C 
BRANCH   2   3
ATOM      3  C   UNL A   1      36.097  23.069  26.172  1.00  0.00     0.116 C 
BRANCH   3   4
ATOM      4  N   UNL A   1      34.822  23.714  26.385  1.00  0.00    -0.352 N 
ATOM      5  C   UNL A   1      33.651  23.733  25.670  1.00  0.00     0.253 C 
ATOM      6  O   UNL A   1      32.834  24.589  26.032  1.00  0.00    -0.269 OA
ATOM      7  H   UNL A   1      34.787  24.250  27.210  1.00  0.00     0.163 HD
BRANCH   5   8
ATOM      8  C   UNL A   1      33.321  22.893  24.465  1.00  0.00     0.065 A 
ATOM      9  C   UNL A   1      33.248  23.271  23.120  1.00  0.00     0.054 A 
ATOM     10  C   UNL A   1      32.551  22.450  22.228  1.00  0.00     0.029 A 
ATOM     11  C   UNL A   1      32.198  21.149  22.586  1.00  0.00     0.028 A 
ATOM     12  C   UNL A   1      33.005  21.540  24.774  1.00  0.00     0.042 A 
ATOM     13  C   UNL A   1      32.531  20.618  23.833  1.00  0.00     0.038 A 
BRANCH   9  14
ATOM     14  N   UNL A   1      33.820  24.399  22.522  1.00  0.00    -0.325 N 
ATOM     15  C   UNL A   1      33.332  25.670  22.371  1.00  0.00     0.228 C 
ATOM     16  O   UNL A   1      34.040  26.461  21.735  1.00  0.00    -0.274 OA
ATOM     17  H   UNL A   1      34.719  24.254  22.147  1.00  0.00     0.169 HD
BRANCH  15  18
ATOM     18  C   UNL A   1      32.118  26.187  23.116  1.00  0.00     0.135 C 
BRANCH  18  19
ATOM     19  C   UNL A   1      32.261  27.363  24.043  1.00  0.00    -0.038 A 
ATOM     20  C   UNL A   1      32.447  29.573  25.787  1.00  0.00     0.118 A 
ATOM     21  C   UNL A   1      33.551  28.746  25.565  1.00  0.00     0.047 A 
ATOM     22  C   UNL A   1      31.236  29.265  25.168  1.00  0.00     0.047 A 
ATOM     23  C   UNL A   1      33.461  27.643  24.706  1.00  0.00     0.008 A 
ATOM     24  C   UNL A   1      31.144  28.167  24.308  1.00  0.00     0.008 A 
BRANCH  20  25
ATOM     25  O   UNL A   1      32.673  30.641  26.611  1.00  0.00    -0.497 OA
ATOM     26  C   UNL A   1      31.689  31.668  26.602  1.00  0.00     0.278 C 
ENDBRANCH  20  25
ENDBRANCH  18  19
ENDBRANCH  15  18
ENDBRANCH   9  14
BRANCH  13  27
ATOM     27  N   UNL A   1      32.451  19.263  24.086  1.00  0.00    -0.360 N 
ATOM     28  C   UNL A   1      32.158  18.685  25.409  1.00  0.00     0.178 C 
ATOM     29  C   UNL A   1      32.485  18.281  22.987  1.00  0.00     0.178 C 
ATOM     30  C   UNL A   1      33.071  17.464  25.695  1.00  0.00     0.283 C 
ATOM     31  C   UNL A   1      33.400  17.088  23.344  1.00  0.00     0.283 C 
ATOM     32  N   UNL A   1      33.034  16.444  24.621  1.00  0.00    -0.334 N 
ATOM     33  C   UNL A   1      33.945  15.341  24.914  1.00  0.00     0.332 C 
ATOM     34  H   UNL A   1      32.093  16.056  24.557  1.00  0.00     0.347 HD
ENDBRANCH  13  27
ENDBRANCH   5   8
ENDBRANCH   3   4
ENDBRANCH   2   3
ENDBRANCH   1   2
BRANCH   1  35
ATOM     35  C   UNL A   1      36.604  20.657  24.662  1.00  0.00     0.002 C 
BRANCH  35  36
ATOM     36  C   UNL A   1      37.809  19.729  24.817  1.00  0.00     0.021 C 
BRANCH  36  37
ATOM     37  C   UNL A   1      38.866  20.160  25.825  1.00  0.00     0.116 C 
BRANCH  37  38
ATOM     38  N   UNL A   1      39.987  19.247  25.929  1.00  0.00    -0.352 N 
ATOM     39  C   UNL A   1      41.308  19.535  26.197  1.00  0.00     0.251 C 
ATOM     40  H   UNL A   1      39.778  18.295  25.790  1.00  0.00     0.163 HD
ATOM     41  O   UNL A   1      42.141  18.644  26.178  1.00  0.00    -0.269 OA
BRANCH  39  42
ATOM     42  C   UNL A   1      41.716  20.940  26.458  1.00  0.00     0.039 A 
ATOM     43  C   UNL A   1      41.877  21.351  27.783  1.00  0.00     0.014 A 
ATOM     44  C   UNL A   1      41.948  21.842  25.416  1.00  0.00     0.014 A 
ATOM     45  C   UNL A   1      42.328  22.645  28.062  1.00  0.00     0.010 A 
ATOM     46  C   UNL A   1      42.464  23.107  25.692  1.00  0.00     0.010 A 
ATOM     47  C   UNL A   1      42.657  23.525  27.019  1.00  0.00    -0.014 A 
BRANCH  47  48
ATOM     48  C   UNL A   1      43.173  24.892  27.296  1.00  0.00     0.031 A 
ATOM     49  C   UNL A   1      42.281  25.911  27.952  1.00  0.00     0.074 A 
ATOM     50  C   UNL A   1      44.422  25.231  26.917  1.00  0.00     0.049 A 
ATOM     51  N   UNL A   1      42.511  27.174  28.206  1.00  0.00    -0.248 NA
ATOM     52  C   UNL A   1      40.942  25.453  28.352  1.00  0.00     0.031 C 
ATOM     53  C   UNL A   1      45.374  24.340  26.248  1.00  0.00     0.029 A 
ATOM     54  N   UNL A   1      45.108  26.414  27.034  1.00  0.00    -0.354 N 
ATOM     55  C   UNL A   1      41.344  27.664  28.785  1.00  0.00     0.074 A 
ATOM     56  C   UNL A   1      40.390  26.575  28.785  1.00  0.00     0.031 C 
ATOM     57  C   UNL A   1      46.523  25.001  26.038  1.00  0.00     0.029 A 
ATOM     58  C   UNL A   1      46.381  26.374  26.513  1.00  0.00     0.049 A 
ATOM     59  H   UNL A   1      44.723  27.219  27.453  1.00  0.00     0.167 HD
ATOM     60  C   UNL A   1      41.099  28.897  29.295  1.00  0.00     0.034 A 
ATOM     61  C   UNL A   1      47.322  27.336  26.420  1.00  0.00     0.034 A 
ATOM     62  C   UNL A   1      42.066  29.969  29.301  1.00  0.00     0.049 A 
ATOM     63  C   UNL A   1      47.015  28.709  26.969  1.00  0.00     0.074 A 
ATOM     64  C   UNL A   1      41.932  31.247  29.815  1.00  0.00     0.029 A 
ATOM     65  N   UNL A   1      43.346  29.887  28.771  1.00  0.00    -0.354 N 
ATOM     66  N   UNL A   1      45.915  29.145  27.540  1.00  0.00    -0.248 NA
ATOM     67  C   UNL A   1      48.081  29.715  26.872  1.00  0.00     0.031 C 
ATOM     68  C   UNL A   1      43.110  31.954  29.546  1.00  0.00     0.029 A 
ATOM     69  C   UNL A   1      44.005  31.097  28.929  1.00  0.00     0.049 A 
ATOM     70  H   UNL A   1      43.731  29.087  28.344  1.00  0.00     0.167 HD
ATOM     71  C   UNL A   1      46.176  30.463  27.906  1.00  0.00     0.074 A 
ATOM     72  C   UNL A   1      47.537  30.745  27.502  1.00  0.00     0.031 C 
ATOM     73  C   UNL A   1      45.366  31.359  28.524  1.00  0.00     0.034 A 
BRANCH  60  74
ATOM     74  C   UNL A   1      39.726  29.150  29.869  1.00  0.00     0.023 A 
ATOM     75  C   UNL A   1      38.747  29.856  29.149  1.00  0.00     0.031 A 
ATOM     76  C   UNL A   1      39.397  28.699  31.159  1.00  0.00     0.131 A 
ATOM     77  C   UNL A   1      37.514  30.153  29.749  1.00  0.00     0.055 A 
ATOM     78  C   UNL A   1      38.139  28.928  31.721  1.00  0.00     0.041 A 
ATOM     79  F   UNL A   1      40.298  28.038  31.903  1.00  0.00    -0.206 F 
ATOM     80  C   UNL A   1      37.193  29.672  31.020  1.00  0.00     0.022 A 
BRANCH  77  81
ATOM     81  S   UNL A   1      36.387  31.290  28.897  1.00  0.00     0.124 S 
ATOM     82  O   UNL A   1      37.270  32.420  28.614  1.00  0.00    -0.237 OA
ATOM     83  O   UNL A   1      35.961  30.507  27.742  1.00  0.00    -0.237 OA
ATOM     84  O   UNL A   1      35.348  31.552  29.890  1.00  0.00    -0.744 OA
ENDBRANCH  77  81
ENDBRANCH  60  74
BRANCH  61  85
ATOM     85  C   UNL A   1      48.640  27.057  25.781  1.00  0.00     0.023 A 
ATOM     86  C   UNL A   1      49.723  26.583  26.538  1.00  0.00     0.031 A 
ATOM     87  C   UNL A   1      48.859  27.327  24.419  1.00  0.00     0.131 A 
ATOM     88  C   UNL A   1      50.990  26.452  25.946  1.00  0.00     0.055 A 
ATOM     89  C   UNL A   1      50.107  27.138  23.819  1.00  0.00     0.041 A 
ATOM     90  F   UNL A   1      47.859  27.780  23.645  1.00  0.00    -0.206 F 
ATOM     91  C   UNL A   1      51.185  26.714  24.589  1.00  0.00     0.022 A 
BRANCH  88  92
ATOM     92  S   UNL A   1      52.404  26.041  27.006  1.00  0.00     0.124 S 
ATOM     93  O   UNL A   1      51.781  25.989  28.324  1.00  0.00    -0.237 OA
ATOM     94  O   UNL A   1      52.838  24.765  26.449  1.00  0.00    -0.237 OA
ATOM     95  O   UNL A   1      53.322  27.158  26.794  1.00  0.00    -0.744 OA
ENDBRANCH  88  92
ENDBRANCH  61  85
BRANCH  73  96
ATOM     96  C   UNL A   1      45.960  32.707  28.856  1.00  0.00     0.023 A 
ATOM     97  C   UNL A   1      45.907  33.783  27.954  1.00  0.00     0.031 A 
ATOM     98  C   UNL A   1      46.600  32.907  30.091  1.00  0.00     0.131 A 
ATOM     99  C   UNL A   1      46.535  34.996  28.277  1.00  0.00     0.055 A 
ATOM    100  C   UNL A   1      47.172  34.134  30.432  1.00  0.00     0.041 A 
ATOM    101  F   UNL A   1      46.680  31.913  30.990  1.00  0.00    -0.206 F 
ATOM    102  C   UNL A   1      47.153  35.183  29.518  1.00  0.00     0.022 A 
BRANCH  99 103
ATOM    103  S   UNL A   1      46.611  36.300  27.020  1.00  0.00     0.124 S 
ATOM    104  O   UNL A   1      46.201  35.586  25.815  1.00  0.00    -0.237 OA
ATOM    105  O   UNL A   1      45.662  37.283  27.532  1.00  0.00    -0.237 OA
ATOM    106  O   UNL A   1      48.011  36.722  27.045  1.00  0.00    -0.744 OA
ENDBRANCH  99 103
ENDBRANCH  73  96
ENDBRANCH  47  48
ENDBRANCH  39  42
ENDBRANCH  37  38
ENDBRANCH  36  37
ENDBRANCH  35  36
ENDBRANCH   1  35
TORSDOF 21
ENDMDL
