MODEL 1
REMARK VINA RESULT:     -10.8      0.000      0.000
REMARK SMILES O=C(Cc1ccc(S(=O)(=O)N2CCNC(=O)C2)cc1)NCCCCCCNC(=O)c1ccc(-c2c3nc(c(-c4cc(S(=O)(=O)[O-])ccc4F)c4ccc([nH]4)c(-c4cc(S(=O)(=O)[O-])ccc4F)c4nc(c(-c5cc(S(=O)(=O)[O-])ccc5F)c5ccc2[nH]5)C=C4)C=C3)cc1
REMARK SMILES IDX 23 1 22 2 21 3 20 4 1 5 2 6 3 8 4 9 5 10 19 11 6 12 18 13
REMARK SMILES IDX 7 14 8 15 9 16 10 17 11 18 12 19 17 20 13 21 15 22 14 23
REMARK SMILES IDX 16 24 24 26 25 27 26 28 27 29 28 30 29 32 30 33 31 34 92 35
REMARK SMILES IDX 32 36 91 37 33 38 34 39 35 40 85 41 36 42 90 43 84 44 86 45
REMARK SMILES IDX 37 46 89 47 83 48 82 49 38 51 70 52 50 53 69 54 51 55 54 56
REMARK SMILES IDX 68 57 87 58 52 59 53 60 67 62 88 63 55 64 39 65 40 66 48 67
REMARK SMILES IDX 41 68 47 69 49 70 46 71 42 72 43 73 44 74 45 75 71 76 72 77
REMARK SMILES IDX 80 78 73 79 79 80 81 81 78 82 74 83 75 84 76 85 77 86 56 87
REMARK SMILES IDX 57 88 65 89 58 90 64 91 66 92 63 93 59 94 60 95 61 96 62 97
REMARK H PARENT 20 7 14 25 27 31 86 50 54 61
REMARK Flexibility Score: inf
ROOT
ATOM      1  C   UNL A   1      41.054  22.547  26.965  1.00  0.00     0.002 C 
ENDROOT
BRANCH   1   2
ATOM      2  C   UNL A   1      39.570  22.916  26.818  1.00  0.00     0.021 C 
BRANCH   2   3
ATOM      3  C   UNL A   1      38.759  21.977  25.927  1.00  0.00     0.116 C 
BRANCH   3   4
ATOM      4  N   UNL A   1      37.969  22.713  24.965  1.00  0.00    -0.356 N 
ATOM      5  O   UNL A   1      36.124  21.350  25.009  1.00  0.00    -0.275 OA
ATOM      6  C   UNL A   1      36.712  22.332  24.564  1.00  0.00     0.224 C 
ATOM      7  H   UNL A   1      38.353  23.533  24.579  1.00  0.00     0.163 HD
BRANCH   6   8
ATOM      8  C   UNL A   1      36.126  23.166  23.437  1.00  0.00     0.135 C 
BRANCH   8   9
ATOM      9  C   UNL A   1      34.840  23.886  23.779  1.00  0.00    -0.039 A 
ATOM     10  C   UNL A   1      34.783  24.755  24.878  1.00  0.00     0.005 A 
ATOM     11  C   UNL A   1      33.687  23.681  23.007  1.00  0.00     0.005 A 
ATOM     12  C   UNL A   1      33.609  25.452  25.166  1.00  0.00     0.022 A 
ATOM     13  C   UNL A   1      32.500  24.344  23.316  1.00  0.00     0.022 A 
ATOM     14  C   UNL A   1      32.481  25.270  24.360  1.00  0.00     0.082 A 
BRANCH  14  15
ATOM     15  S   UNL A   1      31.030  26.258  24.649  1.00  0.00     0.243 S 
ATOM     16  O   UNL A   1      29.941  25.643  23.932  1.00  0.00    -0.207 OA
ATOM     17  O   UNL A   1      30.954  26.488  26.080  1.00  0.00    -0.207 OA
BRANCH  15  18
ATOM     18  N   UNL A   1      31.374  27.753  23.945  1.00  0.00    -0.187 NA
ATOM     19  C   UNL A   1      31.677  28.918  24.804  1.00  0.00     0.124 C 
ATOM     20  C   UNL A   1      32.061  27.794  22.636  1.00  0.00     0.202 C 
ATOM     21  C   UNL A   1      33.186  29.091  24.991  1.00  0.00     0.132 C 
ATOM     22  C   UNL A   1      33.507  28.265  22.662  1.00  0.00     0.235 C 
ATOM     23  N   UNL A   1      33.941  28.955  23.762  1.00  0.00    -0.354 N 
ATOM     24  O   UNL A   1      34.272  28.092  21.715  1.00  0.00    -0.274 OA
ATOM     25  H   UNL A   1      34.826  29.386  23.715  1.00  0.00     0.163 HD
ENDBRANCH  15  18
ENDBRANCH  14  15
ENDBRANCH   8   9
ENDBRANCH   6   8
ENDBRANCH   3   4
ENDBRANCH   2   3
ENDBRANCH   1   2
BRANCH   1  26
ATOM     26  C   UNL A   1      41.372  21.440  27.975  1.00  0.00     0.002 C 
BRANCH  26  27
ATOM     27  C   UNL A   1      41.860  20.121  27.375  1.00  0.00     0.021 C 
BRANCH  27  28
ATOM     28  C   UNL A   1      41.782  20.026  25.856  1.00  0.00     0.116 C 
BRANCH  28  29
ATOM     29  N   UNL A   1      43.004  19.517  25.260  1.00  0.00    -0.352 N 
ATOM     30  C   UNL A   1      44.176  20.182  24.986  1.00  0.00     0.251 C 
ATOM     31  H   UNL A   1      42.992  18.563  25.020  1.00  0.00     0.163 HD
ATOM     32  O   UNL A   1      45.058  19.613  24.348  1.00  0.00    -0.269 OA
BRANCH  30  33
ATOM     33  C   UNL A   1      44.358  21.584  25.428  1.00  0.00     0.039 A 
ATOM     34  C   UNL A   1      43.954  22.615  24.574  1.00  0.00     0.014 A 
ATOM     35  C   UNL A   1      44.935  21.889  26.663  1.00  0.00     0.014 A 
ATOM     36  C   UNL A   1      44.082  23.946  24.981  1.00  0.00     0.010 A 
ATOM     37  C   UNL A   1      45.005  23.213  27.093  1.00  0.00     0.010 A 
ATOM     38  C   UNL A   1      44.586  24.257  26.253  1.00  0.00    -0.014 A 
BRANCH  38  39
ATOM     39  C   UNL A   1      44.713  25.666  26.708  1.00  0.00     0.031 A 
ATOM     40  C   UNL A   1      46.053  26.350  26.661  1.00  0.00     0.074 A 
ATOM     41  C   UNL A   1      43.641  26.313  27.205  1.00  0.00     0.049 A 
ATOM     42  N   UNL A   1      46.394  27.541  27.086  1.00  0.00    -0.248 NA
ATOM     43  C   UNL A   1      47.164  25.579  26.083  1.00  0.00     0.031 C 
ATOM     44  C   UNL A   1      42.297  25.747  27.337  1.00  0.00     0.029 A 
ATOM     45  N   UNL A   1      43.513  27.586  27.703  1.00  0.00    -0.354 N 
ATOM     46  C   UNL A   1      47.757  27.659  26.833  1.00  0.00     0.074 A 
ATOM     47  C   UNL A   1      48.189  26.393  26.278  1.00  0.00     0.031 C 
ATOM     48  C   UNL A   1      41.480  26.671  27.870  1.00  0.00     0.029 A 
ATOM     49  C   UNL A   1      42.245  27.882  28.149  1.00  0.00     0.049 A 
ATOM     50  H   UNL A   1      44.259  28.228  27.739  1.00  0.00     0.167 HD
ATOM     51  C   UNL A   1      48.569  28.729  27.023  1.00  0.00     0.034 A 
ATOM     52  C   UNL A   1      41.758  28.999  28.724  1.00  0.00     0.034 A 
ATOM     53  C   UNL A   1      48.125  29.987  27.574  1.00  0.00     0.049 A 
ATOM     54  C   UNL A   1      42.677  30.179  28.921  1.00  0.00     0.074 A 
ATOM     55  C   UNL A   1      48.860  31.136  27.812  1.00  0.00     0.029 A 
ATOM     56  N   UNL A   1      46.821  30.264  27.968  1.00  0.00    -0.354 N 
ATOM     57  N   UNL A   1      43.960  30.280  28.658  1.00  0.00    -0.248 NA
ATOM     58  C   UNL A   1      42.078  31.403  29.468  1.00  0.00     0.031 C 
ATOM     59  C   UNL A   1      48.012  32.092  28.386  1.00  0.00     0.029 A 
ATOM     60  C   UNL A   1      46.734  31.561  28.448  1.00  0.00     0.049 A 
ATOM     61  H   UNL A   1      46.070  29.631  27.913  1.00  0.00     0.167 HD
ATOM     62  C   UNL A   1      44.309  31.590  28.974  1.00  0.00     0.074 A 
ATOM     63  C   UNL A   1      43.101  32.243  29.433  1.00  0.00     0.031 C 
ATOM     64  C   UNL A   1      45.519  32.200  28.893  1.00  0.00     0.034 A 
BRANCH  51  65
ATOM     65  C   UNL A   1      50.020  28.567  26.642  1.00  0.00     0.023 A 
ATOM     66  C   UNL A   1      50.463  28.808  25.329  1.00  0.00     0.031 A 
ATOM     67  C   UNL A   1      50.967  28.134  27.587  1.00  0.00     0.131 A 
ATOM     68  C   UNL A   1      51.794  28.539  24.978  1.00  0.00     0.055 A 
ATOM     69  C   UNL A   1      52.309  27.948  27.249  1.00  0.00     0.041 A 
ATOM     70  F   UNL A   1      50.601  27.870  28.851  1.00  0.00    -0.206 F 
ATOM     71  C   UNL A   1      52.726  28.134  25.934  1.00  0.00     0.022 A 
BRANCH  68  72
ATOM     72  S   UNL A   1      52.253  28.592  23.224  1.00  0.00     0.124 S 
ATOM     73  O   UNL A   1      51.659  29.858  22.803  1.00  0.00    -0.237 OA
ATOM     74  O   UNL A   1      53.710  28.555  23.276  1.00  0.00    -0.237 OA
ATOM     75  O   UNL A   1      51.618  27.398  22.667  1.00  0.00    -0.744 OA
ENDBRANCH  68  72
ENDBRANCH  51  65
BRANCH  52  76
ATOM     76  C   UNL A   1      40.335  29.067  29.165  1.00  0.00     0.023 A 
ATOM     77  C   UNL A   1      39.991  28.957  30.521  1.00  0.00     0.031 A 
ATOM     78  C   UNL A   1      39.295  29.181  28.227  1.00  0.00     0.131 A 
ATOM     79  C   UNL A   1      38.640  28.903  30.898  1.00  0.00     0.055 A 
ATOM     80  C   UNL A   1      37.952  29.181  28.612  1.00  0.00     0.041 A 
ATOM     81  F   UNL A   1      39.569  29.297  26.918  1.00  0.00    -0.206 F 
ATOM     82  C   UNL A   1      37.618  29.024  29.953  1.00  0.00     0.022 A 
BRANCH  79  83
ATOM     83  S   UNL A   1      38.237  28.564  32.635  1.00  0.00     0.124 S 
ATOM     84  O   UNL A   1      36.946  29.228  32.776  1.00  0.00    -0.237 OA
ATOM     85  O   UNL A   1      38.215  27.105  32.659  1.00  0.00    -0.237 OA
ATOM     86  O   UNL A   1      39.341  29.182  33.366  1.00  0.00    -0.744 OA
ENDBRANCH  79  83
ENDBRANCH  52  76
BRANCH  64  87
ATOM     87  C   UNL A   1      45.569  33.665  29.246  1.00  0.00     0.023 A 
ATOM     88  C   UNL A   1      45.360  34.669  28.284  1.00  0.00     0.031 A 
ATOM     89  C   UNL A   1      45.855  34.061  30.565  1.00  0.00     0.131 A 
ATOM     90  C   UNL A   1      45.502  36.019  28.641  1.00  0.00     0.055 A 
ATOM     91  C   UNL A   1      45.942  35.405  30.926  1.00  0.00     0.041 A 
ATOM     92  F   UNL A   1      46.063  33.143  31.524  1.00  0.00    -0.206 F 
ATOM     93  C   UNL A   1      45.780  36.393  29.959  1.00  0.00     0.022 A 
BRANCH  90  94
ATOM     94  S   UNL A   1      45.415  37.278  27.339  1.00  0.00     0.124 S 
ATOM     95  O   UNL A   1      45.922  38.462  28.024  1.00  0.00    -0.237 OA
ATOM     96  O   UNL A   1      46.283  36.719  26.307  1.00  0.00    -0.237 OA
ATOM     97  O   UNL A   1      43.994  37.320  26.996  1.00  0.00    -0.744 OA
ENDBRANCH  90  94
ENDBRANCH  64  87
ENDBRANCH  38  39
ENDBRANCH  30  33
ENDBRANCH  28  29
ENDBRANCH  27  28
ENDBRANCH  26  27
ENDBRANCH   1  26
TORSDOF 19
ENDMDL
MODEL 2
REMARK VINA RESULT:     -10.7      4.987     10.008
REMARK SMILES O=C(Cc1ccc(S(=O)(=O)N2CCNC(=O)C2)cc1)NCCCCCCNC(=O)c1ccc(-c2c3nc(c(-c4cc(S(=O)(=O)[O-])ccc4F)c4ccc([nH]4)c(-c4cc(S(=O)(=O)[O-])ccc4F)c4nc(c(-c5cc(S(=O)(=O)[O-])ccc5F)c5ccc2[nH]5)C=C4)C=C3)cc1
REMARK SMILES IDX 23 1 22 2 21 3 20 4 1 5 2 6 3 8 4 9 5 10 19 11 6 12 18 13
REMARK SMILES IDX 7 14 8 15 9 16 10 17 11 18 12 19 17 20 13 21 15 22 14 23
REMARK SMILES IDX 16 24 24 26 25 27 26 28 27 29 28 30 29 32 30 33 31 34 92 35
REMARK SMILES IDX 32 36 91 37 33 38 34 39 35 40 85 41 36 42 90 43 84 44 86 45
REMARK SMILES IDX 37 46 89 47 83 48 82 49 38 51 70 52 50 53 69 54 51 55 54 56
REMARK SMILES IDX 68 57 87 58 52 59 53 60 67 62 88 63 55 64 39 65 40 66 48 67
REMARK SMILES IDX 41 68 47 69 49 70 46 71 42 72 43 73 44 74 45 75 71 76 72 77
REMARK SMILES IDX 80 78 73 79 79 80 81 81 78 82 74 83 75 84 76 85 77 86 56 87
REMARK SMILES IDX 57 88 65 89 58 90 64 91 66 92 63 93 59 94 60 95 61 96 62 97
REMARK H PARENT 20 7 14 25 27 31 86 50 54 61
REMARK Flexibility Score: inf
ROOT
ATOM      1  C   UNL A   1      33.460  27.627  25.131  1.00  0.00     0.002 C 
ENDROOT
BRANCH   1   2
ATOM      2  C   UNL A   1      33.672  28.536  23.911  1.00  0.00     0.021 C 
BRANCH   2   3
ATOM      3  C   UNL A   1      32.391  28.952  23.190  1.00  0.00     0.116 C 
BRANCH   3   4
ATOM      4  N   UNL A   1      31.374  27.930  23.290  1.00  0.00    -0.356 N 
ATOM      5  O   UNL A   1      29.573  29.339  23.484  1.00  0.00    -0.275 OA
ATOM      6  C   UNL A   1      30.036  28.203  23.448  1.00  0.00     0.224 C 
ATOM      7  H   UNL A   1      31.655  26.988  23.241  1.00  0.00     0.163 HD
BRANCH   6   8
ATOM      8  C   UNL A   1      29.164  26.980  23.682  1.00  0.00     0.135 C 
BRANCH   8   9
ATOM      9  C   UNL A   1      29.898  25.764  24.204  1.00  0.00    -0.039 A 
ATOM     10  C   UNL A   1      30.312  24.753  23.325  1.00  0.00     0.005 A 
ATOM     11  C   UNL A   1      30.161  25.631  25.575  1.00  0.00     0.005 A 
ATOM     12  C   UNL A   1      31.028  23.654  23.802  1.00  0.00     0.022 A 
ATOM     13  C   UNL A   1      30.840  24.514  26.061  1.00  0.00     0.022 A 
ATOM     14  C   UNL A   1      31.320  23.558  25.166  1.00  0.00     0.082 A 
BRANCH  14  15
ATOM     15  S   UNL A   1      32.345  22.226  25.749  1.00  0.00     0.243 S 
ATOM     16  O   UNL A   1      32.557  22.432  27.161  1.00  0.00    -0.207 OA
ATOM     17  O   UNL A   1      31.763  20.994  25.248  1.00  0.00    -0.207 OA
BRANCH  15  18
ATOM     18  N   UNL A   1      33.814  22.421  24.941  1.00  0.00    -0.187 NA
ATOM     19  C   UNL A   1      34.703  23.549  25.294  1.00  0.00     0.124 C 
ATOM     20  C   UNL A   1      34.542  21.225  24.467  1.00  0.00     0.202 C 
ATOM     21  C   UNL A   1      35.761  23.122  26.314  1.00  0.00     0.132 C 
ATOM     22  C   UNL A   1      35.813  20.880  25.228  1.00  0.00     0.235 C 
ATOM     23  N   UNL A   1      36.386  21.853  26.002  1.00  0.00    -0.354 N 
ATOM     24  O   UNL A   1      36.361  19.784  25.129  1.00  0.00    -0.274 OA
ATOM     25  H   UNL A   1      37.282  21.678  26.373  1.00  0.00     0.163 HD
ENDBRANCH  15  18
ENDBRANCH  14  15
ENDBRANCH   8   9
ENDBRANCH   6   8
ENDBRANCH   3   4
ENDBRANCH   2   3
ENDBRANCH   1   2
BRANCH   1  26
ATOM     26  C   UNL A   1      32.669  28.236  26.292  1.00  0.00     0.002 C 
BRANCH  26  27
ATOM     27  C   UNL A   1      33.500  28.984  27.336  1.00  0.00     0.021 C 
BRANCH  27  28
ATOM     28  C   UNL A   1      34.180  30.255  26.840  1.00  0.00     0.116 C 
BRANCH  28  29
ATOM     29  N   UNL A   1      33.944  31.395  27.707  1.00  0.00    -0.352 N 
ATOM     30  C   UNL A   1      34.668  31.819  28.795  1.00  0.00     0.251 C 
ATOM     31  H   UNL A   1      33.155  31.939  27.484  1.00  0.00     0.163 HD
ATOM     32  O   UNL A   1      34.231  32.731  29.493  1.00  0.00    -0.269 OA
BRANCH  30  33
ATOM     33  C   UNL A   1      35.949  31.161  29.141  1.00  0.00     0.039 A 
ATOM     34  C   UNL A   1      37.136  31.688  28.623  1.00  0.00     0.014 A 
ATOM     35  C   UNL A   1      35.988  30.026  29.955  1.00  0.00     0.014 A 
ATOM     36  C   UNL A   1      38.362  31.108  28.963  1.00  0.00     0.010 A 
ATOM     37  C   UNL A   1      37.214  29.486  30.342  1.00  0.00     0.010 A 
ATOM     38  C   UNL A   1      38.414  30.017  29.844  1.00  0.00    -0.014 A 
BRANCH  38  39
ATOM     39  C   UNL A   1      39.710  29.399  30.228  1.00  0.00     0.031 A 
ATOM     40  C   UNL A   1      40.520  29.993  31.349  1.00  0.00     0.074 A 
ATOM     41  C   UNL A   1      40.179  28.338  29.543  1.00  0.00     0.049 A 
ATOM     42  N   UNL A   1      41.710  29.659  31.782  1.00  0.00    -0.248 NA
ATOM     43  C   UNL A   1      39.923  31.136  32.057  1.00  0.00     0.031 C 
ATOM     44  C   UNL A   1      39.505  27.695  28.414  1.00  0.00     0.029 A 
ATOM     45  N   UNL A   1      41.340  27.620  29.687  1.00  0.00    -0.354 N 
ATOM     46  C   UNL A   1      42.005  30.552  32.807  1.00  0.00     0.074 A 
ATOM     47  C   UNL A   1      40.897  31.480  32.885  1.00  0.00     0.031 C 
ATOM     48  C   UNL A   1      40.258  26.672  27.976  1.00  0.00     0.029 A 
ATOM     49  C   UNL A   1      41.483  26.606  28.768  1.00  0.00     0.049 A 
ATOM     50  H   UNL A   1      42.010  27.813  30.384  1.00  0.00     0.167 HD
ATOM     51  C   UNL A   1      43.087  30.581  33.626  1.00  0.00     0.034 A 
ATOM     52  C   UNL A   1      42.489  25.730  28.579  1.00  0.00     0.034 A 
ATOM     53  C   UNL A   1      44.184  29.647  33.541  1.00  0.00     0.049 A 
ATOM     54  C   UNL A   1      43.681  25.777  29.505  1.00  0.00     0.074 A 
ATOM     55  C   UNL A   1      45.330  29.585  34.316  1.00  0.00     0.029 A 
ATOM     56  N   UNL A   1      44.268  28.603  32.628  1.00  0.00    -0.354 N 
ATOM     57  N   UNL A   1      43.934  26.616  30.482  1.00  0.00    -0.248 NA
ATOM     58  C   UNL A   1      44.708  24.746  29.316  1.00  0.00     0.031 C 
ATOM     59  C   UNL A   1      46.124  28.531  33.846  1.00  0.00     0.029 A 
ATOM     60  C   UNL A   1      45.445  27.896  32.819  1.00  0.00     0.049 A 
ATOM     61  H   UNL A   1      43.590  28.396  31.946  1.00  0.00     0.167 HD
ATOM     62  C   UNL A   1      45.133  26.188  31.047  1.00  0.00     0.074 A 
ATOM     63  C   UNL A   1      45.541  25.010  30.311  1.00  0.00     0.031 C 
ATOM     64  C   UNL A   1      45.833  26.718  32.081  1.00  0.00     0.034 A 
BRANCH  51  65
ATOM     65  C   UNL A   1      43.131  31.672  34.668  1.00  0.00     0.023 A 
ATOM     66  C   UNL A   1      42.380  31.582  35.854  1.00  0.00     0.031 A 
ATOM     67  C   UNL A   1      43.902  32.830  34.463  1.00  0.00     0.131 A 
ATOM     68  C   UNL A   1      42.352  32.661  36.749  1.00  0.00     0.055 A 
ATOM     69  C   UNL A   1      43.934  33.866  35.400  1.00  0.00     0.041 A 
ATOM     70  F   UNL A   1      44.625  32.982  33.343  1.00  0.00    -0.206 F 
ATOM     71  C   UNL A   1      43.143  33.792  36.543  1.00  0.00     0.022 A 
BRANCH  68  72
ATOM     72  S   UNL A   1      41.159  32.620  38.115  1.00  0.00     0.124 S 
ATOM     73  O   UNL A   1      40.962  34.043  38.375  1.00  0.00    -0.237 OA
ATOM     74  O   UNL A   1      40.027  31.914  37.527  1.00  0.00    -0.237 OA
ATOM     75  O   UNL A   1      41.869  31.894  39.168  1.00  0.00    -0.744 OA
ENDBRANCH  68  72
ENDBRANCH  51  65
BRANCH  52  76
ATOM     76  C   UNL A   1      42.430  24.733  27.473  1.00  0.00     0.023 A 
ATOM     77  C   UNL A   1      41.614  23.595  27.566  1.00  0.00     0.031 A 
ATOM     78  C   UNL A   1      43.237  24.875  26.331  1.00  0.00     0.131 A 
ATOM     79  C   UNL A   1      41.667  22.611  26.566  1.00  0.00     0.055 A 
ATOM     80  C   UNL A   1      43.246  23.920  25.311  1.00  0.00     0.041 A 
ATOM     81  F   UNL A   1      44.029  25.949  26.187  1.00  0.00    -0.206 F 
ATOM     82  C   UNL A   1      42.470  22.771  25.434  1.00  0.00     0.022 A 
BRANCH  79  83
ATOM     83  S   UNL A   1      40.749  21.067  26.818  1.00  0.00     0.124 S 
ATOM     84  O   UNL A   1      40.798  20.925  28.269  1.00  0.00    -0.237 OA
ATOM     85  O   UNL A   1      39.446  21.396  26.249  1.00  0.00    -0.237 OA
ATOM     86  O   UNL A   1      41.526  20.083  26.068  1.00  0.00    -0.744 OA
ENDBRANCH  79  83
ENDBRANCH  52  76
BRANCH  64  87
ATOM     87  C   UNL A   1      47.076  25.981  32.513  1.00  0.00     0.023 A 
ATOM     88  C   UNL A   1      48.316  26.183  31.883  1.00  0.00     0.031 A 
ATOM     89  C   UNL A   1      47.008  25.041  33.556  1.00  0.00     0.131 A 
ATOM     90  C   UNL A   1      49.425  25.410  32.261  1.00  0.00     0.055 A 
ATOM     91  C   UNL A   1      48.126  24.314  33.964  1.00  0.00     0.041 A 
ATOM     92  F   UNL A   1      45.847  24.809  34.193  1.00  0.00    -0.206 F 
ATOM     93  C   UNL A   1      49.341  24.486  33.305  1.00  0.00     0.022 A 
BRANCH  90  94
ATOM     94  S   UNL A   1      50.958  25.559  31.303  1.00  0.00     0.124 S 
ATOM     95  O   UNL A   1      50.524  25.162  29.967  1.00  0.00    -0.237 OA
ATOM     96  O   UNL A   1      51.293  26.970  31.470  1.00  0.00    -0.237 OA
ATOM     97  O   UNL A   1      51.868  24.624  31.963  1.00  0.00    -0.744 OA
ENDBRANCH  90  94
ENDBRANCH  64  87
ENDBRANCH  38  39
ENDBRANCH  30  33
ENDBRANCH  28  29
ENDBRANCH  27  28
ENDBRANCH  26  27
ENDBRANCH   1  26
TORSDOF 19
ENDMDL
MODEL 3
REMARK VINA RESULT:     -10.6      5.684     10.346
REMARK SMILES O=C(Cc1ccc(S(=O)(=O)N2CCNC(=O)C2)cc1)NCCCCCCNC(=O)c1ccc(-c2c3nc(c(-c4cc(S(=O)(=O)[O-])ccc4F)c4ccc([nH]4)c(-c4cc(S(=O)(=O)[O-])ccc4F)c4nc(c(-c5cc(S(=O)(=O)[O-])ccc5F)c5ccc2[nH]5)C=C4)C=C3)cc1
REMARK SMILES IDX 23 1 22 2 21 3 20 4 1 5 2 6 3 8 4 9 5 10 19 11 6 12 18 13
REMARK SMILES IDX 7 14 8 15 9 16 10 17 11 18 12 19 17 20 13 21 15 22 14 23
REMARK SMILES IDX 16 24 24 26 25 27 26 28 27 29 28 30 29 32 30 33 31 34 92 35
REMARK SMILES IDX 32 36 91 37 33 38 34 39 35 40 85 41 36 42 90 43 84 44 86 45
REMARK SMILES IDX 37 46 89 47 83 48 82 49 38 51 70 52 50 53 69 54 51 55 54 56
REMARK SMILES IDX 68 57 87 58 52 59 53 60 67 62 88 63 55 64 39 65 40 66 48 67
REMARK SMILES IDX 41 68 47 69 49 70 46 71 42 72 43 73 44 74 45 75 71 76 72 77
REMARK SMILES IDX 80 78 73 79 79 80 81 81 78 82 74 83 75 84 76 85 77 86 56 87
REMARK SMILES IDX 57 88 65 89 58 90 64 91 66 92 63 93 59 94 60 95 61 96 62 97
REMARK H PARENT 20 7 14 25 27 31 86 50 54 61
REMARK Flexibility Score: inf
ROOT
ATOM      1  C   UNL A   1      32.794  29.690  26.717  1.00  0.00     0.002 C 
ENDROOT
BRANCH   1   2
ATOM      2  C   UNL A   1      33.326  28.616  25.756  1.00  0.00     0.021 C 
BRANCH   2   3
ATOM      3  C   UNL A   1      33.001  28.854  24.282  1.00  0.00     0.116 C 
BRANCH   3   4
ATOM      4  N   UNL A   1      32.580  27.634  23.632  1.00  0.00    -0.356 N 
ATOM      5  O   UNL A   1      30.345  27.809  24.121  1.00  0.00    -0.275 OA
ATOM      6  C   UNL A   1      31.279  27.193  23.616  1.00  0.00     0.224 C 
ATOM      7  H   UNL A   1      33.262  27.091  23.175  1.00  0.00     0.163 HD
BRANCH   6   8
ATOM      8  C   UNL A   1      31.084  25.814  23.007  1.00  0.00     0.135 C 
BRANCH   8   9
ATOM      9  C   UNL A   1      31.985  24.737  23.571  1.00  0.00    -0.039 A 
ATOM     10  C   UNL A   1      32.803  23.978  22.722  1.00  0.00     0.005 A 
ATOM     11  C   UNL A   1      32.000  24.478  24.950  1.00  0.00     0.005 A 
ATOM     12  C   UNL A   1      33.665  23.015  23.249  1.00  0.00     0.022 A 
ATOM     13  C   UNL A   1      32.830  23.489  25.476  1.00  0.00     0.022 A 
ATOM     14  C   UNL A   1      33.700  22.799  24.630  1.00  0.00     0.082 A 
BRANCH  14  15
ATOM     15  S   UNL A   1      34.894  21.668  25.309  1.00  0.00     0.243 S 
ATOM     16  O   UNL A   1      34.896  21.852  26.739  1.00  0.00    -0.207 OA
ATOM     17  O   UNL A   1      34.628  20.369  24.718  1.00  0.00    -0.207 OA
BRANCH  15  18
ATOM     18  N   UNL A   1      36.379  22.178  24.689  1.00  0.00    -0.187 NA
ATOM     19  C   UNL A   1      36.777  23.597  24.809  1.00  0.00     0.124 C 
ATOM     20  C   UNL A   1      37.524  21.243  24.697  1.00  0.00     0.202 C 
ATOM     21  C   UNL A   1      37.651  23.824  26.045  1.00  0.00     0.132 C 
ATOM     22  C   UNL A   1      38.628  21.558  25.693  1.00  0.00     0.235 C 
ATOM     23  N   UNL A   1      38.685  22.823  26.214  1.00  0.00    -0.354 N 
ATOM     24  O   UNL A   1      39.491  20.738  26.000  1.00  0.00    -0.274 OA
ATOM     25  H   UNL A   1      39.482  23.070  26.740  1.00  0.00     0.163 HD
ENDBRANCH  15  18
ENDBRANCH  14  15
ENDBRANCH   8   9
ENDBRANCH   6   8
ENDBRANCH   3   4
ENDBRANCH   2   3
ENDBRANCH   1   2
BRANCH   1  26
ATOM     26  C   UNL A   1      31.533  30.431  26.262  1.00  0.00     0.002 C 
BRANCH  26  27
ATOM     27  C   UNL A   1      31.509  31.932  26.554  1.00  0.00     0.021 C 
BRANCH  27  28
ATOM     28  C   UNL A   1      32.783  32.497  27.172  1.00  0.00     0.116 C 
BRANCH  28  29
ATOM     29  N   UNL A   1      32.632  33.871  27.615  1.00  0.00    -0.352 N 
ATOM     30  C   UNL A   1      33.306  34.539  28.609  1.00  0.00     0.251 C 
ATOM     31  H   UNL A   1      31.952  34.398  27.136  1.00  0.00     0.163 HD
ATOM     32  O   UNL A   1      32.941  35.666  28.935  1.00  0.00    -0.269 OA
BRANCH  30  33
ATOM     33  C   UNL A   1      34.444  33.893  29.303  1.00  0.00     0.039 A 
ATOM     34  C   UNL A   1      35.745  34.261  28.947  1.00  0.00     0.014 A 
ATOM     35  C   UNL A   1      34.240  32.920  30.285  1.00  0.00     0.014 A 
ATOM     36  C   UNL A   1      36.836  33.693  29.611  1.00  0.00     0.010 A 
ATOM     37  C   UNL A   1      35.325  32.400  30.988  1.00  0.00     0.010 A 
ATOM     38  C   UNL A   1      36.636  32.776  30.654  1.00  0.00    -0.014 A 
BRANCH  38  39
ATOM     39  C   UNL A   1      37.784  32.174  31.381  1.00  0.00     0.031 A 
ATOM     40  C   UNL A   1      38.568  31.055  30.749  1.00  0.00     0.074 A 
ATOM     41  C   UNL A   1      38.092  32.598  32.622  1.00  0.00     0.049 A 
ATOM     42  N   UNL A   1      39.546  30.341  31.246  1.00  0.00    -0.248 NA
ATOM     43  C   UNL A   1      38.178  30.671  29.384  1.00  0.00     0.031 C 
ATOM     44  C   UNL A   1      37.386  33.649  33.357  1.00  0.00     0.029 A 
ATOM     45  N   UNL A   1      39.073  32.190  33.492  1.00  0.00    -0.354 N 
ATOM     46  C   UNL A   1      39.884  29.421  30.260  1.00  0.00     0.074 A 
ATOM     47  C   UNL A   1      38.962  29.628  29.163  1.00  0.00     0.031 C 
ATOM     48  C   UNL A   1      37.962  33.810  34.560  1.00  0.00     0.029 A 
ATOM     49  C   UNL A   1      39.056  32.853  34.698  1.00  0.00     0.049 A 
ATOM     50  H   UNL A   1      39.728  31.487  33.273  1.00  0.00     0.167 HD
ATOM     51  C   UNL A   1      40.885  28.505  30.256  1.00  0.00     0.034 A 
ATOM     52  C   UNL A   1      39.827  32.700  35.791  1.00  0.00     0.034 A 
ATOM     53  C   UNL A   1      41.801  28.311  31.355  1.00  0.00     0.049 A 
ATOM     54  C   UNL A   1      40.939  31.679  35.764  1.00  0.00     0.074 A 
ATOM     55  C   UNL A   1      42.849  27.413  31.461  1.00  0.00     0.029 A 
ATOM     56  N   UNL A   1      41.782  29.037  32.540  1.00  0.00    -0.354 N 
ATOM     57  N   UNL A   1      41.256  30.830  34.814  1.00  0.00    -0.248 NA
ATOM     58  C   UNL A   1      41.808  31.613  36.945  1.00  0.00     0.031 C 
ATOM     59  C   UNL A   1      43.437  27.567  32.723  1.00  0.00     0.029 A 
ATOM     60  C   UNL A   1      42.796  28.604  33.380  1.00  0.00     0.049 A 
ATOM     61  H   UNL A   1      41.142  29.753  32.752  1.00  0.00     0.167 HD
ATOM     62  C   UNL A   1      42.386  30.156  35.272  1.00  0.00     0.074 A 
ATOM     63  C   UNL A   1      42.700  30.708  36.573  1.00  0.00     0.031 C 
ATOM     64  C   UNL A   1      43.101  29.171  34.672  1.00  0.00     0.034 A 
BRANCH  51  65
ATOM     65  C   UNL A   1      41.021  27.639  29.028  1.00  0.00     0.023 A 
ATOM     66  C   UNL A   1      42.002  27.899  28.054  1.00  0.00     0.031 A 
ATOM     67  C   UNL A   1      40.142  26.565  28.805  1.00  0.00     0.131 A 
ATOM     68  C   UNL A   1      42.030  27.149  26.869  1.00  0.00     0.055 A 
ATOM     69  C   UNL A   1      40.229  25.769  27.661  1.00  0.00     0.041 A 
ATOM     70  F   UNL A   1      39.173  26.279  29.690  1.00  0.00    -0.206 F 
ATOM     71  C   UNL A   1      41.166  26.069  26.677  1.00  0.00     0.022 A 
BRANCH  68  72
ATOM     72  S   UNL A   1      43.120  27.694  25.526  1.00  0.00     0.124 S 
ATOM     73  O   UNL A   1      44.060  28.553  26.241  1.00  0.00    -0.237 OA
ATOM     74  O   UNL A   1      43.658  26.435  25.023  1.00  0.00    -0.237 OA
ATOM     75  O   UNL A   1      42.216  28.394  24.614  1.00  0.00    -0.744 OA
ENDBRANCH  68  72
ENDBRANCH  51  65
BRANCH  52  76
ATOM     76  C   UNL A   1      39.586  33.523  37.011  1.00  0.00     0.023 A 
ATOM     77  C   UNL A   1      38.991  32.966  38.154  1.00  0.00     0.031 A 
ATOM     78  C   UNL A   1      39.891  34.894  37.028  1.00  0.00     0.131 A 
ATOM     79  C   UNL A   1      38.664  33.787  39.244  1.00  0.00     0.055 A 
ATOM     80  C   UNL A   1      39.614  35.698  38.136  1.00  0.00     0.041 A 
ATOM     81  F   UNL A   1      40.469  35.475  35.964  1.00  0.00    -0.206 F 
ATOM     82  C   UNL A   1      38.981  35.148  39.247  1.00  0.00     0.022 A 
BRANCH  79  83
ATOM     83  S   UNL A   1      37.722  33.070  40.619  1.00  0.00     0.124 S 
ATOM     84  O   UNL A   1      38.373  31.776  40.784  1.00  0.00    -0.237 OA
ATOM     85  O   UNL A   1      37.951  34.045  41.680  1.00  0.00    -0.237 OA
ATOM     86  O   UNL A   1      36.355  33.021  40.103  1.00  0.00    -0.744 OA
ENDBRANCH  79  83
ENDBRANCH  52  76
BRANCH  64  87
ATOM     87  C   UNL A   1      44.330  28.683  35.395  1.00  0.00     0.023 A 
ATOM     88  C   UNL A   1      44.267  27.668  36.366  1.00  0.00     0.031 A 
ATOM     89  C   UNL A   1      45.582  29.264  35.125  1.00  0.00     0.131 A 
ATOM     90  C   UNL A   1      45.423  27.308  37.076  1.00  0.00     0.055 A 
ATOM     91  C   UNL A   1      46.738  28.864  35.795  1.00  0.00     0.041 A 
ATOM     92  F   UNL A   1      45.699  30.237  34.206  1.00  0.00    -0.206 F 
ATOM     93  C   UNL A   1      46.660  27.891  36.788  1.00  0.00     0.022 A 
BRANCH  90  94
ATOM     94  S   UNL A   1      45.272  26.134  38.450  1.00  0.00     0.124 S 
ATOM     95  O   UNL A   1      44.619  26.944  39.474  1.00  0.00    -0.237 OA
ATOM     96  O   UNL A   1      44.459  25.073  37.864  1.00  0.00    -0.237 OA
ATOM     97  O   UNL A   1      46.656  25.765  38.741  1.00  0.00    -0.744 OA
ENDBRANCH  90  94
ENDBRANCH  64  87
ENDBRANCH  38  39
ENDBRANCH  30  33
ENDBRANCH  28  29
ENDBRANCH  27  28
ENDBRANCH  26  27
ENDBRANCH   1  26
TORSDOF 19
ENDMDL
