MODEL 1
REMARK VINA RESULT:     -11.4      0.000      0.000
REMARK SMILES CC[C@@H]1SC[C@@H](C(=O)NCCCCCCNC(=O)c2ccc(-c3c4nc(c(-c5cc(S(=O)(=O)[O-])ccc5F)c5ccc([nH]5)c(-c5cc(S(=O)(=O)[O-])ccc5F)c5nc(c(-c6cc(S(=O)(=O)[O-])ccc6F)c6ccc3[nH]6)C=C5)C=C4)cc2)N1C(=O)NC1C(C)(C)C1(C)C
REMARK SMILES IDX 13 1 12 2 11 3 10 4 9 5 7 6 8 7 6 9 3 10 4 11 82 12 5 13
REMARK SMILES IDX 2 14 1 15 83 16 84 17 85 18 86 20 87 21 90 22 88 23 89 24
REMARK SMILES IDX 91 25 92 26 14 27 15 28 16 29 17 30 18 32 19 33 20 34 81 35
REMARK SMILES IDX 21 36 80 37 22 38 23 39 24 40 74 41 25 42 79 43 73 44 75 45
REMARK SMILES IDX 26 46 78 47 72 48 71 49 27 51 59 52 39 53 58 54 40 55 43 56
REMARK SMILES IDX 57 57 76 58 41 59 42 60 56 62 77 63 44 64 28 65 29 66 37 67
REMARK SMILES IDX 30 68 36 69 38 70 35 71 31 72 32 73 33 74 34 75 60 76 61 77
REMARK SMILES IDX 69 78 62 79 68 80 70 81 67 82 63 83 64 84 65 85 66 86 45 87
REMARK SMILES IDX 46 88 54 89 47 90 53 91 55 92 52 93 48 94 49 95 50 96 51 97
REMARK H PARENT 9 8 85 19 16 31 75 50 43 61
REMARK Flexibility Score: inf
ROOT
ATOM      1  C   UNL A   1      37.133  20.508  24.847  1.00  0.00     0.002 C 
ENDROOT
BRANCH   1   2
ATOM      2  C   UNL A   1      37.414  22.006  25.036  1.00  0.00     0.002 C 
BRANCH   2   3
ATOM      3  C   UNL A   1      36.445  22.928  24.290  1.00  0.00     0.021 C 
BRANCH   3   4
ATOM      4  C   UNL A   1      35.656  23.836  25.232  1.00  0.00     0.116 C 
BRANCH   4   5
ATOM      5  N   UNL A   1      35.236  23.129  26.419  1.00  0.00    -0.354 N 
ATOM      6  C   UNL A   1      34.079  22.480  26.728  1.00  0.00     0.243 C 
ATOM      7  O   UNL A   1      34.127  21.766  27.739  1.00  0.00    -0.273 OA
ATOM      8  H   UNL A   1      35.911  23.112  27.137  1.00  0.00     0.163 HD
BRANCH   6   9
ATOM      9  C   UNL A   1      32.834  22.427  25.795  1.00  0.00     0.187 C 
ATOM     10  C   UNL A   1      32.561  23.944  23.872  1.00  0.00     0.145 C 
ATOM     11  S   UNL A   1      32.787  22.276  23.131  1.00  0.00    -0.134 SA
ATOM     12  N   UNL A   1      32.259  23.714  25.297  1.00  0.00    -0.300 N 
ATOM     13  C   UNL A   1      33.136  21.445  24.672  1.00  0.00     0.107 C 
BRANCH  10  14
ATOM     14  C   UNL A   1      31.646  24.691  22.910  1.00  0.00     0.033 C 
ATOM     15  C   UNL A   1      32.342  25.388  21.734  1.00  0.00     0.007 C 
ENDBRANCH  10  14
BRANCH  12  16
ATOM     16  C   UNL A   1      31.647  24.432  26.295  1.00  0.00     0.319 C 
ATOM     17  O   UNL A   1      30.708  23.934  26.936  1.00  0.00    -0.249 OA
ATOM     18  N   UNL A   1      31.939  25.683  26.700  1.00  0.00    -0.334 N 
ATOM     19  H   UNL A   1      31.361  25.980  27.438  1.00  0.00     0.165 HD
BRANCH  18  20
ATOM     20  C   UNL A   1      32.875  26.670  26.321  1.00  0.00     0.096 C 
ATOM     21  C   UNL A   1      32.492  27.703  25.242  1.00  0.00    -0.007 C 
ATOM     22  C   UNL A   1      32.835  28.155  26.661  1.00  0.00    -0.007 C 
ATOM     23  C   UNL A   1      33.437  28.089  24.125  1.00  0.00     0.014 C 
ATOM     24  C   UNL A   1      31.049  27.743  24.763  1.00  0.00     0.014 C 
ATOM     25  C   UNL A   1      31.764  28.782  27.515  1.00  0.00     0.014 C 
ATOM     26  C   UNL A   1      34.197  28.793  26.908  1.00  0.00     0.014 C 
ENDBRANCH  18  20
ENDBRANCH  12  16
ENDBRANCH   6   9
ENDBRANCH   4   5
ENDBRANCH   3   4
ENDBRANCH   2   3
ENDBRANCH   1   2
BRANCH   1  27
ATOM     27  C   UNL A   1      38.355  19.594  24.984  1.00  0.00     0.021 C 
BRANCH  27  28
ATOM     28  C   UNL A   1      39.385  20.073  26.002  1.00  0.00     0.116 C 
BRANCH  28  29
ATOM     29  N   UNL A   1      40.558  19.213  26.014  1.00  0.00    -0.352 N 
ATOM     30  C   UNL A   1      41.883  19.556  25.995  1.00  0.00     0.251 C 
ATOM     31  H   UNL A   1      40.372  18.247  26.040  1.00  0.00     0.163 HD
ATOM     32  O   UNL A   1      42.729  18.700  25.717  1.00  0.00    -0.269 OA
BRANCH  30  33
ATOM     33  C   UNL A   1      42.296  20.940  26.297  1.00  0.00     0.039 A 
ATOM     34  C   UNL A   1      42.499  21.318  27.626  1.00  0.00     0.014 A 
ATOM     35  C   UNL A   1      42.460  21.873  25.268  1.00  0.00     0.014 A 
ATOM     36  C   UNL A   1      42.913  22.619  27.919  1.00  0.00     0.010 A 
ATOM     37  C   UNL A   1      42.944  23.145  25.556  1.00  0.00     0.010 A 
ATOM     38  C   UNL A   1      43.168  23.535  26.885  1.00  0.00    -0.014 A 
BRANCH  38  39
ATOM     39  C   UNL A   1      43.658  24.906  27.178  1.00  0.00     0.031 A 
ATOM     40  C   UNL A   1      42.718  25.941  27.737  1.00  0.00     0.074 A 
ATOM     41  C   UNL A   1      44.933  25.232  26.885  1.00  0.00     0.049 A 
ATOM     42  N   UNL A   1      42.938  27.203  27.999  1.00  0.00    -0.248 NA
ATOM     43  C   UNL A   1      41.340  25.504  28.009  1.00  0.00     0.031 C 
ATOM     44  C   UNL A   1      45.921  24.323  26.298  1.00  0.00     0.029 A 
ATOM     45  N   UNL A   1      45.615  26.413  27.031  1.00  0.00    -0.354 N 
ATOM     46  C   UNL A   1      41.726  27.715  28.449  1.00  0.00     0.074 A 
ATOM     47  C   UNL A   1      40.762  26.639  28.369  1.00  0.00     0.031 C 
ATOM     48  C   UNL A   1      47.086  24.975  26.155  1.00  0.00     0.029 A 
ATOM     49  C   UNL A   1      46.919  26.356  26.592  1.00  0.00     0.049 A 
ATOM     50  H   UNL A   1      45.211  27.225  27.412  1.00  0.00     0.167 HD
ATOM     51  C   UNL A   1      41.451  28.962  28.907  1.00  0.00     0.034 A 
ATOM     52  C   UNL A   1      47.867  27.313  26.534  1.00  0.00     0.034 A 
ATOM     53  C   UNL A   1      42.433  30.016  28.994  1.00  0.00     0.049 A 
ATOM     54  C   UNL A   1      47.532  28.695  27.038  1.00  0.00     0.074 A 
ATOM     55  C   UNL A   1      42.282  31.293  29.506  1.00  0.00     0.029 A 
ATOM     56  N   UNL A   1      43.746  29.921  28.550  1.00  0.00    -0.354 N 
ATOM     57  N   UNL A   1      46.397  29.146  27.525  1.00  0.00    -0.248 NA
ATOM     58  C   UNL A   1      48.608  29.693  27.000  1.00  0.00     0.031 C 
ATOM     59  C   UNL A   1      43.475  31.992  29.301  1.00  0.00     0.029 A 
ATOM     60  C   UNL A   1      44.402  31.128  28.740  1.00  0.00     0.049 A 
ATOM     61  H   UNL A   1      44.151  29.114  28.156  1.00  0.00     0.167 HD
ATOM     62  C   UNL A   1      46.636  30.471  27.878  1.00  0.00     0.074 A 
ATOM     63  C   UNL A   1      48.025  30.738  27.568  1.00  0.00     0.031 C 
ATOM     64  C   UNL A   1      45.786  31.384  28.415  1.00  0.00     0.034 A 
BRANCH  51  65
ATOM     65  C   UNL A   1      40.028  29.261  29.317  1.00  0.00     0.023 A 
ATOM     66  C   UNL A   1      39.634  29.299  30.667  1.00  0.00     0.031 A 
ATOM     67  C   UNL A   1      39.043  29.501  28.341  1.00  0.00     0.131 A 
ATOM     68  C   UNL A   1      38.286  29.500  30.999  1.00  0.00     0.055 A 
ATOM     69  C   UNL A   1      37.719  29.783  28.682  1.00  0.00     0.041 A 
ATOM     70  F   UNL A   1      39.351  29.454  27.035  1.00  0.00    -0.206 F 
ATOM     71  C   UNL A   1      37.331  29.770  30.017  1.00  0.00     0.022 A 
BRANCH  68  72
ATOM     72  S   UNL A   1      37.774  29.265  32.723  1.00  0.00     0.124 S 
ATOM     73  O   UNL A   1      36.472  29.928  32.736  1.00  0.00    -0.237 OA
ATOM     74  O   UNL A   1      37.753  27.813  32.851  1.00  0.00    -0.237 OA
ATOM     75  O   UNL A   1      38.818  29.946  33.487  1.00  0.00    -0.744 OA
ENDBRANCH  68  72
ENDBRANCH  51  65
BRANCH  52  76
ATOM     76  C   UNL A   1      49.213  27.013  25.964  1.00  0.00     0.023 A 
ATOM     77  C   UNL A   1      50.301  26.705  26.796  1.00  0.00     0.031 A 
ATOM     78  C   UNL A   1      49.442  27.080  24.578  1.00  0.00     0.131 A 
ATOM     79  C   UNL A   1      51.578  26.528  26.240  1.00  0.00     0.055 A 
ATOM     80  C   UNL A   1      50.702  26.844  24.026  1.00  0.00     0.041 A 
ATOM     81  F   UNL A   1      48.436  27.366  23.736  1.00  0.00    -0.206 F 
ATOM     82  C   UNL A   1      51.784  26.582  24.860  1.00  0.00     0.022 A 
BRANCH  79  83
ATOM     83  S   UNL A   1      52.992  26.331  27.360  1.00  0.00     0.124 S 
ATOM     84  O   UNL A   1      53.751  27.548  27.096  1.00  0.00    -0.237 OA
ATOM     85  O   UNL A   1      52.337  26.251  28.661  1.00  0.00    -0.237 OA
ATOM     86  O   UNL A   1      53.618  25.092  26.901  1.00  0.00    -0.744 OA
ENDBRANCH  79  83
ENDBRANCH  52  76
BRANCH  64  87
ATOM     87  C   UNL A   1      46.356  32.744  28.739  1.00  0.00     0.023 A 
ATOM     88  C   UNL A   1      46.328  33.800  27.812  1.00  0.00     0.031 A 
ATOM     89  C   UNL A   1      46.949  32.980  29.993  1.00  0.00     0.131 A 
ATOM     90  C   UNL A   1      46.937  35.024  28.129  1.00  0.00     0.055 A 
ATOM     91  C   UNL A   1      47.493  34.221  30.327  1.00  0.00     0.041 A 
ATOM     92  F   UNL A   1      47.008  32.007  30.916  1.00  0.00    -0.206 F 
ATOM     93  C   UNL A   1      47.502  35.247  29.387  1.00  0.00     0.022 A 
BRANCH  90  94
ATOM     94  S   UNL A   1      47.074  36.288  26.836  1.00  0.00     0.124 S 
ATOM     95  O   UNL A   1      48.480  36.185  26.460  1.00  0.00    -0.237 OA
ATOM     96  O   UNL A   1      46.113  35.823  25.842  1.00  0.00    -0.237 OA
ATOM     97  O   UNL A   1      46.704  37.524  27.523  1.00  0.00    -0.744 OA
ENDBRANCH  90  94
ENDBRANCH  64  87
ENDBRANCH  38  39
ENDBRANCH  30  33
ENDBRANCH  28  29
ENDBRANCH  27  28
ENDBRANCH   1  27
TORSDOF 19
ENDMDL
MODEL 2
REMARK VINA RESULT:     -11.3      1.363      1.653
REMARK SMILES CC[C@@H]1SC[C@@H](C(=O)NCCCCCCNC(=O)c2ccc(-c3c4nc(c(-c5cc(S(=O)(=O)[O-])ccc5F)c5ccc([nH]5)c(-c5cc(S(=O)(=O)[O-])ccc5F)c5nc(c(-c6cc(S(=O)(=O)[O-])ccc6F)c6ccc3[nH]6)C=C5)C=C4)cc2)N1C(=O)NC1C(C)(C)C1(C)C
REMARK SMILES IDX 13 1 12 2 11 3 10 4 9 5 7 6 8 7 6 9 3 10 4 11 82 12 5 13
REMARK SMILES IDX 2 14 1 15 83 16 84 17 85 18 86 20 87 21 90 22 88 23 89 24
REMARK SMILES IDX 91 25 92 26 14 27 15 28 16 29 17 30 18 32 19 33 20 34 81 35
REMARK SMILES IDX 21 36 80 37 22 38 23 39 24 40 74 41 25 42 79 43 73 44 75 45
REMARK SMILES IDX 26 46 78 47 72 48 71 49 27 51 59 52 39 53 58 54 40 55 43 56
REMARK SMILES IDX 57 57 76 58 41 59 42 60 56 62 77 63 44 64 28 65 29 66 37 67
REMARK SMILES IDX 30 68 36 69 38 70 35 71 31 72 32 73 33 74 34 75 60 76 61 77
REMARK SMILES IDX 69 78 62 79 68 80 70 81 67 82 63 83 64 84 65 85 66 86 45 87
REMARK SMILES IDX 46 88 54 89 47 90 53 91 55 92 52 93 48 94 49 95 50 96 51 97
REMARK H PARENT 9 8 85 19 16 31 75 50 43 61
REMARK Flexibility Score: inf
ROOT
ATOM      1  C   UNL A   1      37.095  20.837  24.431  1.00  0.00     0.002 C 
ENDROOT
BRANCH   1   2
ATOM      2  C   UNL A   1      37.185  22.304  24.876  1.00  0.00     0.002 C 
BRANCH   2   3
ATOM      3  C   UNL A   1      36.111  23.213  24.271  1.00  0.00     0.021 C 
BRANCH   3   4
ATOM      4  C   UNL A   1      35.339  23.995  25.331  1.00  0.00     0.116 C 
BRANCH   4   5
ATOM      5  N   UNL A   1      35.054  23.179  26.488  1.00  0.00    -0.354 N 
ATOM      6  C   UNL A   1      33.986  22.395  26.806  1.00  0.00     0.243 C 
ATOM      7  O   UNL A   1      34.158  21.630  27.765  1.00  0.00    -0.273 OA
ATOM      8  H   UNL A   1      35.762  23.190  27.173  1.00  0.00     0.163 HD
BRANCH   6   9
ATOM      9  C   UNL A   1      32.708  22.267  25.926  1.00  0.00     0.187 C 
ATOM     10  C   UNL A   1      32.311  23.694  23.958  1.00  0.00     0.145 C 
ATOM     11  S   UNL A   1      32.560  22.005  23.275  1.00  0.00    -0.134 SA
ATOM     12  N   UNL A   1      32.074  23.514  25.402  1.00  0.00    -0.300 N 
ATOM     13  C   UNL A   1      32.996  21.248  24.833  1.00  0.00     0.107 C 
BRANCH  10  14
ATOM     14  C   UNL A   1      31.336  24.374  23.004  1.00  0.00     0.033 C 
ATOM     15  C   UNL A   1      31.960  25.341  21.990  1.00  0.00     0.007 C 
ENDBRANCH  10  14
BRANCH  12  16
ATOM     16  C   UNL A   1      31.479  24.254  26.394  1.00  0.00     0.319 C 
ATOM     17  O   UNL A   1      30.537  23.779  27.049  1.00  0.00    -0.249 OA
ATOM     18  N   UNL A   1      31.792  25.506  26.781  1.00  0.00    -0.334 N 
ATOM     19  H   UNL A   1      31.224  25.821  27.519  1.00  0.00     0.165 HD
BRANCH  18  20
ATOM     20  C   UNL A   1      32.740  26.474  26.382  1.00  0.00     0.096 C 
ATOM     21  C   UNL A   1      32.360  27.507  25.302  1.00  0.00    -0.007 C 
ATOM     22  C   UNL A   1      32.731  27.961  26.713  1.00  0.00    -0.007 C 
ATOM     23  C   UNL A   1      33.296  27.869  24.170  1.00  0.00     0.014 C 
ATOM     24  C   UNL A   1      30.911  27.569  24.844  1.00  0.00     0.014 C 
ATOM     25  C   UNL A   1      31.683  28.612  27.579  1.00  0.00     0.014 C 
ATOM     26  C   UNL A   1      34.108  28.577  26.938  1.00  0.00     0.014 C 
ENDBRANCH  18  20
ENDBRANCH  12  16
ENDBRANCH   6   9
ENDBRANCH   4   5
ENDBRANCH   3   4
ENDBRANCH   2   3
ENDBRANCH   1   2
BRANCH   1  27
ATOM     27  C   UNL A   1      37.977  19.863  25.219  1.00  0.00     0.021 C 
BRANCH  27  28
ATOM     28  C   UNL A   1      39.248  20.487  25.786  1.00  0.00     0.116 C 
BRANCH  28  29
ATOM     29  N   UNL A   1      40.279  19.483  26.005  1.00  0.00    -0.352 N 
ATOM     30  C   UNL A   1      41.630  19.647  26.147  1.00  0.00     0.251 C 
ATOM     31  H   UNL A   1      39.959  18.554  26.057  1.00  0.00     0.163 HD
ATOM     32  O   UNL A   1      42.377  18.670  26.034  1.00  0.00    -0.269 OA
BRANCH  30  33
ATOM     33  C   UNL A   1      42.190  20.984  26.427  1.00  0.00     0.039 A 
ATOM     34  C   UNL A   1      42.478  21.840  25.362  1.00  0.00     0.014 A 
ATOM     35  C   UNL A   1      42.453  21.383  27.742  1.00  0.00     0.014 A 
ATOM     36  C   UNL A   1      42.985  23.115  25.619  1.00  0.00     0.010 A 
ATOM     37  C   UNL A   1      42.887  22.679  27.999  1.00  0.00     0.010 A 
ATOM     38  C   UNL A   1      43.166  23.557  26.941  1.00  0.00    -0.014 A 
BRANCH  38  39
ATOM     39  C   UNL A   1      43.656  24.929  27.231  1.00  0.00     0.031 A 
ATOM     40  C   UNL A   1      42.722  25.956  27.814  1.00  0.00     0.074 A 
ATOM     41  C   UNL A   1      44.922  25.263  26.912  1.00  0.00     0.049 A 
ATOM     42  N   UNL A   1      42.942  27.218  28.078  1.00  0.00    -0.248 NA
ATOM     43  C   UNL A   1      41.352  25.511  28.112  1.00  0.00     0.031 C 
ATOM     44  C   UNL A   1      45.903  24.362  26.301  1.00  0.00     0.029 A 
ATOM     45  N   UNL A   1      45.602  26.446  27.050  1.00  0.00    -0.354 N 
ATOM     46  C   UNL A   1      41.737  27.722  28.556  1.00  0.00     0.074 A 
ATOM     47  C   UNL A   1      40.776  26.642  28.490  1.00  0.00     0.031 C 
ATOM     48  C   UNL A   1      47.062  25.020  26.137  1.00  0.00     0.029 A 
ATOM     49  C   UNL A   1      46.897  26.399  26.584  1.00  0.00     0.049 A 
ATOM     50  H   UNL A   1      45.202  27.255  27.444  1.00  0.00     0.167 HD
ATOM     51  C   UNL A   1      41.465  28.965  29.025  1.00  0.00     0.034 A 
ATOM     52  C   UNL A   1      47.838  27.361  26.511  1.00  0.00     0.034 A 
ATOM     53  C   UNL A   1      42.444  30.023  29.098  1.00  0.00     0.049 A 
ATOM     54  C   UNL A   1      47.507  28.739  27.029  1.00  0.00     0.074 A 
ATOM     55  C   UNL A   1      42.297  31.297  29.619  1.00  0.00     0.029 A 
ATOM     56  N   UNL A   1      43.747  29.938  28.625  1.00  0.00    -0.354 N 
ATOM     57  N   UNL A   1      46.381  29.181  27.541  1.00  0.00    -0.248 NA
ATOM     58  C   UNL A   1      48.577  29.743  26.973  1.00  0.00     0.031 C 
ATOM     59  C   UNL A   1      43.482  32.004  29.392  1.00  0.00     0.029 A 
ATOM     60  C   UNL A   1      44.401  31.147  28.808  1.00  0.00     0.049 A 
ATOM     61  H   UNL A   1      44.148  29.135  28.219  1.00  0.00     0.167 HD
ATOM     62  C   UNL A   1      46.619  30.506  27.896  1.00  0.00     0.074 A 
ATOM     63  C   UNL A   1      48.001  30.781  27.558  1.00  0.00     0.031 C 
ATOM     64  C   UNL A   1      45.777  31.412  28.455  1.00  0.00     0.034 A 
BRANCH  51  65
ATOM     65  C   UNL A   1      40.049  29.255  29.467  1.00  0.00     0.023 A 
ATOM     66  C   UNL A   1      39.702  29.373  30.825  1.00  0.00     0.031 A 
ATOM     67  C   UNL A   1      39.025  29.404  28.513  1.00  0.00     0.131 A 
ATOM     68  C   UNL A   1      38.362  29.562  31.192  1.00  0.00     0.055 A 
ATOM     69  C   UNL A   1      37.707  29.675  28.884  1.00  0.00     0.041 A 
ATOM     70  F   UNL A   1      39.288  29.278  27.203  1.00  0.00    -0.206 F 
ATOM     71  C   UNL A   1      37.365  29.741  30.230  1.00  0.00     0.022 A 
BRANCH  68  72
ATOM     72  S   UNL A   1      37.917  29.430  32.945  1.00  0.00     0.124 S 
ATOM     73  O   UNL A   1      36.934  30.504  33.081  1.00  0.00    -0.237 OA
ATOM     74  O   UNL A   1      37.396  28.072  33.038  1.00  0.00    -0.237 OA
ATOM     75  O   UNL A   1      39.181  29.663  33.639  1.00  0.00    -0.744 OA
ENDBRANCH  68  72
ENDBRANCH  51  65
BRANCH  52  76
ATOM     76  C   UNL A   1      49.173  27.071  25.912  1.00  0.00     0.023 A 
ATOM     77  C   UNL A   1      49.471  27.435  24.589  1.00  0.00     0.031 A 
ATOM     78  C   UNL A   1      50.157  26.378  26.641  1.00  0.00     0.131 A 
ATOM     79  C   UNL A   1      50.697  27.058  24.018  1.00  0.00     0.055 A 
ATOM     80  C   UNL A   1      51.398  26.059  26.088  1.00  0.00     0.041 A 
ATOM     81  F   UNL A   1      49.928  26.010  27.911  1.00  0.00    -0.206 F 
ATOM     82  C   UNL A   1      51.668  26.385  24.763  1.00  0.00     0.022 A 
BRANCH  79  83
ATOM     83  S   UNL A   1      50.964  27.370  22.251  1.00  0.00     0.124 S 
ATOM     84  O   UNL A   1      51.013  28.827  22.211  1.00  0.00    -0.237 OA
ATOM     85  O   UNL A   1      52.227  26.679  22.010  1.00  0.00    -0.237 OA
ATOM     86  O   UNL A   1      49.793  26.765  21.619  1.00  0.00    -0.744 OA
ENDBRANCH  79  83
ENDBRANCH  52  76
BRANCH  64  87
ATOM     87  C   UNL A   1      46.347  32.773  28.774  1.00  0.00     0.023 A 
ATOM     88  C   UNL A   1      46.353  33.814  27.830  1.00  0.00     0.031 A 
ATOM     89  C   UNL A   1      46.904  33.025  30.041  1.00  0.00     0.131 A 
ATOM     90  C   UNL A   1      46.961  35.039  28.145  1.00  0.00     0.055 A 
ATOM     91  C   UNL A   1      47.447  34.268  30.371  1.00  0.00     0.041 A 
ATOM     92  F   UNL A   1      46.929  32.067  30.981  1.00  0.00    -0.206 F 
ATOM     93  C   UNL A   1      47.491  35.279  29.416  1.00  0.00     0.022 A 
BRANCH  90  94
ATOM     94  S   UNL A   1      47.146  36.281  26.836  1.00  0.00     0.124 S 
ATOM     95  O   UNL A   1      45.785  36.794  26.712  1.00  0.00    -0.237 OA
ATOM     96  O   UNL A   1      48.123  37.198  27.412  1.00  0.00    -0.237 OA
ATOM     97  O   UNL A   1      47.623  35.506  25.692  1.00  0.00    -0.744 OA
ENDBRANCH  90  94
ENDBRANCH  64  87
ENDBRANCH  38  39
ENDBRANCH  30  33
ENDBRANCH  28  29
ENDBRANCH  27  28
ENDBRANCH   1  27
TORSDOF 19
ENDMDL
MODEL 3
REMARK VINA RESULT:     -11.3      2.003      2.394
REMARK SMILES CC[C@@H]1SC[C@@H](C(=O)NCCCCCCNC(=O)c2ccc(-c3c4nc(c(-c5cc(S(=O)(=O)[O-])ccc5F)c5ccc([nH]5)c(-c5cc(S(=O)(=O)[O-])ccc5F)c5nc(c(-c6cc(S(=O)(=O)[O-])ccc6F)c6ccc3[nH]6)C=C5)C=C4)cc2)N1C(=O)NC1C(C)(C)C1(C)C
REMARK SMILES IDX 13 1 12 2 11 3 10 4 9 5 7 6 8 7 6 9 3 10 4 11 82 12 5 13
REMARK SMILES IDX 2 14 1 15 83 16 84 17 85 18 86 20 87 21 90 22 88 23 89 24
REMARK SMILES IDX 91 25 92 26 14 27 15 28 16 29 17 30 18 32 19 33 20 34 81 35
REMARK SMILES IDX 21 36 80 37 22 38 23 39 24 40 74 41 25 42 79 43 73 44 75 45
REMARK SMILES IDX 26 46 78 47 72 48 71 49 27 51 59 52 39 53 58 54 40 55 43 56
REMARK SMILES IDX 57 57 76 58 41 59 42 60 56 62 77 63 44 64 28 65 29 66 37 67
REMARK SMILES IDX 30 68 36 69 38 70 35 71 31 72 32 73 33 74 34 75 60 76 61 77
REMARK SMILES IDX 69 78 62 79 68 80 70 81 67 82 63 83 64 84 65 85 66 86 45 87
REMARK SMILES IDX 46 88 54 89 47 90 53 91 55 92 52 93 48 94 49 95 50 96 51 97
REMARK H PARENT 9 8 85 19 16 31 75 50 43 61
REMARK Flexibility Score: inf
ROOT
ATOM      1  C   UNL A   1      36.439  20.666  24.912  1.00  0.00     0.002 C 
ENDROOT
BRANCH   1   2
ATOM      2  C   UNL A   1      36.563  21.992  24.147  1.00  0.00     0.002 C 
BRANCH   2   3
ATOM      3  C   UNL A   1      36.677  23.228  25.044  1.00  0.00     0.021 C 
BRANCH   3   4
ATOM      4  C   UNL A   1      35.319  23.858  25.349  1.00  0.00     0.116 C 
BRANCH   4   5
ATOM      5  N   UNL A   1      34.768  23.354  26.585  1.00  0.00    -0.354 N 
ATOM      6  C   UNL A   1      33.555  22.809  26.883  1.00  0.00     0.243 C 
ATOM      7  O   UNL A   1      33.483  22.251  27.987  1.00  0.00    -0.273 OA
ATOM      8  H   UNL A   1      35.381  23.415  27.353  1.00  0.00     0.163 HD
BRANCH   6   9
ATOM      9  C   UNL A   1      32.388  22.671  25.862  1.00  0.00     0.187 C 
ATOM     10  C   UNL A   1      32.232  24.068  23.838  1.00  0.00     0.145 C 
ATOM     11  S   UNL A   1      32.550  22.366  23.216  1.00  0.00    -0.134 SA
ATOM     12  N   UNL A   1      31.826  23.912  25.247  1.00  0.00    -0.300 N 
ATOM     13  C   UNL A   1      32.796  21.634  24.826  1.00  0.00     0.107 C 
BRANCH  10  14
ATOM     14  C   UNL A   1      31.379  24.735  22.766  1.00  0.00     0.033 C 
ATOM     15  C   UNL A   1      32.146  25.542  21.712  1.00  0.00     0.007 C 
ENDBRANCH  10  14
BRANCH  12  16
ATOM     16  C   UNL A   1      31.124  24.670  26.151  1.00  0.00     0.319 C 
ATOM     17  O   UNL A   1      30.503  24.123  27.076  1.00  0.00    -0.249 OA
ATOM     18  N   UNL A   1      31.004  26.012  26.175  1.00  0.00    -0.334 N 
ATOM     19  H   UNL A   1      30.450  26.323  26.926  1.00  0.00     0.165 HD
BRANCH  18  20
ATOM     20  C   UNL A   1      31.481  27.079  25.383  1.00  0.00     0.096 C 
ATOM     21  C   UNL A   1      31.819  28.426  26.052  1.00  0.00    -0.007 C 
ATOM     22  C   UNL A   1      32.903  27.624  25.334  1.00  0.00    -0.007 C 
ATOM     23  C   UNL A   1      31.400  29.751  25.451  1.00  0.00     0.014 C 
ATOM     24  C   UNL A   1      31.812  28.498  27.571  1.00  0.00     0.014 C 
ATOM     25  C   UNL A   1      34.042  27.044  26.132  1.00  0.00     0.014 C 
ATOM     26  C   UNL A   1      33.363  28.095  23.959  1.00  0.00     0.014 C 
ENDBRANCH  18  20
ENDBRANCH  12  16
ENDBRANCH   6   9
ENDBRANCH   4   5
ENDBRANCH   3   4
ENDBRANCH   2   3
ENDBRANCH   1   2
BRANCH   1  27
ATOM     27  C   UNL A   1      37.712  19.813  24.949  1.00  0.00     0.021 C 
BRANCH  27  28
ATOM     28  C   UNL A   1      38.795  20.343  25.883  1.00  0.00     0.116 C 
BRANCH  28  29
ATOM     29  N   UNL A   1      39.876  19.382  26.040  1.00  0.00    -0.352 N 
ATOM     30  C   UNL A   1      41.223  19.604  26.140  1.00  0.00     0.251 C 
ATOM     31  H   UNL A   1      39.599  18.438  26.079  1.00  0.00     0.163 HD
ATOM     32  O   UNL A   1      42.008  18.665  25.976  1.00  0.00    -0.269 OA
BRANCH  30  33
ATOM     33  C   UNL A   1      41.733  20.957  26.435  1.00  0.00     0.039 A 
ATOM     34  C   UNL A   1      42.018  21.825  25.378  1.00  0.00     0.014 A 
ATOM     35  C   UNL A   1      41.952  21.362  27.756  1.00  0.00     0.014 A 
ATOM     36  C   UNL A   1      42.477  23.115  25.649  1.00  0.00     0.010 A 
ATOM     37  C   UNL A   1      42.337  22.671  28.025  1.00  0.00     0.010 A 
ATOM     38  C   UNL A   1      42.613  23.560  26.975  1.00  0.00    -0.014 A 
BRANCH  38  39
ATOM     39  C   UNL A   1      43.051  24.946  27.279  1.00  0.00     0.031 A 
ATOM     40  C   UNL A   1      42.105  25.907  27.948  1.00  0.00     0.074 A 
ATOM     41  C   UNL A   1      44.278  25.353  26.896  1.00  0.00     0.049 A 
ATOM     42  N   UNL A   1      42.278  27.171  28.238  1.00  0.00    -0.248 NA
ATOM     43  C   UNL A   1      40.779  25.384  28.313  1.00  0.00     0.031 C 
ATOM     44  C   UNL A   1      45.263  24.521  26.199  1.00  0.00     0.029 A 
ATOM     45  N   UNL A   1      44.905  26.565  27.030  1.00  0.00    -0.354 N 
ATOM     46  C   UNL A   1      41.081  27.598  28.803  1.00  0.00     0.074 A 
ATOM     47  C   UNL A   1      40.173  26.472  28.760  1.00  0.00     0.031 C 
ATOM     48  C   UNL A   1      46.375  25.242  25.988  1.00  0.00     0.029 A 
ATOM     49  C   UNL A   1      46.170  26.597  26.487  1.00  0.00     0.049 A 
ATOM     50  H   UNL A   1      44.490  27.341  27.472  1.00  0.00     0.167 HD
ATOM     51  C   UNL A   1      40.777  28.812  29.326  1.00  0.00     0.034 A 
ATOM     52  C   UNL A   1      47.056  27.608  26.388  1.00  0.00     0.034 A 
ATOM     53  C   UNL A   1      41.705  29.916  29.373  1.00  0.00     0.049 A 
ATOM     54  C   UNL A   1      46.690  28.952  26.968  1.00  0.00     0.074 A 
ATOM     55  C   UNL A   1      41.527  31.166  29.943  1.00  0.00     0.029 A 
ATOM     56  N   UNL A   1      42.980  29.911  28.822  1.00  0.00    -0.354 N 
ATOM     57  N   UNL A   1      45.577  29.321  27.560  1.00  0.00    -0.248 NA
ATOM     58  C   UNL A   1      47.704  30.010  26.881  1.00  0.00     0.031 C 
ATOM     59  C   UNL A   1      42.660  31.938  29.668  1.00  0.00     0.029 A 
ATOM     60  C   UNL A   1      43.584  31.146  29.004  1.00  0.00     0.049 A 
ATOM     61  H   UNL A   1      43.395  29.142  28.368  1.00  0.00     0.167 HD
ATOM     62  C   UNL A   1      45.771  30.645  27.942  1.00  0.00     0.074 A 
ATOM     63  C   UNL A   1      47.114  31.001  27.531  1.00  0.00     0.031 C 
ATOM     64  C   UNL A   1      44.920  31.491  28.578  1.00  0.00     0.034 A 
BRANCH  51  65
ATOM     65  C   UNL A   1      39.378  29.016  29.859  1.00  0.00     0.023 A 
ATOM     66  C   UNL A   1      38.367  29.616  29.087  1.00  0.00     0.031 A 
ATOM     67  C   UNL A   1      39.052  28.613  31.167  1.00  0.00     0.131 A 
ATOM     68  C   UNL A   1      37.105  29.859  29.650  1.00  0.00     0.055 A 
ATOM     69  C   UNL A   1      37.769  28.783  31.693  1.00  0.00     0.041 A 
ATOM     70  F   UNL A   1      39.979  28.057  31.962  1.00  0.00    -0.206 F 
ATOM     71  C   UNL A   1      36.791  29.421  30.939  1.00  0.00     0.022 A 
BRANCH  68  72
ATOM     72  S   UNL A   1      35.926  30.879  28.726  1.00  0.00     0.124 S 
ATOM     73  O   UNL A   1      35.223  29.872  27.933  1.00  0.00    -0.237 OA
ATOM     74  O   UNL A   1      35.152  31.509  29.789  1.00  0.00    -0.237 OA
ATOM     75  O   UNL A   1      36.780  31.781  27.956  1.00  0.00    -0.744 OA
ENDBRANCH  68  72
ENDBRANCH  51  65
BRANCH  52  76
ATOM     76  C   UNL A   1      48.366  27.403  25.703  1.00  0.00     0.023 A 
ATOM     77  C   UNL A   1      48.496  27.584  24.316  1.00  0.00     0.031 A 
ATOM     78  C   UNL A   1      49.497  26.975  26.419  1.00  0.00     0.131 A 
ATOM     79  C   UNL A   1      49.712  27.284  23.683  1.00  0.00     0.055 A 
ATOM     80  C   UNL A   1      50.722  26.738  25.793  1.00  0.00     0.041 A 
ATOM     81  F   UNL A   1      49.431  26.791  27.747  1.00  0.00    -0.206 F 
ATOM     82  C   UNL A   1      50.831  26.876  24.413  1.00  0.00     0.022 A 
BRANCH  79  83
ATOM     83  S   UNL A   1      49.783  27.337  21.871  1.00  0.00     0.124 S 
ATOM     84  O   UNL A   1      48.797  26.326  21.506  1.00  0.00    -0.237 OA
ATOM     85  O   UNL A   1      49.416  28.722  21.594  1.00  0.00    -0.237 OA
ATOM     86  O   UNL A   1      51.172  26.990  21.575  1.00  0.00    -0.744 OA
ENDBRANCH  79  83
ENDBRANCH  52  76
BRANCH  64  87
ATOM     87  C   UNL A   1      45.441  32.870  28.906  1.00  0.00     0.023 A 
ATOM     88  C   UNL A   1      45.360  33.931  27.987  1.00  0.00     0.031 A 
ATOM     89  C   UNL A   1      46.039  33.120  30.154  1.00  0.00     0.131 A 
ATOM     90  C   UNL A   1      45.925  35.175  28.305  1.00  0.00     0.055 A 
ATOM     91  C   UNL A   1      46.538  34.379  30.490  1.00  0.00     0.041 A 
ATOM     92  F   UNL A   1      46.148  32.144  31.069  1.00  0.00    -0.206 F 
ATOM     93  C   UNL A   1      46.496  35.412  29.558  1.00  0.00     0.022 A 
BRANCH  90  94
ATOM     94  S   UNL A   1      45.996  36.452  27.020  1.00  0.00     0.124 S 
ATOM     95  O   UNL A   1      47.226  37.159  27.364  1.00  0.00    -0.237 OA
ATOM     96  O   UNL A   1      46.037  35.661  25.795  1.00  0.00    -0.237 OA
ATOM     97  O   UNL A   1      44.765  37.214  27.224  1.00  0.00    -0.744 OA
ENDBRANCH  90  94
ENDBRANCH  64  87
ENDBRANCH  38  39
ENDBRANCH  30  33
ENDBRANCH  28  29
ENDBRANCH  27  28
ENDBRANCH   1  27
TORSDOF 19
ENDMDL
