MODEL 1
REMARK VINA RESULT:     -11.7      0.000      0.000
REMARK SMILES C[C@@](NC(=O)CCOC1CC[NH2+]CC1)(C(=O)NCCCCCCNC(=O)c1ccc(-c2c3nc(c(-c4cc(S(=O)(=O)[O-])ccc4F)c4ccc([nH]4)c(-c4cc(S(=O)(=O)[O-])ccc4F)c4nc(c(-c5cc(S(=O)(=O)[O-])ccc5F)c5ccc2[nH]5)C=C4)C=C3)cc1)C(F)(F)F
REMARK SMILES IDX 19 1 18 2 17 3 15 4 16 5 2 7 1 8 3 9 4 10 5 12 6 13 7 14
REMARK SMILES IDX 8 15 9 16 10 17 14 18 11 19 13 20 12 21 90 24 91 25 92 26
REMARK SMILES IDX 93 27 20 28 21 29 22 30 23 31 24 32 25 33 26 35 27 36 28 37
REMARK SMILES IDX 89 38 29 39 88 40 30 41 31 42 32 43 82 44 33 45 87 46 81 47
REMARK SMILES IDX 83 48 34 49 86 50 80 51 79 52 35 54 67 55 47 56 66 57 48 58
REMARK SMILES IDX 51 59 65 60 84 61 49 62 50 63 64 65 85 66 52 67 36 68 37 69
REMARK SMILES IDX 45 70 38 71 44 72 46 73 43 74 39 75 40 76 41 77 42 78 68 79
REMARK SMILES IDX 69 80 77 81 70 82 76 83 78 84 75 85 71 86 72 87 73 88 74 89
REMARK SMILES IDX 53 90 54 91 62 92 55 93 61 94 63 95 60 96 56 97 57 98 58 99
REMARK SMILES IDX 59 100
REMARK H PARENT 17 6 3 11 12 22 12 23 24 34 83 53 51 64
REMARK Flexibility Score: inf
ROOT
ATOM      1  C   UNL A   1      34.522  23.676  23.151  1.00  0.00     0.021 C 
ENDROOT
BRANCH   1   2
ATOM      2  C   UNL A   1      33.489  23.124  22.181  1.00  0.00     0.116 C 
BRANCH   2   3
ATOM      3  N   UNL A   1      32.067  23.512  22.387  1.00  0.00    -0.354 N 
ATOM      4  C   UNL A   1      31.723  24.893  22.790  1.00  0.00     0.254 C 
ATOM      5  O   UNL A   1      32.199  25.395  21.710  1.00  0.00    -0.272 OA
ATOM      6  H   UNL A   1      31.353  22.849  22.252  1.00  0.00     0.163 HD
BRANCH   4   7
ATOM      7  C   UNL A   1      30.582  25.844  24.361  1.00  0.00     0.212 C 
ATOM      8  C   UNL A   1      29.061  26.584  24.190  1.00  0.00     0.056 C 
BRANCH   7   9
ATOM      9  N   UNL A   1      30.059  24.714  25.822  1.00  0.00    -0.334 N 
ATOM     10  C   UNL A   1      30.758  23.715  26.665  1.00  0.00     0.223 C 
ATOM     11  H   UNL A   1      29.111  24.824  26.067  1.00  0.00     0.164 HD
ATOM     12  O   UNL A   1      30.065  23.154  27.524  1.00  0.00    -0.275 OA
BRANCH  10  13
ATOM     13  C   UNL A   1      32.520  23.313  26.596  1.00  0.00     0.128 C 
BRANCH  13  14
ATOM     14  C   UNL A   1      33.425  21.865  25.953  1.00  0.00     0.170 C 
BRANCH  14  15
ATOM     15  O   UNL A   1      33.313  20.275  26.370  1.00  0.00    -0.377 OA
BRANCH  15  16
ATOM     16  C   UNL A   1      32.865  19.253  25.369  1.00  0.00     0.129 C 
ATOM     17  C   UNL A   1      32.447  17.363  25.439  1.00  0.00     0.093 C 
ATOM     18  C   UNL A   1      34.161  19.490  24.589  1.00  0.00     0.093 C 
ATOM     19  C   UNL A   1      33.863  16.024  25.374  1.00  0.00     0.263 C 
ATOM     20  C   UNL A   1      35.916  18.411  24.862  1.00  0.00     0.263 C 
ATOM     21  N   UNL A   1      35.621  16.594  25.315  1.00  0.00    -0.346 N 
ATOM     22  H   UNL A   1      36.109  16.020  24.627  1.00  0.00     0.346 HD
ATOM     23  H   UNL A   1      35.966  16.497  26.271  1.00  0.00     0.346 HD
ENDBRANCH  15  16
ENDBRANCH  14  15
ENDBRANCH  13  14
ENDBRANCH  10  13
ENDBRANCH   7   9
BRANCH   7  24
ATOM     24  C   UNL A   1      31.060  27.100  25.519  1.00  0.00     0.420 C 
ATOM     25  F   UNL A   1      30.365  27.109  26.681  1.00  0.00    -0.168 F 
ATOM     26  F   UNL A   1      32.349  26.813  25.925  1.00  0.00    -0.168 F 
ATOM     27  F   UNL A   1      31.148  28.374  25.079  1.00  0.00    -0.168 F 
ENDBRANCH   7  24
ENDBRANCH   4   7
ENDBRANCH   2   3
ENDBRANCH   1   2
BRANCH   1  28
ATOM     28  C   UNL A   1      35.763  22.795  23.340  1.00  0.00     0.002 C 
BRANCH  28  29
ATOM     29  C   UNL A   1      36.874  23.241  24.307  1.00  0.00     0.002 C 
BRANCH  29  30
ATOM     30  C   UNL A   1      37.579  22.223  25.217  1.00  0.00     0.021 C 
BRANCH  30  31
ATOM     31  C   UNL A   1      38.608  22.732  26.217  1.00  0.00     0.116 C 
BRANCH  31  32
ATOM     32  N   UNL A   1      39.906  22.109  26.071  1.00  0.00    -0.352 N 
ATOM     33  C   UNL A   1      41.174  22.608  26.249  1.00  0.00     0.251 C 
ATOM     34  H   UNL A   1      39.876  21.164  25.796  1.00  0.00     0.163 HD
ATOM     35  O   UNL A   1      42.124  21.878  25.969  1.00  0.00    -0.269 OA
BRANCH  33  36
ATOM     36  C   UNL A   1      41.436  23.994  26.730  1.00  0.00     0.039 A 
ATOM     37  C   UNL A   1      41.793  24.157  28.076  1.00  0.00     0.014 A 
ATOM     38  C   UNL A   1      41.279  25.132  25.932  1.00  0.00     0.014 A 
ATOM     39  C   UNL A   1      42.035  25.432  28.603  1.00  0.00     0.010 A 
ATOM     40  C   UNL A   1      41.575  26.403  26.444  1.00  0.00     0.010 A 
ATOM     41  C   UNL A   1      41.950  26.568  27.787  1.00  0.00    -0.014 A 
BRANCH  41  42
ATOM     42  C   UNL A   1      42.240  27.922  28.335  1.00  0.00     0.031 A 
ATOM     43  C   UNL A   1      41.132  28.783  28.884  1.00  0.00     0.074 A 
ATOM     44  C   UNL A   1      43.500  28.399  28.313  1.00  0.00     0.049 A 
ATOM     45  N   UNL A   1      41.192  29.991  29.388  1.00  0.00    -0.248 NA
ATOM     46  C   UNL A   1      39.778  28.218  28.836  1.00  0.00     0.031 C 
ATOM     47  C   UNL A   1      44.662  27.691  27.773  1.00  0.00     0.029 A 
ATOM     48  N   UNL A   1      44.012  29.595  28.750  1.00  0.00    -0.354 N 
ATOM     49  C   UNL A   1      39.883  30.340  29.701  1.00  0.00     0.074 A 
ATOM     50  C   UNL A   1      39.049  29.228  29.289  1.00  0.00     0.031 C 
ATOM     51  C   UNL A   1      45.753  28.461  27.927  1.00  0.00     0.029 A 
ATOM     52  C   UNL A   1      45.366  29.721  28.553  1.00  0.00     0.049 A 
ATOM     53  H   UNL A   1      43.460  30.297  29.166  1.00  0.00     0.167 HD
ATOM     54  C   UNL A   1      39.416  31.471  30.290  1.00  0.00     0.034 A 
ATOM     55  C   UNL A   1      46.204  30.736  28.840  1.00  0.00     0.034 A 
ATOM     56  C   UNL A   1      40.251  32.567  30.722  1.00  0.00     0.049 A 
ATOM     57  C   UNL A   1      45.670  31.976  29.502  1.00  0.00     0.074 A 
ATOM     58  C   UNL A   1      39.886  33.717  31.404  1.00  0.00     0.029 A 
ATOM     59  N   UNL A   1      41.620  32.657  30.504  1.00  0.00    -0.354 N 
ATOM     60  N   UNL A   1      44.436  32.267  29.840  1.00  0.00    -0.248 NA
ATOM     61  C   UNL A   1      46.650  33.022  29.830  1.00  0.00     0.031 C 
ATOM     62  C   UNL A   1      41.023  34.521  31.556  1.00  0.00     0.029 A 
ATOM     63  C   UNL A   1      42.108  33.852  31.012  1.00  0.00     0.049 A 
ATOM     64  H   UNL A   1      42.164  31.972  30.056  1.00  0.00     0.167 HD
ATOM     65  C   UNL A   1      44.495  33.522  30.437  1.00  0.00     0.074 A 
ATOM     66  C   UNL A   1      45.885  33.930  30.418  1.00  0.00     0.031 C 
ATOM     67  C   UNL A   1      43.489  34.264  30.963  1.00  0.00     0.034 A 
BRANCH  54  68
ATOM     68  C   UNL A   1      37.923  31.584  30.467  1.00  0.00     0.023 A 
ATOM     69  C   UNL A   1      37.092  32.064  29.440  1.00  0.00     0.031 A 
ATOM     70  C   UNL A   1      37.329  31.252  31.698  1.00  0.00     0.131 A 
ATOM     71  C   UNL A   1      35.727  32.278  29.689  1.00  0.00     0.055 A 
ATOM     72  C   UNL A   1      35.957  31.398  31.915  1.00  0.00     0.041 A 
ATOM     73  F   UNL A   1      38.077  30.804  32.719  1.00  0.00    -0.206 F 
ATOM     74  C   UNL A   1      35.151  31.930  30.912  1.00  0.00     0.022 A 
BRANCH  71  75
ATOM     75  S   UNL A   1      34.749  33.161  28.442  1.00  0.00     0.124 S 
ATOM     76  O   UNL A   1      34.197  34.263  29.224  1.00  0.00    -0.237 OA
ATOM     77  O   UNL A   1      35.755  33.520  27.450  1.00  0.00    -0.237 OA
ATOM     78  O   UNL A   1      33.771  32.166  28.007  1.00  0.00    -0.744 OA
ENDBRANCH  71  75
ENDBRANCH  54  68
BRANCH  55  79
ATOM     79  C   UNL A   1      47.645  30.629  28.499  1.00  0.00     0.023 A 
ATOM     80  C   UNL A   1      48.528  29.911  29.321  1.00  0.00     0.031 A 
ATOM     81  C   UNL A   1      48.162  31.269  27.360  1.00  0.00     0.131 A 
ATOM     82  C   UNL A   1      49.893  29.872  29.004  1.00  0.00     0.055 A 
ATOM     83  C   UNL A   1      49.518  31.204  27.036  1.00  0.00     0.041 A 
ATOM     84  F   UNL A   1      47.350  31.960  26.544  1.00  0.00    -0.206 F 
ATOM     85  C   UNL A   1      50.394  30.507  27.864  1.00  0.00     0.022 A 
BRANCH  82  86
ATOM     86  S   UNL A   1      51.020  29.002  30.128  1.00  0.00     0.124 S 
ATOM     87  O   UNL A   1      52.310  29.214  29.482  1.00  0.00    -0.237 OA
ATOM     88  O   UNL A   1      50.805  29.713  31.384  1.00  0.00    -0.237 OA
ATOM     89  O   UNL A   1      50.528  27.625  30.105  1.00  0.00    -0.744 OA
ENDBRANCH  82  86
ENDBRANCH  55  79
BRANCH  67  90
ATOM     90  C   UNL A   1      43.876  35.580  31.583  1.00  0.00     0.023 A 
ATOM     91  C   UNL A   1      44.177  35.687  32.953  1.00  0.00     0.031 A 
ATOM     92  C   UNL A   1      43.901  36.749  30.803  1.00  0.00     0.131 A 
ATOM     93  C   UNL A   1      44.448  36.946  33.511  1.00  0.00     0.055 A 
ATOM     94  C   UNL A   1      44.208  37.992  31.356  1.00  0.00     0.041 A 
ATOM     95  F   UNL A   1      43.616  36.699  29.492  1.00  0.00    -0.206 F 
ATOM     96  C   UNL A   1      44.472  38.098  32.719  1.00  0.00     0.022 A 
BRANCH  93  97
ATOM     97  S   UNL A   1      44.687  37.073  35.305  1.00  0.00     0.124 S 
ATOM     98  O   UNL A   1      45.441  35.858  35.601  1.00  0.00    -0.237 OA
ATOM     99  O   UNL A   1      45.422  38.328  35.433  1.00  0.00    -0.237 OA
ATOM    100  O   UNL A   1      43.323  37.098  35.833  1.00  0.00    -0.744 OA
ENDBRANCH  93  97
ENDBRANCH  67  90
ENDBRANCH  41  42
ENDBRANCH  33  36
ENDBRANCH  31  32
ENDBRANCH  30  31
ENDBRANCH  29  30
ENDBRANCH  28  29
ENDBRANCH   1  28
TORSDOF 22
ENDMDL
MODEL 2
REMARK VINA RESULT:     -11.6      2.498      8.157
REMARK SMILES C[C@@](NC(=O)CCOC1CC[NH2+]CC1)(C(=O)NCCCCCCNC(=O)c1ccc(-c2c3nc(c(-c4cc(S(=O)(=O)[O-])ccc4F)c4ccc([nH]4)c(-c4cc(S(=O)(=O)[O-])ccc4F)c4nc(c(-c5cc(S(=O)(=O)[O-])ccc5F)c5ccc2[nH]5)C=C4)C=C3)cc1)C(F)(F)F
REMARK SMILES IDX 19 1 18 2 17 3 15 4 16 5 2 7 1 8 3 9 4 10 5 12 6 13 7 14
REMARK SMILES IDX 8 15 9 16 10 17 14 18 11 19 13 20 12 21 90 24 91 25 92 26
REMARK SMILES IDX 93 27 20 28 21 29 22 30 23 31 24 32 25 33 26 35 27 36 28 37
REMARK SMILES IDX 89 38 29 39 88 40 30 41 31 42 32 43 82 44 33 45 87 46 81 47
REMARK SMILES IDX 83 48 34 49 86 50 80 51 79 52 35 54 67 55 47 56 66 57 48 58
REMARK SMILES IDX 51 59 65 60 84 61 49 62 50 63 64 65 85 66 52 67 36 68 37 69
REMARK SMILES IDX 45 70 38 71 44 72 46 73 43 74 39 75 40 76 41 77 42 78 68 79
REMARK SMILES IDX 69 80 77 81 70 82 76 83 78 84 75 85 71 86 72 87 73 88 74 89
REMARK SMILES IDX 53 90 54 91 62 92 55 93 61 94 63 95 60 96 56 97 57 98 58 99
REMARK SMILES IDX 59 100
REMARK H PARENT 17 6 3 11 12 22 12 23 24 34 83 53 51 64
REMARK Flexibility Score: inf
ROOT
ATOM      1  C   UNL A   1      33.605  26.534  25.541  1.00  0.00     0.021 C 
ENDROOT
BRANCH   1   2
ATOM      2  C   UNL A   1      33.656  27.630  24.490  1.00  0.00     0.116 C 
BRANCH   2   3
ATOM      3  N   UNL A   1      32.624  27.613  23.418  1.00  0.00    -0.354 N 
ATOM      4  C   UNL A   1      31.989  28.872  22.975  1.00  0.00     0.254 C 
ATOM      5  O   UNL A   1      33.099  29.358  22.554  1.00  0.00    -0.272 OA
ATOM      6  H   UNL A   1      32.363  26.760  23.001  1.00  0.00     0.163 HD
BRANCH   4   7
ATOM      7  C   UNL A   1      29.979  29.634  22.738  1.00  0.00     0.212 C 
ATOM      8  C   UNL A   1      29.265  30.150  21.285  1.00  0.00     0.056 C 
BRANCH   7   9
ATOM      9  N   UNL A   1      28.563  28.425  23.204  1.00  0.00    -0.334 N 
ATOM     10  C   UNL A   1      28.496  27.131  23.925  1.00  0.00     0.223 C 
ATOM     11  H   UNL A   1      27.681  28.735  22.895  1.00  0.00     0.164 HD
ATOM     12  O   UNL A   1      27.371  26.621  24.016  1.00  0.00    -0.275 OA
BRANCH  10  13
ATOM     13  C   UNL A   1      29.879  26.292  24.733  1.00  0.00     0.128 C 
BRANCH  13  14
ATOM     14  C   UNL A   1      29.949  24.985  26.004  1.00  0.00     0.170 C 
BRANCH  14  15
ATOM     15  O   UNL A   1      31.136  23.889  26.332  1.00  0.00    -0.377 OA
BRANCH  15  16
ATOM     16  C   UNL A   1      31.114  22.529  25.702  1.00  0.00     0.129 C 
ATOM     17  C   UNL A   1      32.394  21.086  25.523  1.00  0.00     0.093 C 
ATOM     18  C   UNL A   1      30.856  23.192  24.345  1.00  0.00     0.093 C 
ATOM     19  C   UNL A   1      33.754  21.125  24.124  1.00  0.00     0.263 C 
ATOM     20  C   UNL A   1      32.342  23.758  23.008  1.00  0.00     0.263 C 
ATOM     21  N   UNL A   1      33.844  22.601  23.016  1.00  0.00    -0.346 N 
ATOM     22  H   UNL A   1      33.980  22.264  22.063  1.00  0.00     0.346 HD
ATOM     23  H   UNL A   1      34.613  23.165  23.382  1.00  0.00     0.346 HD
ENDBRANCH  15  16
ENDBRANCH  14  15
ENDBRANCH  13  14
ENDBRANCH  10  13
ENDBRANCH   7   9
BRANCH   7  24
ATOM     24  C   UNL A   1      29.141  30.932  23.608  1.00  0.00     0.420 C 
ATOM     25  F   UNL A   1      29.737  31.340  24.753  1.00  0.00    -0.168 F 
ATOM     26  F   UNL A   1      29.189  32.059  22.809  1.00  0.00    -0.168 F 
ATOM     27  F   UNL A   1      27.821  30.785  23.859  1.00  0.00    -0.168 F 
ENDBRANCH   7  24
ENDBRANCH   4   7
ENDBRANCH   2   3
ENDBRANCH   1   2
BRANCH   1  28
ATOM     28  C   UNL A   1      34.592  25.380  25.317  1.00  0.00     0.002 C 
BRANCH  28  29
ATOM     29  C   UNL A   1      34.476  24.103  26.168  1.00  0.00     0.002 C 
BRANCH  29  30
ATOM     30  C   UNL A   1      35.720  23.262  26.497  1.00  0.00     0.021 C 
BRANCH  30  31
ATOM     31  C   UNL A   1      36.809  23.130  25.441  1.00  0.00     0.116 C 
BRANCH  31  32
ATOM     32  N   UNL A   1      37.878  22.235  25.828  1.00  0.00    -0.352 N 
ATOM     33  C   UNL A   1      39.107  22.484  26.389  1.00  0.00     0.251 C 
ATOM     34  H   UNL A   1      37.692  21.283  25.661  1.00  0.00     0.163 HD
ATOM     35  O   UNL A   1      39.873  21.533  26.540  1.00  0.00    -0.269 OA
BRANCH  33  36
ATOM     36  C   UNL A   1      39.554  23.850  26.783  1.00  0.00     0.039 A 
ATOM     37  C   UNL A   1      39.396  24.221  28.126  1.00  0.00     0.014 A 
ATOM     38  C   UNL A   1      40.053  24.792  25.878  1.00  0.00     0.014 A 
ATOM     39  C   UNL A   1      39.775  25.496  28.565  1.00  0.00     0.010 A 
ATOM     40  C   UNL A   1      40.483  26.048  26.327  1.00  0.00     0.010 A 
ATOM     41  C   UNL A   1      40.343  26.417  27.674  1.00  0.00    -0.014 A 
BRANCH  41  42
ATOM     42  C   UNL A   1      40.778  27.761  28.144  1.00  0.00     0.031 A 
ATOM     43  C   UNL A   1      42.239  28.130  28.173  1.00  0.00     0.074 A 
ATOM     44  C   UNL A   1      39.863  28.648  28.580  1.00  0.00     0.049 A 
ATOM     45  N   UNL A   1      42.805  29.245  28.563  1.00  0.00    -0.248 NA
ATOM     46  C   UNL A   1      43.184  27.100  27.727  1.00  0.00     0.031 C 
ATOM     47  C   UNL A   1      38.420  28.410  28.647  1.00  0.00     0.029 A 
ATOM     48  N   UNL A   1      40.012  29.928  29.056  1.00  0.00    -0.354 N 
ATOM     49  C   UNL A   1      44.175  29.046  28.427  1.00  0.00     0.074 A 
ATOM     50  C   UNL A   1      44.350  27.686  27.957  1.00  0.00     0.031 C 
ATOM     51  C   UNL A   1      37.816  29.514  29.120  1.00  0.00     0.029 A 
ATOM     52  C   UNL A   1      38.826  30.526  29.410  1.00  0.00     0.049 A 
ATOM     53  H   UNL A   1      40.885  30.374  29.134  1.00  0.00     0.167 HD
ATOM     54  C   UNL A   1      45.193  29.915  28.656  1.00  0.00     0.034 A 
ATOM     55  C   UNL A   1      38.578  31.751  29.914  1.00  0.00     0.034 A 
ATOM     56  C   UNL A   1      45.015  31.277  29.101  1.00  0.00     0.049 A 
ATOM     57  C   UNL A   1      39.717  32.703  30.149  1.00  0.00     0.074 A 
ATOM     58  C   UNL A   1      45.974  32.262  29.279  1.00  0.00     0.029 A 
ATOM     59  N   UNL A   1      43.798  31.847  29.449  1.00  0.00    -0.354 N 
ATOM     60  N   UNL A   1      41.003  32.516  29.964  1.00  0.00    -0.248 NA
ATOM     61  C   UNL A   1      39.367  34.038  30.655  1.00  0.00     0.031 C 
ATOM     62  C   UNL A   1      45.344  33.409  29.779  1.00  0.00     0.029 A 
ATOM     63  C   UNL A   1      43.984  33.157  29.867  1.00  0.00     0.049 A 
ATOM     64  H   UNL A   1      42.929  31.388  29.404  1.00  0.00     0.167 HD
ATOM     65  C   UNL A   1      41.612  33.716  30.314  1.00  0.00     0.074 A 
ATOM     66  C   UNL A   1      40.555  34.622  30.715  1.00  0.00     0.031 C 
ATOM     67  C   UNL A   1      42.929  34.043  30.293  1.00  0.00     0.034 A 
BRANCH  54  68
ATOM     68  C   UNL A   1      46.594  29.395  28.456  1.00  0.00     0.023 A 
ATOM     69  C   UNL A   1      47.365  28.917  29.531  1.00  0.00     0.031 A 
ATOM     70  C   UNL A   1      47.185  29.422  27.181  1.00  0.00     0.131 A 
ATOM     71  C   UNL A   1      48.708  28.566  29.326  1.00  0.00     0.055 A 
ATOM     72  C   UNL A   1      48.500  29.001  26.970  1.00  0.00     0.041 A 
ATOM     73  F   UNL A   1      46.501  29.883  26.121  1.00  0.00    -0.206 F 
ATOM     74  C   UNL A   1      49.274  28.586  28.050  1.00  0.00     0.022 A 
BRANCH  71  75
ATOM     75  S   UNL A   1      49.745  28.230  30.775  1.00  0.00     0.124 S 
ATOM     76  O   UNL A   1      50.667  29.362  30.749  1.00  0.00    -0.237 OA
ATOM     77  O   UNL A   1      48.773  28.220  31.861  1.00  0.00    -0.237 OA
ATOM     78  O   UNL A   1      50.352  26.936  30.469  1.00  0.00    -0.744 OA
ENDBRANCH  71  75
ENDBRANCH  54  68
BRANCH  55  79
ATOM     79  C   UNL A   1      37.185  32.153  30.237  1.00  0.00     0.023 A 
ATOM     80  C   UNL A   1      36.364  32.749  29.267  1.00  0.00     0.031 A 
ATOM     81  C   UNL A   1      36.668  31.971  31.531  1.00  0.00     0.131 A 
ATOM     82  C   UNL A   1      35.072  33.168  29.615  1.00  0.00     0.055 A 
ATOM     83  C   UNL A   1      35.372  32.366  31.864  1.00  0.00     0.041 A 
ATOM     84  F   UNL A   1      37.418  31.397  32.486  1.00  0.00    -0.206 F 
ATOM     85  C   UNL A   1      34.568  32.975  30.904  1.00  0.00     0.022 A 
BRANCH  82  86
ATOM     86  S   UNL A   1      34.065  34.005  28.361  1.00  0.00     0.124 S 
ATOM     87  O   UNL A   1      35.078  34.447  27.410  1.00  0.00    -0.237 OA
ATOM     88  O   UNL A   1      33.187  32.931  27.910  1.00  0.00    -0.237 OA
ATOM     89  O   UNL A   1      33.404  35.071  29.111  1.00  0.00    -0.744 OA
ENDBRANCH  82  86
ENDBRANCH  55  79
BRANCH  67  90
ATOM     90  C   UNL A   1      43.280  35.451  30.693  1.00  0.00     0.023 A 
ATOM     91  C   UNL A   1      43.331  36.492  29.749  1.00  0.00     0.031 A 
ATOM     92  C   UNL A   1      43.611  35.744  32.027  1.00  0.00     0.131 A 
ATOM     93  C   UNL A   1      43.748  37.772  30.145  1.00  0.00     0.055 A 
ATOM     94  C   UNL A   1      43.988  37.028  32.423  1.00  0.00     0.041 A 
ATOM     95  F   UNL A   1      43.582  34.783  32.963  1.00  0.00    -0.206 F 
ATOM     96  C   UNL A   1      44.070  38.047  31.478  1.00  0.00     0.022 A 
BRANCH  93  97
ATOM     97  S   UNL A   1      43.946  39.057  28.880  1.00  0.00     0.124 S 
ATOM     98  O   UNL A   1      42.831  39.952  29.175  1.00  0.00    -0.237 OA
ATOM     99  O   UNL A   1      45.278  39.578  29.171  1.00  0.00    -0.237 OA
ATOM    100  O   UNL A   1      43.832  38.320  27.621  1.00  0.00    -0.744 OA
ENDBRANCH  93  97
ENDBRANCH  67  90
ENDBRANCH  41  42
ENDBRANCH  33  36
ENDBRANCH  31  32
ENDBRANCH  30  31
ENDBRANCH  29  30
ENDBRANCH  28  29
ENDBRANCH   1  28
TORSDOF 22
ENDMDL
MODEL 3
REMARK VINA RESULT:     -11.5      2.317      7.902
REMARK SMILES C[C@@](NC(=O)CCOC1CC[NH2+]CC1)(C(=O)NCCCCCCNC(=O)c1ccc(-c2c3nc(c(-c4cc(S(=O)(=O)[O-])ccc4F)c4ccc([nH]4)c(-c4cc(S(=O)(=O)[O-])ccc4F)c4nc(c(-c5cc(S(=O)(=O)[O-])ccc5F)c5ccc2[nH]5)C=C4)C=C3)cc1)C(F)(F)F
REMARK SMILES IDX 19 1 18 2 17 3 15 4 16 5 2 7 1 8 3 9 4 10 5 12 6 13 7 14
REMARK SMILES IDX 8 15 9 16 10 17 14 18 11 19 13 20 12 21 90 24 91 25 92 26
REMARK SMILES IDX 93 27 20 28 21 29 22 30 23 31 24 32 25 33 26 35 27 36 28 37
REMARK SMILES IDX 89 38 29 39 88 40 30 41 31 42 32 43 82 44 33 45 87 46 81 47
REMARK SMILES IDX 83 48 34 49 86 50 80 51 79 52 35 54 67 55 47 56 66 57 48 58
REMARK SMILES IDX 51 59 65 60 84 61 49 62 50 63 64 65 85 66 52 67 36 68 37 69
REMARK SMILES IDX 45 70 38 71 44 72 46 73 43 74 39 75 40 76 41 77 42 78 68 79
REMARK SMILES IDX 69 80 77 81 70 82 76 83 78 84 75 85 71 86 72 87 73 88 74 89
REMARK SMILES IDX 53 90 54 91 62 92 55 93 61 94 63 95 60 96 56 97 57 98 58 99
REMARK SMILES IDX 59 100
REMARK H PARENT 17 6 3 11 12 22 12 23 24 34 83 53 51 64
REMARK Flexibility Score: inf
ROOT
ATOM      1  C   UNL A   1      33.554  26.606  25.284  1.00  0.00     0.021 C 
ENDROOT
BRANCH   1   2
ATOM      2  C   UNL A   1      33.598  27.654  24.184  1.00  0.00     0.116 C 
BRANCH   2   3
ATOM      3  N   UNL A   1      32.499  27.652  23.179  1.00  0.00    -0.354 N 
ATOM      4  C   UNL A   1      31.883  28.925  22.748  1.00  0.00     0.254 C 
ATOM      5  O   UNL A   1      32.981  29.360  22.246  1.00  0.00    -0.272 OA
ATOM      6  H   UNL A   1      32.183  26.800  22.800  1.00  0.00     0.163 HD
BRANCH   4   7
ATOM      7  C   UNL A   1      29.891  29.755  22.619  1.00  0.00     0.212 C 
ATOM      8  C   UNL A   1      29.124  30.313  21.208  1.00  0.00     0.056 C 
BRANCH   7   9
ATOM      9  N   UNL A   1      28.459  28.587  23.140  1.00  0.00    -0.334 N 
ATOM     10  C   UNL A   1      28.387  27.263  23.803  1.00  0.00     0.223 C 
ATOM     11  H   UNL A   1      27.572  28.951  22.918  1.00  0.00     0.164 HD
ATOM     12  O   UNL A   1      27.250  26.799  23.960  1.00  0.00    -0.275 OA
BRANCH  10  13
ATOM     13  C   UNL A   1      29.788  26.324  24.457  1.00  0.00     0.128 C 
BRANCH  13  14
ATOM     14  C   UNL A   1      29.969  25.244  25.917  1.00  0.00     0.170 C 
BRANCH  14  15
ATOM     15  O   UNL A   1      31.128  24.128  26.271  1.00  0.00    -0.377 OA
BRANCH  15  16
ATOM     16  C   UNL A   1      31.054  22.743  25.701  1.00  0.00     0.129 C 
ATOM     17  C   UNL A   1      32.285  21.255  25.564  1.00  0.00     0.093 C 
ATOM     18  C   UNL A   1      30.791  23.355  24.322  1.00  0.00     0.093 C 
ATOM     19  C   UNL A   1      33.620  21.191  24.143  1.00  0.00     0.263 C 
ATOM     20  C   UNL A   1      32.269  23.816  22.936  1.00  0.00     0.263 C 
ATOM     21  N   UNL A   1      33.735  22.615  22.969  1.00  0.00    -0.346 N 
ATOM     22  H   UNL A   1      33.844  22.232  22.030  1.00  0.00     0.346 HD
ATOM     23  H   UNL A   1      34.527  23.169  23.297  1.00  0.00     0.346 HD
ENDBRANCH  15  16
ENDBRANCH  14  15
ENDBRANCH  13  14
ENDBRANCH  10  13
ENDBRANCH   7   9
BRANCH   7  24
ATOM     24  C   UNL A   1      29.140  31.069  23.544  1.00  0.00     0.420 C 
ATOM     25  F   UNL A   1      29.009  32.242  22.880  1.00  0.00    -0.168 F 
ATOM     26  F   UNL A   1      27.832  30.700  23.793  1.00  0.00    -0.168 F 
ATOM     27  F   UNL A   1      29.627  31.342  24.775  1.00  0.00    -0.168 F 
ENDBRANCH   7  24
ENDBRANCH   4   7
ENDBRANCH   2   3
ENDBRANCH   1   2
BRANCH   1  28
ATOM     28  C   UNL A   1      34.554  25.455  25.117  1.00  0.00     0.002 C 
BRANCH  28  29
ATOM     29  C   UNL A   1      34.484  24.242  26.062  1.00  0.00     0.002 C 
BRANCH  29  30
ATOM     30  C   UNL A   1      35.757  23.475  26.452  1.00  0.00     0.021 C 
BRANCH  30  31
ATOM     31  C   UNL A   1      36.851  23.302  25.408  1.00  0.00     0.116 C 
BRANCH  31  32
ATOM     32  N   UNL A   1      37.892  22.383  25.814  1.00  0.00    -0.352 N 
ATOM     33  C   UNL A   1      39.106  22.601  26.419  1.00  0.00     0.251 C 
ATOM     34  H   UNL A   1      37.697  21.437  25.623  1.00  0.00     0.163 HD
ATOM     35  O   UNL A   1      39.851  21.635  26.579  1.00  0.00    -0.269 OA
BRANCH  33  36
ATOM     36  C   UNL A   1      39.561  23.952  26.853  1.00  0.00     0.039 A 
ATOM     37  C   UNL A   1      39.365  24.303  28.196  1.00  0.00     0.014 A 
ATOM     38  C   UNL A   1      40.105  24.901  25.981  1.00  0.00     0.014 A 
ATOM     39  C   UNL A   1      39.750  25.563  28.670  1.00  0.00     0.010 A 
ATOM     40  C   UNL A   1      40.541  26.142  26.467  1.00  0.00     0.010 A 
ATOM     41  C   UNL A   1      40.362  26.490  27.815  1.00  0.00    -0.014 A 
BRANCH  41  42
ATOM     42  C   UNL A   1      40.803  27.818  28.323  1.00  0.00     0.031 A 
ATOM     43  C   UNL A   1      42.267  28.166  28.396  1.00  0.00     0.074 A 
ATOM     44  C   UNL A   1      39.889  28.709  28.753  1.00  0.00     0.049 A 
ATOM     45  N   UNL A   1      42.839  29.265  28.823  1.00  0.00    -0.248 NA
ATOM     46  C   UNL A   1      43.210  27.131  27.952  1.00  0.00     0.031 C 
ATOM     47  C   UNL A   1      38.442  28.490  28.780  1.00  0.00     0.029 A 
ATOM     48  N   UNL A   1      40.043  29.977  29.259  1.00  0.00    -0.354 N 
ATOM     49  C   UNL A   1      44.209  29.050  28.717  1.00  0.00     0.074 A 
ATOM     50  C   UNL A   1      44.377  27.697  28.224  1.00  0.00     0.031 C 
ATOM     51  C   UNL A   1      37.841  29.592  29.260  1.00  0.00     0.029 A 
ATOM     52  C   UNL A   1      38.857  30.584  29.595  1.00  0.00     0.049 A 
ATOM     53  H   UNL A   1      40.920  30.409  29.368  1.00  0.00     0.167 HD
ATOM     54  C   UNL A   1      45.232  29.900  28.989  1.00  0.00     0.034 A 
ATOM     55  C   UNL A   1      38.612  31.802  30.117  1.00  0.00     0.034 A 
ATOM     56  C   UNL A   1      45.061  31.255  29.457  1.00  0.00     0.049 A 
ATOM     57  C   UNL A   1      39.758  32.733  30.401  1.00  0.00     0.074 A 
ATOM     58  C   UNL A   1      46.028  32.223  29.679  1.00  0.00     0.029 A 
ATOM     59  N   UNL A   1      43.843  31.835  29.786  1.00  0.00    -0.354 N 
ATOM     60  N   UNL A   1      41.045  32.532  30.244  1.00  0.00    -0.248 NA
ATOM     61  C   UNL A   1      39.413  34.063  30.925  1.00  0.00     0.031 C 
ATOM     62  C   UNL A   1      45.401  33.368  30.186  1.00  0.00     0.029 A 
ATOM     63  C   UNL A   1      44.036  33.133  30.235  1.00  0.00     0.049 A 
ATOM     64  H   UNL A   1      42.969  31.389  29.710  1.00  0.00     0.167 HD
ATOM     65  C   UNL A   1      41.661  33.716  30.633  1.00  0.00     0.074 A 
ATOM     66  C   UNL A   1      40.606  34.629  31.026  1.00  0.00     0.031 C 
ATOM     67  C   UNL A   1      42.982  34.025  30.652  1.00  0.00     0.034 A 
BRANCH  54  68
ATOM     68  C   UNL A   1      46.631  29.364  28.814  1.00  0.00     0.023 A 
ATOM     69  C   UNL A   1      47.193  29.170  27.540  1.00  0.00     0.031 A 
ATOM     70  C   UNL A   1      47.394  28.996  29.936  1.00  0.00     0.131 A 
ATOM     71  C   UNL A   1      48.444  28.547  27.416  1.00  0.00     0.055 A 
ATOM     72  C   UNL A   1      48.671  28.445  29.808  1.00  0.00     0.041 A 
ATOM     73  F   UNL A   1      46.901  29.144  31.176  1.00  0.00    -0.206 F 
ATOM     74  C   UNL A   1      49.195  28.201  28.542  1.00  0.00     0.022 A 
BRANCH  71  75
ATOM     75  S   UNL A   1      49.006  28.057  25.763  1.00  0.00     0.124 S 
ATOM     76  O   UNL A   1      47.848  28.402  24.942  1.00  0.00    -0.237 OA
ATOM     77  O   UNL A   1      50.192  28.884  25.576  1.00  0.00    -0.237 OA
ATOM     78  O   UNL A   1      49.259  26.624  25.898  1.00  0.00    -0.744 OA
ENDBRANCH  71  75
ENDBRANCH  54  68
BRANCH  55  79
ATOM     79  C   UNL A   1      37.218  32.217  30.414  1.00  0.00     0.023 A 
ATOM     80  C   UNL A   1      36.434  32.856  29.441  1.00  0.00     0.031 A 
ATOM     81  C   UNL A   1      36.661  32.002  31.686  1.00  0.00     0.131 A 
ATOM     82  C   UNL A   1      35.139  33.286  29.764  1.00  0.00     0.055 A 
ATOM     83  C   UNL A   1      35.362  32.408  31.994  1.00  0.00     0.041 A 
ATOM     84  F   UNL A   1      37.374  31.387  32.643  1.00  0.00    -0.206 F 
ATOM     85  C   UNL A   1      34.595  33.061  31.032  1.00  0.00     0.022 A 
BRANCH  82  86
ATOM     86  S   UNL A   1      34.182  34.179  28.510  1.00  0.00     0.124 S 
ATOM     87  O   UNL A   1      34.264  33.272  27.370  1.00  0.00    -0.237 OA
ATOM     88  O   UNL A   1      32.875  34.291  29.149  1.00  0.00    -0.237 OA
ATOM     89  O   UNL A   1      34.909  35.438  28.360  1.00  0.00    -0.744 OA
ENDBRANCH  82  86
ENDBRANCH  55  79
BRANCH  67  90
ATOM     90  C   UNL A   1      43.343  35.420  31.089  1.00  0.00     0.023 A 
ATOM     91  C   UNL A   1      43.401  35.771  32.450  1.00  0.00     0.031 A 
ATOM     92  C   UNL A   1      43.587  36.419  30.132  1.00  0.00     0.131 A 
ATOM     93  C   UNL A   1      43.653  37.102  32.815  1.00  0.00     0.055 A 
ATOM     94  C   UNL A   1      43.876  37.733  30.502  1.00  0.00     0.041 A 
ATOM     95  F   UNL A   1      43.538  36.133  28.821  1.00  0.00    -0.206 F 
ATOM     96  C   UNL A   1      43.899  38.083  31.849  1.00  0.00     0.022 A 
BRANCH  93  97
ATOM     97  S   UNL A   1      43.576  37.556  34.571  1.00  0.00     0.124 S 
ATOM     98  O   UNL A   1      42.206  37.196  34.921  1.00  0.00    -0.237 OA
ATOM     99  O   UNL A   1      44.624  36.723  35.153  1.00  0.00    -0.237 OA
ATOM    100  O   UNL A   1      43.858  38.991  34.567  1.00  0.00    -0.744 OA
ENDBRANCH  93  97
ENDBRANCH  67  90
ENDBRANCH  41  42
ENDBRANCH  33  36
ENDBRANCH  31  32
ENDBRANCH  30  31
ENDBRANCH  29  30
ENDBRANCH  28  29
ENDBRANCH   1  28
TORSDOF 22
ENDMDL
