MODEL 1
REMARK VINA RESULT:     -11.5      0.000      0.000
REMARK SMILES CC(C)(C)C[N@H+]1[C@@H](C(=O)NCCCCCCNC(=O)c2ccc(-c3c4nc(c(-c5cc(S(=O)(=O)[O-])ccc5F)c5ccc([nH]5)c(-c5cc(S(=O)(=O)[O-])ccc5F)c5nc(c(-c6cc(S(=O)(=O)[O-])ccc6F)c6ccc3[nH]6)C=C5)C=C4)cc2)CC[C@H]2CCCC[C@@H]21
REMARK SMILES IDX 14 1 13 2 12 3 11 4 10 5 8 6 9 7 7 9 6 10 90 11 83 13 85 14
REMARK SMILES IDX 89 15 84 16 86 17 88 18 87 19 5 20 2 21 1 22 3 23 4 24 15 25
REMARK SMILES IDX 16 26 17 27 18 28 19 30 20 31 21 32 82 33 22 34 81 35 23 36
REMARK SMILES IDX 24 37 25 38 75 39 26 40 80 41 74 42 76 43 27 44 79 45 73 46
REMARK SMILES IDX 72 47 28 49 60 50 40 51 59 52 41 53 44 54 58 55 77 56 42 57
REMARK SMILES IDX 43 58 57 60 78 61 45 62 29 63 30 64 38 65 31 66 37 67 39 68
REMARK SMILES IDX 36 69 32 70 33 71 34 72 35 73 61 74 62 75 70 76 63 77 69 78
REMARK SMILES IDX 71 79 68 80 64 81 65 82 66 83 67 84 46 85 47 86 55 87 48 88
REMARK SMILES IDX 54 89 56 90 53 91 49 92 50 93 51 94 52 95
REMARK H PARENT 10 8 6 12 17 29 76 48 44 59
REMARK Flexibility Score: inf
ROOT
ATOM      1  C   UNL A   1      36.157  23.282  23.435  1.00  0.00     0.002 C 
ENDROOT
BRANCH   1   2
ATOM      2  C   UNL A   1      34.709  23.725  23.658  1.00  0.00     0.002 C 
BRANCH   2   3
ATOM      3  C   UNL A   1      33.653  22.762  23.114  1.00  0.00     0.021 C 
BRANCH   3   4
ATOM      4  C   UNL A   1      32.231  23.332  23.006  1.00  0.00     0.116 C 
BRANCH   4   5
ATOM      5  N   UNL A   1      32.189  24.307  21.936  1.00  0.00    -0.351 N 
ATOM      6  C   UNL A   1      32.013  25.649  21.922  1.00  0.00     0.278 C 
ATOM      7  O   UNL A   1      31.682  26.094  20.808  1.00  0.00    -0.268 OA
ATOM      8  H   UNL A   1      32.311  23.916  21.041  1.00  0.00     0.163 HD
BRANCH   6   9
ATOM      9  C   UNL A   1      32.354  26.653  23.053  1.00  0.00     0.274 C 
ATOM     10  N   UNL A   1      31.315  27.589  23.590  1.00  0.00    -0.322 N 
ATOM     11  C   UNL A   1      31.843  28.190  24.845  1.00  0.00     0.187 C 
ATOM     12  H   UNL A   1      30.460  27.072  23.793  1.00  0.00     0.349 HD
ATOM     13  C   UNL A   1      33.672  27.395  22.680  1.00  0.00     0.076 C 
ATOM     14  C   UNL A   1      33.385  28.262  24.984  1.00  0.00     0.048 C 
ATOM     15  C   UNL A   1      31.321  27.518  26.128  1.00  0.00     0.065 C 
ATOM     16  C   UNL A   1      34.031  28.538  23.639  1.00  0.00     0.016 C 
ATOM     17  C   UNL A   1      33.720  29.289  26.067  1.00  0.00     0.010 C 
ATOM     18  C   UNL A   1      31.652  28.418  27.333  1.00  0.00     0.006 C 
ATOM     19  C   UNL A   1      33.124  28.846  27.409  1.00  0.00     0.001 C 
BRANCH  10  20
ATOM     20  C   UNL A   1      30.919  28.626  22.589  1.00  0.00     0.269 C 
BRANCH  20  21
ATOM     21  C   UNL A   1      29.568  29.442  22.723  1.00  0.00     0.011 C 
ATOM     22  C   UNL A   1      29.236  30.292  21.486  1.00  0.00     0.017 C 
ATOM     23  C   UNL A   1      29.706  30.418  23.919  1.00  0.00     0.017 C 
ATOM     24  C   UNL A   1      28.375  28.525  23.083  1.00  0.00     0.017 C 
ENDBRANCH  20  21
ENDBRANCH  10  20
ENDBRANCH   6   9
ENDBRANCH   4   5
ENDBRANCH   3   4
ENDBRANCH   2   3
ENDBRANCH   1   2
BRANCH   1  25
ATOM     25  C   UNL A   1      36.673  22.179  24.370  1.00  0.00     0.021 C 
BRANCH  25  26
ATOM     26  C   UNL A   1      37.349  22.665  25.652  1.00  0.00     0.116 C 
BRANCH  26  27
ATOM     27  N   UNL A   1      38.416  21.777  26.072  1.00  0.00    -0.352 N 
ATOM     28  C   UNL A   1      39.679  22.060  26.530  1.00  0.00     0.251 C 
ATOM     29  H   UNL A   1      38.200  20.818  26.022  1.00  0.00     0.163 HD
ATOM     30  O   UNL A   1      40.510  21.157  26.583  1.00  0.00    -0.269 OA
BRANCH  28  31
ATOM     31  C   UNL A   1      40.050  23.431  26.951  1.00  0.00     0.039 A 
ATOM     32  C   UNL A   1      39.951  24.468  26.019  1.00  0.00     0.014 A 
ATOM     33  C   UNL A   1      40.565  23.689  28.225  1.00  0.00     0.014 A 
ATOM     34  C   UNL A   1      40.328  25.767  26.374  1.00  0.00     0.010 A 
ATOM     35  C   UNL A   1      40.885  24.995  28.598  1.00  0.00     0.010 A 
ATOM     36  C   UNL A   1      40.781  26.046  27.673  1.00  0.00    -0.014 A 
BRANCH  36  37
ATOM     37  C   UNL A   1      41.166  27.426  28.072  1.00  0.00     0.031 A 
ATOM     38  C   UNL A   1      42.616  27.829  28.095  1.00  0.00     0.074 A 
ATOM     39  C   UNL A   1      40.218  28.295  28.473  1.00  0.00     0.049 A 
ATOM     40  N   UNL A   1      43.159  28.955  28.483  1.00  0.00    -0.248 NA
ATOM     41  C   UNL A   1      43.585  26.817  27.649  1.00  0.00     0.031 C 
ATOM     42  C   UNL A   1      38.784  28.006  28.537  1.00  0.00     0.029 A 
ATOM     43  N   UNL A   1      40.317  29.589  28.918  1.00  0.00    -0.354 N 
ATOM     44  C   UNL A   1      44.533  28.781  28.349  1.00  0.00     0.074 A 
ATOM     45  C   UNL A   1      44.738  27.422  27.892  1.00  0.00     0.031 C 
ATOM     46  C   UNL A   1      38.138  29.093  28.990  1.00  0.00     0.029 A 
ATOM     47  C   UNL A   1      39.112  30.141  29.281  1.00  0.00     0.049 A 
ATOM     48  H   UNL A   1      41.171  30.076  28.971  1.00  0.00     0.167 HD
ATOM     49  C   UNL A   1      45.528  29.678  28.570  1.00  0.00     0.034 A 
ATOM     50  C   UNL A   1      38.823  31.348  29.806  1.00  0.00     0.034 A 
ATOM     51  C   UNL A   1      45.304  31.035  29.009  1.00  0.00     0.049 A 
ATOM     52  C   UNL A   1      39.941  32.332  30.036  1.00  0.00     0.074 A 
ATOM     53  C   UNL A   1      46.231  32.047  29.193  1.00  0.00     0.029 A 
ATOM     54  N   UNL A   1      44.065  31.569  29.343  1.00  0.00    -0.354 N 
ATOM     55  N   UNL A   1      41.231  32.174  29.845  1.00  0.00    -0.248 NA
ATOM     56  C   UNL A   1      39.562  33.659  30.535  1.00  0.00     0.031 C 
ATOM     57  C   UNL A   1      45.562  33.170  29.696  1.00  0.00     0.029 A 
ATOM     58  C   UNL A   1      44.209  32.884  29.761  1.00  0.00     0.049 A 
ATOM     59  H   UNL A   1      43.211  31.084  29.290  1.00  0.00     0.167 HD
ATOM     60  C   UNL A   1      41.814  33.392  30.181  1.00  0.00     0.074 A 
ATOM     61  C   UNL A   1      40.734  34.277  30.570  1.00  0.00     0.031 C 
ATOM     62  C   UNL A   1      43.124  33.749  30.164  1.00  0.00     0.034 A 
BRANCH  49  63
ATOM     63  C   UNL A   1      46.949  29.200  28.371  1.00  0.00     0.023 A 
ATOM     64  C   UNL A   1      47.477  28.962  27.090  1.00  0.00     0.031 A 
ATOM     65  C   UNL A   1      47.776  28.944  29.480  1.00  0.00     0.131 A 
ATOM     66  C   UNL A   1      48.758  28.403  26.952  1.00  0.00     0.055 A 
ATOM     67  C   UNL A   1      49.081  28.467  29.332  1.00  0.00     0.041 A 
ATOM     68  F   UNL A   1      47.324  29.135  30.729  1.00  0.00    -0.206 F 
ATOM     69  C   UNL A   1      49.572  28.177  28.063  1.00  0.00     0.022 A 
BRANCH  66  70
ATOM     70  S   UNL A   1      49.280  27.831  25.312  1.00  0.00     0.124 S 
ATOM     71  O   UNL A   1      50.440  28.682  25.059  1.00  0.00    -0.237 OA
ATOM     72  O   UNL A   1      49.560  26.420  25.544  1.00  0.00    -0.237 OA
ATOM     73  O   UNL A   1      48.119  28.107  24.467  1.00  0.00    -0.744 OA
ENDBRANCH  66  70
ENDBRANCH  49  63
BRANCH  50  74
ATOM     74  C   UNL A   1      37.418  31.691  30.164  1.00  0.00     0.023 A 
ATOM     75  C   UNL A   1      36.544  32.254  29.221  1.00  0.00     0.031 A 
ATOM     76  C   UNL A   1      36.937  31.477  31.468  1.00  0.00     0.131 A 
ATOM     77  C   UNL A   1      35.244  32.618  29.605  1.00  0.00     0.055 A 
ATOM     78  C   UNL A   1      35.628  31.800  31.832  1.00  0.00     0.041 A 
ATOM     79  F   UNL A   1      37.731  30.932  32.403  1.00  0.00    -0.206 F 
ATOM     80  C   UNL A   1      34.777  32.384  30.901  1.00  0.00     0.022 A 
BRANCH  77  81
ATOM     81  S   UNL A   1      34.187  33.462  28.398  1.00  0.00     0.124 S 
ATOM     82  O   UNL A   1      33.451  34.394  29.244  1.00  0.00    -0.237 OA
ATOM     83  O   UNL A   1      35.169  34.053  27.495  1.00  0.00    -0.237 OA
ATOM     84  O   UNL A   1      33.391  32.377  27.825  1.00  0.00    -0.744 OA
ENDBRANCH  77  81
ENDBRANCH  50  74
BRANCH  62  85
ATOM     85  C   UNL A   1      43.448  35.172  30.547  1.00  0.00     0.023 A 
ATOM     86  C   UNL A   1      43.442  36.211  29.600  1.00  0.00     0.031 A 
ATOM     87  C   UNL A   1      43.784  35.487  31.875  1.00  0.00     0.131 A 
ATOM     88  C   UNL A   1      43.818  37.508  29.984  1.00  0.00     0.055 A 
ATOM     89  C   UNL A   1      44.104  36.789  32.262  1.00  0.00     0.041 A 
ATOM     90  F   UNL A   1      43.808  34.532  32.819  1.00  0.00    -0.206 F 
ATOM     91  C   UNL A   1      44.134  37.806  31.312  1.00  0.00     0.022 A 
BRANCH  88  92
ATOM     92  S   UNL A   1      43.973  38.785  28.705  1.00  0.00     0.124 S 
ATOM     93  O   UNL A   1      43.528  38.075  27.511  1.00  0.00    -0.237 OA
ATOM     94  O   UNL A   1      43.079  39.829  29.196  1.00  0.00    -0.237 OA
ATOM     95  O   UNL A   1      45.395  39.125  28.731  1.00  0.00    -0.744 OA
ENDBRANCH  88  92
ENDBRANCH  62  85
ENDBRANCH  36  37
ENDBRANCH  28  31
ENDBRANCH  26  27
ENDBRANCH  25  26
ENDBRANCH   1  25
TORSDOF 18
ENDMDL
MODEL 2
REMARK VINA RESULT:     -11.5      1.933      2.221
REMARK SMILES CC(C)(C)C[N@H+]1[C@@H](C(=O)NCCCCCCNC(=O)c2ccc(-c3c4nc(c(-c5cc(S(=O)(=O)[O-])ccc5F)c5ccc([nH]5)c(-c5cc(S(=O)(=O)[O-])ccc5F)c5nc(c(-c6cc(S(=O)(=O)[O-])ccc6F)c6ccc3[nH]6)C=C5)C=C4)cc2)CC[C@H]2CCCC[C@@H]21
REMARK SMILES IDX 14 1 13 2 12 3 11 4 10 5 8 6 9 7 7 9 6 10 90 11 83 13 85 14
REMARK SMILES IDX 89 15 84 16 86 17 88 18 87 19 5 20 2 21 1 22 3 23 4 24 15 25
REMARK SMILES IDX 16 26 17 27 18 28 19 30 20 31 21 32 82 33 22 34 81 35 23 36
REMARK SMILES IDX 24 37 25 38 75 39 26 40 80 41 74 42 76 43 27 44 79 45 73 46
REMARK SMILES IDX 72 47 28 49 60 50 40 51 59 52 41 53 44 54 58 55 77 56 42 57
REMARK SMILES IDX 43 58 57 60 78 61 45 62 29 63 30 64 38 65 31 66 37 67 39 68
REMARK SMILES IDX 36 69 32 70 33 71 34 72 35 73 61 74 62 75 70 76 63 77 69 78
REMARK SMILES IDX 71 79 68 80 64 81 65 82 66 83 67 84 46 85 47 86 55 87 48 88
REMARK SMILES IDX 54 89 56 90 53 91 49 92 50 93 51 94 52 95
REMARK H PARENT 10 8 6 12 17 29 76 48 44 59
REMARK Flexibility Score: inf
ROOT
ATOM      1  C   UNL A   1      34.709  23.455  25.672  1.00  0.00     0.002 C 
ENDROOT
BRANCH   1   2
ATOM      2  C   UNL A   1      34.138  24.299  24.529  1.00  0.00     0.002 C 
BRANCH   2   3
ATOM      3  C   UNL A   1      33.924  23.544  23.218  1.00  0.00     0.021 C 
BRANCH   3   4
ATOM      4  C   UNL A   1      32.470  23.456  22.733  1.00  0.00     0.116 C 
BRANCH   4   5
ATOM      5  N   UNL A   1      32.234  24.489  21.746  1.00  0.00    -0.351 N 
ATOM      6  C   UNL A   1      31.942  25.808  21.847  1.00  0.00     0.278 C 
ATOM      7  O   UNL A   1      31.461  26.290  20.806  1.00  0.00    -0.268 OA
ATOM      8  H   UNL A   1      32.296  24.169  20.818  1.00  0.00     0.163 HD
BRANCH   6   9
ATOM      9  C   UNL A   1      32.312  26.765  23.009  1.00  0.00     0.274 C 
ATOM     10  N   UNL A   1      31.295  27.703  23.585  1.00  0.00    -0.322 N 
ATOM     11  C   UNL A   1      31.843  28.249  24.856  1.00  0.00     0.187 C 
ATOM     12  H   UNL A   1      30.431  27.196  23.777  1.00  0.00     0.349 HD
ATOM     13  C   UNL A   1      33.642  27.493  22.652  1.00  0.00     0.076 C 
ATOM     14  C   UNL A   1      33.387  28.285  24.987  1.00  0.00     0.048 C 
ATOM     15  C   UNL A   1      31.315  27.544  26.120  1.00  0.00     0.065 C 
ATOM     16  C   UNL A   1      34.030  28.595  23.648  1.00  0.00     0.016 C 
ATOM     17  C   UNL A   1      33.750  29.268  26.102  1.00  0.00     0.010 C 
ATOM     18  C   UNL A   1      31.673  28.395  27.352  1.00  0.00     0.006 C 
ATOM     19  C   UNL A   1      33.154  28.790  27.433  1.00  0.00     0.001 C 
BRANCH  10  20
ATOM     20  C   UNL A   1      30.913  28.781  22.624  1.00  0.00     0.269 C 
BRANCH  20  21
ATOM     21  C   UNL A   1      29.507  29.506  22.697  1.00  0.00     0.011 C 
ATOM     22  C   UNL A   1      29.138  30.267  21.414  1.00  0.00     0.017 C 
ATOM     23  C   UNL A   1      29.557  30.548  23.843  1.00  0.00     0.017 C 
ATOM     24  C   UNL A   1      28.374  28.527  23.088  1.00  0.00     0.017 C 
ENDBRANCH  20  21
ENDBRANCH  10  20
ENDBRANCH   6   9
ENDBRANCH   4   5
ENDBRANCH   3   4
ENDBRANCH   2   3
ENDBRANCH   1   2
BRANCH   1  25
ATOM     25  C   UNL A   1      36.168  23.741  26.052  1.00  0.00     0.021 C 
BRANCH  25  26
ATOM     26  C   UNL A   1      37.218  23.236  25.060  1.00  0.00     0.116 C 
BRANCH  26  27
ATOM     27  N   UNL A   1      38.138  22.299  25.676  1.00  0.00    -0.352 N 
ATOM     28  C   UNL A   1      39.318  22.519  26.342  1.00  0.00     0.251 C 
ATOM     29  H   UNL A   1      37.872  21.353  25.608  1.00  0.00     0.163 HD
ATOM     30  O   UNL A   1      40.068  21.571  26.556  1.00  0.00    -0.269 OA
BRANCH  28  31
ATOM     31  C   UNL A   1      39.698  23.878  26.794  1.00  0.00     0.039 A 
ATOM     32  C   UNL A   1      40.269  24.758  25.869  1.00  0.00     0.014 A 
ATOM     33  C   UNL A   1      39.569  24.265  28.131  1.00  0.00     0.014 A 
ATOM     34  C   UNL A   1      40.672  26.035  26.273  1.00  0.00     0.010 A 
ATOM     35  C   UNL A   1      39.917  25.559  28.522  1.00  0.00     0.010 A 
ATOM     36  C   UNL A   1      40.481  26.454  27.599  1.00  0.00    -0.014 A 
BRANCH  36  37
ATOM     37  C   UNL A   1      40.887  27.816  28.039  1.00  0.00     0.031 A 
ATOM     38  C   UNL A   1      42.343  28.194  28.084  1.00  0.00     0.074 A 
ATOM     39  C   UNL A   1      39.950  28.689  28.457  1.00  0.00     0.049 A 
ATOM     40  N   UNL A   1      42.901  29.299  28.508  1.00  0.00    -0.248 NA
ATOM     41  C   UNL A   1      43.299  27.178  27.617  1.00  0.00     0.031 C 
ATOM     42  C   UNL A   1      38.510  28.422  28.502  1.00  0.00     0.029 A 
ATOM     43  N   UNL A   1      40.066  29.968  28.939  1.00  0.00    -0.354 N 
ATOM     44  C   UNL A   1      44.273  29.106  28.380  1.00  0.00     0.074 A 
ATOM     45  C   UNL A   1      44.459  27.758  27.886  1.00  0.00     0.031 C 
ATOM     46  C   UNL A   1      37.879  29.506  28.981  1.00  0.00     0.029 A 
ATOM     47  C   UNL A   1      38.867  30.530  29.309  1.00  0.00     0.049 A 
ATOM     48  H   UNL A   1      40.928  30.439  29.012  1.00  0.00     0.167 HD
ATOM     49  C   UNL A   1      45.281  29.980  28.633  1.00  0.00     0.034 A 
ATOM     50  C   UNL A   1      38.594  31.726  29.865  1.00  0.00     0.034 A 
ATOM     51  C   UNL A   1      45.075  31.327  29.108  1.00  0.00     0.049 A 
ATOM     52  C   UNL A   1      39.726  32.685  30.130  1.00  0.00     0.074 A 
ATOM     53  C   UNL A   1      46.017  32.318  29.328  1.00  0.00     0.029 A 
ATOM     54  N   UNL A   1      43.843  31.872  29.447  1.00  0.00    -0.354 N 
ATOM     55  N   UNL A   1      41.015  32.511  29.945  1.00  0.00    -0.248 NA
ATOM     56  C   UNL A   1      39.365  34.003  30.664  1.00  0.00     0.031 C 
ATOM     57  C   UNL A   1      45.363  33.438  29.857  1.00  0.00     0.029 A 
ATOM     58  C   UNL A   1      44.004  33.172  29.904  1.00  0.00     0.049 A 
ATOM     59  H   UNL A   1      42.981  31.403  29.375  1.00  0.00     0.167 HD
ATOM     60  C   UNL A   1      41.615  33.709  30.320  1.00  0.00     0.074 A 
ATOM     61  C   UNL A   1      40.547  34.600  30.725  1.00  0.00     0.031 C 
ATOM     62  C   UNL A   1      42.931  34.044  30.323  1.00  0.00     0.034 A 
BRANCH  49  63
ATOM     63  C   UNL A   1      46.695  29.484  28.432  1.00  0.00     0.023 A 
ATOM     64  C   UNL A   1      47.426  28.885  29.473  1.00  0.00     0.031 A 
ATOM     65  C   UNL A   1      47.335  29.645  27.189  1.00  0.00     0.131 A 
ATOM     66  C   UNL A   1      48.775  28.550  29.281  1.00  0.00     0.055 A 
ATOM     67  C   UNL A   1      48.653  29.231  26.980  1.00  0.00     0.041 A 
ATOM     68  F   UNL A   1      46.697  30.225  26.162  1.00  0.00    -0.206 F 
ATOM     69  C   UNL A   1      49.387  28.697  28.034  1.00  0.00     0.022 A 
BRANCH  66  70
ATOM     70  S   UNL A   1      49.760  28.066  30.725  1.00  0.00     0.124 S 
ATOM     71  O   UNL A   1      51.111  28.048  30.168  1.00  0.00    -0.237 OA
ATOM     72  O   UNL A   1      49.474  29.135  31.674  1.00  0.00    -0.237 OA
ATOM     73  O   UNL A   1      49.224  26.754  31.082  1.00  0.00    -0.744 OA
ENDBRANCH  66  70
ENDBRANCH  49  63
BRANCH  50  74
ATOM     74  C   UNL A   1      37.192  32.082  30.222  1.00  0.00     0.023 A 
ATOM     75  C   UNL A   1      36.287  32.534  29.250  1.00  0.00     0.031 A 
ATOM     76  C   UNL A   1      36.745  31.993  31.552  1.00  0.00     0.131 A 
ATOM     77  C   UNL A   1      34.990  32.916  29.628  1.00  0.00     0.055 A 
ATOM     78  C   UNL A   1      35.440  32.331  31.915  1.00  0.00     0.041 A 
ATOM     79  F   UNL A   1      37.571  31.557  32.517  1.00  0.00    -0.206 F 
ATOM     80  C   UNL A   1      34.558  32.806  30.951  1.00  0.00     0.022 A 
BRANCH  77  81
ATOM     81  S   UNL A   1      33.890  33.618  28.368  1.00  0.00     0.124 S 
ATOM     82  O   UNL A   1      34.822  34.390  27.555  1.00  0.00    -0.237 OA
ATOM     83  O   UNL A   1      33.336  32.420  27.748  1.00  0.00    -0.237 OA
ATOM     84  O   UNL A   1      32.940  34.409  29.149  1.00  0.00    -0.744 OA
ENDBRANCH  77  81
ENDBRANCH  50  74
BRANCH  62  85
ATOM     85  C   UNL A   1      43.275  35.450  30.748  1.00  0.00     0.023 A 
ATOM     86  C   UNL A   1      43.298  35.828  32.102  1.00  0.00     0.031 A 
ATOM     87  C   UNL A   1      43.566  36.429  29.781  1.00  0.00     0.131 A 
ATOM     88  C   UNL A   1      43.552  37.164  32.450  1.00  0.00     0.055 A 
ATOM     89  C   UNL A   1      43.873  37.743  30.137  1.00  0.00     0.041 A 
ATOM     90  F   UNL A   1      43.557  36.123  28.474  1.00  0.00    -0.206 F 
ATOM     91  C   UNL A   1      43.855  38.119  31.476  1.00  0.00     0.022 A 
BRANCH  88  92
ATOM     92  S   UNL A   1      43.397  37.656  34.189  1.00  0.00     0.124 S 
ATOM     93  O   UNL A   1      44.753  37.449  34.686  1.00  0.00    -0.237 OA
ATOM     94  O   UNL A   1      42.963  39.046  34.083  1.00  0.00    -0.237 OA
ATOM     95  O   UNL A   1      42.394  36.734  34.718  1.00  0.00    -0.744 OA
ENDBRANCH  88  92
ENDBRANCH  62  85
ENDBRANCH  36  37
ENDBRANCH  28  31
ENDBRANCH  26  27
ENDBRANCH  25  26
ENDBRANCH   1  25
TORSDOF 18
ENDMDL
MODEL 3
REMARK VINA RESULT:     -11.3      1.906      2.298
REMARK SMILES CC(C)(C)C[N@H+]1[C@@H](C(=O)NCCCCCCNC(=O)c2ccc(-c3c4nc(c(-c5cc(S(=O)(=O)[O-])ccc5F)c5ccc([nH]5)c(-c5cc(S(=O)(=O)[O-])ccc5F)c5nc(c(-c6cc(S(=O)(=O)[O-])ccc6F)c6ccc3[nH]6)C=C5)C=C4)cc2)CC[C@H]2CCCC[C@@H]21
REMARK SMILES IDX 14 1 13 2 12 3 11 4 10 5 8 6 9 7 7 9 6 10 90 11 83 13 85 14
REMARK SMILES IDX 89 15 84 16 86 17 88 18 87 19 5 20 2 21 1 22 3 23 4 24 15 25
REMARK SMILES IDX 16 26 17 27 18 28 19 30 20 31 21 32 82 33 22 34 81 35 23 36
REMARK SMILES IDX 24 37 25 38 75 39 26 40 80 41 74 42 76 43 27 44 79 45 73 46
REMARK SMILES IDX 72 47 28 49 60 50 40 51 59 52 41 53 44 54 58 55 77 56 42 57
REMARK SMILES IDX 43 58 57 60 78 61 45 62 29 63 30 64 38 65 31 66 37 67 39 68
REMARK SMILES IDX 36 69 32 70 33 71 34 72 35 73 61 74 62 75 70 76 63 77 69 78
REMARK SMILES IDX 71 79 68 80 64 81 65 82 66 83 67 84 46 85 47 86 55 87 48 88
REMARK SMILES IDX 54 89 56 90 53 91 49 92 50 93 51 94 52 95
REMARK H PARENT 10 8 6 12 17 29 76 48 44 59
REMARK Flexibility Score: inf
ROOT
ATOM      1  C   UNL A   1      34.643  21.612  25.089  1.00  0.00     0.002 C 
ENDROOT
BRANCH   1   2
ATOM      2  C   UNL A   1      33.231  21.903  25.603  1.00  0.00     0.002 C 
BRANCH   2   3
ATOM      3  C   UNL A   1      32.166  22.033  24.514  1.00  0.00     0.021 C 
BRANCH   3   4
ATOM      4  C   UNL A   1      31.794  23.470  24.119  1.00  0.00     0.116 C 
BRANCH   4   5
ATOM      5  N   UNL A   1      30.783  23.967  25.029  1.00  0.00    -0.351 N 
ATOM      6  C   UNL A   1      30.818  24.872  26.036  1.00  0.00     0.278 C 
ATOM      7  O   UNL A   1      29.854  24.780  26.818  1.00  0.00    -0.268 OA
ATOM      8  H   UNL A   1      29.895  23.568  24.889  1.00  0.00     0.163 HD
BRANCH   6   9
ATOM      9  C   UNL A   1      31.788  26.072  26.188  1.00  0.00     0.274 C 
ATOM     10  N   UNL A   1      31.610  27.313  25.368  1.00  0.00    -0.322 N 
ATOM     11  C   UNL A   1      32.477  28.374  25.947  1.00  0.00     0.187 C 
ATOM     12  H   UNL A   1      30.635  27.611  25.405  1.00  0.00     0.349 HD
ATOM     13  C   UNL A   1      33.251  25.540  26.133  1.00  0.00     0.076 C 
ATOM     14  C   UNL A   1      33.723  27.897  26.736  1.00  0.00     0.048 C 
ATOM     15  C   UNL A   1      31.731  29.360  26.865  1.00  0.00     0.065 C 
ATOM     16  C   UNL A   1      34.311  26.649  26.104  1.00  0.00     0.016 C 
ATOM     17  C   UNL A   1      34.700  29.070  26.842  1.00  0.00     0.010 C 
ATOM     18  C   UNL A   1      32.632  30.581  27.123  1.00  0.00     0.006 C 
ATOM     19  C   UNL A   1      34.045  30.227  27.608  1.00  0.00     0.001 C 
BRANCH  10  20
ATOM     20  C   UNL A   1      31.894  27.077  23.920  1.00  0.00     0.269 C 
BRANCH  20  21
ATOM     21  C   UNL A   1      30.798  27.323  22.803  1.00  0.00     0.011 C 
ATOM     22  C   UNL A   1      30.712  28.784  22.334  1.00  0.00     0.017 C 
ATOM     23  C   UNL A   1      29.413  26.954  23.391  1.00  0.00     0.017 C 
ATOM     24  C   UNL A   1      30.990  26.378  21.592  1.00  0.00     0.017 C 
ENDBRANCH  20  21
ENDBRANCH  10  20
ENDBRANCH   6   9
ENDBRANCH   4   5
ENDBRANCH   3   4
ENDBRANCH   2   3
ENDBRANCH   1   2
BRANCH   1  25
ATOM     25  C   UNL A   1      35.487  22.839  24.717  1.00  0.00     0.021 C 
BRANCH  25  26
ATOM     26  C   UNL A   1      36.437  23.340  25.805  1.00  0.00     0.116 C 
BRANCH  26  27
ATOM     27  N   UNL A   1      37.535  22.419  26.032  1.00  0.00    -0.352 N 
ATOM     28  C   UNL A   1      38.845  22.663  26.360  1.00  0.00     0.251 C 
ATOM     29  H   UNL A   1      37.302  21.467  25.937  1.00  0.00     0.163 HD
ATOM     30  O   UNL A   1      39.666  21.756  26.250  1.00  0.00    -0.269 OA
BRANCH  28  31
ATOM     31  C   UNL A   1      39.279  23.998  26.835  1.00  0.00     0.039 A 
ATOM     32  C   UNL A   1      39.891  24.866  25.926  1.00  0.00     0.014 A 
ATOM     33  C   UNL A   1      39.158  24.370  28.177  1.00  0.00     0.014 A 
ATOM     34  C   UNL A   1      40.345  26.119  26.351  1.00  0.00     0.010 A 
ATOM     35  C   UNL A   1      39.556  25.642  28.589  1.00  0.00     0.010 A 
ATOM     36  C   UNL A   1      40.164  26.526  27.683  1.00  0.00    -0.014 A 
BRANCH  36  37
ATOM     37  C   UNL A   1      40.623  27.863  28.145  1.00  0.00     0.031 A 
ATOM     38  C   UNL A   1      42.094  28.160  28.259  1.00  0.00     0.074 A 
ATOM     39  C   UNL A   1      39.717  28.786  28.523  1.00  0.00     0.049 A 
ATOM     40  N   UNL A   1      42.692  29.232  28.712  1.00  0.00    -0.248 NA
ATOM     41  C   UNL A   1      43.013  27.093  27.834  1.00  0.00     0.031 C 
ATOM     42  C   UNL A   1      38.265  28.600  28.501  1.00  0.00     0.029 A 
ATOM     43  N   UNL A   1      39.881  30.057  29.014  1.00  0.00    -0.354 N 
ATOM     44  C   UNL A   1      44.056  28.964  28.646  1.00  0.00     0.074 A 
ATOM     45  C   UNL A   1      44.190  27.608  28.157  1.00  0.00     0.031 C 
ATOM     46  C   UNL A   1      37.673  29.717  28.953  1.00  0.00     0.029 A 
ATOM     47  C   UNL A   1      38.700  30.684  29.330  1.00  0.00     0.049 A 
ATOM     48  H   UNL A   1      40.764  30.479  29.129  1.00  0.00     0.167 HD
ATOM     49  C   UNL A   1      45.098  29.780  28.949  1.00  0.00     0.034 A 
ATOM     50  C   UNL A   1      38.468  31.893  29.876  1.00  0.00     0.034 A 
ATOM     51  C   UNL A   1      44.945  31.137  29.419  1.00  0.00     0.049 A 
ATOM     52  C   UNL A   1      39.638  32.787  30.197  1.00  0.00     0.074 A 
ATOM     53  C   UNL A   1      45.929  32.074  29.685  1.00  0.00     0.029 A 
ATOM     54  N   UNL A   1      43.730  31.749  29.702  1.00  0.00    -0.354 N 
ATOM     55  N   UNL A   1      40.922  32.542  30.071  1.00  0.00    -0.248 NA
ATOM     56  C   UNL A   1      39.326  34.124  30.718  1.00  0.00     0.031 C 
ATOM     57  C   UNL A   1      45.314  33.227  30.187  1.00  0.00     0.029 A 
ATOM     58  C   UNL A   1      43.942  33.038  30.170  1.00  0.00     0.049 A 
ATOM     59  H   UNL A   1      42.848  31.328  29.589  1.00  0.00     0.167 HD
ATOM     60  C   UNL A   1      41.570  33.705  30.477  1.00  0.00     0.074 A 
ATOM     61  C   UNL A   1      40.534  34.654  30.835  1.00  0.00     0.031 C 
ATOM     62  C   UNL A   1      42.900  33.967  30.542  1.00  0.00     0.034 A 
BRANCH  49  63
ATOM     63  C   UNL A   1      46.490  29.207  28.811  1.00  0.00     0.023 A 
ATOM     64  C   UNL A   1      47.121  29.087  27.560  1.00  0.00     0.031 A 
ATOM     65  C   UNL A   1      47.183  28.740  29.943  1.00  0.00     0.131 A 
ATOM     66  C   UNL A   1      48.362  28.439  27.460  1.00  0.00     0.055 A 
ATOM     67  C   UNL A   1      48.455  28.172  29.846  1.00  0.00     0.041 A 
ATOM     68  F   UNL A   1      46.627  28.811  31.162  1.00  0.00    -0.206 F 
ATOM     69  C   UNL A   1      49.045  28.002  28.597  1.00  0.00     0.022 A 
BRANCH  66  70
ATOM     70  S   UNL A   1      48.996  28.037  25.809  1.00  0.00     0.124 S 
ATOM     71  O   UNL A   1      50.170  28.902  25.725  1.00  0.00    -0.237 OA
ATOM     72  O   UNL A   1      49.262  26.607  25.913  1.00  0.00    -0.237 OA
ATOM     73  O   UNL A   1      47.896  28.404  24.920  1.00  0.00    -0.744 OA
ENDBRANCH  66  70
ENDBRANCH  49  63
BRANCH  50  74
ATOM     74  C   UNL A   1      37.072  32.326  30.169  1.00  0.00     0.023 A 
ATOM     75  C   UNL A   1      36.319  33.040  29.225  1.00  0.00     0.031 A 
ATOM     76  C   UNL A   1      36.480  32.045  31.413  1.00  0.00     0.131 A 
ATOM     77  C   UNL A   1      35.028  33.483  29.553  1.00  0.00     0.055 A 
ATOM     78  C   UNL A   1      35.179  32.449  31.718  1.00  0.00     0.041 A 
ATOM     79  F   UNL A   1      37.156  31.356  32.346  1.00  0.00    -0.206 F 
ATOM     80  C   UNL A   1      34.450  33.182  30.788  1.00  0.00     0.022 A 
BRANCH  77  81
ATOM     81  S   UNL A   1      34.136  34.515  28.359  1.00  0.00     0.124 S 
ATOM     82  O   UNL A   1      35.029  34.481  27.207  1.00  0.00    -0.237 OA
ATOM     83  O   UNL A   1      32.876  33.793  28.215  1.00  0.00    -0.237 OA
ATOM     84  O   UNL A   1      34.035  35.808  29.034  1.00  0.00    -0.744 OA
ENDBRANCH  77  81
ENDBRANCH  50  74
BRANCH  62  85
ATOM     85  C   UNL A   1      43.301  35.352  30.987  1.00  0.00     0.023 A 
ATOM     86  C   UNL A   1      43.420  35.685  32.347  1.00  0.00     0.031 A 
ATOM     87  C   UNL A   1      43.551  36.355  30.034  1.00  0.00     0.131 A 
ATOM     88  C   UNL A   1      43.725  37.004  32.719  1.00  0.00     0.055 A 
ATOM     89  C   UNL A   1      43.908  37.651  30.410  1.00  0.00     0.041 A 
ATOM     90  F   UNL A   1      43.450  36.092  28.721  1.00  0.00    -0.206 F 
ATOM     91  C   UNL A   1      43.985  37.984  31.758  1.00  0.00     0.022 A 
BRANCH  88  92
ATOM     92  S   UNL A   1      43.694  37.443  34.479  1.00  0.00     0.124 S 
ATOM     93  O   UNL A   1      44.040  36.176  35.115  1.00  0.00    -0.237 OA
ATOM     94  O   UNL A   1      44.705  38.493  34.558  1.00  0.00    -0.237 OA
ATOM     95  O   UNL A   1      42.319  37.890  34.696  1.00  0.00    -0.744 OA
ENDBRANCH  88  92
ENDBRANCH  62  85
ENDBRANCH  36  37
ENDBRANCH  28  31
ENDBRANCH  26  27
ENDBRANCH  25  26
ENDBRANCH   1  25
TORSDOF 18
ENDMDL
