MODEL 1
REMARK VINA RESULT:     -11.4      0.000      0.000
REMARK SMILES O=C(NCCCCCCNC(=O)c1ccc(S(=O)(=O)Cc2cccs2)c(F)c1)c1ccc(-c2c3nc(c(-c4cc(S(=O)(=O)[O-])ccc4F)c4ccc([nH]4)c(-c4cc(S(=O)(=O)[O-])ccc4F)c4nc(c(-c5cc(S(=O)(=O)[O-])ccc5F)c5ccc2[nH]5)C=C4)C=C3)cc1
REMARK SMILES IDX 6 1 5 2 4 3 3 4 1 5 2 6 29 8 30 9 91 10 31 11 90 12 32 13
REMARK SMILES IDX 33 14 34 15 84 16 35 17 89 18 83 19 85 20 36 21 88 22 82 23
REMARK SMILES IDX 81 24 37 26 69 27 49 28 68 29 50 30 53 31 67 32 86 33 51 34
REMARK SMILES IDX 52 35 66 37 87 38 54 39 38 40 39 41 47 42 40 43 46 44 48 45
REMARK SMILES IDX 45 46 41 47 42 48 43 49 44 50 70 51 71 52 79 53 72 54 78 55
REMARK SMILES IDX 80 56 77 57 73 58 74 59 75 60 76 61 55 62 56 63 64 64 57 65
REMARK SMILES IDX 63 66 65 67 62 68 58 69 59 70 60 71 61 72 7 73 8 74 9 75
REMARK SMILES IDX 10 76 11 77 12 79 13 80 14 81 28 82 15 83 26 84 16 85 27 86
REMARK SMILES IDX 17 87 18 88 19 89 20 90 21 91 22 92 25 93 23 94 24 95
REMARK H PARENT 3 7 85 25 53 36 10 78
REMARK Flexibility Score: inf
ROOT
ATOM      1  C   UNL A   1      34.895  21.909  24.152  1.00  0.00     0.002 C 
ENDROOT
BRANCH   1   2
ATOM      2  C   UNL A   1      36.332  22.434  24.215  1.00  0.00     0.021 C 
BRANCH   2   3
ATOM      3  C   UNL A   1      36.933  22.527  25.615  1.00  0.00     0.116 C 
BRANCH   3   4
ATOM      4  N   UNL A   1      37.858  21.442  25.889  1.00  0.00    -0.352 N 
ATOM      5  O   UNL A   1      39.844  20.474  26.311  1.00  0.00    -0.269 OA
ATOM      6  C   UNL A   1      39.163  21.495  26.313  1.00  0.00     0.251 C 
ATOM      7  H   UNL A   1      37.498  20.537  25.750  1.00  0.00     0.163 HD
BRANCH   6   8
ATOM      8  C   UNL A   1      39.752  22.778  26.759  1.00  0.00     0.039 A 
ATOM      9  C   UNL A   1      40.678  22.822  27.807  1.00  0.00     0.014 A 
ATOM     10  C   UNL A   1      39.409  23.951  26.079  1.00  0.00     0.014 A 
ATOM     11  C   UNL A   1      41.191  24.048  28.231  1.00  0.00     0.010 A 
ATOM     12  C   UNL A   1      39.965  25.172  26.471  1.00  0.00     0.010 A 
ATOM     13  C   UNL A   1      40.853  25.231  27.557  1.00  0.00    -0.014 A 
BRANCH  13  14
ATOM     14  C   UNL A   1      41.479  26.522  27.945  1.00  0.00     0.031 A 
ATOM     15  C   UNL A   1      40.695  27.561  28.696  1.00  0.00     0.074 A 
ATOM     16  C   UNL A   1      42.766  26.751  27.617  1.00  0.00     0.049 A 
ATOM     17  N   UNL A   1      41.039  28.784  29.011  1.00  0.00    -0.248 NA
ATOM     18  C   UNL A   1      39.351  27.177  29.157  1.00  0.00     0.031 C 
ATOM     19  C   UNL A   1      43.642  25.803  26.923  1.00  0.00     0.029 A 
ATOM     20  N   UNL A   1      43.565  27.847  27.824  1.00  0.00    -0.354 N 
ATOM     21  C   UNL A   1      39.959  29.320  29.701  1.00  0.00     0.074 A 
ATOM     22  C   UNL A   1      38.937  28.294  29.744  1.00  0.00     0.031 C 
ATOM     23  C   UNL A   1      44.861  26.347  26.789  1.00  0.00     0.029 A 
ATOM     24  C   UNL A   1      44.836  27.705  27.320  1.00  0.00     0.049 A 
ATOM     25  H   UNL A   1      43.257  28.658  28.289  1.00  0.00     0.167 HD
ATOM     26  C   UNL A   1      39.836  30.553  30.250  1.00  0.00     0.034 A 
ATOM     27  C   UNL A   1      45.858  28.581  27.261  1.00  0.00     0.034 A 
ATOM     28  C   UNL A   1      40.857  31.570  30.199  1.00  0.00     0.049 A 
ATOM     29  C   UNL A   1      45.660  29.969  27.804  1.00  0.00     0.074 A 
ATOM     30  C   UNL A   1      40.812  32.862  30.694  1.00  0.00     0.029 A 
ATOM     31  N   UNL A   1      42.111  31.409  29.627  1.00  0.00    -0.354 N 
ATOM     32  N   UNL A   1      44.601  30.486  28.383  1.00  0.00    -0.248 NA
ATOM     33  C   UNL A   1      46.792  30.896  27.674  1.00  0.00     0.031 C 
ATOM     34  C   UNL A   1      42.021  33.495  30.386  1.00  0.00     0.029 A 
ATOM     35  C   UNL A   1      42.842  32.580  29.749  1.00  0.00     0.049 A 
ATOM     36  H   UNL A   1      42.433  30.584  29.198  1.00  0.00     0.167 HD
ATOM     37  C   UNL A   1      44.947  31.794  28.699  1.00  0.00     0.074 A 
ATOM     38  C   UNL A   1      46.316  31.983  28.265  1.00  0.00     0.031 C 
ATOM     39  C   UNL A   1      44.199  32.757  29.295  1.00  0.00     0.034 A 
BRANCH  26  40
ATOM     40  C   UNL A   1      38.537  30.892  30.931  1.00  0.00     0.023 A 
ATOM     41  C   UNL A   1      37.525  31.604  30.266  1.00  0.00     0.031 A 
ATOM     42  C   UNL A   1      38.287  30.447  32.241  1.00  0.00     0.131 A 
ATOM     43  C   UNL A   1      36.315  31.870  30.923  1.00  0.00     0.055 A 
ATOM     44  C   UNL A   1      37.062  30.671  32.872  1.00  0.00     0.041 A 
ATOM     45  F   UNL A   1      39.229  29.775  32.923  1.00  0.00    -0.206 F 
ATOM     46  C   UNL A   1      36.068  31.388  32.213  1.00  0.00     0.022 A 
BRANCH  43  47
ATOM     47  S   UNL A   1      35.070  32.889  30.087  1.00  0.00     0.124 S 
ATOM     48  O   UNL A   1      34.454  31.918  29.186  1.00  0.00    -0.237 OA
ATOM     49  O   UNL A   1      34.237  33.350  31.192  1.00  0.00    -0.237 OA
ATOM     50  O   UNL A   1      35.862  33.928  29.431  1.00  0.00    -0.744 OA
ENDBRANCH  43  47
ENDBRANCH  26  40
BRANCH  27  51
ATOM     51  C   UNL A   1      47.146  28.196  26.621  1.00  0.00     0.023 A 
ATOM     52  C   UNL A   1      47.271  28.158  25.225  1.00  0.00     0.031 A 
ATOM     53  C   UNL A   1      48.256  27.818  27.398  1.00  0.00     0.131 A 
ATOM     54  C   UNL A   1      48.469  27.712  24.645  1.00  0.00     0.055 A 
ATOM     55  C   UNL A   1      49.460  27.421  26.816  1.00  0.00     0.041 A 
ATOM     56  F   UNL A   1      48.186  27.841  28.739  1.00  0.00    -0.206 F 
ATOM     57  C   UNL A   1      49.568  27.355  25.430  1.00  0.00     0.022 A 
BRANCH  54  58
ATOM     58  S   UNL A   1      48.547  27.543  22.841  1.00  0.00     0.124 S 
ATOM     59  O   UNL A   1      47.318  28.210  22.427  1.00  0.00    -0.237 OA
ATOM     60  O   UNL A   1      49.791  28.235  22.524  1.00  0.00    -0.237 OA
ATOM     61  O   UNL A   1      48.572  26.096  22.636  1.00  0.00    -0.744 OA
ENDBRANCH  54  58
ENDBRANCH  27  51
BRANCH  39  62
ATOM     62  C   UNL A   1      44.868  34.084  29.536  1.00  0.00     0.023 A 
ATOM     63  C   UNL A   1      44.918  35.070  28.536  1.00  0.00     0.031 A 
ATOM     64  C   UNL A   1      45.475  34.356  30.773  1.00  0.00     0.131 A 
ATOM     65  C   UNL A   1      45.610  36.266  28.774  1.00  0.00     0.055 A 
ATOM     66  C   UNL A   1      46.120  35.568  31.021  1.00  0.00     0.041 A 
ATOM     67  F   UNL A   1      45.455  33.445  31.759  1.00  0.00    -0.206 F 
ATOM     68  C   UNL A   1      46.199  36.527  30.014  1.00  0.00     0.022 A 
BRANCH  65  69
ATOM     69  S   UNL A   1      45.793  37.451  27.413  1.00  0.00     0.124 S 
ATOM     70  O   UNL A   1      46.150  36.579  26.298  1.00  0.00    -0.237 OA
ATOM     71  O   UNL A   1      44.468  38.060  27.347  1.00  0.00    -0.237 OA
ATOM     72  O   UNL A   1      46.859  38.339  27.872  1.00  0.00    -0.744 OA
ENDBRANCH  65  69
ENDBRANCH  39  62
ENDBRANCH  13  14
ENDBRANCH   6   8
ENDBRANCH   3   4
ENDBRANCH   2   3
ENDBRANCH   1   2
BRANCH   1  73
ATOM     73  C   UNL A   1      34.598  20.686  25.026  1.00  0.00     0.002 C 
BRANCH  73  74
ATOM     74  C   UNL A   1      33.244  20.009  24.785  1.00  0.00     0.021 C 
BRANCH  74  75
ATOM     75  C   UNL A   1      32.050  20.958  24.692  1.00  0.00     0.116 C 
BRANCH  75  76
ATOM     76  N   UNL A   1      31.667  21.478  25.996  1.00  0.00    -0.352 N 
ATOM     77  C   UNL A   1      31.699  22.770  26.449  1.00  0.00     0.251 C 
ATOM     78  H   UNL A   1      31.340  20.809  26.641  1.00  0.00     0.163 HD
ATOM     79  O   UNL A   1      31.493  23.039  27.629  1.00  0.00    -0.269 OA
BRANCH  77  80
ATOM     80  C   UNL A   1      32.003  23.857  25.502  1.00  0.00     0.042 A 
ATOM     81  C   UNL A   1      33.274  24.439  25.485  1.00  0.00     0.015 A 
ATOM     82  C   UNL A   1      31.002  24.295  24.632  1.00  0.00     0.054 A 
ATOM     83  C   UNL A   1      33.531  25.497  24.614  1.00  0.00     0.024 A 
ATOM     84  C   UNL A   1      31.261  25.366  23.782  1.00  0.00     0.142 A 
ATOM     85  C   UNL A   1      32.515  25.964  23.767  1.00  0.00     0.103 A 
ATOM     86  F   UNL A   1      30.260  25.826  23.022  1.00  0.00    -0.206 F 
BRANCH  85  87
ATOM     87  S   UNL A   1      32.854  27.370  22.757  1.00  0.00     0.186 S 
ATOM     88  O   UNL A   1      33.707  26.865  21.694  1.00  0.00    -0.223 OA
ATOM     89  O   UNL A   1      31.567  27.955  22.418  1.00  0.00    -0.223 OA
BRANCH  87  90
ATOM     90  C   UNL A   1      33.791  28.585  23.644  1.00  0.00     0.188 C 
BRANCH  90  91
ATOM     91  C   UNL A   1      33.339  28.905  25.039  1.00  0.00     0.020 A 
ATOM     92  C   UNL A   1      34.093  28.745  26.190  1.00  0.00     0.016 A 
ATOM     93  S   UNL A   1      31.836  29.644  25.394  1.00  0.00    -0.148 S 
ATOM     94  C   UNL A   1      33.418  29.192  27.360  1.00  0.00     0.012 A 
ATOM     95  C   UNL A   1      32.168  29.687  27.069  1.00  0.00     0.065 A 
ENDBRANCH  90  91
ENDBRANCH  87  90
ENDBRANCH  85  87
ENDBRANCH  77  80
ENDBRANCH  75  76
ENDBRANCH  74  75
ENDBRANCH  73  74
ENDBRANCH   1  73
TORSDOF 19
ENDMDL
MODEL 2
REMARK VINA RESULT:     -11.4      2.553      3.334
REMARK SMILES O=C(NCCCCCCNC(=O)c1ccc(S(=O)(=O)Cc2cccs2)c(F)c1)c1ccc(-c2c3nc(c(-c4cc(S(=O)(=O)[O-])ccc4F)c4ccc([nH]4)c(-c4cc(S(=O)(=O)[O-])ccc4F)c4nc(c(-c5cc(S(=O)(=O)[O-])ccc5F)c5ccc2[nH]5)C=C4)C=C3)cc1
REMARK SMILES IDX 6 1 5 2 4 3 3 4 1 5 2 6 29 8 30 9 91 10 31 11 90 12 32 13
REMARK SMILES IDX 33 14 34 15 84 16 35 17 89 18 83 19 85 20 36 21 88 22 82 23
REMARK SMILES IDX 81 24 37 26 69 27 49 28 68 29 50 30 53 31 67 32 86 33 51 34
REMARK SMILES IDX 52 35 66 37 87 38 54 39 38 40 39 41 47 42 40 43 46 44 48 45
REMARK SMILES IDX 45 46 41 47 42 48 43 49 44 50 70 51 71 52 79 53 72 54 78 55
REMARK SMILES IDX 80 56 77 57 73 58 74 59 75 60 76 61 55 62 56 63 64 64 57 65
REMARK SMILES IDX 63 66 65 67 62 68 58 69 59 70 60 71 61 72 7 73 8 74 9 75
REMARK SMILES IDX 10 76 11 77 12 79 13 80 14 81 28 82 15 83 26 84 16 85 27 86
REMARK SMILES IDX 17 87 18 88 19 89 20 90 21 91 22 92 25 93 23 94 24 95
REMARK H PARENT 3 7 85 25 53 36 10 78
REMARK Flexibility Score: inf
ROOT
ATOM      1  C   UNL A   1      37.250  20.967  24.846  1.00  0.00     0.002 C 
ENDROOT
BRANCH   1   2
ATOM      2  C   UNL A   1      38.323  19.886  25.002  1.00  0.00     0.021 C 
BRANCH   2   3
ATOM      3  C   UNL A   1      39.417  20.193  26.021  1.00  0.00     0.116 C 
BRANCH   3   4
ATOM      4  N   UNL A   1      40.523  19.256  25.940  1.00  0.00    -0.352 N 
ATOM      5  O   UNL A   1      42.658  18.591  25.706  1.00  0.00    -0.269 OA
ATOM      6  C   UNL A   1      41.874  19.496  25.976  1.00  0.00     0.251 C 
ATOM      7  H   UNL A   1      40.266  18.310  25.845  1.00  0.00     0.163 HD
BRANCH   6   8
ATOM      8  C   UNL A   1      42.385  20.840  26.326  1.00  0.00     0.039 A 
ATOM      9  C   UNL A   1      42.686  21.780  25.333  1.00  0.00     0.014 A 
ATOM     10  C   UNL A   1      42.517  21.182  27.675  1.00  0.00     0.014 A 
ATOM     11  C   UNL A   1      43.200  23.027  25.689  1.00  0.00     0.010 A 
ATOM     12  C   UNL A   1      42.983  22.451  28.031  1.00  0.00     0.010 A 
ATOM     13  C   UNL A   1      43.337  23.381  27.040  1.00  0.00    -0.014 A 
BRANCH  13  14
ATOM     14  C   UNL A   1      43.788  24.745  27.418  1.00  0.00     0.031 A 
ATOM     15  C   UNL A   1      42.802  25.778  27.885  1.00  0.00     0.074 A 
ATOM     16  C   UNL A   1      45.099  25.046  27.340  1.00  0.00     0.049 A 
ATOM     17  N   UNL A   1      42.998  27.046  28.140  1.00  0.00    -0.248 NA
ATOM     18  C   UNL A   1      41.416  25.329  28.095  1.00  0.00     0.031 C 
ATOM     19  C   UNL A   1      46.158  24.115  26.939  1.00  0.00     0.029 A 
ATOM     20  N   UNL A   1      45.769  26.215  27.598  1.00  0.00    -0.354 N 
ATOM     21  C   UNL A   1      41.766  27.552  28.537  1.00  0.00     0.074 A 
ATOM     22  C   UNL A   1      40.821  26.455  28.470  1.00  0.00     0.031 C 
ATOM     23  C   UNL A   1      47.343  24.741  27.005  1.00  0.00     0.029 A 
ATOM     24  C   UNL A   1      47.125  26.132  27.383  1.00  0.00     0.049 A 
ATOM     25  H   UNL A   1      45.322  27.036  27.907  1.00  0.00     0.167 HD
ATOM     26  C   UNL A   1      41.455  28.814  28.924  1.00  0.00     0.034 A 
ATOM     27  C   UNL A   1      48.082  27.079  27.449  1.00  0.00     0.034 A 
ATOM     28  C   UNL A   1      42.402  29.900  28.984  1.00  0.00     0.049 A 
ATOM     29  C   UNL A   1      47.691  28.488  27.799  1.00  0.00     0.074 A 
ATOM     30  C   UNL A   1      42.176  31.222  29.329  1.00  0.00     0.029 A 
ATOM     31  N   UNL A   1      43.756  29.792  28.701  1.00  0.00    -0.354 N 
ATOM     32  N   UNL A   1      46.504  28.966  28.093  1.00  0.00    -0.248 NA
ATOM     33  C   UNL A   1      48.767  29.487  27.814  1.00  0.00     0.031 C 
ATOM     34  C   UNL A   1      43.382  31.920  29.215  1.00  0.00     0.029 A 
ATOM     35  C   UNL A   1      44.373  31.022  28.854  1.00  0.00     0.049 A 
ATOM     36  H   UNL A   1      44.211  28.961  28.431  1.00  0.00     0.167 HD
ATOM     37  C   UNL A   1      46.696  30.320  28.343  1.00  0.00     0.074 A 
ATOM     38  C   UNL A   1      48.112  30.579  28.184  1.00  0.00     0.031 C 
ATOM     39  C   UNL A   1      45.783  31.267  28.673  1.00  0.00     0.034 A 
BRANCH  26  40
ATOM     40  C   UNL A   1      40.024  29.104  29.286  1.00  0.00     0.023 A 
ATOM     41  C   UNL A   1      39.598  29.133  30.623  1.00  0.00     0.031 A 
ATOM     42  C   UNL A   1      39.088  29.410  28.281  1.00  0.00     0.131 A 
ATOM     43  C   UNL A   1      38.262  29.442  30.921  1.00  0.00     0.055 A 
ATOM     44  C   UNL A   1      37.774  29.766  28.586  1.00  0.00     0.041 A 
ATOM     45  F   UNL A   1      39.445  29.382  26.987  1.00  0.00    -0.206 F 
ATOM     46  C   UNL A   1      37.353  29.781  29.913  1.00  0.00     0.022 A 
BRANCH  43  47
ATOM     47  S   UNL A   1      37.707  29.361  32.645  1.00  0.00     0.124 S 
ATOM     48  O   UNL A   1      38.778  30.080  33.331  1.00  0.00    -0.237 OA
ATOM     49  O   UNL A   1      36.415  30.035  32.599  1.00  0.00    -0.237 OA
ATOM     50  O   UNL A   1      37.650  27.926  32.920  1.00  0.00    -0.744 OA
ENDBRANCH  43  47
ENDBRANCH  26  40
BRANCH  27  51
ATOM     51  C   UNL A   1      49.497  26.744  27.129  1.00  0.00     0.023 A 
ATOM     52  C   UNL A   1      50.048  27.073  25.882  1.00  0.00     0.031 A 
ATOM     53  C   UNL A   1      50.304  26.052  28.051  1.00  0.00     0.131 A 
ATOM     54  C   UNL A   1      51.358  26.674  25.573  1.00  0.00     0.055 A 
ATOM     55  C   UNL A   1      51.621  25.700  27.755  1.00  0.00     0.041 A 
ATOM     56  F   UNL A   1      49.821  25.718  29.258  1.00  0.00    -0.206 F 
ATOM     57  C   UNL A   1      52.152  26.000  26.505  1.00  0.00     0.022 A 
BRANCH  54  58
ATOM     58  S   UNL A   1      51.988  26.992  23.903  1.00  0.00     0.124 S 
ATOM     59  O   UNL A   1      53.058  26.007  23.797  1.00  0.00    -0.237 OA
ATOM     60  O   UNL A   1      50.808  26.750  23.081  1.00  0.00    -0.237 OA
ATOM     61  O   UNL A   1      52.426  28.386  23.964  1.00  0.00    -0.744 OA
ENDBRANCH  54  58
ENDBRANCH  27  51
BRANCH  39  62
ATOM     62  C   UNL A   1      46.305  32.659  28.914  1.00  0.00     0.023 A 
ATOM     63  C   UNL A   1      46.378  33.602  27.876  1.00  0.00     0.031 A 
ATOM     64  C   UNL A   1      46.749  33.036  30.192  1.00  0.00     0.131 A 
ATOM     65  C   UNL A   1      46.934  34.865  28.122  1.00  0.00     0.055 A 
ATOM     66  C   UNL A   1      47.256  34.311  30.443  1.00  0.00     0.041 A 
ATOM     67  F   UNL A   1      46.701  32.170  31.217  1.00  0.00    -0.206 F 
ATOM     68  C   UNL A   1      47.361  35.231  29.402  1.00  0.00     0.022 A 
BRANCH  65  69
ATOM     69  S   UNL A   1      47.161  36.004  26.729  1.00  0.00     0.124 S 
ATOM     70  O   UNL A   1      46.732  37.275  27.304  1.00  0.00    -0.237 OA
ATOM     71  O   UNL A   1      48.588  35.880  26.451  1.00  0.00    -0.237 OA
ATOM     72  O   UNL A   1      46.281  35.462  25.696  1.00  0.00    -0.744 OA
ENDBRANCH  65  69
ENDBRANCH  39  62
ENDBRANCH  13  14
ENDBRANCH   6   8
ENDBRANCH   3   4
ENDBRANCH   2   3
ENDBRANCH   1   2
BRANCH   1  73
ATOM     73  C   UNL A   1      35.813  20.519  25.125  1.00  0.00     0.002 C 
BRANCH  73  74
ATOM     74  C   UNL A   1      34.712  21.414  24.546  1.00  0.00     0.021 C 
BRANCH  74  75
ATOM     75  C   UNL A   1      33.290  21.063  24.985  1.00  0.00     0.116 C 
BRANCH  75  76
ATOM     76  N   UNL A   1      33.097  21.268  26.413  1.00  0.00    -0.352 N 
ATOM     77  C   UNL A   1      32.863  22.436  27.090  1.00  0.00     0.251 C 
ATOM     78  H   UNL A   1      33.140  20.456  26.969  1.00  0.00     0.163 HD
ATOM     79  O   UNL A   1      32.877  22.478  28.316  1.00  0.00    -0.269 OA
BRANCH  77  80
ATOM     80  C   UNL A   1      32.606  23.670  26.327  1.00  0.00     0.042 A 
ATOM     81  C   UNL A   1      33.670  24.486  25.932  1.00  0.00     0.015 A 
ATOM     82  C   UNL A   1      31.288  24.008  26.014  1.00  0.00     0.054 A 
ATOM     83  C   UNL A   1      33.405  25.674  25.250  1.00  0.00     0.024 A 
ATOM     84  C   UNL A   1      31.032  25.206  25.353  1.00  0.00     0.142 A 
ATOM     85  C   UNL A   1      32.079  26.034  24.969  1.00  0.00     0.103 A 
ATOM     86  F   UNL A   1      29.756  25.552  25.142  1.00  0.00    -0.206 F 
BRANCH  85  87
ATOM     87  S   UNL A   1      31.786  27.593  24.197  1.00  0.00     0.186 S 
ATOM     88  O   UNL A   1      31.064  28.370  25.191  1.00  0.00    -0.223 OA
ATOM     89  O   UNL A   1      33.077  28.068  23.724  1.00  0.00    -0.223 OA
BRANCH  87  90
ATOM     90  C   UNL A   1      30.717  27.423  22.793  1.00  0.00     0.188 C 
BRANCH  90  91
ATOM     91  C   UNL A   1      29.559  28.373  22.703  1.00  0.00     0.020 A 
ATOM     92  C   UNL A   1      28.271  28.121  23.144  1.00  0.00     0.016 A 
ATOM     93  S   UNL A   1      29.706  29.982  22.137  1.00  0.00    -0.148 S 
ATOM     94  C   UNL A   1      27.402  29.236  22.978  1.00  0.00     0.012 A 
ATOM     95  C   UNL A   1      28.053  30.311  22.421  1.00  0.00     0.065 A 
ENDBRANCH  90  91
ENDBRANCH  87  90
ENDBRANCH  85  87
ENDBRANCH  77  80
ENDBRANCH  75  76
ENDBRANCH  74  75
ENDBRANCH  73  74
ENDBRANCH   1  73
TORSDOF 19
ENDMDL
MODEL 3
REMARK VINA RESULT:     -11.3      1.638      7.620
REMARK SMILES O=C(NCCCCCCNC(=O)c1ccc(S(=O)(=O)Cc2cccs2)c(F)c1)c1ccc(-c2c3nc(c(-c4cc(S(=O)(=O)[O-])ccc4F)c4ccc([nH]4)c(-c4cc(S(=O)(=O)[O-])ccc4F)c4nc(c(-c5cc(S(=O)(=O)[O-])ccc5F)c5ccc2[nH]5)C=C4)C=C3)cc1
REMARK SMILES IDX 6 1 5 2 4 3 3 4 1 5 2 6 29 8 30 9 91 10 31 11 90 12 32 13
REMARK SMILES IDX 33 14 34 15 84 16 35 17 89 18 83 19 85 20 36 21 88 22 82 23
REMARK SMILES IDX 81 24 37 26 69 27 49 28 68 29 50 30 53 31 67 32 86 33 51 34
REMARK SMILES IDX 52 35 66 37 87 38 54 39 38 40 39 41 47 42 40 43 46 44 48 45
REMARK SMILES IDX 45 46 41 47 42 48 43 49 44 50 70 51 71 52 79 53 72 54 78 55
REMARK SMILES IDX 80 56 77 57 73 58 74 59 75 60 76 61 55 62 56 63 64 64 57 65
REMARK SMILES IDX 63 66 65 67 62 68 58 69 59 70 60 71 61 72 7 73 8 74 9 75
REMARK SMILES IDX 10 76 11 77 12 79 13 80 14 81 28 82 15 83 26 84 16 85 27 86
REMARK SMILES IDX 17 87 18 88 19 89 20 90 21 91 22 92 25 93 23 94 24 95
REMARK H PARENT 3 7 85 25 53 36 10 78
REMARK Flexibility Score: inf
ROOT
ATOM      1  C   UNL A   1      35.094  19.889  24.904  1.00  0.00     0.002 C 
ENDROOT
BRANCH   1   2
ATOM      2  C   UNL A   1      35.540  21.353  24.961  1.00  0.00     0.021 C 
BRANCH   2   3
ATOM      3  C   UNL A   1      37.021  21.595  24.683  1.00  0.00     0.116 C 
BRANCH   3   4
ATOM      4  N   UNL A   1      37.857  20.518  25.183  1.00  0.00    -0.352 N 
ATOM      5  O   UNL A   1      39.731  19.539  25.949  1.00  0.00    -0.269 OA
ATOM      6  C   UNL A   1      39.102  20.576  25.758  1.00  0.00     0.251 C 
ATOM      7  H   UNL A   1      37.476  19.615  25.096  1.00  0.00     0.163 HD
BRANCH   6   8
ATOM      8  C   UNL A   1      39.691  21.880  26.137  1.00  0.00     0.039 A 
ATOM      9  C   UNL A   1      41.050  21.996  26.451  1.00  0.00     0.014 A 
ATOM     10  C   UNL A   1      38.876  23.016  26.127  1.00  0.00     0.014 A 
ATOM     11  C   UNL A   1      41.571  23.230  26.839  1.00  0.00     0.010 A 
ATOM     12  C   UNL A   1      39.413  24.262  26.464  1.00  0.00     0.010 A 
ATOM     13  C   UNL A   1      40.764  24.377  26.833  1.00  0.00    -0.014 A 
BRANCH  13  14
ATOM     14  C   UNL A   1      41.345  25.708  27.147  1.00  0.00     0.031 A 
ATOM     15  C   UNL A   1      42.720  26.079  26.667  1.00  0.00     0.074 A 
ATOM     16  C   UNL A   1      40.620  26.585  27.869  1.00  0.00     0.049 A 
ATOM     17  N   UNL A   1      43.429  27.142  26.945  1.00  0.00    -0.248 NA
ATOM     18  C   UNL A   1      43.383  25.134  25.754  1.00  0.00     0.031 C 
ATOM     19  C   UNL A   1      39.258  26.355  28.358  1.00  0.00     0.029 A 
ATOM     20  N   UNL A   1      40.922  27.847  28.316  1.00  0.00    -0.354 N 
ATOM     21  C   UNL A   1      44.623  26.998  26.248  1.00  0.00     0.074 A 
ATOM     22  C   UNL A   1      44.551  25.732  25.548  1.00  0.00     0.031 C 
ATOM     23  C   UNL A   1      38.833  27.448  29.009  1.00  0.00     0.029 A 
ATOM     24  C   UNL A   1      39.913  28.428  29.048  1.00  0.00     0.049 A 
ATOM     25  H   UNL A   1      41.779  28.294  28.129  1.00  0.00     0.167 HD
ATOM     26  C   UNL A   1      45.679  27.847  26.197  1.00  0.00     0.034 A 
ATOM     27  C   UNL A   1      39.873  29.603  29.706  1.00  0.00     0.034 A 
ATOM     28  C   UNL A   1      45.744  29.103  26.902  1.00  0.00     0.049 A 
ATOM     29  C   UNL A   1      41.092  30.484  29.699  1.00  0.00     0.074 A 
ATOM     30  C   UNL A   1      46.785  30.016  26.942  1.00  0.00     0.029 A 
ATOM     31  N   UNL A   1      44.726  29.632  27.683  1.00  0.00    -0.354 N 
ATOM     32  N   UNL A   1      42.244  30.293  29.100  1.00  0.00    -0.248 NA
ATOM     33  C   UNL A   1      41.009  31.732  30.469  1.00  0.00     0.031 C 
ATOM     34  C   UNL A   1      46.413  31.074  27.779  1.00  0.00     0.029 A 
ATOM     35  C   UNL A   1      45.118  30.849  28.215  1.00  0.00     0.049 A 
ATOM     36  H   UNL A   1      43.853  29.203  27.836  1.00  0.00     0.167 HD
ATOM     37  C   UNL A   1      43.017  31.407  29.409  1.00  0.00     0.074 A 
ATOM     38  C   UNL A   1      42.196  32.272  30.232  1.00  0.00     0.031 C 
ATOM     39  C   UNL A   1      44.294  31.690  29.048  1.00  0.00     0.034 A 
BRANCH  26  40
ATOM     40  C   UNL A   1      46.871  27.436  25.376  1.00  0.00     0.023 A 
ATOM     41  C   UNL A   1      46.997  27.812  24.029  1.00  0.00     0.031 A 
ATOM     42  C   UNL A   1      47.919  26.707  25.965  1.00  0.00     0.131 A 
ATOM     43  C   UNL A   1      48.140  27.437  23.307  1.00  0.00     0.055 A 
ATOM     44  C   UNL A   1      49.076  26.381  25.256  1.00  0.00     0.041 A 
ATOM     45  F   UNL A   1      47.838  26.313  27.247  1.00  0.00    -0.206 F 
ATOM     46  C   UNL A   1      49.190  26.745  23.918  1.00  0.00     0.022 A 
BRANCH  43  47
ATOM     47  S   UNL A   1      48.229  27.834  21.540  1.00  0.00     0.124 S 
ATOM     48  O   UNL A   1      46.905  28.402  21.300  1.00  0.00    -0.237 OA
ATOM     49  O   UNL A   1      49.345  28.771  21.477  1.00  0.00    -0.237 OA
ATOM     50  O   UNL A   1      48.470  26.537  20.909  1.00  0.00    -0.744 OA
ENDBRANCH  43  47
ENDBRANCH  26  40
BRANCH  27  51
ATOM     51  C   UNL A   1      38.659  29.999  30.471  1.00  0.00     0.023 A 
ATOM     52  C   UNL A   1      37.678  30.815  29.888  1.00  0.00     0.031 A 
ATOM     53  C   UNL A   1      38.485  29.603  31.810  1.00  0.00     0.131 A 
ATOM     54  C   UNL A   1      36.584  31.243  30.655  1.00  0.00     0.055 A 
ATOM     55  C   UNL A   1      37.370  29.994  32.552  1.00  0.00     0.041 A 
ATOM     56  F   UNL A   1      39.396  28.820  32.410  1.00  0.00    -0.206 F 
ATOM     57  C   UNL A   1      36.417  30.829  31.979  1.00  0.00     0.022 A 
BRANCH  54  58
ATOM     58  S   UNL A   1      35.410  32.409  29.913  1.00  0.00     0.124 S 
ATOM     59  O   UNL A   1      34.417  32.545  30.972  1.00  0.00    -0.237 OA
ATOM     60  O   UNL A   1      36.252  33.575  29.669  1.00  0.00    -0.237 OA
ATOM     61  O   UNL A   1      34.952  31.713  28.712  1.00  0.00    -0.744 OA
ENDBRANCH  54  58
ENDBRANCH  27  51
BRANCH  39  62
ATOM     62  C   UNL A   1      44.856  33.005  29.517  1.00  0.00     0.023 A 
ATOM     63  C   UNL A   1      44.754  34.166  28.733  1.00  0.00     0.031 A 
ATOM     64  C   UNL A   1      45.517  33.091  30.754  1.00  0.00     0.131 A 
ATOM     65  C   UNL A   1      45.350  35.357  29.171  1.00  0.00     0.055 A 
ATOM     66  C   UNL A   1      46.065  34.291  31.208  1.00  0.00     0.041 A 
ATOM     67  F   UNL A   1      45.641  32.010  31.539  1.00  0.00    -0.206 F 
ATOM     68  C   UNL A   1      45.993  35.430  30.410  1.00  0.00     0.022 A 
BRANCH  65  69
ATOM     69  S   UNL A   1      45.338  36.795  28.066  1.00  0.00     0.124 S 
ATOM     70  O   UNL A   1      46.764  37.032  27.862  1.00  0.00    -0.237 OA
ATOM     71  O   UNL A   1      44.603  36.295  26.908  1.00  0.00    -0.237 OA
ATOM     72  O   UNL A   1      44.644  37.819  28.843  1.00  0.00    -0.744 OA
ENDBRANCH  65  69
ENDBRANCH  39  62
ENDBRANCH  13  14
ENDBRANCH   6   8
ENDBRANCH   3   4
ENDBRANCH   2   3
ENDBRANCH   1   2
BRANCH   1  73
ATOM     73  C   UNL A   1      33.626  19.630  25.257  1.00  0.00     0.002 C 
BRANCH  73  74
ATOM     74  C   UNL A   1      32.594  20.212  24.285  1.00  0.00     0.021 C 
BRANCH  74  75
ATOM     75  C   UNL A   1      31.876  21.469  24.775  1.00  0.00     0.116 C 
BRANCH  75  76
ATOM     76  N   UNL A   1      32.084  21.693  26.198  1.00  0.00    -0.352 N 
ATOM     77  C   UNL A   1      32.324  22.869  26.857  1.00  0.00     0.251 C 
ATOM     78  H   UNL A   1      32.047  20.888  26.764  1.00  0.00     0.163 HD
ATOM     79  O   UNL A   1      32.636  22.885  28.044  1.00  0.00    -0.269 OA
BRANCH  77  80
ATOM     80  C   UNL A   1      32.220  24.140  26.120  1.00  0.00     0.042 A 
ATOM     81  C   UNL A   1      33.374  24.777  25.651  1.00  0.00     0.015 A 
ATOM     82  C   UNL A   1      30.957  24.696  25.904  1.00  0.00     0.054 A 
ATOM     83  C   UNL A   1      33.261  26.003  24.995  1.00  0.00     0.024 A 
ATOM     84  C   UNL A   1      30.856  25.929  25.268  1.00  0.00     0.142 A 
ATOM     85  C   UNL A   1      31.995  26.581  24.813  1.00  0.00     0.103 A 
ATOM     86  F   UNL A   1      29.644  26.484  25.152  1.00  0.00    -0.206 F 
BRANCH  85  87
ATOM     87  S   UNL A   1      31.910  28.178  24.070  1.00  0.00     0.186 S 
ATOM     88  O   UNL A   1      31.215  29.003  25.044  1.00  0.00    -0.223 OA
ATOM     89  O   UNL A   1      33.268  28.527  23.683  1.00  0.00    -0.223 OA
BRANCH  87  90
ATOM     90  C   UNL A   1      30.913  28.151  22.604  1.00  0.00     0.188 C 
BRANCH  90  91
ATOM     91  C   UNL A   1      29.569  28.813  22.686  1.00  0.00     0.020 A 
ATOM     92  C   UNL A   1      28.392  28.206  23.093  1.00  0.00     0.016 A 
ATOM     93  S   UNL A   1      29.324  30.482  22.394  1.00  0.00    -0.148 S 
ATOM     94  C   UNL A   1      27.289  29.104  23.124  1.00  0.00     0.012 A 
ATOM     95  C   UNL A   1      27.655  30.374  22.746  1.00  0.00     0.065 A 
ENDBRANCH  90  91
ENDBRANCH  87  90
ENDBRANCH  85  87
ENDBRANCH  77  80
ENDBRANCH  75  76
ENDBRANCH  74  75
ENDBRANCH  73  74
ENDBRANCH   1  73
TORSDOF 19
ENDMDL
