MODEL 1
REMARK VINA RESULT:     -10.1      0.000      0.000
REMARK SMILES COCC[C@H]1CCC[C@@]1([NH3+])C(=O)NCCCCCCNC(=O)c1ccc(-c2c3nc(c(-c4cc(S(=O)(=O)[O-])ccc4F)c4ccc([nH]4)c(-c4cc(S(=O)(=O)[O-])ccc4F)c4nc(c(-c5cc(S(=O)(=O)[O-])ccc5F)c5ccc2[nH]5)C=C4)C=C3)cc1
REMARK SMILES IDX 16 1 15 2 14 3 13 4 11 5 12 6 9 8 5 9 6 10 7 11 8 12 4 13
REMARK SMILES IDX 3 14 2 15 1 16 10 17 17 21 18 22 19 23 20 24 21 25 22 27
REMARK SMILES IDX 23 28 24 29 85 30 25 31 84 32 26 33 27 34 28 35 78 36 29 37
REMARK SMILES IDX 83 38 77 39 79 40 30 41 82 42 76 43 75 44 31 46 63 47 43 48
REMARK SMILES IDX 62 49 44 50 47 51 61 52 80 53 45 54 46 55 60 57 81 58 48 59
REMARK SMILES IDX 32 60 33 61 41 62 34 63 40 64 42 65 39 66 35 67 36 68 37 69
REMARK SMILES IDX 38 70 64 71 65 72 73 73 66 74 72 75 74 76 71 77 67 78 68 79
REMARK SMILES IDX 69 80 70 81 49 82 50 83 58 84 51 85 57 86 59 87 56 88 52 89
REMARK SMILES IDX 53 90 54 91 55 92
REMARK H PARENT 13 7 10 18 10 19 10 20 20 26 79 45 47 56
REMARK Flexibility Score: inf
ROOT
ATOM      1  C   UNL A   1      31.442  27.927  25.177  1.00  0.00     0.002 C 
ENDROOT
BRANCH   1   2
ATOM      2  C   UNL A   1      30.720  26.657  24.724  1.00  0.00     0.021 C 
BRANCH   2   3
ATOM      3  C   UNL A   1      31.609  25.409  24.728  1.00  0.00     0.116 C 
BRANCH   3   4
ATOM      4  N   UNL A   1      32.359  25.343  23.504  1.00  0.00    -0.351 N 
ATOM      5  C   UNL A   1      33.579  24.848  23.212  1.00  0.00     0.281 C 
ATOM      6  O   UNL A   1      33.989  25.165  22.080  1.00  0.00    -0.268 OA
ATOM      7  H   UNL A   1      31.893  25.734  22.730  1.00  0.00     0.163 HD
BRANCH   5   8
ATOM      8  C   UNL A   1      34.439  23.856  24.091  1.00  0.00     0.176 C 
ATOM      9  C   UNL A   1      33.874  22.610  24.836  1.00  0.00     0.063 C 
ATOM     10  C   UNL A   1      35.164  21.976  25.405  1.00  0.00     0.011 C 
ATOM     11  C   UNL A   1      36.267  22.271  24.380  1.00  0.00     0.008 C 
ATOM     12  C   UNL A   1      35.696  23.313  23.406  1.00  0.00     0.079 C 
BRANCH   9  13
ATOM     13  C   UNL A   1      32.997  21.522  24.169  1.00  0.00     0.039 C 
BRANCH  13  14
ATOM     14  C   UNL A   1      32.018  20.684  25.009  1.00  0.00     0.160 C 
BRANCH  14  15
ATOM     15  O   UNL A   1      32.294  19.286  24.949  1.00  0.00    -0.385 OA
ATOM     16  C   UNL A   1      32.424  18.779  23.630  1.00  0.00     0.194 C 
ENDBRANCH  14  15
ENDBRANCH  13  14
ENDBRANCH   9  13
BRANCH   8  17
ATOM     17  N   UNL A   1      34.966  24.752  25.204  1.00  0.00    -0.345 N 
ATOM     18  H   UNL A   1      34.356  24.675  26.018  1.00  0.00     0.345 HD
ATOM     19  H   UNL A   1      34.984  25.719  24.883  1.00  0.00     0.345 HD
ATOM     20  H   UNL A   1      35.910  24.460  25.458  1.00  0.00     0.345 HD
ENDBRANCH   8  17
ENDBRANCH   5   8
ENDBRANCH   3   4
ENDBRANCH   2   3
ENDBRANCH   1   2
BRANCH   1  21
ATOM     21  C   UNL A   1      31.749  27.974  26.678  1.00  0.00     0.002 C 
BRANCH  21  22
ATOM     22  C   UNL A   1      33.236  28.066  27.035  1.00  0.00     0.021 C 
BRANCH  22  23
ATOM     23  C   UNL A   1      34.035  29.044  26.176  1.00  0.00     0.116 C 
BRANCH  23  24
ATOM     24  N   UNL A   1      33.788  30.423  26.573  1.00  0.00    -0.352 N 
ATOM     25  C   UNL A   1      34.362  31.151  27.587  1.00  0.00     0.251 C 
ATOM     26  H   UNL A   1      33.116  30.902  26.037  1.00  0.00     0.163 HD
ATOM     27  O   UNL A   1      33.839  32.193  27.963  1.00  0.00    -0.269 OA
BRANCH  25  28
ATOM     28  C   UNL A   1      35.603  30.658  28.220  1.00  0.00     0.039 A 
ATOM     29  C   UNL A   1      35.521  29.874  29.373  1.00  0.00     0.014 A 
ATOM     30  C   UNL A   1      36.848  30.978  27.672  1.00  0.00     0.014 A 
ATOM     31  C   UNL A   1      36.688  29.357  29.939  1.00  0.00     0.010 A 
ATOM     32  C   UNL A   1      38.000  30.399  28.191  1.00  0.00     0.010 A 
ATOM     33  C   UNL A   1      37.934  29.585  29.331  1.00  0.00    -0.014 A 
BRANCH  33  34
ATOM     34  C   UNL A   1      39.185  28.990  29.871  1.00  0.00     0.031 A 
ATOM     35  C   UNL A   1      39.830  29.583  31.094  1.00  0.00     0.074 A 
ATOM     36  C   UNL A   1      39.776  27.971  29.218  1.00  0.00     0.049 A 
ATOM     37  N   UNL A   1      40.971  29.281  31.659  1.00  0.00    -0.248 NA
ATOM     38  C   UNL A   1      39.105  30.682  31.748  1.00  0.00     0.031 C 
ATOM     39  C   UNL A   1      39.259  27.330  28.007  1.00  0.00     0.029 A 
ATOM     40  N   UNL A   1      40.944  27.298  29.477  1.00  0.00    -0.354 N 
ATOM     41  C   UNL A   1      41.105  30.160  32.729  1.00  0.00     0.074 A 
ATOM     42  C   UNL A   1      39.966  31.051  32.682  1.00  0.00     0.031 C 
ATOM     43  C   UNL A   1      40.090  26.338  27.647  1.00  0.00     0.029 A 
ATOM     44  C   UNL A   1      41.225  26.307  28.564  1.00  0.00     0.049 A 
ATOM     45  H   UNL A   1      41.527  27.507  30.242  1.00  0.00     0.167 HD
ATOM     46  C   UNL A   1      42.075  30.201  33.678  1.00  0.00     0.034 A 
ATOM     47  C   UNL A   1      42.283  25.479  28.471  1.00  0.00     0.034 A 
ATOM     48  C   UNL A   1      43.206  29.306  33.703  1.00  0.00     0.049 A 
ATOM     49  C   UNL A   1      43.383  25.586  29.497  1.00  0.00     0.074 A 
ATOM     50  C   UNL A   1      44.232  29.235  34.630  1.00  0.00     0.029 A 
ATOM     51  N   UNL A   1      43.469  28.329  32.749  1.00  0.00    -0.354 N 
ATOM     52  N   UNL A   1      43.482  26.398  30.524  1.00  0.00    -0.248 NA
ATOM     53  C   UNL A   1      44.513  24.658  29.353  1.00  0.00     0.031 C 
ATOM     54  C   UNL A   1      45.149  28.271  34.199  1.00  0.00     0.029 A 
ATOM     55  C   UNL A   1      44.656  27.675  33.049  1.00  0.00     0.049 A 
ATOM     56  H   UNL A   1      42.897  28.130  31.974  1.00  0.00     0.167 HD
ATOM     57  C   UNL A   1      44.665  26.050  31.171  1.00  0.00     0.074 A 
ATOM     58  C   UNL A   1      45.237  24.950  30.423  1.00  0.00     0.031 C 
ATOM     59  C   UNL A   1      45.222  26.584  32.289  1.00  0.00     0.034 A 
BRANCH  46  60
ATOM     60  C   UNL A   1      41.956  31.271  34.740  1.00  0.00     0.023 A 
ATOM     61  C   UNL A   1      40.893  31.277  35.662  1.00  0.00     0.031 A 
ATOM     62  C   UNL A   1      42.879  32.328  34.802  1.00  0.00     0.131 A 
ATOM     63  C   UNL A   1      40.725  32.362  36.534  1.00  0.00     0.055 A 
ATOM     64  C   UNL A   1      42.762  33.357  35.740  1.00  0.00     0.041 A 
ATOM     65  F   UNL A   1      43.905  32.394  33.938  1.00  0.00    -0.206 F 
ATOM     66  C   UNL A   1      41.667  33.389  36.599  1.00  0.00     0.022 A 
BRANCH  63  67
ATOM     67  S   UNL A   1      39.163  32.500  37.447  1.00  0.00     0.124 S 
ATOM     68  O   UNL A   1      38.522  31.226  37.129  1.00  0.00    -0.237 OA
ATOM     69  O   UNL A   1      39.615  32.663  38.823  1.00  0.00    -0.237 OA
ATOM     70  O   UNL A   1      38.523  33.674  36.856  1.00  0.00    -0.744 OA
ENDBRANCH  63  67
ENDBRANCH  46  60
BRANCH  47  71
ATOM     71  C   UNL A   1      42.361  24.472  27.374  1.00  0.00     0.023 A 
ATOM     72  C   UNL A   1      41.600  23.294  27.426  1.00  0.00     0.031 A 
ATOM     73  C   UNL A   1      43.225  24.650  26.278  1.00  0.00     0.131 A 
ATOM     74  C   UNL A   1      41.751  22.317  26.430  1.00  0.00     0.055 A 
ATOM     75  C   UNL A   1      43.329  23.701  25.260  1.00  0.00     0.041 A 
ATOM     76  F   UNL A   1      43.975  25.759  26.176  1.00  0.00    -0.206 F 
ATOM     77  C   UNL A   1      42.598  22.520  25.339  1.00  0.00     0.022 A 
BRANCH  74  78
ATOM     78  S   UNL A   1      40.886  20.736  26.629  1.00  0.00     0.124 S 
ATOM     79  O   UNL A   1      41.769  19.823  25.914  1.00  0.00    -0.237 OA
ATOM     80  O   UNL A   1      40.848  20.591  28.081  1.00  0.00    -0.237 OA
ATOM     81  O   UNL A   1      39.591  20.977  25.996  1.00  0.00    -0.744 OA
ENDBRANCH  74  78
ENDBRANCH  47  71
BRANCH  59  82
ATOM     82  C   UNL A   1      46.490  25.942  32.800  1.00  0.00     0.023 A 
ATOM     83  C   UNL A   1      46.469  24.858  33.694  1.00  0.00     0.031 A 
ATOM     84  C   UNL A   1      47.742  26.433  32.388  1.00  0.00     0.131 A 
ATOM     85  C   UNL A   1      47.674  24.338  34.193  1.00  0.00     0.055 A 
ATOM     86  C   UNL A   1      48.937  25.870  32.834  1.00  0.00     0.041 A 
ATOM     87  F   UNL A   1      47.823  27.469  31.538  1.00  0.00    -0.206 F 
ATOM     88  C   UNL A   1      48.908  24.825  33.753  1.00  0.00     0.022 A 
BRANCH  85  89
ATOM     89  S   UNL A   1      47.609  23.082  35.498  1.00  0.00     0.124 S 
ATOM     90  O   UNL A   1      48.183  23.795  36.635  1.00  0.00    -0.237 OA
ATOM     91  O   UNL A   1      46.181  22.792  35.583  1.00  0.00    -0.237 OA
ATOM     92  O   UNL A   1      48.431  21.995  34.971  1.00  0.00    -0.744 OA
ENDBRANCH  85  89
ENDBRANCH  59  82
ENDBRANCH  33  34
ENDBRANCH  25  28
ENDBRANCH  23  24
ENDBRANCH  22  23
ENDBRANCH  21  22
ENDBRANCH   1  21
TORSDOF 20
ENDMDL
MODEL 2
REMARK VINA RESULT:     -10.0      1.206      1.781
REMARK SMILES COCC[C@H]1CCC[C@@]1([NH3+])C(=O)NCCCCCCNC(=O)c1ccc(-c2c3nc(c(-c4cc(S(=O)(=O)[O-])ccc4F)c4ccc([nH]4)c(-c4cc(S(=O)(=O)[O-])ccc4F)c4nc(c(-c5cc(S(=O)(=O)[O-])ccc5F)c5ccc2[nH]5)C=C4)C=C3)cc1
REMARK SMILES IDX 16 1 15 2 14 3 13 4 11 5 12 6 9 8 5 9 6 10 7 11 8 12 4 13
REMARK SMILES IDX 3 14 2 15 1 16 10 17 17 21 18 22 19 23 20 24 21 25 22 27
REMARK SMILES IDX 23 28 24 29 85 30 25 31 84 32 26 33 27 34 28 35 78 36 29 37
REMARK SMILES IDX 83 38 77 39 79 40 30 41 82 42 76 43 75 44 31 46 63 47 43 48
REMARK SMILES IDX 62 49 44 50 47 51 61 52 80 53 45 54 46 55 60 57 81 58 48 59
REMARK SMILES IDX 32 60 33 61 41 62 34 63 40 64 42 65 39 66 35 67 36 68 37 69
REMARK SMILES IDX 38 70 64 71 65 72 73 73 66 74 72 75 74 76 71 77 67 78 68 79
REMARK SMILES IDX 69 80 70 81 49 82 50 83 58 84 51 85 57 86 59 87 56 88 52 89
REMARK SMILES IDX 53 90 54 91 55 92
REMARK H PARENT 13 7 10 18 10 19 10 20 20 26 79 45 47 56
REMARK Flexibility Score: inf
ROOT
ATOM      1  C   UNL A   1      30.984  29.154  23.876  1.00  0.00     0.002 C 
ENDROOT
BRANCH   1   2
ATOM      2  C   UNL A   1      30.208  28.243  22.925  1.00  0.00     0.021 C 
BRANCH   2   3
ATOM      3  C   UNL A   1      30.703  26.792  22.922  1.00  0.00     0.116 C 
BRANCH   3   4
ATOM      4  N   UNL A   1      31.599  26.587  21.817  1.00  0.00    -0.351 N 
ATOM      5  C   UNL A   1      32.558  25.668  21.584  1.00  0.00     0.281 C 
ATOM      6  O   UNL A   1      33.281  25.936  20.607  1.00  0.00    -0.268 OA
ATOM      7  H   UNL A   1      31.492  27.243  21.091  1.00  0.00     0.163 HD
BRANCH   5   8
ATOM      8  C   UNL A   1      32.760  24.292  22.334  1.00  0.00     0.176 C 
ATOM      9  C   UNL A   1      33.950  23.963  23.284  1.00  0.00     0.063 C 
ATOM     10  C   UNL A   1      33.557  22.561  23.803  1.00  0.00     0.011 C 
ATOM     11  C   UNL A   1      32.024  22.552  23.874  1.00  0.00     0.008 C 
ATOM     12  C   UNL A   1      31.541  23.800  23.119  1.00  0.00     0.079 C 
BRANCH   9  13
ATOM     13  C   UNL A   1      34.393  24.862  24.465  1.00  0.00     0.039 C 
BRANCH  13  14
ATOM     14  C   UNL A   1      35.544  24.427  25.388  1.00  0.00     0.160 C 
BRANCH  14  15
ATOM     15  O   UNL A   1      36.569  23.715  24.697  1.00  0.00    -0.385 OA
ATOM     16  C   UNL A   1      37.045  22.572  25.390  1.00  0.00     0.194 C 
ENDBRANCH  14  15
ENDBRANCH  13  14
ENDBRANCH   9  13
BRANCH   8  17
ATOM     17  N   UNL A   1      32.907  23.296  21.191  1.00  0.00    -0.345 N 
ATOM     18  H   UNL A   1      33.076  23.801  20.321  1.00  0.00     0.345 HD
ATOM     19  H   UNL A   1      32.052  22.747  21.106  1.00  0.00     0.345 HD
ATOM     20  H   UNL A   1      33.693  22.674  21.381  1.00  0.00     0.345 HD
ENDBRANCH   8  17
ENDBRANCH   5   8
ENDBRANCH   3   4
ENDBRANCH   2   3
ENDBRANCH   1   2
BRANCH   1  21
ATOM     21  C   UNL A   1      31.762  28.409  24.965  1.00  0.00     0.002 C 
BRANCH  21  22
ATOM     22  C   UNL A   1      33.288  28.498  24.851  1.00  0.00     0.021 C 
BRANCH  22  23
ATOM     23  C   UNL A   1      33.998  28.889  26.145  1.00  0.00     0.116 C 
BRANCH  23  24
ATOM     24  N   UNL A   1      33.776  30.290  26.472  1.00  0.00    -0.352 N 
ATOM     25  C   UNL A   1      34.364  31.058  27.447  1.00  0.00     0.251 C 
ATOM     26  H   UNL A   1      33.111  30.753  25.913  1.00  0.00     0.163 HD
ATOM     27  O   UNL A   1      33.860  32.127  27.771  1.00  0.00    -0.269 OA
BRANCH  25  28
ATOM     28  C   UNL A   1      35.598  30.577  28.103  1.00  0.00     0.039 A 
ATOM     29  C   UNL A   1      35.501  29.736  29.215  1.00  0.00     0.014 A 
ATOM     30  C   UNL A   1      36.850  30.962  27.618  1.00  0.00     0.014 A 
ATOM     31  C   UNL A   1      36.664  29.231  29.800  1.00  0.00     0.010 A 
ATOM     32  C   UNL A   1      38.002  30.397  28.152  1.00  0.00     0.010 A 
ATOM     33  C   UNL A   1      37.923  29.528  29.250  1.00  0.00    -0.014 A 
BRANCH  33  34
ATOM     34  C   UNL A   1      39.173  28.949  29.809  1.00  0.00     0.031 A 
ATOM     35  C   UNL A   1      39.767  29.521  31.067  1.00  0.00     0.074 A 
ATOM     36  C   UNL A   1      39.809  27.965  29.143  1.00  0.00     0.049 A 
ATOM     37  N   UNL A   1      40.898  29.231  31.657  1.00  0.00    -0.248 NA
ATOM     38  C   UNL A   1      38.995  30.581  31.732  1.00  0.00     0.031 C 
ATOM     39  C   UNL A   1      39.344  27.349  27.899  1.00  0.00     0.029 A 
ATOM     40  N   UNL A   1      40.987  27.316  29.417  1.00  0.00    -0.354 N 
ATOM     41  C   UNL A   1      40.979  30.079  32.756  1.00  0.00     0.074 A 
ATOM     42  C   UNL A   1      39.818  30.943  32.702  1.00  0.00     0.031 C 
ATOM     43  C   UNL A   1      40.211  26.390  27.535  1.00  0.00     0.029 A 
ATOM     44  C   UNL A   1      41.319  26.360  28.483  1.00  0.00     0.049 A 
ATOM     45  H   UNL A   1      41.542  27.515  30.205  1.00  0.00     0.167 HD
ATOM     46  C   UNL A   1      41.920  30.117  33.733  1.00  0.00     0.034 A 
ATOM     47  C   UNL A   1      42.402  25.563  28.397  1.00  0.00     0.034 A 
ATOM     48  C   UNL A   1      43.074  29.250  33.765  1.00  0.00     0.049 A 
ATOM     49  C   UNL A   1      43.469  25.666  29.457  1.00  0.00     0.074 A 
ATOM     50  C   UNL A   1      44.074  29.178  34.719  1.00  0.00     0.029 A 
ATOM     51  N   UNL A   1      43.389  28.310  32.790  1.00  0.00    -0.354 N 
ATOM     52  N   UNL A   1      43.517  26.449  30.510  1.00  0.00    -0.248 NA
ATOM     53  C   UNL A   1      44.626  24.772  29.319  1.00  0.00     0.031 C 
ATOM     54  C   UNL A   1      45.028  28.251  34.286  1.00  0.00     0.029 A 
ATOM     55  C   UNL A   1      44.584  27.678  33.105  1.00  0.00     0.049 A 
ATOM     56  H   UNL A   1      42.845  28.120  31.994  1.00  0.00     0.167 HD
ATOM     57  C   UNL A   1      44.689  26.112  31.181  1.00  0.00     0.074 A 
ATOM     58  C   UNL A   1      45.312  25.050  30.418  1.00  0.00     0.031 C 
ATOM     59  C   UNL A   1      45.200  26.625  32.330  1.00  0.00     0.034 A 
BRANCH  46  60
ATOM     60  C   UNL A   1      41.742  31.150  34.822  1.00  0.00     0.023 A 
ATOM     61  C   UNL A   1      40.639  31.117  35.696  1.00  0.00     0.031 A 
ATOM     62  C   UNL A   1      42.651  32.213  34.961  1.00  0.00     0.131 A 
ATOM     63  C   UNL A   1      40.421  32.172  36.593  1.00  0.00     0.055 A 
ATOM     64  C   UNL A   1      42.481  33.210  35.925  1.00  0.00     0.041 A 
ATOM     65  F   UNL A   1      43.714  32.316  34.146  1.00  0.00    -0.206 F 
ATOM     66  C   UNL A   1      41.348  33.204  36.734  1.00  0.00     0.022 A 
BRANCH  63  67
ATOM     67  S   UNL A   1      38.818  32.267  37.438  1.00  0.00     0.124 S 
ATOM     68  O   UNL A   1      38.196  31.007  37.034  1.00  0.00    -0.237 OA
ATOM     69  O   UNL A   1      39.205  32.366  38.840  1.00  0.00    -0.237 OA
ATOM     70  O   UNL A   1      38.203  33.465  36.873  1.00  0.00    -0.744 OA
ENDBRANCH  63  67
ENDBRANCH  46  60
BRANCH  47  71
ATOM     71  C   UNL A   1      42.538  24.592  27.273  1.00  0.00     0.023 A 
ATOM     72  C   UNL A   1      41.945  23.322  27.346  1.00  0.00     0.031 A 
ATOM     73  C   UNL A   1      43.293  24.900  26.127  1.00  0.00     0.131 A 
ATOM     74  C   UNL A   1      42.156  22.389  26.319  1.00  0.00     0.055 A 
ATOM     75  C   UNL A   1      43.452  23.990  25.081  1.00  0.00     0.041 A 
ATOM     76  F   UNL A   1      43.880  26.102  26.003  1.00  0.00    -0.206 F 
ATOM     77  C   UNL A   1      42.892  22.720  25.180  1.00  0.00     0.022 A 
BRANCH  74  78
ATOM     78  S   UNL A   1      41.524  20.704  26.536  1.00  0.00     0.124 S 
ATOM     79  O   UNL A   1      41.984  20.386  27.883  1.00  0.00    -0.237 OA
ATOM     80  O   UNL A   1      40.086  20.896  26.376  1.00  0.00    -0.237 OA
ATOM     81  O   UNL A   1      42.173  19.957  25.461  1.00  0.00    -0.744 OA
ENDBRANCH  74  78
ENDBRANCH  47  71
BRANCH  59  82
ATOM     82  C   UNL A   1      46.469  26.000  32.858  1.00  0.00     0.023 A 
ATOM     83  C   UNL A   1      46.451  24.886  33.715  1.00  0.00     0.031 A 
ATOM     84  C   UNL A   1      47.719  26.540  32.503  1.00  0.00     0.131 A 
ATOM     85  C   UNL A   1      47.655  24.382  34.233  1.00  0.00     0.055 A 
ATOM     86  C   UNL A   1      48.915  25.994  32.968  1.00  0.00     0.041 A 
ATOM     87  F   UNL A   1      47.797  27.607  31.692  1.00  0.00    -0.206 F 
ATOM     88  C   UNL A   1      48.888  24.917  33.849  1.00  0.00     0.022 A 
BRANCH  85  89
ATOM     89  S   UNL A   1      47.586  23.080  35.492  1.00  0.00     0.124 S 
ATOM     90  O   UNL A   1      47.561  21.870  34.677  1.00  0.00    -0.237 OA
ATOM     91  O   UNL A   1      48.811  23.312  36.251  1.00  0.00    -0.237 OA
ATOM     92  O   UNL A   1      46.348  23.366  36.215  1.00  0.00    -0.744 OA
ENDBRANCH  85  89
ENDBRANCH  59  82
ENDBRANCH  33  34
ENDBRANCH  25  28
ENDBRANCH  23  24
ENDBRANCH  22  23
ENDBRANCH  21  22
ENDBRANCH   1  21
TORSDOF 20
ENDMDL
MODEL 3
REMARK VINA RESULT:      -9.9      4.841      9.804
REMARK SMILES COCC[C@H]1CCC[C@@]1([NH3+])C(=O)NCCCCCCNC(=O)c1ccc(-c2c3nc(c(-c4cc(S(=O)(=O)[O-])ccc4F)c4ccc([nH]4)c(-c4cc(S(=O)(=O)[O-])ccc4F)c4nc(c(-c5cc(S(=O)(=O)[O-])ccc5F)c5ccc2[nH]5)C=C4)C=C3)cc1
REMARK SMILES IDX 16 1 15 2 14 3 13 4 11 5 12 6 9 8 5 9 6 10 7 11 8 12 4 13
REMARK SMILES IDX 3 14 2 15 1 16 10 17 17 21 18 22 19 23 20 24 21 25 22 27
REMARK SMILES IDX 23 28 24 29 85 30 25 31 84 32 26 33 27 34 28 35 78 36 29 37
REMARK SMILES IDX 83 38 77 39 79 40 30 41 82 42 76 43 75 44 31 46 63 47 43 48
REMARK SMILES IDX 62 49 44 50 47 51 61 52 80 53 45 54 46 55 60 57 81 58 48 59
REMARK SMILES IDX 32 60 33 61 41 62 34 63 40 64 42 65 39 66 35 67 36 68 37 69
REMARK SMILES IDX 38 70 64 71 65 72 73 73 66 74 72 75 74 76 71 77 67 78 68 79
REMARK SMILES IDX 69 80 70 81 49 82 50 83 58 84 51 85 57 86 59 87 56 88 52 89
REMARK SMILES IDX 53 90 54 91 55 92
REMARK H PARENT 13 7 10 18 10 19 10 20 20 26 79 45 47 56
REMARK Flexibility Score: inf
ROOT
ATOM      1  C   UNL A   1      33.387  23.393  26.808  1.00  0.00     0.002 C 
ENDROOT
BRANCH   1   2
ATOM      2  C   UNL A   1      32.100  23.153  26.019  1.00  0.00     0.021 C 
BRANCH   2   3
ATOM      3  C   UNL A   1      30.871  23.844  26.620  1.00  0.00     0.116 C 
BRANCH   3   4
ATOM      4  N   UNL A   1      30.187  24.592  25.599  1.00  0.00    -0.351 N 
ATOM      5  C   UNL A   1      30.280  25.876  25.200  1.00  0.00     0.281 C 
ATOM      6  O   UNL A   1      29.370  26.225  24.425  1.00  0.00    -0.268 OA
ATOM      7  H   UNL A   1      29.526  24.065  25.096  1.00  0.00     0.163 HD
BRANCH   5   8
ATOM      8  C   UNL A   1      31.447  26.892  25.521  1.00  0.00     0.176 C 
ATOM      9  C   UNL A   1      32.958  26.623  25.259  1.00  0.00     0.063 C 
ATOM     10  C   UNL A   1      33.589  27.981  25.643  1.00  0.00     0.011 C 
ATOM     11  C   UNL A   1      32.554  29.048  25.267  1.00  0.00     0.008 C 
ATOM     12  C   UNL A   1      31.242  28.305  24.967  1.00  0.00     0.079 C 
BRANCH   9  13
ATOM     13  C   UNL A   1      33.532  26.135  23.905  1.00  0.00     0.039 C 
BRANCH  13  14
ATOM     14  C   UNL A   1      33.565  27.074  22.687  1.00  0.00     0.160 C 
BRANCH  14  15
ATOM     15  O   UNL A   1      33.648  26.371  21.449  1.00  0.00    -0.385 OA
ATOM     16  C   UNL A   1      32.423  25.787  21.032  1.00  0.00     0.194 C 
ENDBRANCH  14  15
ENDBRANCH  13  14
ENDBRANCH   9  13
BRANCH   8  17
ATOM     17  N   UNL A   1      31.353  27.056  27.033  1.00  0.00    -0.345 N 
ATOM     18  H   UNL A   1      31.245  28.045  27.261  1.00  0.00     0.345 HD
ATOM     19  H   UNL A   1      32.202  26.697  27.467  1.00  0.00     0.345 HD
ATOM     20  H   UNL A   1      30.547  26.537  27.382  1.00  0.00     0.345 HD
ENDBRANCH   8  17
ENDBRANCH   5   8
ENDBRANCH   3   4
ENDBRANCH   2   3
ENDBRANCH   1   2
BRANCH   1  21
ATOM     21  C   UNL A   1      34.449  22.303  26.625  1.00  0.00     0.002 C 
BRANCH  21  22
ATOM     22  C   UNL A   1      35.422  22.532  25.463  1.00  0.00     0.021 C 
BRANCH  22  23
ATOM     23  C   UNL A   1      36.770  23.121  25.872  1.00  0.00     0.116 C 
BRANCH  23  24
ATOM     24  N   UNL A   1      37.750  22.076  26.134  1.00  0.00    -0.352 N 
ATOM     25  C   UNL A   1      39.093  22.192  26.397  1.00  0.00     0.251 C 
ATOM     26  H   UNL A   1      37.399  21.156  26.120  1.00  0.00     0.163 HD
ATOM     27  O   UNL A   1      39.820  21.210  26.309  1.00  0.00    -0.269 OA
BRANCH  25  28
ATOM     28  C   UNL A   1      39.646  23.509  26.777  1.00  0.00     0.039 A 
ATOM     29  C   UNL A   1      39.702  24.530  25.826  1.00  0.00     0.014 A 
ATOM     30  C   UNL A   1      40.111  23.729  28.076  1.00  0.00     0.014 A 
ATOM     31  C   UNL A   1      40.168  25.793  26.198  1.00  0.00     0.010 A 
ATOM     32  C   UNL A   1      40.501  25.006  28.463  1.00  0.00     0.010 A 
ATOM     33  C   UNL A   1      40.536  26.051  27.528  1.00  0.00    -0.014 A 
BRANCH  33  34
ATOM     34  C   UNL A   1      40.970  27.403  27.969  1.00  0.00     0.031 A 
ATOM     35  C   UNL A   1      42.423  27.785  27.896  1.00  0.00     0.074 A 
ATOM     36  C   UNL A   1      40.070  28.253  28.502  1.00  0.00     0.049 A 
ATOM     37  N   UNL A   1      43.019  28.869  28.324  1.00  0.00    -0.248 NA
ATOM     38  C   UNL A   1      43.328  26.801  27.286  1.00  0.00     0.031 C 
ATOM     39  C   UNL A   1      38.639  27.984  28.649  1.00  0.00     0.029 A 
ATOM     40  N   UNL A   1      40.228  29.512  29.025  1.00  0.00    -0.354 N 
ATOM     41  C   UNL A   1      44.369  28.692  28.044  1.00  0.00     0.074 A 
ATOM     42  C   UNL A   1      44.508  27.366  27.481  1.00  0.00     0.031 C 
ATOM     43  C   UNL A   1      38.045  29.057  29.195  1.00  0.00     0.029 A 
ATOM     44  C   UNL A   1      39.057  30.067  29.489  1.00  0.00     0.049 A 
ATOM     45  H   UNL A   1      41.096  29.973  29.066  1.00  0.00     0.167 HD
ATOM     46  C   UNL A   1      45.394  29.565  28.217  1.00  0.00     0.034 A 
ATOM     47  C   UNL A   1      38.830  31.249  30.094  1.00  0.00     0.034 A 
ATOM     48  C   UNL A   1      45.235  30.882  28.786  1.00  0.00     0.049 A 
ATOM     49  C   UNL A   1      39.993  32.177  30.337  1.00  0.00     0.074 A 
ATOM     50  C   UNL A   1      46.194  31.861  28.981  1.00  0.00     0.029 A 
ATOM     51  N   UNL A   1      44.038  31.401  29.266  1.00  0.00    -0.354 N 
ATOM     52  N   UNL A   1      41.260  32.013  30.037  1.00  0.00    -0.248 NA
ATOM     53  C   UNL A   1      39.691  33.455  30.996  1.00  0.00     0.031 C 
ATOM     54  C   UNL A   1      45.594  32.938  29.642  1.00  0.00     0.029 A 
ATOM     55  C   UNL A   1      44.241  32.672  29.784  1.00  0.00     0.049 A 
ATOM     56  H   UNL A   1      43.171  30.936  29.241  1.00  0.00     0.167 HD
ATOM     57  C   UNL A   1      41.900  33.184  30.434  1.00  0.00     0.074 A 
ATOM     58  C   UNL A   1      40.876  34.047  30.986  1.00  0.00     0.031 C 
ATOM     59  C   UNL A   1      43.213  33.521  30.341  1.00  0.00     0.034 A 
BRANCH  46  60
ATOM     60  C   UNL A   1      46.773  29.100  27.808  1.00  0.00     0.023 A 
ATOM     61  C   UNL A   1      47.089  28.824  26.464  1.00  0.00     0.031 A 
ATOM     62  C   UNL A   1      47.772  28.875  28.771  1.00  0.00     0.131 A 
ATOM     63  C   UNL A   1      48.325  28.249  26.136  1.00  0.00     0.055 A 
ATOM     64  C   UNL A   1      49.038  28.395  28.425  1.00  0.00     0.041 A 
ATOM     65  F   UNL A   1      47.530  29.098  30.073  1.00  0.00    -0.206 F 
ATOM     66  C   UNL A   1      49.313  28.058  27.102  1.00  0.00     0.022 A 
BRANCH  63  67
ATOM     67  S   UNL A   1      48.550  27.587  24.462  1.00  0.00     0.124 S 
ATOM     68  O   UNL A   1      47.473  28.255  23.733  1.00  0.00    -0.237 OA
ATOM     69  O   UNL A   1      49.904  28.014  24.133  1.00  0.00    -0.237 OA
ATOM     70  O   UNL A   1      48.372  26.147  24.636  1.00  0.00    -0.744 OA
ENDBRANCH  63  67
ENDBRANCH  46  60
BRANCH  47  71
ATOM     71  C   UNL A   1      37.451  31.632  30.512  1.00  0.00     0.023 A 
ATOM     72  C   UNL A   1      36.588  32.292  29.621  1.00  0.00     0.031 A 
ATOM     73  C   UNL A   1      36.985  31.383  31.815  1.00  0.00     0.131 A 
ATOM     74  C   UNL A   1      35.327  32.724  30.058  1.00  0.00     0.055 A 
ATOM     75  C   UNL A   1      35.707  31.762  32.227  1.00  0.00     0.041 A 
ATOM     76  F   UNL A   1      37.766  30.752  32.707  1.00  0.00    -0.206 F 
ATOM     77  C   UNL A   1      34.874  32.449  31.350  1.00  0.00     0.022 A 
BRANCH  74  78
ATOM     78  S   UNL A   1      34.318  33.728  28.934  1.00  0.00     0.124 S 
ATOM     79  O   UNL A   1      35.307  34.654  28.396  1.00  0.00    -0.237 OA
ATOM     80  O   UNL A   1      33.806  32.723  28.007  1.00  0.00    -0.237 OA
ATOM     81  O   UNL A   1      33.318  34.324  29.817  1.00  0.00    -0.744 OA
ENDBRANCH  74  78
ENDBRANCH  47  71
BRANCH  59  82
ATOM     82  C   UNL A   1      43.601  34.907  30.797  1.00  0.00     0.023 A 
ATOM     83  C   UNL A   1      43.457  36.033  29.969  1.00  0.00     0.031 A 
ATOM     84  C   UNL A   1      44.136  35.099  32.084  1.00  0.00     0.131 A 
ATOM     85  C   UNL A   1      43.895  37.290  30.414  1.00  0.00     0.055 A 
ATOM     86  C   UNL A   1      44.508  36.361  32.546  1.00  0.00     0.041 A 
ATOM     87  F   UNL A   1      44.301  34.059  32.918  1.00  0.00    -0.206 F 
ATOM     88  C   UNL A   1      44.401  37.465  31.705  1.00  0.00     0.022 A 
BRANCH  85  89
ATOM     89  S   UNL A   1      43.885  38.680  29.249  1.00  0.00     0.124 S 
ATOM     90  O   UNL A   1      42.696  38.400  28.452  1.00  0.00    -0.237 OA
ATOM     91  O   UNL A   1      43.799  39.833  30.140  1.00  0.00    -0.237 OA
ATOM     92  O   UNL A   1      45.154  38.542  28.538  1.00  0.00    -0.744 OA
ENDBRANCH  85  89
ENDBRANCH  59  82
ENDBRANCH  33  34
ENDBRANCH  25  28
ENDBRANCH  23  24
ENDBRANCH  22  23
ENDBRANCH  21  22
ENDBRANCH   1  21
TORSDOF 20
ENDMDL
