MODEL 1
REMARK VINA RESULT:     -10.8      0.000      0.000
REMARK SMILES CC[NH2+][C@]1(C(=O)NCCCCCCNC(=O)c2ccc(-c3c4nc(c(-c5cc(S(=O)(=O)[O-])ccc5F)c5ccc([nH]5)c(-c5cc(S(=O)(=O)[O-])ccc5F)c5nc(c(-c6cc(S(=O)(=O)[O-])ccc6F)c6ccc3[nH]6)C=C5)C=C4)cc2)CCC[C@@H]1CCSc1ccccc1F
REMARK SMILES IDX 10 1 9 2 8 3 7 4 5 5 6 6 4 8 80 9 83 10 81 11 82 12 3 13
REMARK SMILES IDX 2 16 1 17 84 18 85 19 86 20 87 21 88 22 92 23 89 24 91 25
REMARK SMILES IDX 93 26 90 27 11 28 12 29 13 30 14 31 15 32 16 34 17 35 18 36
REMARK SMILES IDX 79 37 19 38 78 39 20 40 21 41 22 42 72 43 23 44 77 45 71 46
REMARK SMILES IDX 73 47 24 48 76 49 70 50 69 51 25 53 57 54 37 55 56 56 38 57
REMARK SMILES IDX 41 58 55 59 74 60 39 61 40 62 54 64 75 65 42 66 26 67 27 68
REMARK SMILES IDX 35 69 28 70 34 71 36 72 33 73 29 74 30 75 31 76 32 77 58 78
REMARK SMILES IDX 59 79 67 80 60 81 66 82 68 83 65 84 61 85 62 86 63 87 64 88
REMARK SMILES IDX 43 89 44 90 52 91 45 92 51 93 53 94 50 95 46 96 47 97 48 98
REMARK SMILES IDX 49 99
REMARK H PARENT 7 7 3 14 3 15 14 33 73 52 41 63
REMARK Flexibility Score: inf
ROOT
ATOM      1  C   UNL A   1      35.173  24.156  24.389  1.00  0.00     0.002 C 
ENDROOT
BRANCH   1   2
ATOM      2  C   UNL A   1      33.919  24.862  23.848  1.00  0.00     0.021 C 
BRANCH   2   3
ATOM      3  C   UNL A   1      33.631  26.262  24.380  1.00  0.00     0.116 C 
BRANCH   3   4
ATOM      4  N   UNL A   1      33.592  27.437  23.539  1.00  0.00    -0.351 N 
ATOM      5  C   UNL A   1      32.552  28.361  23.445  1.00  0.00     0.281 C 
ATOM      6  O   UNL A   1      32.746  29.332  22.704  1.00  0.00    -0.268 OA
ATOM      7  H   UNL A   1      34.380  27.601  22.973  1.00  0.00     0.163 HD
BRANCH   5   8
ATOM      8  C   UNL A   1      31.207  28.251  24.343  1.00  0.00     0.178 C 
ATOM      9  C   UNL A   1      30.152  29.114  23.604  1.00  0.00     0.079 C 
ATOM     10  C   UNL A   1      30.575  26.800  24.356  1.00  0.00     0.061 C 
ATOM     11  C   UNL A   1      29.046  28.199  23.074  1.00  0.00     0.008 C 
ATOM     12  C   UNL A   1      29.153  26.886  23.809  1.00  0.00     0.011 C 
BRANCH   8  13
ATOM     13  N   UNL A   1      31.552  28.500  25.735  1.00  0.00    -0.334 N 
ATOM     14  H   UNL A   1      30.685  28.372  26.257  1.00  0.00     0.347 HD
ATOM     15  H   UNL A   1      32.341  27.865  25.846  1.00  0.00     0.347 HD
BRANCH  13  16
ATOM     16  C   UNL A   1      32.124  29.722  26.237  1.00  0.00     0.257 C 
ATOM     17  C   UNL A   1      33.468  29.410  26.899  1.00  0.00     0.071 C 
ENDBRANCH  13  16
ENDBRANCH   8  13
BRANCH  10  18
ATOM     18  C   UNL A   1      30.584  25.940  25.668  1.00  0.00     0.022 C 
BRANCH  18  19
ATOM     19  C   UNL A   1      30.706  24.383  25.720  1.00  0.00     0.075 C 
BRANCH  19  20
ATOM     20  S   UNL A   1      31.917  23.503  26.810  1.00  0.00    -0.123 SA
BRANCH  20  21
ATOM     21  C   UNL A   1      32.516  22.114  25.839  1.00  0.00     0.043 A 
ATOM     22  C   UNL A   1      32.042  21.996  24.526  1.00  0.00     0.018 A 
ATOM     23  C   UNL A   1      33.446  21.152  26.271  1.00  0.00     0.136 A 
ATOM     24  C   UNL A   1      32.357  20.891  23.723  1.00  0.00     0.001 A 
ATOM     25  C   UNL A   1      33.797  20.058  25.457  1.00  0.00     0.040 A 
ATOM     26  F   UNL A   1      33.973  21.210  27.503  1.00  0.00    -0.206 F 
ATOM     27  C   UNL A   1      33.223  19.909  24.194  1.00  0.00     0.003 A 
ENDBRANCH  20  21
ENDBRANCH  19  20
ENDBRANCH  18  19
ENDBRANCH  10  18
ENDBRANCH   5   8
ENDBRANCH   3   4
ENDBRANCH   2   3
ENDBRANCH   1   2
BRANCH   1  28
ATOM     28  C   UNL A   1      36.013  23.244  23.476  1.00  0.00     0.002 C 
BRANCH  28  29
ATOM     29  C   UNL A   1      36.757  22.039  24.065  1.00  0.00     0.021 C 
BRANCH  29  30
ATOM     30  C   UNL A   1      37.046  22.023  25.566  1.00  0.00     0.116 C 
BRANCH  30  31
ATOM     31  N   UNL A   1      38.149  21.153  25.930  1.00  0.00    -0.352 N 
ATOM     32  C   UNL A   1      39.408  21.415  26.409  1.00  0.00     0.251 C 
ATOM     33  H   UNL A   1      37.958  20.195  25.810  1.00  0.00     0.163 HD
ATOM     34  O   UNL A   1      40.194  20.474  26.517  1.00  0.00    -0.269 OA
BRANCH  32  35
ATOM     35  C   UNL A   1      39.858  22.783  26.771  1.00  0.00     0.039 A 
ATOM     36  C   UNL A   1      40.782  22.918  27.814  1.00  0.00     0.014 A 
ATOM     37  C   UNL A   1      39.342  23.931  26.163  1.00  0.00     0.014 A 
ATOM     38  C   UNL A   1      41.231  24.184  28.205  1.00  0.00     0.010 A 
ATOM     39  C   UNL A   1      39.837  25.194  26.512  1.00  0.00     0.010 A 
ATOM     40  C   UNL A   1      40.790  25.335  27.533  1.00  0.00    -0.014 A 
BRANCH  40  41
ATOM     41  C   UNL A   1      41.328  26.681  27.882  1.00  0.00     0.031 A 
ATOM     42  C   UNL A   1      42.752  27.046  27.561  1.00  0.00     0.074 A 
ATOM     43  C   UNL A   1      40.541  27.562  28.533  1.00  0.00     0.049 A 
ATOM     44  N   UNL A   1      43.414  28.139  27.850  1.00  0.00    -0.248 NA
ATOM     45  C   UNL A   1      43.542  26.039  26.840  1.00  0.00     0.031 C 
ATOM     46  C   UNL A   1      39.149  27.322  28.921  1.00  0.00     0.029 A 
ATOM     47  N   UNL A   1      40.796  28.831  28.993  1.00  0.00    -0.354 N 
ATOM     48  C   UNL A   1      44.701  27.949  27.355  1.00  0.00     0.074 A 
ATOM     49  C   UNL A   1      44.737  26.612  26.799  1.00  0.00     0.031 C 
ATOM     50  C   UNL A   1      38.669  28.413  29.541  1.00  0.00     0.029 A 
ATOM     51  C   UNL A   1      39.729  29.411  29.642  1.00  0.00     0.049 A 
ATOM     52  H   UNL A   1      41.661  29.285  28.869  1.00  0.00     0.167 HD
ATOM     53  C   UNL A   1      45.747  28.814  27.350  1.00  0.00     0.034 A 
ATOM     54  C   UNL A   1      39.618  30.603  30.265  1.00  0.00     0.034 A 
ATOM     55  C   UNL A   1      45.694  30.146  27.906  1.00  0.00     0.049 A 
ATOM     56  C   UNL A   1      40.808  31.529  30.285  1.00  0.00     0.074 A 
ATOM     57  C   UNL A   1      46.679  31.119  27.910  1.00  0.00     0.029 A 
ATOM     58  N   UNL A   1      44.601  30.692  28.569  1.00  0.00    -0.354 N 
ATOM     59  N   UNL A   1      42.005  31.349  29.774  1.00  0.00    -0.248 NA
ATOM     60  C   UNL A   1      40.630  32.821  30.958  1.00  0.00     0.031 C 
ATOM     61  C   UNL A   1      46.212  32.218  28.639  1.00  0.00     0.029 A 
ATOM     62  C   UNL A   1      44.902  31.970  29.017  1.00  0.00     0.049 A 
ATOM     63  H   UNL A   1      43.738  30.237  28.702  1.00  0.00     0.167 HD
ATOM     64  C   UNL A   1      42.709  32.520  30.038  1.00  0.00     0.074 A 
ATOM     65  C   UNL A   1      41.800  33.403  30.738  1.00  0.00     0.031 C 
ATOM     66  C   UNL A   1      43.992  32.838  29.726  1.00  0.00     0.034 A 
BRANCH  53  67
ATOM     67  C   UNL A   1      47.049  28.331  26.751  1.00  0.00     0.023 A 
ATOM     68  C   UNL A   1      47.254  28.293  25.360  1.00  0.00     0.031 A 
ATOM     69  C   UNL A   1      48.093  27.883  27.579  1.00  0.00     0.131 A 
ATOM     70  C   UNL A   1      48.439  27.749  24.840  1.00  0.00     0.055 A 
ATOM     71  C   UNL A   1      49.303  27.420  27.057  1.00  0.00     0.041 A 
ATOM     72  F   UNL A   1      47.952  27.873  28.915  1.00  0.00    -0.206 F 
ATOM     73  C   UNL A   1      49.476  27.336  25.679  1.00  0.00     0.022 A 
BRANCH  70  74
ATOM     74  S   UNL A   1      48.541  27.449  23.054  1.00  0.00     0.124 S 
ATOM     75  O   UNL A   1      49.846  28.021  22.734  1.00  0.00    -0.237 OA
ATOM     76  O   UNL A   1      48.442  25.997  22.971  1.00  0.00    -0.237 OA
ATOM     77  O   UNL A   1      47.398  28.185  22.516  1.00  0.00    -0.744 OA
ENDBRANCH  70  74
ENDBRANCH  53  67
BRANCH  54  78
ATOM     78  C   UNL A   1      38.344  30.987  30.940  1.00  0.00     0.023 A 
ATOM     79  C   UNL A   1      37.432  31.860  30.325  1.00  0.00     0.031 A 
ATOM     80  C   UNL A   1      38.041  30.523  32.233  1.00  0.00     0.131 A 
ATOM     81  C   UNL A   1      36.288  32.279  31.019  1.00  0.00     0.055 A 
ATOM     82  C   UNL A   1      36.872  30.899  32.897  1.00  0.00     0.041 A 
ATOM     83  F   UNL A   1      38.876  29.684  32.868  1.00  0.00    -0.206 F 
ATOM     84  C   UNL A   1      35.993  31.794  32.296  1.00  0.00     0.022 A 
BRANCH  81  85
ATOM     85  S   UNL A   1      35.229  33.543  30.262  1.00  0.00     0.124 S 
ATOM     86  O   UNL A   1      34.094  32.748  29.811  1.00  0.00    -0.237 OA
ATOM     87  O   UNL A   1      34.983  34.443  31.382  1.00  0.00    -0.237 OA
ATOM     88  O   UNL A   1      36.068  34.094  29.195  1.00  0.00    -0.744 OA
ENDBRANCH  81  85
ENDBRANCH  54  78
BRANCH  66  89
ATOM     89  C   UNL A   1      44.468  34.222  30.104  1.00  0.00     0.023 A 
ATOM     90  C   UNL A   1      44.226  35.340  29.288  1.00  0.00     0.031 A 
ATOM     91  C   UNL A   1      45.189  34.419  31.297  1.00  0.00     0.131 A 
ATOM     92  C   UNL A   1      44.751  36.593  29.643  1.00  0.00     0.055 A 
ATOM     93  C   UNL A   1      45.652  35.680  31.677  1.00  0.00     0.041 A 
ATOM     94  F   UNL A   1      45.454  33.387  32.114  1.00  0.00    -0.206 F 
ATOM     95  C   UNL A   1      45.447  36.773  30.840  1.00  0.00     0.022 A 
BRANCH  92  96
ATOM     96  S   UNL A   1      44.597  37.967  28.468  1.00  0.00     0.124 S 
ATOM     97  O   UNL A   1      45.904  38.609  28.580  1.00  0.00    -0.237 OA
ATOM     98  O   UNL A   1      44.333  37.275  27.211  1.00  0.00    -0.237 OA
ATOM     99  O   UNL A   1      43.478  38.745  28.995  1.00  0.00    -0.744 OA
ENDBRANCH  92  96
ENDBRANCH  66  89
ENDBRANCH  40  41
ENDBRANCH  32  35
ENDBRANCH  30  31
ENDBRANCH  29  30
ENDBRANCH  28  29
ENDBRANCH   1  28
TORSDOF 22
ENDMDL
MODEL 2
REMARK VINA RESULT:     -10.2      2.177      4.050
REMARK SMILES CC[NH2+][C@]1(C(=O)NCCCCCCNC(=O)c2ccc(-c3c4nc(c(-c5cc(S(=O)(=O)[O-])ccc5F)c5ccc([nH]5)c(-c5cc(S(=O)(=O)[O-])ccc5F)c5nc(c(-c6cc(S(=O)(=O)[O-])ccc6F)c6ccc3[nH]6)C=C5)C=C4)cc2)CCC[C@@H]1CCSc1ccccc1F
REMARK SMILES IDX 10 1 9 2 8 3 7 4 5 5 6 6 4 8 80 9 83 10 81 11 82 12 3 13
REMARK SMILES IDX 2 16 1 17 84 18 85 19 86 20 87 21 88 22 92 23 89 24 91 25
REMARK SMILES IDX 93 26 90 27 11 28 12 29 13 30 14 31 15 32 16 34 17 35 18 36
REMARK SMILES IDX 79 37 19 38 78 39 20 40 21 41 22 42 72 43 23 44 77 45 71 46
REMARK SMILES IDX 73 47 24 48 76 49 70 50 69 51 25 53 57 54 37 55 56 56 38 57
REMARK SMILES IDX 41 58 55 59 74 60 39 61 40 62 54 64 75 65 42 66 26 67 27 68
REMARK SMILES IDX 35 69 28 70 34 71 36 72 33 73 29 74 30 75 31 76 32 77 58 78
REMARK SMILES IDX 59 79 67 80 60 81 66 82 68 83 65 84 61 85 62 86 63 87 64 88
REMARK SMILES IDX 43 89 44 90 52 91 45 92 51 93 53 94 50 95 46 96 47 97 48 98
REMARK SMILES IDX 49 99
REMARK H PARENT 7 7 3 14 3 15 14 33 73 52 41 63
REMARK Flexibility Score: inf
ROOT
ATOM      1  C   UNL A   1      38.671  23.541  26.328  1.00  0.00     0.002 C 
ENDROOT
BRANCH   1   2
ATOM      2  C   UNL A   1      37.583  23.279  25.274  1.00  0.00     0.021 C 
BRANCH   2   3
ATOM      3  C   UNL A   1      36.140  23.537  25.693  1.00  0.00     0.116 C 
BRANCH   3   4
ATOM      4  N   UNL A   1      35.498  22.850  26.791  1.00  0.00    -0.351 N 
ATOM      5  C   UNL A   1      34.166  22.442  26.855  1.00  0.00     0.281 C 
ATOM      6  O   UNL A   1      33.832  21.815  27.867  1.00  0.00    -0.268 OA
ATOM      7  H   UNL A   1      36.058  22.651  27.574  1.00  0.00     0.163 HD
BRANCH   5   8
ATOM      8  C   UNL A   1      33.130  22.661  25.629  1.00  0.00     0.178 C 
ATOM      9  C   UNL A   1      31.719  22.505  26.254  1.00  0.00     0.079 C 
ATOM     10  C   UNL A   1      33.134  24.135  25.055  1.00  0.00     0.061 C 
ATOM     11  C   UNL A   1      30.999  23.854  26.196  1.00  0.00     0.008 C 
ATOM     12  C   UNL A   1      31.728  24.714  25.194  1.00  0.00     0.011 C 
BRANCH   8  13
ATOM     13  N   UNL A   1      33.555  21.841  24.503  1.00  0.00    -0.334 N 
ATOM     14  H   UNL A   1      33.519  22.456  23.690  1.00  0.00     0.347 HD
ATOM     15  H   UNL A   1      34.438  21.480  24.862  1.00  0.00     0.347 HD
BRANCH  13  16
ATOM     16  C   UNL A   1      32.920  20.618  24.088  1.00  0.00     0.257 C 
ATOM     17  C   UNL A   1      33.651  19.433  24.725  1.00  0.00     0.071 C 
ENDBRANCH  13  16
ENDBRANCH   8  13
BRANCH  10  18
ATOM     18  C   UNL A   1      33.683  24.427  23.615  1.00  0.00     0.022 C 
BRANCH  18  19
ATOM     19  C   UNL A   1      32.827  24.407  22.307  1.00  0.00     0.075 C 
BRANCH  19  20
ATOM     20  S   UNL A   1      32.496  25.923  21.296  1.00  0.00    -0.123 SA
BRANCH  20  21
ATOM     21  C   UNL A   1      31.938  27.168  22.465  1.00  0.00     0.043 A 
ATOM     22  C   UNL A   1      30.556  27.365  22.584  1.00  0.00     0.018 A 
ATOM     23  C   UNL A   1      32.766  27.940  23.299  1.00  0.00     0.136 A 
ATOM     24  C   UNL A   1      30.020  28.386  23.380  1.00  0.00     0.001 A 
ATOM     25  C   UNL A   1      32.234  28.943  24.131  1.00  0.00     0.040 A 
ATOM     26  F   UNL A   1      34.099  27.791  23.272  1.00  0.00    -0.206 F 
ATOM     27  C   UNL A   1      30.860  29.190  24.144  1.00  0.00     0.003 A 
ENDBRANCH  20  21
ENDBRANCH  19  20
ENDBRANCH  18  19
ENDBRANCH  10  18
ENDBRANCH   5   8
ENDBRANCH   3   4
ENDBRANCH   2   3
ENDBRANCH   1   2
BRANCH   1  28
ATOM     28  C   UNL A   1      39.570  22.394  26.826  1.00  0.00     0.002 C 
BRANCH  28  29
ATOM     29  C   UNL A   1      39.840  21.180  25.928  1.00  0.00     0.021 C 
BRANCH  29  30
ATOM     30  C   UNL A   1      40.554  19.971  26.531  1.00  0.00     0.116 C 
BRANCH  30  31
ATOM     31  N   UNL A   1      41.816  19.666  25.882  1.00  0.00    -0.352 N 
ATOM     32  C   UNL A   1      42.906  20.442  25.578  1.00  0.00     0.251 C 
ATOM     33  H   UNL A   1      41.906  18.725  25.607  1.00  0.00     0.163 HD
ATOM     34  O   UNL A   1      43.804  19.939  24.903  1.00  0.00    -0.269 OA
BRANCH  32  35
ATOM     35  C   UNL A   1      43.025  21.858  26.008  1.00  0.00     0.039 A 
ATOM     36  C   UNL A   1      43.193  22.119  27.373  1.00  0.00     0.014 A 
ATOM     37  C   UNL A   1      42.903  22.929  25.119  1.00  0.00     0.014 A 
ATOM     38  C   UNL A   1      43.299  23.435  27.836  1.00  0.00     0.010 A 
ATOM     39  C   UNL A   1      43.069  24.243  25.573  1.00  0.00     0.010 A 
ATOM     40  C   UNL A   1      43.274  24.511  26.936  1.00  0.00    -0.014 A 
BRANCH  40  41
ATOM     41  C   UNL A   1      43.473  25.911  27.407  1.00  0.00     0.031 A 
ATOM     42  C   UNL A   1      44.844  26.533  27.409  1.00  0.00     0.074 A 
ATOM     43  C   UNL A   1      42.420  26.610  27.879  1.00  0.00     0.049 A 
ATOM     44  N   UNL A   1      45.221  27.709  27.846  1.00  0.00    -0.248 NA
ATOM     45  C   UNL A   1      45.938  25.715  26.869  1.00  0.00     0.031 C 
ATOM     46  C   UNL A   1      41.044  26.113  27.950  1.00  0.00     0.029 A 
ATOM     47  N   UNL A   1      42.339  27.880  28.395  1.00  0.00    -0.354 N 
ATOM     48  C   UNL A   1      46.597  27.769  27.643  1.00  0.00     0.074 A 
ATOM     49  C   UNL A   1      46.991  26.487  27.096  1.00  0.00     0.031 C 
ATOM     50  C   UNL A   1      40.255  27.072  28.461  1.00  0.00     0.029 A 
ATOM     51  C   UNL A   1      41.071  28.234  28.801  1.00  0.00     0.049 A 
ATOM     52  H   UNL A   1      43.114  28.482  28.468  1.00  0.00     0.167 HD
ATOM     53  C   UNL A   1      47.447  28.802  27.876  1.00  0.00     0.034 A 
ATOM     54  C   UNL A   1      40.617  29.356  29.396  1.00  0.00     0.034 A 
ATOM     55  C   UNL A   1      47.038  30.075  28.420  1.00  0.00     0.049 A 
ATOM     56  C   UNL A   1      41.589  30.472  29.685  1.00  0.00     0.074 A 
ATOM     57  C   UNL A   1      47.808  31.203  28.649  1.00  0.00     0.029 A 
ATOM     58  N   UNL A   1      45.749  30.391  28.833  1.00  0.00    -0.354 N 
ATOM     59  N   UNL A   1      42.880  30.528  29.447  1.00  0.00    -0.248 NA
ATOM     60  C   UNL A   1      41.042  31.680  30.316  1.00  0.00     0.031 C 
ATOM     61  C   UNL A   1      47.005  32.168  29.268  1.00  0.00     0.029 A 
ATOM     62  C   UNL A   1      45.712  31.679  29.348  1.00  0.00     0.049 A 
ATOM     63  H   UNL A   1      44.973  29.787  28.769  1.00  0.00     0.167 HD
ATOM     64  C   UNL A   1      43.289  31.789  29.870  1.00  0.00     0.074 A 
ATOM     65  C   UNL A   1      42.107  32.466  30.362  1.00  0.00     0.031 C 
ATOM     66  C   UNL A   1      44.530  32.340  29.849  1.00  0.00     0.034 A 
BRANCH  53  67
ATOM     67  C   UNL A   1      48.912  28.581  27.571  1.00  0.00     0.023 A 
ATOM     68  C   UNL A   1      49.410  28.632  26.257  1.00  0.00     0.031 A 
ATOM     69  C   UNL A   1      49.821  28.298  28.606  1.00  0.00     0.131 A 
ATOM     70  C   UNL A   1      50.757  28.328  26.005  1.00  0.00     0.055 A 
ATOM     71  C   UNL A   1      51.178  28.078  28.357  1.00  0.00     0.041 A 
ATOM     72  F   UNL A   1      49.405  28.215  29.880  1.00  0.00    -0.206 F 
ATOM     73  C   UNL A   1      51.650  28.077  27.048  1.00  0.00     0.022 A 
BRANCH  70  74
ATOM     74  S   UNL A   1      51.288  28.116  24.283  1.00  0.00     0.124 S 
ATOM     75  O   UNL A   1      50.256  27.223  23.764  1.00  0.00    -0.237 OA
ATOM     76  O   UNL A   1      51.266  29.482  23.775  1.00  0.00    -0.237 OA
ATOM     77  O   UNL A   1      52.616  27.516  24.405  1.00  0.00    -0.744 OA
ENDBRANCH  70  74
ENDBRANCH  53  67
BRANCH  54  78
ATOM     78  C   UNL A   1      39.180  29.480  29.780  1.00  0.00     0.023 A 
ATOM     79  C   UNL A   1      38.286  30.234  29.004  1.00  0.00     0.031 A 
ATOM     80  C   UNL A   1      38.691  28.884  30.956  1.00  0.00     0.131 A 
ATOM     81  C   UNL A   1      36.963  30.412  29.436  1.00  0.00     0.055 A 
ATOM     82  C   UNL A   1      37.359  29.018  31.352  1.00  0.00     0.041 A 
ATOM     83  F   UNL A   1      39.502  28.150  31.735  1.00  0.00    -0.206 F 
ATOM     84  C   UNL A   1      36.489  29.798  30.598  1.00  0.00     0.022 A 
BRANCH  81  85
ATOM     85  S   UNL A   1      35.890  31.537  28.501  1.00  0.00     0.124 S 
ATOM     86  O   UNL A   1      35.494  30.702  27.374  1.00  0.00    -0.237 OA
ATOM     87  O   UNL A   1      34.849  31.841  29.474  1.00  0.00    -0.237 OA
ATOM     88  O   UNL A   1      36.777  32.655  28.169  1.00  0.00    -0.744 OA
ENDBRANCH  81  85
ENDBRANCH  54  78
BRANCH  66  89
ATOM     89  C   UNL A   1      44.657  33.765  30.336  1.00  0.00     0.023 A 
ATOM     90  C   UNL A   1      44.418  34.863  29.491  1.00  0.00     0.031 A 
ATOM     91  C   UNL A   1      45.040  34.026  31.665  1.00  0.00     0.131 A 
ATOM     92  C   UNL A   1      44.620  36.168  29.966  1.00  0.00     0.055 A 
ATOM     93  C   UNL A   1      45.176  35.328  32.150  1.00  0.00     0.041 A 
ATOM     94  F   UNL A   1      45.286  33.017  32.515  1.00  0.00    -0.206 F 
ATOM     95  C   UNL A   1      44.980  36.408  31.294  1.00  0.00     0.022 A 
BRANCH  92  96
ATOM     96  S   UNL A   1      44.503  37.550  28.796  1.00  0.00     0.124 S 
ATOM     97  O   UNL A   1      44.931  36.926  27.547  1.00  0.00    -0.237 OA
ATOM     98  O   UNL A   1      43.091  37.910  28.878  1.00  0.00    -0.237 OA
ATOM     99  O   UNL A   1      45.428  38.541  29.341  1.00  0.00    -0.744 OA
ENDBRANCH  92  96
ENDBRANCH  66  89
ENDBRANCH  40  41
ENDBRANCH  32  35
ENDBRANCH  30  31
ENDBRANCH  29  30
ENDBRANCH  28  29
ENDBRANCH   1  28
TORSDOF 22
ENDMDL
MODEL 3
REMARK VINA RESULT:     -10.2      3.050      8.649
REMARK SMILES CC[NH2+][C@]1(C(=O)NCCCCCCNC(=O)c2ccc(-c3c4nc(c(-c5cc(S(=O)(=O)[O-])ccc5F)c5ccc([nH]5)c(-c5cc(S(=O)(=O)[O-])ccc5F)c5nc(c(-c6cc(S(=O)(=O)[O-])ccc6F)c6ccc3[nH]6)C=C5)C=C4)cc2)CCC[C@@H]1CCSc1ccccc1F
REMARK SMILES IDX 10 1 9 2 8 3 7 4 5 5 6 6 4 8 80 9 83 10 81 11 82 12 3 13
REMARK SMILES IDX 2 16 1 17 84 18 85 19 86 20 87 21 88 22 92 23 89 24 91 25
REMARK SMILES IDX 93 26 90 27 11 28 12 29 13 30 14 31 15 32 16 34 17 35 18 36
REMARK SMILES IDX 79 37 19 38 78 39 20 40 21 41 22 42 72 43 23 44 77 45 71 46
REMARK SMILES IDX 73 47 24 48 76 49 70 50 69 51 25 53 57 54 37 55 56 56 38 57
REMARK SMILES IDX 41 58 55 59 74 60 39 61 40 62 54 64 75 65 42 66 26 67 27 68
REMARK SMILES IDX 35 69 28 70 34 71 36 72 33 73 29 74 30 75 31 76 32 77 58 78
REMARK SMILES IDX 59 79 67 80 60 81 66 82 68 83 65 84 61 85 62 86 63 87 64 88
REMARK SMILES IDX 43 89 44 90 52 91 45 92 51 93 53 94 50 95 46 96 47 97 48 98
REMARK SMILES IDX 49 99
REMARK H PARENT 7 7 3 14 3 15 14 33 73 52 41 63
REMARK Flexibility Score: inf
ROOT
ATOM      1  C   UNL A   1      37.541  22.031  25.041  1.00  0.00     0.002 C 
ENDROOT
BRANCH   1   2
ATOM      2  C   UNL A   1      36.805  23.134  24.263  1.00  0.00     0.021 C 
BRANCH   2   3
ATOM      3  C   UNL A   1      35.539  23.698  24.897  1.00  0.00     0.116 C 
BRANCH   3   4
ATOM      4  N   UNL A   1      35.127  23.397  26.249  1.00  0.00    -0.351 N 
ATOM      5  C   UNL A   1      33.833  23.112  26.683  1.00  0.00     0.281 C 
ATOM      6  O   UNL A   1      33.706  22.823  27.879  1.00  0.00    -0.268 OA
ATOM      7  H   UNL A   1      35.833  23.394  26.935  1.00  0.00     0.163 HD
BRANCH   5   8
ATOM      8  C   UNL A   1      32.572  23.037  25.668  1.00  0.00     0.178 C 
ATOM      9  C   UNL A   1      31.350  22.699  26.561  1.00  0.00     0.079 C 
ATOM     10  C   UNL A   1      32.200  24.432  25.021  1.00  0.00     0.061 C 
ATOM     11  C   UNL A   1      30.394  23.893  26.565  1.00  0.00     0.008 C 
ATOM     12  C   UNL A   1      30.759  24.771  25.395  1.00  0.00     0.011 C 
BRANCH   8  13
ATOM     13  N   UNL A   1      32.935  22.204  24.531  1.00  0.00    -0.334 N 
ATOM     14  H   UNL A   1      32.875  22.815  23.716  1.00  0.00     0.347 HD
ATOM     15  H   UNL A   1      33.825  21.829  24.854  1.00  0.00     0.347 HD
BRANCH  13  16
ATOM     16  C   UNL A   1      32.261  20.990  24.150  1.00  0.00     0.257 C 
ATOM     17  C   UNL A   1      33.241  19.819  24.254  1.00  0.00     0.071 C 
ENDBRANCH  13  16
ENDBRANCH   8  13
BRANCH  10  18
ATOM     18  C   UNL A   1      32.419  24.682  23.488  1.00  0.00     0.022 C 
BRANCH  18  19
ATOM     19  C   UNL A   1      33.086  25.954  22.872  1.00  0.00     0.075 C 
BRANCH  19  20
ATOM     20  S   UNL A   1      32.264  27.613  22.854  1.00  0.00    -0.123 SA
BRANCH  20  21
ATOM     21  C   UNL A   1      32.474  28.272  24.513  1.00  0.00     0.043 A 
ATOM     22  C   UNL A   1      33.563  27.802  25.258  1.00  0.00     0.018 A 
ATOM     23  C   UNL A   1      31.660  29.247  25.117  1.00  0.00     0.136 A 
ATOM     24  C   UNL A   1      33.754  28.164  26.599  1.00  0.00     0.001 A 
ATOM     25  C   UNL A   1      31.867  29.645  26.452  1.00  0.00     0.040 A 
ATOM     26  F   UNL A   1      30.616  29.773  24.461  1.00  0.00    -0.206 F 
ATOM     27  C   UNL A   1      32.895  29.075  27.205  1.00  0.00     0.003 A 
ENDBRANCH  20  21
ENDBRANCH  19  20
ENDBRANCH  18  19
ENDBRANCH  10  18
ENDBRANCH   5   8
ENDBRANCH   3   4
ENDBRANCH   2   3
ENDBRANCH   1   2
BRANCH   1  28
ATOM     28  C   UNL A   1      37.336  20.548  24.681  1.00  0.00     0.002 C 
BRANCH  28  29
ATOM     29  C   UNL A   1      38.431  19.520  24.994  1.00  0.00     0.021 C 
BRANCH  29  30
ATOM     30  C   UNL A   1      39.457  19.855  26.077  1.00  0.00     0.116 C 
BRANCH  30  31
ATOM     31  N   UNL A   1      40.698  19.116  25.942  1.00  0.00    -0.352 N 
ATOM     32  C   UNL A   1      42.012  19.514  25.944  1.00  0.00     0.251 C 
ATOM     33  H   UNL A   1      40.575  18.146  25.825  1.00  0.00     0.163 HD
ATOM     34  O   UNL A   1      42.871  18.674  25.682  1.00  0.00    -0.269 OA
BRANCH  32  35
ATOM     35  C   UNL A   1      42.422  20.914  26.222  1.00  0.00     0.039 A 
ATOM     36  C   UNL A   1      42.621  21.288  27.557  1.00  0.00     0.014 A 
ATOM     37  C   UNL A   1      42.545  21.877  25.218  1.00  0.00     0.014 A 
ATOM     38  C   UNL A   1      42.998  22.597  27.878  1.00  0.00     0.010 A 
ATOM     39  C   UNL A   1      42.981  23.170  25.534  1.00  0.00     0.010 A 
ATOM     40  C   UNL A   1      43.216  23.544  26.866  1.00  0.00    -0.014 A 
BRANCH  40  41
ATOM     41  C   UNL A   1      43.702  24.916  27.190  1.00  0.00     0.031 A 
ATOM     42  C   UNL A   1      42.758  25.958  27.726  1.00  0.00     0.074 A 
ATOM     43  C   UNL A   1      44.991  25.237  26.954  1.00  0.00     0.049 A 
ATOM     44  N   UNL A   1      42.983  27.220  27.997  1.00  0.00    -0.248 NA
ATOM     45  C   UNL A   1      41.374  25.530  27.967  1.00  0.00     0.031 C 
ATOM     46  C   UNL A   1      46.002  24.323  26.416  1.00  0.00     0.029 A 
ATOM     47  N   UNL A   1      45.673  26.416  27.127  1.00  0.00    -0.354 N 
ATOM     48  C   UNL A   1      41.767  27.740  28.432  1.00  0.00     0.074 A 
ATOM     49  C   UNL A   1      40.799  26.666  28.333  1.00  0.00     0.031 C 
ATOM     50  C   UNL A   1      47.175  24.970  26.321  1.00  0.00     0.029 A 
ATOM     51  C   UNL A   1      46.994  26.356  26.741  1.00  0.00     0.049 A 
ATOM     52  H   UNL A   1      45.257  27.230  27.493  1.00  0.00     0.167 HD
ATOM     53  C   UNL A   1      41.489  28.988  28.887  1.00  0.00     0.034 A 
ATOM     54  C   UNL A   1      47.948  27.309  26.712  1.00  0.00     0.034 A 
ATOM     55  C   UNL A   1      42.467  30.047  28.983  1.00  0.00     0.049 A 
ATOM     56  C   UNL A   1      47.604  28.700  27.179  1.00  0.00     0.074 A 
ATOM     57  C   UNL A   1      42.303  31.331  29.474  1.00  0.00     0.029 A 
ATOM     58  N   UNL A   1      43.790  29.952  28.568  1.00  0.00    -0.354 N 
ATOM     59  N   UNL A   1      46.459  29.162  27.628  1.00  0.00    -0.248 NA
ATOM     60  C   UNL A   1      48.682  29.696  27.146  1.00  0.00     0.031 C 
ATOM     61  C   UNL A   1      43.499  32.032  29.287  1.00  0.00     0.029 A 
ATOM     62  C   UNL A   1      44.440  31.163  28.759  1.00  0.00     0.049 A 
ATOM     63  H   UNL A   1      44.206  29.142  28.194  1.00  0.00     0.167 HD
ATOM     64  C   UNL A   1      46.691  30.494  27.959  1.00  0.00     0.074 A 
ATOM     65  C   UNL A   1      48.087  30.756  27.674  1.00  0.00     0.031 C 
ATOM     66  C   UNL A   1      45.830  31.418  28.458  1.00  0.00     0.034 A 
BRANCH  53  67
ATOM     67  C   UNL A   1      40.060  29.284  29.285  1.00  0.00     0.023 A 
ATOM     68  C   UNL A   1      39.665  29.342  30.633  1.00  0.00     0.031 A 
ATOM     69  C   UNL A   1      39.074  29.491  28.304  1.00  0.00     0.131 A 
ATOM     70  C   UNL A   1      38.313  29.524  30.961  1.00  0.00     0.055 A 
ATOM     71  C   UNL A   1      37.744  29.755  28.639  1.00  0.00     0.041 A 
ATOM     72  F   UNL A   1      39.383  29.428  26.999  1.00  0.00    -0.206 F 
ATOM     73  C   UNL A   1      37.354  29.757  29.974  1.00  0.00     0.022 A 
BRANCH  70  74
ATOM     74  S   UNL A   1      37.804  29.299  32.688  1.00  0.00     0.124 S 
ATOM     75  O   UNL A   1      38.915  29.917  33.405  1.00  0.00    -0.237 OA
ATOM     76  O   UNL A   1      36.534  30.014  32.738  1.00  0.00    -0.237 OA
ATOM     77  O   UNL A   1      37.710  27.847  32.832  1.00  0.00    -0.744 OA
ENDBRANCH  70  74
ENDBRANCH  53  67
BRANCH  54  78
ATOM     78  C   UNL A   1      49.315  26.994  26.203  1.00  0.00     0.023 A 
ATOM     79  C   UNL A   1      49.765  27.501  24.974  1.00  0.00     0.031 A 
ATOM     80  C   UNL A   1      50.177  26.143  26.919  1.00  0.00     0.131 A 
ATOM     81  C   UNL A   1      51.018  27.115  24.474  1.00  0.00     0.055 A 
ATOM     82  C   UNL A   1      51.446  25.808  26.444  1.00  0.00     0.041 A 
ATOM     83  F   UNL A   1      49.799  25.632  28.102  1.00  0.00    -0.206 F 
ATOM     84  C   UNL A   1      51.868  26.283  25.208  1.00  0.00     0.022 A 
BRANCH  81  85
ATOM     85  S   UNL A   1      51.486  27.647  22.804  1.00  0.00     0.124 S 
ATOM     86  O   UNL A   1      50.713  26.732  21.973  1.00  0.00    -0.237 OA
ATOM     87  O   UNL A   1      51.059  29.040  22.798  1.00  0.00    -0.237 OA
ATOM     88  O   UNL A   1      52.936  27.441  22.777  1.00  0.00    -0.744 OA
ENDBRANCH  81  85
ENDBRANCH  54  78
BRANCH  66  89
ATOM     89  C   UNL A   1      46.392  32.785  28.768  1.00  0.00     0.023 A 
ATOM     90  C   UNL A   1      46.912  33.106  30.034  1.00  0.00     0.031 A 
ATOM     91  C   UNL A   1      46.392  33.789  27.782  1.00  0.00     0.131 A 
ATOM     92  C   UNL A   1      47.356  34.411  30.298  1.00  0.00     0.055 A 
ATOM     93  C   UNL A   1      46.895  35.067  28.031  1.00  0.00     0.041 A 
ATOM     94  F   UNL A   1      45.903  33.542  26.556  1.00  0.00    -0.206 F 
ATOM     95  C   UNL A   1      47.367  35.388  29.300  1.00  0.00     0.022 A 
BRANCH  92  96
ATOM     96  S   UNL A   1      47.829  34.844  31.996  1.00  0.00     0.124 S 
ATOM     97  O   UNL A   1      48.323  36.208  31.834  1.00  0.00    -0.237 OA
ATOM     98  O   UNL A   1      46.567  34.705  32.716  1.00  0.00    -0.237 OA
ATOM     99  O   UNL A   1      48.847  33.852  32.333  1.00  0.00    -0.744 OA
ENDBRANCH  92  96
ENDBRANCH  66  89
ENDBRANCH  40  41
ENDBRANCH  32  35
ENDBRANCH  30  31
ENDBRANCH  29  30
ENDBRANCH  28  29
ENDBRANCH   1  28
TORSDOF 22
ENDMDL
