MODEL 1
REMARK VINA RESULT:     -10.9      0.000      0.000
REMARK SMILES O=C(Cn1nc(C2CC2)c2c(C(F)F)cc(-c3ccc(Cl)cc3)nc21)NCCCCCCNC(=O)c1ccc(-c2c3nc(c(-c4cc(S(=O)(=O)[O-])ccc4F)c4ccc([nH]4)c(-c4cc(S(=O)(=O)[O-])ccc4F)c4nc(c(-c5cc(S(=O)(=O)[O-])ccc5F)c5ccc2[nH]5)C=C4)C=C3)cc1
REMARK SMILES IDX 30 1 29 2 28 3 27 4 26 5 1 6 2 7 3 9 4 10 5 11 25 12 6 13
REMARK SMILES IDX 10 14 24 15 11 16 16 17 15 18 7 19 8 20 9 21 12 22 13 23
REMARK SMILES IDX 14 24 17 25 18 26 23 27 19 28 22 29 20 30 21 31 31 32 32 33
REMARK SMILES IDX 33 34 34 35 35 37 36 38 37 39 98 40 38 41 97 42 39 43 40 44
REMARK SMILES IDX 41 45 91 46 42 47 96 48 90 49 92 50 43 51 95 52 89 53 88 54
REMARK SMILES IDX 44 56 76 57 56 58 75 59 57 60 60 61 74 62 93 63 58 64 59 65
REMARK SMILES IDX 73 67 94 68 61 69 45 70 46 71 54 72 47 73 53 74 55 75 52 76
REMARK SMILES IDX 48 77 49 78 50 79 51 80 77 81 78 82 86 83 79 84 85 85 87 86
REMARK SMILES IDX 84 87 80 88 81 89 82 90 83 91 62 92 63 93 71 94 64 95 70 96
REMARK SMILES IDX 72 97 69 98 65 99 66 100 67 101 68 102
REMARK H PARENT 26 8 33 36 92 55 60 66
REMARK Flexibility Score: inf
ROOT
ATOM      1  C   UNL A   1      35.849  34.066  33.688  1.00  0.00     0.002 C 
ENDROOT
BRANCH   1   2
ATOM      2  C   UNL A   1      34.762  35.111  33.975  1.00  0.00     0.002 C 
BRANCH   2   3
ATOM      3  C   UNL A   1      34.438  36.080  32.830  1.00  0.00     0.021 C 
BRANCH   3   4
ATOM      4  C   UNL A   1      33.084  35.868  32.161  1.00  0.00     0.116 C 
BRANCH   4   5
ATOM      5  N   UNL A   1      33.166  34.970  31.027  1.00  0.00    -0.354 N 
ATOM      6  O   UNL A   1      32.831  36.581  29.414  1.00  0.00    -0.273 OA
ATOM      7  C   UNL A   1      33.096  35.422  29.724  1.00  0.00     0.241 C 
ATOM      8  H   UNL A   1      33.275  34.006  31.192  1.00  0.00     0.163 HD
BRANCH   7   9
ATOM      9  C   UNL A   1      33.291  34.351  28.681  1.00  0.00     0.246 C 
BRANCH   9  10
ATOM     10  N   UNL A   1      34.476  33.521  28.836  1.00  0.00    -0.237 N 
ATOM     11  N   UNL A   1      35.501  34.046  29.527  1.00  0.00    -0.175 NA
ATOM     12  C   UNL A   1      34.737  32.258  28.379  1.00  0.00     0.159 A 
ATOM     13  C   UNL A   1      36.462  33.116  29.484  1.00  0.00     0.076 A 
ATOM     14  C   UNL A   1      36.042  31.932  28.788  1.00  0.00     0.051 A 
ATOM     15  N   UNL A   1      33.877  31.497  27.670  1.00  0.00    -0.228 NA
ATOM     16  C   UNL A   1      36.498  30.633  28.425  1.00  0.00     0.033 A 
ATOM     17  C   UNL A   1      34.324  30.278  27.357  1.00  0.00     0.073 A 
ATOM     18  C   UNL A   1      35.588  29.826  27.704  1.00  0.00     0.039 A 
BRANCH  13  19
ATOM     19  C   UNL A   1      37.765  33.545  30.153  1.00  0.00     0.041 C 
ATOM     20  C   UNL A   1      39.115  32.944  29.899  1.00  0.00     0.011 C 
ATOM     21  C   UNL A   1      38.799  34.298  29.353  1.00  0.00     0.011 C 
ENDBRANCH  13  19
BRANCH  16  22
ATOM     22  C   UNL A   1      37.801  29.961  28.770  1.00  0.00     0.373 C 
ATOM     23  F   UNL A   1      37.693  28.648  29.087  1.00  0.00    -0.205 F 
ATOM     24  F   UNL A   1      38.728  30.067  27.780  1.00  0.00    -0.205 F 
ENDBRANCH  16  22
BRANCH  17  25
ATOM     25  C   UNL A   1      33.424  29.388  26.616  1.00  0.00     0.000 A 
ATOM     26  C   UNL A   1      33.371  28.014  26.898  1.00  0.00     0.012 A 
ATOM     27  C   UNL A   1      32.498  29.919  25.701  1.00  0.00     0.012 A 
ATOM     28  C   UNL A   1      32.388  27.202  26.322  1.00  0.00     0.021 A 
ATOM     29  C   UNL A   1      31.513  29.111  25.127  1.00  0.00     0.021 A 
ATOM     30  C   UNL A   1      31.453  27.759  25.453  1.00  0.00     0.041 A 
ATOM     31  Cl  UNL A   1      30.192  26.783  24.807  1.00  0.00    -0.084 Cl
ENDBRANCH  17  25
ENDBRANCH   9  10
ENDBRANCH   7   9
ENDBRANCH   4   5
ENDBRANCH   3   4
ENDBRANCH   2   3
ENDBRANCH   1   2
BRANCH   1  32
ATOM     32  C   UNL A   1      37.188  34.614  33.176  1.00  0.00     0.021 C 
BRANCH  32  33
ATOM     33  C   UNL A   1      38.408  33.966  33.822  1.00  0.00     0.116 C 
BRANCH  33  34
ATOM     34  N   UNL A   1      38.038  33.085  34.925  1.00  0.00    -0.352 N 
ATOM     35  C   UNL A   1      38.250  31.727  35.035  1.00  0.00     0.251 C 
ATOM     36  H   UNL A   1      37.580  33.514  35.685  1.00  0.00     0.163 HD
ATOM     37  O   UNL A   1      37.589  31.058  35.815  1.00  0.00    -0.269 OA
BRANCH  35  38
ATOM     38  C   UNL A   1      39.297  31.097  34.208  1.00  0.00     0.039 A 
ATOM     39  C   UNL A   1      38.977  30.546  32.962  1.00  0.00     0.014 A 
ATOM     40  C   UNL A   1      40.596  31.027  34.711  1.00  0.00     0.014 A 
ATOM     41  C   UNL A   1      39.989  29.971  32.198  1.00  0.00     0.010 A 
ATOM     42  C   UNL A   1      41.611  30.538  33.922  1.00  0.00     0.010 A 
ATOM     43  C   UNL A   1      41.302  29.976  32.684  1.00  0.00    -0.014 A 
BRANCH  43  44
ATOM     44  C   UNL A   1      42.399  29.476  31.866  1.00  0.00     0.031 A 
ATOM     45  C   UNL A   1      42.875  30.413  30.810  1.00  0.00     0.074 A 
ATOM     46  C   UNL A   1      43.097  28.378  32.220  1.00  0.00     0.049 A 
ATOM     47  N   UNL A   1      42.856  30.248  29.527  1.00  0.00    -0.248 NA
ATOM     48  C   UNL A   1      43.310  31.757  31.227  1.00  0.00     0.031 C 
ATOM     49  C   UNL A   1      42.941  27.571  33.435  1.00  0.00     0.029 A 
ATOM     50  N   UNL A   1      44.196  27.831  31.637  1.00  0.00    -0.354 N 
ATOM     51  C   UNL A   1      43.464  31.380  28.985  1.00  0.00     0.074 A 
ATOM     52  C   UNL A   1      43.543  32.344  30.052  1.00  0.00     0.031 C 
ATOM     53  C   UNL A   1      44.044  26.812  33.614  1.00  0.00     0.029 A 
ATOM     54  C   UNL A   1      44.909  26.967  32.457  1.00  0.00     0.049 A 
ATOM     55  H   UNL A   1      44.464  28.031  30.710  1.00  0.00     0.167 HD
ATOM     56  C   UNL A   1      44.066  31.361  27.759  1.00  0.00     0.034 A 
ATOM     57  C   UNL A   1      46.156  26.480  32.236  1.00  0.00     0.034 A 
ATOM     58  C   UNL A   1      43.746  30.160  27.039  1.00  0.00     0.049 A 
ATOM     59  C   UNL A   1      46.458  26.654  30.795  1.00  0.00     0.074 A 
ATOM     60  C   UNL A   1      42.582  29.594  26.562  1.00  0.00     0.029 A 
ATOM     61  N   UNL A   1      44.684  29.155  27.056  1.00  0.00    -0.354 N 
ATOM     62  N   UNL A   1      45.863  25.992  29.843  1.00  0.00    -0.248 NA
ATOM     63  C   UNL A   1      47.108  27.891  30.386  1.00  0.00     0.031 C 
ATOM     64  C   UNL A   1      42.747  28.195  26.763  1.00  0.00     0.029 A 
ATOM     65  C   UNL A   1      44.023  27.977  27.287  1.00  0.00     0.049 A 
ATOM     66  H   UNL A   1      45.654  29.261  26.925  1.00  0.00     0.167 HD
ATOM     67  C   UNL A   1      45.661  26.935  28.846  1.00  0.00     0.074 A 
ATOM     68  C   UNL A   1      46.548  28.047  29.185  1.00  0.00     0.031 C 
ATOM     69  C   UNL A   1      44.582  26.857  28.015  1.00  0.00     0.034 A 
BRANCH  56  70
ATOM     70  C   UNL A   1      45.221  32.246  27.357  1.00  0.00     0.023 A 
ATOM     71  C   UNL A   1      46.560  31.821  27.421  1.00  0.00     0.031 A 
ATOM     72  C   UNL A   1      44.992  33.456  26.671  1.00  0.00     0.131 A 
ATOM     73  C   UNL A   1      47.598  32.570  26.852  1.00  0.00     0.055 A 
ATOM     74  C   UNL A   1      46.020  34.171  26.042  1.00  0.00     0.041 A 
ATOM     75  F   UNL A   1      43.750  33.950  26.537  1.00  0.00    -0.206 F 
ATOM     76  C   UNL A   1      47.334  33.728  26.131  1.00  0.00     0.022 A 
BRANCH  73  77
ATOM     77  S   UNL A   1      49.317  32.017  27.019  1.00  0.00     0.124 S 
ATOM     78  O   UNL A   1      49.190  30.576  26.830  1.00  0.00    -0.237 OA
ATOM     79  O   UNL A   1      49.968  32.746  25.933  1.00  0.00    -0.237 OA
ATOM     80  O   UNL A   1      49.686  32.452  28.364  1.00  0.00    -0.744 OA
ENDBRANCH  73  77
ENDBRANCH  56  70
BRANCH  57  81
ATOM     81  C   UNL A   1      47.226  26.284  33.242  1.00  0.00     0.023 A 
ATOM     82  C   UNL A   1      47.537  24.991  33.699  1.00  0.00     0.031 A 
ATOM     83  C   UNL A   1      47.726  27.366  33.990  1.00  0.00     0.131 A 
ATOM     84  C   UNL A   1      48.246  24.804  34.892  1.00  0.00     0.055 A 
ATOM     85  C   UNL A   1      48.449  27.178  35.174  1.00  0.00     0.041 A 
ATOM     86  F   UNL A   1      47.455  28.629  33.625  1.00  0.00    -0.206 F 
ATOM     87  C   UNL A   1      48.698  25.891  35.641  1.00  0.00     0.022 A 
BRANCH  84  88
ATOM     88  S   UNL A   1      48.520  23.123  35.515  1.00  0.00     0.124 S 
ATOM     89  O   UNL A   1      47.190  22.526  35.417  1.00  0.00    -0.237 OA
ATOM     90  O   UNL A   1      49.510  22.615  34.573  1.00  0.00    -0.237 OA
ATOM     91  O   UNL A   1      48.994  23.344  36.879  1.00  0.00    -0.744 OA
ENDBRANCH  84  88
ENDBRANCH  57  81
BRANCH  69  92
ATOM     92  C   UNL A   1      43.739  25.604  28.033  1.00  0.00     0.023 A 
ATOM     93  C   UNL A   1      44.132  24.561  27.180  1.00  0.00     0.031 A 
ATOM     94  C   UNL A   1      42.473  25.506  28.641  1.00  0.00     0.131 A 
ATOM     95  C   UNL A   1      43.261  23.500  26.918  1.00  0.00     0.055 A 
ATOM     96  C   UNL A   1      41.630  24.411  28.427  1.00  0.00     0.041 A 
ATOM     97  F   UNL A   1      41.975  26.499  29.385  1.00  0.00    -0.206 F 
ATOM     98  C   UNL A   1      42.016  23.408  27.547  1.00  0.00     0.022 A 
BRANCH  95  99
ATOM     99  S   UNL A   1      43.666  22.287  25.637  1.00  0.00     0.124 S 
ATOM    100  O   UNL A   1      45.124  22.232  25.713  1.00  0.00    -0.237 OA
ATOM    101  O   UNL A   1      42.968  21.095  26.113  1.00  0.00    -0.237 OA
ATOM    102  O   UNL A   1      43.128  22.873  24.412  1.00  0.00    -0.744 OA
ENDBRANCH  95  99
ENDBRANCH  69  92
ENDBRANCH  43  44
ENDBRANCH  35  38
ENDBRANCH  33  34
ENDBRANCH  32  33
ENDBRANCH   1  32
TORSDOF 20
ENDMDL
MODEL 2
REMARK VINA RESULT:     -10.6      8.215     12.729
REMARK SMILES O=C(Cn1nc(C2CC2)c2c(C(F)F)cc(-c3ccc(Cl)cc3)nc21)NCCCCCCNC(=O)c1ccc(-c2c3nc(c(-c4cc(S(=O)(=O)[O-])ccc4F)c4ccc([nH]4)c(-c4cc(S(=O)(=O)[O-])ccc4F)c4nc(c(-c5cc(S(=O)(=O)[O-])ccc5F)c5ccc2[nH]5)C=C4)C=C3)cc1
REMARK SMILES IDX 30 1 29 2 28 3 27 4 26 5 1 6 2 7 3 9 4 10 5 11 25 12 6 13
REMARK SMILES IDX 10 14 24 15 11 16 16 17 15 18 7 19 8 20 9 21 12 22 13 23
REMARK SMILES IDX 14 24 17 25 18 26 23 27 19 28 22 29 20 30 21 31 31 32 32 33
REMARK SMILES IDX 33 34 34 35 35 37 36 38 37 39 98 40 38 41 97 42 39 43 40 44
REMARK SMILES IDX 41 45 91 46 42 47 96 48 90 49 92 50 43 51 95 52 89 53 88 54
REMARK SMILES IDX 44 56 76 57 56 58 75 59 57 60 60 61 74 62 93 63 58 64 59 65
REMARK SMILES IDX 73 67 94 68 61 69 45 70 46 71 54 72 47 73 53 74 55 75 52 76
REMARK SMILES IDX 48 77 49 78 50 79 51 80 77 81 78 82 86 83 79 84 85 85 87 86
REMARK SMILES IDX 84 87 80 88 81 89 82 90 83 91 62 92 63 93 71 94 64 95 70 96
REMARK SMILES IDX 72 97 69 98 65 99 66 100 67 101 68 102
REMARK H PARENT 26 8 33 36 92 55 60 66
REMARK Flexibility Score: inf
ROOT
ATOM      1  C   UNL A   1      42.490  41.226  25.502  1.00  0.00     0.002 C 
ENDROOT
BRANCH   1   2
ATOM      2  C   UNL A   1      43.350  42.092  24.571  1.00  0.00     0.002 C 
BRANCH   2   3
ATOM      3  C   UNL A   1      42.623  43.236  23.850  1.00  0.00     0.021 C 
BRANCH   3   4
ATOM      4  C   UNL A   1      41.531  42.803  22.876  1.00  0.00     0.116 C 
BRANCH   4   5
ATOM      5  N   UNL A   1      41.789  43.258  21.526  1.00  0.00    -0.354 N 
ATOM      6  O   UNL A   1      43.030  41.426  20.883  1.00  0.00    -0.273 OA
ATOM      7  C   UNL A   1      42.474  42.487  20.607  1.00  0.00     0.241 C 
ATOM      8  H   UNL A   1      41.466  44.147  21.254  1.00  0.00     0.163 HD
BRANCH   7   9
ATOM      9  C   UNL A   1      42.565  43.091  19.229  1.00  0.00     0.246 C 
BRANCH   9  10
ATOM     10  N   UNL A   1      43.231  44.382  19.143  1.00  0.00    -0.237 N 
ATOM     11  N   UNL A   1      42.920  45.158  18.093  1.00  0.00    -0.175 NA
ATOM     12  C   UNL A   1      44.154  44.959  19.973  1.00  0.00     0.159 A 
ATOM     13  C   UNL A   1      43.687  46.247  18.225  1.00  0.00     0.076 A 
ATOM     14  C   UNL A   1      44.488  46.206  19.417  1.00  0.00     0.051 A 
ATOM     15  N   UNL A   1      44.632  44.402  21.106  1.00  0.00    -0.228 NA
ATOM     16  C   UNL A   1      45.429  46.980  20.153  1.00  0.00     0.033 A 
ATOM     17  C   UNL A   1      45.500  45.156  21.785  1.00  0.00     0.073 A 
ATOM     18  C   UNL A   1      45.911  46.408  21.354  1.00  0.00     0.039 A 
BRANCH  13  19
ATOM     19  C   UNL A   1      43.546  47.243  17.077  1.00  0.00     0.041 C 
ATOM     20  C   UNL A   1      42.252  47.693  16.468  1.00  0.00     0.011 C 
ATOM     21  C   UNL A   1      43.011  48.626  17.355  1.00  0.00     0.011 C 
ENDBRANCH  13  19
BRANCH  16  22
ATOM     22  C   UNL A   1      45.933  48.370  19.869  1.00  0.00     0.373 C 
ATOM     23  F   UNL A   1      45.041  49.358  20.125  1.00  0.00    -0.205 F 
ATOM     24  F   UNL A   1      47.075  48.667  20.546  1.00  0.00    -0.205 F 
ENDBRANCH  16  22
BRANCH  17  25
ATOM     25  C   UNL A   1      46.031  44.624  23.044  1.00  0.00     0.000 A 
ATOM     26  C   UNL A   1      45.684  45.198  24.277  1.00  0.00     0.012 A 
ATOM     27  C   UNL A   1      46.791  43.441  23.048  1.00  0.00     0.012 A 
ATOM     28  C   UNL A   1      46.042  44.581  25.481  1.00  0.00     0.021 A 
ATOM     29  C   UNL A   1      47.146  42.821  24.249  1.00  0.00     0.021 A 
ATOM     30  C   UNL A   1      46.756  43.386  25.460  1.00  0.00     0.041 A 
ATOM     31  Cl  UNL A   1      47.126  42.580  26.934  1.00  0.00    -0.084 Cl
ENDBRANCH  17  25
ENDBRANCH   9  10
ENDBRANCH   7   9
ENDBRANCH   4   5
ENDBRANCH   3   4
ENDBRANCH   2   3
ENDBRANCH   1   2
BRANCH   1  32
ATOM     32  C   UNL A   1      43.174  40.742  26.788  1.00  0.00     0.021 C 
BRANCH  32  33
ATOM     33  C   UNL A   1      43.423  39.238  26.825  1.00  0.00     0.116 C 
BRANCH  33  34
ATOM     34  N   UNL A   1      44.806  38.906  26.496  1.00  0.00    -0.352 N 
ATOM     35  C   UNL A   1      45.546  37.826  26.930  1.00  0.00     0.251 C 
ATOM     36  H   UNL A   1      45.266  39.529  25.889  1.00  0.00     0.163 HD
ATOM     37  O   UNL A   1      46.766  37.852  26.881  1.00  0.00    -0.269 OA
BRANCH  35  38
ATOM     38  C   UNL A   1      44.842  36.633  27.438  1.00  0.00     0.039 A 
ATOM     39  C   UNL A   1      44.110  35.818  26.567  1.00  0.00     0.014 A 
ATOM     40  C   UNL A   1      44.887  36.361  28.806  1.00  0.00     0.014 A 
ATOM     41  C   UNL A   1      43.468  34.692  27.074  1.00  0.00     0.010 A 
ATOM     42  C   UNL A   1      44.327  35.204  29.293  1.00  0.00     0.010 A 
ATOM     43  C   UNL A   1      43.587  34.391  28.437  1.00  0.00    -0.014 A 
BRANCH  43  44
ATOM     44  C   UNL A   1      43.014  33.165  28.979  1.00  0.00     0.031 A 
ATOM     45  C   UNL A   1      43.724  31.914  28.593  1.00  0.00     0.074 A 
ATOM     46  C   UNL A   1      42.094  33.195  29.964  1.00  0.00     0.049 A 
ATOM     47  N   UNL A   1      43.269  30.916  27.907  1.00  0.00    -0.248 NA
ATOM     48  C   UNL A   1      45.161  31.816  28.898  1.00  0.00     0.031 C 
ATOM     49  C   UNL A   1      41.575  34.372  30.670  1.00  0.00     0.029 A 
ATOM     50  N   UNL A   1      41.530  32.165  30.647  1.00  0.00    -0.354 N 
ATOM     51  C   UNL A   1      44.297  29.974  27.870  1.00  0.00     0.074 A 
ATOM     52  C   UNL A   1      45.483  30.656  28.322  1.00  0.00     0.031 C 
ATOM     53  C   UNL A   1      40.981  33.980  31.818  1.00  0.00     0.029 A 
ATOM     54  C   UNL A   1      40.944  32.528  31.852  1.00  0.00     0.049 A 
ATOM     55  H   UNL A   1      41.536  31.237  30.314  1.00  0.00     0.167 HD
ATOM     56  C   UNL A   1      44.053  28.643  27.689  1.00  0.00     0.034 A 
ATOM     57  C   UNL A   1      40.534  31.695  32.841  1.00  0.00     0.034 A 
ATOM     58  C   UNL A   1      42.695  28.412  27.281  1.00  0.00     0.049 A 
ATOM     59  C   UNL A   1      40.401  30.338  32.259  1.00  0.00     0.074 A 
ATOM     60  C   UNL A   1      41.933  28.780  26.192  1.00  0.00     0.029 A 
ATOM     61  N   UNL A   1      41.810  28.019  28.256  1.00  0.00    -0.354 N 
ATOM     62  N   UNL A   1      39.488  30.006  31.390  1.00  0.00    -0.248 NA
ATOM     63  C   UNL A   1      41.566  29.465  32.308  1.00  0.00     0.031 C 
ATOM     64  C   UNL A   1      40.637  29.035  26.723  1.00  0.00     0.029 A 
ATOM     65  C   UNL A   1      40.661  28.748  28.089  1.00  0.00     0.049 A 
ATOM     66  H   UNL A   1      41.971  27.338  28.949  1.00  0.00     0.167 HD
ATOM     67  C   UNL A   1      40.156  29.194  30.486  1.00  0.00     0.074 A 
ATOM     68  C   UNL A   1      41.392  28.802  31.162  1.00  0.00     0.031 C 
ATOM     69  C   UNL A   1      39.793  29.161  29.172  1.00  0.00     0.034 A 
BRANCH  56  70
ATOM     70  C   UNL A   1      44.923  27.531  28.222  1.00  0.00     0.023 A 
ATOM     71  C   UNL A   1      45.740  26.742  27.393  1.00  0.00     0.031 A 
ATOM     72  C   UNL A   1      45.137  27.391  29.609  1.00  0.00     0.131 A 
ATOM     73  C   UNL A   1      46.691  25.860  27.920  1.00  0.00     0.055 A 
ATOM     74  C   UNL A   1      46.135  26.561  30.136  1.00  0.00     0.041 A 
ATOM     75  F   UNL A   1      44.423  28.106  30.494  1.00  0.00    -0.206 F 
ATOM     76  C   UNL A   1      46.920  25.787  29.289  1.00  0.00     0.022 A 
BRANCH  73  77
ATOM     77  S   UNL A   1      47.674  24.812  26.813  1.00  0.00     0.124 S 
ATOM     78  O   UNL A   1      48.864  24.557  27.618  1.00  0.00    -0.237 OA
ATOM     79  O   UNL A   1      46.782  23.671  26.619  1.00  0.00    -0.237 OA
ATOM     80  O   UNL A   1      47.871  25.651  25.635  1.00  0.00    -0.744 OA
ENDBRANCH  73  77
ENDBRANCH  56  70
BRANCH  57  81
ATOM     81  C   UNL A   1      40.672  31.910  34.301  1.00  0.00     0.023 A 
ATOM     82  C   UNL A   1      39.526  32.028  35.107  1.00  0.00     0.031 A 
ATOM     83  C   UNL A   1      41.896  32.317  34.862  1.00  0.00     0.131 A 
ATOM     84  C   UNL A   1      39.603  32.601  36.383  1.00  0.00     0.055 A 
ATOM     85  C   UNL A   1      41.975  32.876  36.144  1.00  0.00     0.041 A 
ATOM     86  F   UNL A   1      43.030  32.251  34.146  1.00  0.00    -0.206 F 
ATOM     87  C   UNL A   1      40.821  33.036  36.906  1.00  0.00     0.022 A 
BRANCH  84  88
ATOM     88  S   UNL A   1      38.086  32.851  37.343  1.00  0.00     0.124 S 
ATOM     89  O   UNL A   1      38.156  31.782  38.337  1.00  0.00    -0.237 OA
ATOM     90  O   UNL A   1      38.279  34.203  37.857  1.00  0.00    -0.237 OA
ATOM     91  O   UNL A   1      37.029  32.696  36.347  1.00  0.00    -0.744 OA
ENDBRANCH  84  88
ENDBRANCH  57  81
BRANCH  69  92
ATOM     92  C   UNL A   1      38.506  29.833  28.755  1.00  0.00     0.023 A 
ATOM     93  C   UNL A   1      38.354  31.185  29.101  1.00  0.00     0.031 A 
ATOM     94  C   UNL A   1      37.370  29.151  28.280  1.00  0.00     0.131 A 
ATOM     95  C   UNL A   1      37.099  31.796  29.020  1.00  0.00     0.055 A 
ATOM     96  C   UNL A   1      36.130  29.783  28.138  1.00  0.00     0.041 A 
ATOM     97  F   UNL A   1      37.396  27.839  28.025  1.00  0.00    -0.206 F 
ATOM     98  C   UNL A   1      35.986  31.109  28.526  1.00  0.00     0.022 A 
BRANCH  95  99
ATOM     99  S   UNL A   1      36.853  33.457  29.693  1.00  0.00     0.124 S 
ATOM    100  O   UNL A   1      35.563  33.835  29.120  1.00  0.00    -0.237 OA
ATOM    101  O   UNL A   1      36.851  33.207  31.132  1.00  0.00    -0.237 OA
ATOM    102  O   UNL A   1      38.000  34.214  29.197  1.00  0.00    -0.744 OA
ENDBRANCH  95  99
ENDBRANCH  69  92
ENDBRANCH  43  44
ENDBRANCH  35  38
ENDBRANCH  33  34
ENDBRANCH  32  33
ENDBRANCH   1  32
TORSDOF 20
ENDMDL
MODEL 3
REMARK VINA RESULT:     -10.2      3.386      9.157
REMARK SMILES O=C(Cn1nc(C2CC2)c2c(C(F)F)cc(-c3ccc(Cl)cc3)nc21)NCCCCCCNC(=O)c1ccc(-c2c3nc(c(-c4cc(S(=O)(=O)[O-])ccc4F)c4ccc([nH]4)c(-c4cc(S(=O)(=O)[O-])ccc4F)c4nc(c(-c5cc(S(=O)(=O)[O-])ccc5F)c5ccc2[nH]5)C=C4)C=C3)cc1
REMARK SMILES IDX 30 1 29 2 28 3 27 4 26 5 1 6 2 7 3 9 4 10 5 11 25 12 6 13
REMARK SMILES IDX 10 14 24 15 11 16 16 17 15 18 7 19 8 20 9 21 12 22 13 23
REMARK SMILES IDX 14 24 17 25 18 26 23 27 19 28 22 29 20 30 21 31 31 32 32 33
REMARK SMILES IDX 33 34 34 35 35 37 36 38 37 39 98 40 38 41 97 42 39 43 40 44
REMARK SMILES IDX 41 45 91 46 42 47 96 48 90 49 92 50 43 51 95 52 89 53 88 54
REMARK SMILES IDX 44 56 76 57 56 58 75 59 57 60 60 61 74 62 93 63 58 64 59 65
REMARK SMILES IDX 73 67 94 68 61 69 45 70 46 71 54 72 47 73 53 74 55 75 52 76
REMARK SMILES IDX 48 77 49 78 50 79 51 80 77 81 78 82 86 83 79 84 85 85 87 86
REMARK SMILES IDX 84 87 80 88 81 89 82 90 83 91 62 92 63 93 71 94 64 95 70 96
REMARK SMILES IDX 72 97 69 98 65 99 66 100 67 101 68 102
REMARK H PARENT 26 8 33 36 92 55 60 66
REMARK Flexibility Score: inf
ROOT
ATOM      1  C   UNL A   1      35.597  33.620  31.309  1.00  0.00     0.002 C 
ENDROOT
BRANCH   1   2
ATOM      2  C   UNL A   1      35.233  32.296  31.994  1.00  0.00     0.002 C 
BRANCH   2   3
ATOM      3  C   UNL A   1      36.320  31.212  31.990  1.00  0.00     0.021 C 
BRANCH   3   4
ATOM      4  C   UNL A   1      37.068  31.034  33.308  1.00  0.00     0.116 C 
BRANCH   4   5
ATOM      5  N   UNL A   1      37.531  32.294  33.851  1.00  0.00    -0.354 N 
ATOM      6  O   UNL A   1      39.614  31.539  34.481  1.00  0.00    -0.273 OA
ATOM      7  C   UNL A   1      38.811  32.458  34.342  1.00  0.00     0.241 C 
ATOM      8  H   UNL A   1      36.911  33.059  33.872  1.00  0.00     0.163 HD
BRANCH   7   9
ATOM      9  C   UNL A   1      39.136  33.863  34.781  1.00  0.00     0.246 C 
BRANCH   9  10
ATOM     10  N   UNL A   1      40.522  34.110  35.150  1.00  0.00    -0.237 N 
ATOM     11  N   UNL A   1      40.841  33.964  36.446  1.00  0.00    -0.175 NA
ATOM     12  C   UNL A   1      41.589  34.483  34.380  1.00  0.00     0.159 A 
ATOM     13  C   UNL A   1      42.138  34.287  36.522  1.00  0.00     0.076 A 
ATOM     14  C   UNL A   1      42.695  34.608  35.238  1.00  0.00     0.051 A 
ATOM     15  N   UNL A   1      41.549  34.686  33.046  1.00  0.00    -0.228 NA
ATOM     16  C   UNL A   1      43.924  34.971  34.617  1.00  0.00     0.033 A 
ATOM     17  C   UNL A   1      42.718  35.009  32.486  1.00  0.00     0.073 A 
ATOM     18  C   UNL A   1      43.887  35.158  33.216  1.00  0.00     0.039 A 
BRANCH  13  19
ATOM     19  C   UNL A   1      42.696  34.263  37.943  1.00  0.00     0.041 C 
ATOM     20  C   UNL A   1      44.148  34.174  38.308  1.00  0.00     0.011 C 
ATOM     21  C   UNL A   1      43.426  35.471  38.476  1.00  0.00     0.011 C 
ENDBRANCH  13  19
BRANCH  16  22
ATOM     22  C   UNL A   1      45.288  35.113  35.238  1.00  0.00     0.373 C 
ATOM     23  F   UNL A   1      46.284  34.488  34.563  1.00  0.00    -0.205 F 
ATOM     24  F   UNL A   1      45.660  36.410  35.406  1.00  0.00    -0.205 F 
ENDBRANCH  16  22
BRANCH  17  25
ATOM     25  C   UNL A   1      42.750  35.210  31.034  1.00  0.00     0.000 A 
ATOM     26  C   UNL A   1      41.725  34.716  30.212  1.00  0.00     0.012 A 
ATOM     27  C   UNL A   1      43.742  36.019  30.452  1.00  0.00     0.012 A 
ATOM     28  C   UNL A   1      41.662  35.064  28.858  1.00  0.00     0.021 A 
ATOM     29  C   UNL A   1      43.680  36.370  29.102  1.00  0.00     0.021 A 
ATOM     30  C   UNL A   1      42.630  35.904  28.315  1.00  0.00     0.041 A 
ATOM     31  Cl  UNL A   1      42.512  36.401  26.672  1.00  0.00    -0.084 Cl
ENDBRANCH  17  25
ENDBRANCH   9  10
ENDBRANCH   7   9
ENDBRANCH   4   5
ENDBRANCH   3   4
ENDBRANCH   2   3
ENDBRANCH   1   2
BRANCH   1  32
ATOM     32  C   UNL A   1      34.588  34.141  30.276  1.00  0.00     0.021 C 
BRANCH  32  33
ATOM     33  C   UNL A   1      34.943  33.789  28.836  1.00  0.00     0.116 C 
BRANCH  33  34
ATOM     34  N   UNL A   1      34.085  32.734  28.305  1.00  0.00    -0.352 N 
ATOM     35  C   UNL A   1      34.459  31.499  27.817  1.00  0.00     0.251 C 
ATOM     36  H   UNL A   1      33.120  32.928  28.294  1.00  0.00     0.163 HD
ATOM     37  O   UNL A   1      33.711  30.870  27.084  1.00  0.00    -0.269 OA
BRANCH  35  38
ATOM     38  C   UNL A   1      35.769  30.944  28.206  1.00  0.00     0.039 A 
ATOM     39  C   UNL A   1      35.945  29.560  28.321  1.00  0.00     0.014 A 
ATOM     40  C   UNL A   1      36.812  31.824  28.494  1.00  0.00     0.014 A 
ATOM     41  C   UNL A   1      37.196  29.064  28.676  1.00  0.00     0.010 A 
ATOM     42  C   UNL A   1      38.069  31.335  28.759  1.00  0.00     0.010 A 
ATOM     43  C   UNL A   1      38.253  29.959  28.888  1.00  0.00    -0.014 A 
BRANCH  43  44
ATOM     44  C   UNL A   1      39.598  29.469  29.159  1.00  0.00     0.031 A 
ATOM     45  C   UNL A   1      39.878  29.154  30.588  1.00  0.00     0.074 A 
ATOM     46  C   UNL A   1      40.418  29.076  28.163  1.00  0.00     0.049 A 
ATOM     47  N   UNL A   1      40.746  29.704  31.372  1.00  0.00    -0.248 NA
ATOM     48  C   UNL A   1      38.992  28.194  31.267  1.00  0.00     0.031 C 
ATOM     49  C   UNL A   1      40.116  29.011  26.728  1.00  0.00     0.029 A 
ATOM     50  N   UNL A   1      41.651  28.511  28.235  1.00  0.00    -0.354 N 
ATOM     51  C   UNL A   1      40.658  29.020  32.584  1.00  0.00     0.074 A 
ATOM     52  C   UNL A   1      39.445  28.246  32.520  1.00  0.00     0.031 C 
ATOM     53  C   UNL A   1      41.025  28.223  26.114  1.00  0.00     0.029 A 
ATOM     54  C   UNL A   1      42.049  27.856  27.077  1.00  0.00     0.049 A 
ATOM     55  H   UNL A   1      42.215  28.562  29.041  1.00  0.00     0.167 HD
ATOM     56  C   UNL A   1      41.704  28.961  33.460  1.00  0.00     0.034 A 
ATOM     57  C   UNL A   1      43.099  27.007  26.943  1.00  0.00     0.034 A 
ATOM     58  C   UNL A   1      42.738  29.891  33.100  1.00  0.00     0.049 A 
ATOM     59  C   UNL A   1      44.006  27.229  28.094  1.00  0.00     0.074 A 
ATOM     60  C   UNL A   1      42.813  31.263  32.982  1.00  0.00     0.029 A 
ATOM     61  N   UNL A   1      43.820  29.386  32.418  1.00  0.00    -0.354 N 
ATOM     62  N   UNL A   1      44.707  28.314  28.268  1.00  0.00    -0.248 NA
ATOM     63  C   UNL A   1      43.792  26.425  29.289  1.00  0.00     0.031 C 
ATOM     64  C   UNL A   1      43.654  31.487  31.856  1.00  0.00     0.029 A 
ATOM     65  C   UNL A   1      44.099  30.248  31.390  1.00  0.00     0.049 A 
ATOM     66  H   UNL A   1      44.306  28.556  32.630  1.00  0.00     0.167 HD
ATOM     67  C   UNL A   1      44.616  28.566  29.629  1.00  0.00     0.074 A 
ATOM     68  C   UNL A   1      44.144  27.314  30.220  1.00  0.00     0.031 C 
ATOM     69  C   UNL A   1      44.639  29.842  30.109  1.00  0.00     0.034 A 
BRANCH  56  70
ATOM     70  C   UNL A   1      41.954  27.827  34.423  1.00  0.00     0.023 A 
ATOM     71  C   UNL A   1      42.678  26.674  34.067  1.00  0.00     0.031 A 
ATOM     72  C   UNL A   1      41.678  27.978  35.798  1.00  0.00     0.131 A 
ATOM     73  C   UNL A   1      43.079  25.732  35.021  1.00  0.00     0.055 A 
ATOM     74  C   UNL A   1      42.138  27.071  36.762  1.00  0.00     0.041 A 
ATOM     75  F   UNL A   1      41.005  29.047  36.253  1.00  0.00    -0.206 F 
ATOM     76  C   UNL A   1      42.843  25.939  36.375  1.00  0.00     0.022 A 
BRANCH  73  77
ATOM     77  S   UNL A   1      43.950  24.227  34.506  1.00  0.00     0.124 S 
ATOM     78  O   UNL A   1      45.056  24.180  35.456  1.00  0.00    -0.237 OA
ATOM     79  O   UNL A   1      42.915  23.212  34.683  1.00  0.00    -0.237 OA
ATOM     80  O   UNL A   1      44.315  24.503  33.119  1.00  0.00    -0.744 OA
ENDBRANCH  73  77
ENDBRANCH  56  70
BRANCH  57  81
ATOM     81  C   UNL A   1      43.138  25.758  26.146  1.00  0.00     0.023 A 
ATOM     82  C   UNL A   1      42.302  24.679  26.483  1.00  0.00     0.031 A 
ATOM     83  C   UNL A   1      44.201  25.495  25.263  1.00  0.00     0.131 A 
ATOM     84  C   UNL A   1      42.576  23.387  26.015  1.00  0.00     0.055 A 
ATOM     85  C   UNL A   1      44.465  24.206  24.782  1.00  0.00     0.041 A 
ATOM     86  F   UNL A   1      45.052  26.472  24.909  1.00  0.00    -0.206 F 
ATOM     87  C   UNL A   1      43.660  23.140  25.173  1.00  0.00     0.022 A 
BRANCH  84  88
ATOM     88  S   UNL A   1      41.550  22.000  26.572  1.00  0.00     0.124 S 
ATOM     89  O   UNL A   1      40.194  22.497  26.354  1.00  0.00    -0.237 OA
ATOM     90  O   UNL A   1      41.982  20.933  25.676  1.00  0.00    -0.237 OA
ATOM     91  O   UNL A   1      41.928  21.844  27.974  1.00  0.00    -0.744 OA
ENDBRANCH  84  88
ENDBRANCH  57  81
BRANCH  69  92
ATOM     92  C   UNL A   1      45.005  30.967  29.170  1.00  0.00     0.023 A 
ATOM     93  C   UNL A   1      46.323  31.443  29.232  1.00  0.00     0.031 A 
ATOM     94  C   UNL A   1      44.073  31.722  28.432  1.00  0.00     0.131 A 
ATOM     95  C   UNL A   1      46.664  32.654  28.622  1.00  0.00     0.055 A 
ATOM     96  C   UNL A   1      44.433  32.899  27.769  1.00  0.00     0.041 A 
ATOM     97  F   UNL A   1      42.776  31.400  28.404  1.00  0.00    -0.206 F 
ATOM     98  C   UNL A   1      45.732  33.381  27.876  1.00  0.00     0.022 A 
BRANCH  95  99
ATOM     99  S   UNL A   1      48.293  33.388  28.906  1.00  0.00     0.124 S 
ATOM    100  O   UNL A   1      48.042  34.805  28.661  1.00  0.00    -0.237 OA
ATOM    101  O   UNL A   1      48.552  33.028  30.299  1.00  0.00    -0.237 OA
ATOM    102  O   UNL A   1      49.154  32.730  27.927  1.00  0.00    -0.744 OA
ENDBRANCH  95  99
ENDBRANCH  69  92
ENDBRANCH  43  44
ENDBRANCH  35  38
ENDBRANCH  33  34
ENDBRANCH  32  33
ENDBRANCH   1  32
TORSDOF 20
ENDMDL
