MODEL 1
REMARK VINA RESULT:     -11.5      0.000      0.000
REMARK SMILES Cc1cccc(C(=O)NCCCCCCNC(=O)c2ccc(-c3c4nc(c(-c5cc(S(=O)(=O)[O-])ccc5F)c5ccc([nH]5)c(-c5cc(S(=O)(=O)[O-])ccc5F)c5nc(c(-c6cc(S(=O)(=O)[O-])ccc6F)c6ccc3[nH]6)C=C5)C=C4)cc2)c1O[C@H](C)[C@H](C)O
REMARK SMILES IDX 12 1 11 2 10 3 9 4 7 5 8 6 6 8 1 9 2 10 3 11 82 12 4 13 5 14
REMARK SMILES IDX 83 15 84 16 85 17 86 18 87 19 88 20 13 22 14 23 15 24 16 25
REMARK SMILES IDX 17 26 18 28 19 29 20 30 81 31 21 32 80 33 22 34 23 35 24 36
REMARK SMILES IDX 74 37 25 38 79 39 73 40 75 41 26 42 78 43 72 44 71 45 27 47
REMARK SMILES IDX 59 48 39 49 58 50 40 51 43 52 57 53 76 54 41 55 42 56 56 58
REMARK SMILES IDX 77 59 44 60 28 61 29 62 37 63 30 64 36 65 38 66 35 67 31 68
REMARK SMILES IDX 32 69 33 70 34 71 60 72 61 73 69 74 62 75 68 76 70 77 67 78
REMARK SMILES IDX 63 79 64 80 65 81 66 82 45 83 46 84 54 85 47 86 53 87 55 88
REMARK SMILES IDX 52 89 48 90 49 91 50 92 51 93
REMARK H PARENT 9 7 88 21 16 27 75 46 43 57
REMARK Flexibility Score: inf
ROOT
ATOM      1  C   UNL A   1      31.769  28.726  26.724  1.00  0.00     0.002 C 
ENDROOT
BRANCH   1   2
ATOM      2  C   UNL A   1      31.971  27.348  26.073  1.00  0.00     0.021 C 
BRANCH   2   3
ATOM      3  C   UNL A   1      30.724  26.471  25.832  1.00  0.00     0.116 C 
BRANCH   3   4
ATOM      4  N   UNL A   1      31.105  25.058  25.505  1.00  0.00    -0.352 N 
ATOM      5  C   UNL A   1      31.774  24.163  26.350  1.00  0.00     0.255 C 
ATOM      6  O   UNL A   1      31.179  23.837  27.383  1.00  0.00    -0.269 OA
ATOM      7  H   UNL A   1      30.862  24.729  24.609  1.00  0.00     0.163 HD
BRANCH   5   8
ATOM      8  C   UNL A   1      33.025  23.322  25.945  1.00  0.00     0.082 A 
ATOM      9  C   UNL A   1      36.291  23.042  23.865  1.00  0.00     0.048 C 
ATOM     10  C   UNL A   1      35.248  22.806  24.945  1.00  0.00    -0.008 A 
ATOM     11  C   UNL A   1      35.570  21.957  25.998  1.00  0.00     0.007 A 
ATOM     12  C   UNL A   1      33.947  23.403  24.864  1.00  0.00     0.135 A 
ATOM     13  C   UNL A   1      34.635  21.744  26.995  1.00  0.00     0.001 A 
ATOM     14  C   UNL A   1      33.410  22.435  26.982  1.00  0.00     0.018 A 
BRANCH  12  15
ATOM     15  O   UNL A   1      33.888  23.963  23.627  1.00  0.00    -0.487 OA
BRANCH  15  16
ATOM     16  C   UNL A   1      32.794  23.814  22.745  1.00  0.00     0.198 C 
ATOM     17  C   UNL A   1      32.672  22.299  22.733  1.00  0.00     0.056 C 
BRANCH  16  18
ATOM     18  C   UNL A   1      32.835  24.980  21.692  1.00  0.00     0.151 C 
ATOM     19  C   UNL A   1      31.765  26.052  21.780  1.00  0.00     0.042 C 
BRANCH  18  20
ATOM     20  O   UNL A   1      33.007  24.677  20.317  1.00  0.00    -0.390 OA
ATOM     21  H   UNL A   1      32.140  24.647  19.882  1.00  0.00     0.211 HD
ENDBRANCH  18  20
ENDBRANCH  16  18
ENDBRANCH  15  16
ENDBRANCH  12  15
ENDBRANCH   5   8
ENDBRANCH   3   4
ENDBRANCH   2   3
ENDBRANCH   1   2
BRANCH   1  22
ATOM     22  C   UNL A   1      32.304  29.959  25.991  1.00  0.00     0.002 C 
BRANCH  22  23
ATOM     23  C   UNL A   1      33.449  30.706  26.661  1.00  0.00     0.021 C 
BRANCH  23  24
ATOM     24  C   UNL A   1      33.721  30.335  28.116  1.00  0.00     0.116 C 
BRANCH  24  25
ATOM     25  N   UNL A   1      34.481  31.326  28.872  1.00  0.00    -0.352 N 
ATOM     26  C   UNL A   1      35.757  31.226  29.420  1.00  0.00     0.251 C 
ATOM     27  H   UNL A   1      34.027  32.188  29.015  1.00  0.00     0.163 HD
ATOM     28  O   UNL A   1      36.253  32.136  30.048  1.00  0.00    -0.269 OA
BRANCH  26  29
ATOM     29  C   UNL A   1      36.562  30.015  29.110  1.00  0.00     0.039 A 
ATOM     30  C   UNL A   1      37.067  29.284  30.192  1.00  0.00     0.014 A 
ATOM     31  C   UNL A   1      37.008  29.763  27.817  1.00  0.00     0.014 A 
ATOM     32  C   UNL A   1      38.206  28.505  30.009  1.00  0.00     0.010 A 
ATOM     33  C   UNL A   1      38.190  29.074  27.649  1.00  0.00     0.010 A 
ATOM     34  C   UNL A   1      38.823  28.508  28.758  1.00  0.00    -0.014 A 
BRANCH  34  35
ATOM     35  C   UNL A   1      40.186  28.045  28.553  1.00  0.00     0.031 A 
ATOM     36  C   UNL A   1      40.464  26.610  28.397  1.00  0.00     0.074 A 
ATOM     37  C   UNL A   1      41.204  28.933  28.515  1.00  0.00     0.049 A 
ATOM     38  N   UNL A   1      41.563  26.052  28.773  1.00  0.00    -0.248 NA
ATOM     39  C   UNL A   1      39.495  25.672  27.839  1.00  0.00     0.031 C 
ATOM     40  C   UNL A   1      42.592  28.678  28.145  1.00  0.00     0.029 A 
ATOM     41  N   UNL A   1      41.217  30.224  29.042  1.00  0.00    -0.354 N 
ATOM     42  C   UNL A   1      41.565  24.773  28.278  1.00  0.00     0.074 A 
ATOM     43  C   UNL A   1      40.229  24.556  27.770  1.00  0.00     0.031 C 
ATOM     44  C   UNL A   1      43.364  29.643  28.669  1.00  0.00     0.029 A 
ATOM     45  C   UNL A   1      42.520  30.472  29.511  1.00  0.00     0.049 A 
ATOM     46  H   UNL A   1      40.454  30.846  29.079  1.00  0.00     0.167 HD
ATOM     47  C   UNL A   1      42.731  24.074  28.223  1.00  0.00     0.034 A 
ATOM     48  C   UNL A   1      42.739  30.733  30.832  1.00  0.00     0.034 A 
ATOM     49  C   UNL A   1      43.860  24.850  28.726  1.00  0.00     0.049 A 
ATOM     50  C   UNL A   1      43.583  29.691  31.546  1.00  0.00     0.074 A 
ATOM     51  C   UNL A   1      44.879  25.570  28.124  1.00  0.00     0.029 A 
ATOM     52  N   UNL A   1      43.887  25.202  30.064  1.00  0.00    -0.354 N 
ATOM     53  N   UNL A   1      44.049  28.600  31.001  1.00  0.00    -0.248 NA
ATOM     54  C   UNL A   1      43.886  29.766  32.975  1.00  0.00     0.031 C 
ATOM     55  C   UNL A   1      45.522  26.354  29.124  1.00  0.00     0.029 A 
ATOM     56  C   UNL A   1      44.910  26.089  30.335  1.00  0.00     0.049 A 
ATOM     57  H   UNL A   1      43.254  24.863  30.738  1.00  0.00     0.167 HD
ATOM     58  C   UNL A   1      44.615  27.805  31.969  1.00  0.00     0.074 A 
ATOM     59  C   UNL A   1      44.493  28.587  33.188  1.00  0.00     0.031 C 
ATOM     60  C   UNL A   1      45.088  26.546  31.704  1.00  0.00     0.034 A 
BRANCH  47  61
ATOM     61  C   UNL A   1      42.875  22.789  27.454  1.00  0.00     0.023 A 
ATOM     62  C   UNL A   1      43.872  22.690  26.466  1.00  0.00     0.031 A 
ATOM     63  C   UNL A   1      42.062  21.654  27.625  1.00  0.00     0.131 A 
ATOM     64  C   UNL A   1      43.965  21.564  25.634  1.00  0.00     0.055 A 
ATOM     65  C   UNL A   1      42.120  20.549  26.765  1.00  0.00     0.041 A 
ATOM     66  F   UNL A   1      41.199  21.560  28.650  1.00  0.00    -0.206 F 
ATOM     67  C   UNL A   1      43.067  20.506  25.751  1.00  0.00     0.022 A 
BRANCH  64  68
ATOM     68  S   UNL A   1      45.287  21.507  24.395  1.00  0.00     0.124 S 
ATOM     69  O   UNL A   1      45.557  20.075  24.298  1.00  0.00    -0.237 OA
ATOM     70  O   UNL A   1      44.651  22.122  23.236  1.00  0.00    -0.237 OA
ATOM     71  O   UNL A   1      46.356  22.296  25.005  1.00  0.00    -0.744 OA
ENDBRANCH  64  68
ENDBRANCH  47  61
BRANCH  48  72
ATOM     72  C   UNL A   1      41.631  31.511  31.459  1.00  0.00     0.023 A 
ATOM     73  C   UNL A   1      40.683  30.809  32.235  1.00  0.00     0.031 A 
ATOM     74  C   UNL A   1      41.713  32.901  31.620  1.00  0.00     0.131 A 
ATOM     75  C   UNL A   1      39.941  31.480  33.219  1.00  0.00     0.055 A 
ATOM     76  C   UNL A   1      40.951  33.569  32.585  1.00  0.00     0.041 A 
ATOM     77  F   UNL A   1      42.619  33.615  30.935  1.00  0.00    -0.206 F 
ATOM     78  C   UNL A   1      40.092  32.855  33.418  1.00  0.00     0.022 A 
BRANCH  75  79
ATOM     79  S   UNL A   1      38.931  30.528  34.391  1.00  0.00     0.124 S 
ATOM     80  O   UNL A   1      38.188  29.641  33.503  1.00  0.00    -0.237 OA
ATOM     81  O   UNL A   1      39.927  29.883  35.242  1.00  0.00    -0.237 OA
ATOM     82  O   UNL A   1      38.141  31.562  35.056  1.00  0.00    -0.744 OA
ENDBRANCH  75  79
ENDBRANCH  48  72
BRANCH  60  83
ATOM     83  C   UNL A   1      45.708  25.609  32.726  1.00  0.00     0.023 A 
ATOM     84  C   UNL A   1      44.945  24.804  33.583  1.00  0.00     0.031 A 
ATOM     85  C   UNL A   1      47.113  25.535  32.918  1.00  0.00     0.131 A 
ATOM     86  C   UNL A   1      45.557  23.903  34.475  1.00  0.00     0.055 A 
ATOM     87  C   UNL A   1      47.717  24.691  33.852  1.00  0.00     0.041 A 
ATOM     88  F   UNL A   1      47.974  26.261  32.193  1.00  0.00    -0.206 F 
ATOM     89  C   UNL A   1      46.941  23.847  34.624  1.00  0.00     0.022 A 
BRANCH  86  90
ATOM     90  S   UNL A   1      44.506  22.757  35.402  1.00  0.00     0.124 S 
ATOM     91  O   UNL A   1      44.730  21.493  34.709  1.00  0.00    -0.237 OA
ATOM     92  O   UNL A   1      45.072  22.853  36.745  1.00  0.00    -0.237 OA
ATOM     93  O   UNL A   1      43.165  23.319  35.253  1.00  0.00    -0.744 OA
ENDBRANCH  86  90
ENDBRANCH  60  83
ENDBRANCH  34  35
ENDBRANCH  26  29
ENDBRANCH  24  25
ENDBRANCH  23  24
ENDBRANCH  22  23
ENDBRANCH   1  22
TORSDOF 20
ENDMDL
MODEL 2
REMARK VINA RESULT:     -11.4      3.964     10.101
REMARK SMILES Cc1cccc(C(=O)NCCCCCCNC(=O)c2ccc(-c3c4nc(c(-c5cc(S(=O)(=O)[O-])ccc5F)c5ccc([nH]5)c(-c5cc(S(=O)(=O)[O-])ccc5F)c5nc(c(-c6cc(S(=O)(=O)[O-])ccc6F)c6ccc3[nH]6)C=C5)C=C4)cc2)c1O[C@H](C)[C@H](C)O
REMARK SMILES IDX 12 1 11 2 10 3 9 4 7 5 8 6 6 8 1 9 2 10 3 11 82 12 4 13 5 14
REMARK SMILES IDX 83 15 84 16 85 17 86 18 87 19 88 20 13 22 14 23 15 24 16 25
REMARK SMILES IDX 17 26 18 28 19 29 20 30 81 31 21 32 80 33 22 34 23 35 24 36
REMARK SMILES IDX 74 37 25 38 79 39 73 40 75 41 26 42 78 43 72 44 71 45 27 47
REMARK SMILES IDX 59 48 39 49 58 50 40 51 43 52 57 53 76 54 41 55 42 56 56 58
REMARK SMILES IDX 77 59 44 60 28 61 29 62 37 63 30 64 36 65 38 66 35 67 31 68
REMARK SMILES IDX 32 69 33 70 34 71 60 72 61 73 69 74 62 75 68 76 70 77 67 78
REMARK SMILES IDX 63 79 64 80 65 81 66 82 45 83 46 84 54 85 47 86 53 87 55 88
REMARK SMILES IDX 52 89 48 90 49 91 50 92 51 93
REMARK H PARENT 9 7 88 21 16 27 75 46 43 57
REMARK Flexibility Score: inf
ROOT
ATOM      1  C   UNL A   1      35.219  22.426  26.478  1.00  0.00     0.002 C 
ENDROOT
BRANCH   1   2
ATOM      2  C   UNL A   1      33.938  21.659  26.848  1.00  0.00     0.021 C 
BRANCH   2   3
ATOM      3  C   UNL A   1      32.585  22.254  26.405  1.00  0.00     0.116 C 
BRANCH   3   4
ATOM      4  N   UNL A   1      32.454  23.687  26.826  1.00  0.00    -0.352 N 
ATOM      5  C   UNL A   1      31.869  24.720  26.081  1.00  0.00     0.255 C 
ATOM      6  O   UNL A   1      30.662  24.607  25.841  1.00  0.00    -0.269 OA
ATOM      7  H   UNL A   1      32.813  23.924  27.712  1.00  0.00     0.163 HD
BRANCH   5   8
ATOM      8  C   UNL A   1      32.527  26.111  25.819  1.00  0.00     0.082 A 
ATOM      9  C   UNL A   1      33.995  28.651  23.276  1.00  0.00     0.048 C 
ATOM     10  C   UNL A   1      33.371  28.073  24.536  1.00  0.00    -0.008 A 
ATOM     11  C   UNL A   1      32.954  28.952  25.528  1.00  0.00     0.007 A 
ATOM     12  C   UNL A   1      33.254  26.656  24.724  1.00  0.00     0.135 A 
ATOM     13  C   UNL A   1      32.372  28.440  26.675  1.00  0.00     0.001 A 
ATOM     14  C   UNL A   1      32.137  27.059  26.798  1.00  0.00     0.018 A 
BRANCH  12  15
ATOM     15  O   UNL A   1      33.953  26.101  23.699  1.00  0.00    -0.487 OA
BRANCH  15  16
ATOM     16  C   UNL A   1      33.477  25.032  22.906  1.00  0.00     0.198 C 
ATOM     17  C   UNL A   1      34.468  23.950  23.305  1.00  0.00     0.056 C 
BRANCH  16  18
ATOM     18  C   UNL A   1      32.877  25.619  21.578  1.00  0.00     0.151 C 
ATOM     19  C   UNL A   1      31.511  26.276  21.647  1.00  0.00     0.042 C 
BRANCH  18  20
ATOM     20  O   UNL A   1      32.903  24.840  20.392  1.00  0.00    -0.390 OA
ATOM     21  H   UNL A   1      33.600  24.170  20.461  1.00  0.00     0.211 HD
ENDBRANCH  18  20
ENDBRANCH  16  18
ENDBRANCH  15  16
ENDBRANCH  12  15
ENDBRANCH   5   8
ENDBRANCH   3   4
ENDBRANCH   2   3
ENDBRANCH   1   2
BRANCH   1  22
ATOM     22  C   UNL A   1      36.345  21.659  25.778  1.00  0.00     0.002 C 
BRANCH  22  23
ATOM     23  C   UNL A   1      37.420  22.497  25.100  1.00  0.00     0.021 C 
BRANCH  23  24
ATOM     24  C   UNL A   1      38.015  23.621  25.944  1.00  0.00     0.116 C 
BRANCH  24  25
ATOM     25  N   UNL A   1      39.434  23.472  26.255  1.00  0.00    -0.352 N 
ATOM     26  C   UNL A   1      40.304  24.380  26.850  1.00  0.00     0.251 C 
ATOM     27  H   UNL A   1      39.832  22.605  26.009  1.00  0.00     0.163 HD
ATOM     28  O   UNL A   1      41.475  24.119  27.026  1.00  0.00    -0.269 OA
BRANCH  26  29
ATOM     29  C   UNL A   1      39.739  25.645  27.390  1.00  0.00     0.039 A 
ATOM     30  C   UNL A   1      40.005  26.823  26.680  1.00  0.00     0.014 A 
ATOM     31  C   UNL A   1      39.193  25.698  28.668  1.00  0.00     0.014 A 
ATOM     32  C   UNL A   1      39.981  28.039  27.356  1.00  0.00     0.010 A 
ATOM     33  C   UNL A   1      39.263  26.884  29.367  1.00  0.00     0.010 A 
ATOM     34  C   UNL A   1      39.727  28.036  28.727  1.00  0.00    -0.014 A 
BRANCH  34  35
ATOM     35  C   UNL A   1      40.034  29.169  29.587  1.00  0.00     0.031 A 
ATOM     36  C   UNL A   1      39.024  30.209  29.828  1.00  0.00     0.074 A 
ATOM     37  C   UNL A   1      41.254  29.272  30.159  1.00  0.00     0.049 A 
ATOM     38  N   UNL A   1      39.314  31.444  30.051  1.00  0.00    -0.248 NA
ATOM     39  C   UNL A   1      37.590  29.944  29.793  1.00  0.00     0.031 C 
ATOM     40  C   UNL A   1      41.679  30.226  31.177  1.00  0.00     0.029 A 
ATOM     41  N   UNL A   1      42.435  28.659  29.741  1.00  0.00    -0.354 N 
ATOM     42  C   UNL A   1      38.161  32.073  30.447  1.00  0.00     0.074 A 
ATOM     43  C   UNL A   1      37.102  31.120  30.200  1.00  0.00     0.031 C 
ATOM     44  C   UNL A   1      43.017  30.329  31.141  1.00  0.00     0.029 A 
ATOM     45  C   UNL A   1      43.488  29.553  30.006  1.00  0.00     0.049 A 
ATOM     46  H   UNL A   1      42.516  27.765  29.336  1.00  0.00     0.167 HD
ATOM     47  C   UNL A   1      38.232  33.279  31.071  1.00  0.00     0.034 A 
ATOM     48  C   UNL A   1      44.256  30.036  28.987  1.00  0.00     0.034 A 
ATOM     49  C   UNL A   1      39.609  33.735  31.232  1.00  0.00     0.049 A 
ATOM     50  C   UNL A   1      44.150  31.538  28.778  1.00  0.00     0.074 A 
ATOM     51  C   UNL A   1      40.509  33.732  32.286  1.00  0.00     0.029 A 
ATOM     52  N   UNL A   1      40.349  34.036  30.103  1.00  0.00    -0.354 N 
ATOM     53  N   UNL A   1      43.375  32.338  29.458  1.00  0.00    -0.248 NA
ATOM     54  C   UNL A   1      44.857  32.235  27.705  1.00  0.00     0.031 C 
ATOM     55  C   UNL A   1      41.799  34.044  31.770  1.00  0.00     0.029 A 
ATOM     56  C   UNL A   1      41.677  34.262  30.410  1.00  0.00     0.049 A 
ATOM     57  H   UNL A   1      39.977  34.083  29.192  1.00  0.00     0.167 HD
ATOM     58  C   UNL A   1      43.396  33.592  28.895  1.00  0.00     0.074 A 
ATOM     59  C   UNL A   1      44.347  33.474  27.802  1.00  0.00     0.031 C 
ATOM     60  C   UNL A   1      42.590  34.609  29.333  1.00  0.00     0.034 A 
BRANCH  47  61
ATOM     61  C   UNL A   1      37.058  33.902  31.777  1.00  0.00     0.023 A 
ATOM     62  C   UNL A   1      35.903  34.215  31.039  1.00  0.00     0.031 A 
ATOM     63  C   UNL A   1      37.024  34.230  33.145  1.00  0.00     0.131 A 
ATOM     64  C   UNL A   1      34.832  34.913  31.620  1.00  0.00     0.055 A 
ATOM     65  C   UNL A   1      35.979  34.970  33.716  1.00  0.00     0.041 A 
ATOM     66  F   UNL A   1      37.988  33.823  33.986  1.00  0.00    -0.206 F 
ATOM     67  C   UNL A   1      34.880  35.329  32.948  1.00  0.00     0.022 A 
BRANCH  64  68
ATOM     68  S   UNL A   1      33.372  35.264  30.605  1.00  0.00     0.124 S 
ATOM     69  O   UNL A   1      33.410  34.182  29.626  1.00  0.00    -0.237 OA
ATOM     70  O   UNL A   1      32.294  35.208  31.585  1.00  0.00    -0.237 OA
ATOM     71  O   UNL A   1      33.648  36.595  30.065  1.00  0.00    -0.744 OA
ENDBRANCH  64  68
ENDBRANCH  47  61
BRANCH  48  72
ATOM     72  C   UNL A   1      44.471  29.035  27.902  1.00  0.00     0.023 A 
ATOM     73  C   UNL A   1      45.347  27.958  28.157  1.00  0.00     0.031 A 
ATOM     74  C   UNL A   1      43.579  28.918  26.827  1.00  0.00     0.131 A 
ATOM     75  C   UNL A   1      45.230  26.766  27.427  1.00  0.00     0.055 A 
ATOM     76  C   UNL A   1      43.485  27.736  26.084  1.00  0.00     0.041 A 
ATOM     77  F   UNL A   1      42.700  29.895  26.559  1.00  0.00    -0.206 F 
ATOM     78  C   UNL A   1      44.282  26.639  26.409  1.00  0.00     0.022 A 
BRANCH  75  79
ATOM     79  S   UNL A   1      46.169  25.299  27.942  1.00  0.00     0.124 S 
ATOM     80  O   UNL A   1      46.979  25.822  29.035  1.00  0.00    -0.237 OA
ATOM     81  O   UNL A   1      45.125  24.352  28.324  1.00  0.00    -0.237 OA
ATOM     82  O   UNL A   1      46.901  24.937  26.730  1.00  0.00    -0.744 OA
ENDBRANCH  75  79
ENDBRANCH  48  72
BRANCH  60  83
ATOM     83  C   UNL A   1      42.549  36.010  28.748  1.00  0.00     0.023 A 
ATOM     84  C   UNL A   1      43.053  37.131  29.423  1.00  0.00     0.031 A 
ATOM     85  C   UNL A   1      41.939  36.281  27.496  1.00  0.00     0.131 A 
ATOM     86  C   UNL A   1      43.051  38.405  28.823  1.00  0.00     0.055 A 
ATOM     87  C   UNL A   1      41.876  37.558  26.932  1.00  0.00     0.041 A 
ATOM     88  F   UNL A   1      41.390  35.319  26.743  1.00  0.00    -0.206 F 
ATOM     89  C   UNL A   1      42.456  38.630  27.584  1.00  0.00     0.022 A 
BRANCH  86  90
ATOM     90  S   UNL A   1      43.899  39.761  29.672  1.00  0.00     0.124 S 
ATOM     91  O   UNL A   1      43.367  40.939  28.995  1.00  0.00    -0.237 OA
ATOM     92  O   UNL A   1      43.459  39.569  31.051  1.00  0.00    -0.237 OA
ATOM     93  O   UNL A   1      45.314  39.490  29.429  1.00  0.00    -0.744 OA
ENDBRANCH  86  90
ENDBRANCH  60  83
ENDBRANCH  34  35
ENDBRANCH  26  29
ENDBRANCH  24  25
ENDBRANCH  23  24
ENDBRANCH  22  23
ENDBRANCH   1  22
TORSDOF 20
ENDMDL
MODEL 3
REMARK VINA RESULT:     -11.2      1.791      2.050
REMARK SMILES Cc1cccc(C(=O)NCCCCCCNC(=O)c2ccc(-c3c4nc(c(-c5cc(S(=O)(=O)[O-])ccc5F)c5ccc([nH]5)c(-c5cc(S(=O)(=O)[O-])ccc5F)c5nc(c(-c6cc(S(=O)(=O)[O-])ccc6F)c6ccc3[nH]6)C=C5)C=C4)cc2)c1O[C@H](C)[C@H](C)O
REMARK SMILES IDX 12 1 11 2 10 3 9 4 7 5 8 6 6 8 1 9 2 10 3 11 82 12 4 13 5 14
REMARK SMILES IDX 83 15 84 16 85 17 86 18 87 19 88 20 13 22 14 23 15 24 16 25
REMARK SMILES IDX 17 26 18 28 19 29 20 30 81 31 21 32 80 33 22 34 23 35 24 36
REMARK SMILES IDX 74 37 25 38 79 39 73 40 75 41 26 42 78 43 72 44 71 45 27 47
REMARK SMILES IDX 59 48 39 49 58 50 40 51 43 52 57 53 76 54 41 55 42 56 56 58
REMARK SMILES IDX 77 59 44 60 28 61 29 62 37 63 30 64 36 65 38 66 35 67 31 68
REMARK SMILES IDX 32 69 33 70 34 71 60 72 61 73 69 74 62 75 68 76 70 77 67 78
REMARK SMILES IDX 63 79 64 80 65 81 66 82 45 83 46 84 54 85 47 86 53 87 55 88
REMARK SMILES IDX 52 89 48 90 49 91 50 92 51 93
REMARK H PARENT 9 7 88 21 16 27 75 46 43 57
REMARK Flexibility Score: inf
ROOT
ATOM      1  C   UNL A   1      31.734  28.725  26.694  1.00  0.00     0.002 C 
ENDROOT
BRANCH   1   2
ATOM      2  C   UNL A   1      31.942  27.346  26.044  1.00  0.00     0.021 C 
BRANCH   2   3
ATOM      3  C   UNL A   1      30.703  26.455  25.823  1.00  0.00     0.116 C 
BRANCH   3   4
ATOM      4  N   UNL A   1      31.095  25.053  25.467  1.00  0.00    -0.352 N 
ATOM      5  C   UNL A   1      31.776  24.147  26.292  1.00  0.00     0.255 C 
ATOM      6  O   UNL A   1      31.189  23.796  27.322  1.00  0.00    -0.269 OA
ATOM      7  H   UNL A   1      30.850  24.738  24.566  1.00  0.00     0.163 HD
BRANCH   5   8
ATOM      8  C   UNL A   1      33.033  23.326  25.866  1.00  0.00     0.082 A 
ATOM      9  C   UNL A   1      36.358  23.164  23.867  1.00  0.00     0.048 C 
ATOM     10  C   UNL A   1      35.282  22.862  24.898  1.00  0.00    -0.008 A 
ATOM     11  C   UNL A   1      35.566  21.939  25.896  1.00  0.00     0.007 A 
ATOM     12  C   UNL A   1      33.987  23.475  24.821  1.00  0.00     0.135 A 
ATOM     13  C   UNL A   1      34.600  21.664  26.848  1.00  0.00     0.001 A 
ATOM     14  C   UNL A   1      33.380  22.365  26.848  1.00  0.00     0.018 A 
BRANCH  12  15
ATOM     15  O   UNL A   1      33.969  24.122  23.625  1.00  0.00    -0.487 OA
BRANCH  15  16
ATOM     16  C   UNL A   1      32.888  24.069  22.716  1.00  0.00     0.198 C 
ATOM     17  C   UNL A   1      32.894  22.585  22.388  1.00  0.00     0.056 C 
BRANCH  16  18
ATOM     18  C   UNL A   1      32.827  25.428  21.929  1.00  0.00     0.151 C 
ATOM     19  C   UNL A   1      31.597  26.298  22.112  1.00  0.00     0.042 C 
BRANCH  18  20
ATOM     20  O   UNL A   1      33.152  25.454  20.548  1.00  0.00    -0.390 OA
ATOM     21  H   UNL A   1      34.109  25.569  20.443  1.00  0.00     0.211 HD
ENDBRANCH  18  20
ENDBRANCH  16  18
ENDBRANCH  15  16
ENDBRANCH  12  15
ENDBRANCH   5   8
ENDBRANCH   3   4
ENDBRANCH   2   3
ENDBRANCH   1   2
BRANCH   1  22
ATOM     22  C   UNL A   1      32.193  29.966  25.923  1.00  0.00     0.002 C 
BRANCH  22  23
ATOM     23  C   UNL A   1      33.312  30.783  26.553  1.00  0.00     0.021 C 
BRANCH  23  24
ATOM     24  C   UNL A   1      33.654  30.434  27.998  1.00  0.00     0.116 C 
BRANCH  24  25
ATOM     25  N   UNL A   1      34.372  31.476  28.729  1.00  0.00    -0.352 N 
ATOM     26  C   UNL A   1      35.659  31.451  29.257  1.00  0.00     0.251 C 
ATOM     27  H   UNL A   1      33.875  32.314  28.868  1.00  0.00     0.163 HD
ATOM     28  O   UNL A   1      36.116  32.395  29.865  1.00  0.00    -0.269 OA
BRANCH  26  29
ATOM     29  C   UNL A   1      36.523  30.280  28.951  1.00  0.00     0.039 A 
ATOM     30  C   UNL A   1      36.973  29.511  30.031  1.00  0.00     0.014 A 
ATOM     31  C   UNL A   1      37.069  30.106  27.683  1.00  0.00     0.014 A 
ATOM     32  C   UNL A   1      38.146  28.775  29.895  1.00  0.00     0.010 A 
ATOM     33  C   UNL A   1      38.282  29.460  27.570  1.00  0.00     0.010 A 
ATOM     34  C   UNL A   1      38.852  28.859  28.695  1.00  0.00    -0.014 A 
BRANCH  34  35
ATOM     35  C   UNL A   1      40.240  28.445  28.569  1.00  0.00     0.031 A 
ATOM     36  C   UNL A   1      40.570  27.042  28.279  1.00  0.00     0.074 A 
ATOM     37  C   UNL A   1      41.232  29.349  28.728  1.00  0.00     0.049 A 
ATOM     38  N   UNL A   1      41.645  26.464  28.693  1.00  0.00    -0.248 NA
ATOM     39  C   UNL A   1      39.684  26.159  27.530  1.00  0.00     0.031 C 
ATOM     40  C   UNL A   1      42.655  29.162  28.464  1.00  0.00     0.029 A 
ATOM     41  N   UNL A   1      41.160  30.571  29.396  1.00  0.00    -0.354 N 
ATOM     42  C   UNL A   1      41.728  25.250  28.060  1.00  0.00     0.074 A 
ATOM     43  C   UNL A   1      40.451  25.071  27.406  1.00  0.00     0.031 C 
ATOM     44  C   UNL A   1      43.348  30.073  29.165  1.00  0.00     0.029 A 
ATOM     45  C   UNL A   1      42.407  30.786  30.011  1.00  0.00     0.049 A 
ATOM     46  H   UNL A   1      40.380  31.172  29.430  1.00  0.00     0.167 HD
ATOM     47  C   UNL A   1      42.913  24.583  28.037  1.00  0.00     0.034 A 
ATOM     48  C   UNL A   1      42.495  30.897  31.368  1.00  0.00     0.034 A 
ATOM     49  C   UNL A   1      43.970  25.315  28.728  1.00  0.00     0.049 A 
ATOM     50  C   UNL A   1      43.300  29.795  32.037  1.00  0.00     0.074 A 
ATOM     51  C   UNL A   1      45.020  26.117  28.310  1.00  0.00     0.029 A 
ATOM     52  N   UNL A   1      43.863  25.511  30.094  1.00  0.00    -0.354 N 
ATOM     53  N   UNL A   1      43.844  28.782  31.419  1.00  0.00    -0.248 NA
ATOM     54  C   UNL A   1      43.467  29.711  33.487  1.00  0.00     0.031 C 
ATOM     55  C   UNL A   1      45.545  26.791  29.449  1.00  0.00     0.029 A 
ATOM     56  C   UNL A   1      44.832  26.379  30.560  1.00  0.00     0.049 A 
ATOM     57  H   UNL A   1      43.181  25.086  30.663  1.00  0.00     0.167 HD
ATOM     58  C   UNL A   1      44.340  27.890  32.341  1.00  0.00     0.074 A 
ATOM     59  C   UNL A   1      44.084  28.526  33.623  1.00  0.00     0.031 C 
ATOM     60  C   UNL A   1      44.870  26.679  31.982  1.00  0.00     0.034 A 
BRANCH  47  61
ATOM     61  C   UNL A   1      43.164  23.397  27.145  1.00  0.00     0.023 A 
ATOM     62  C   UNL A   1      42.437  22.212  27.360  1.00  0.00     0.031 A 
ATOM     63  C   UNL A   1      44.106  23.362  26.100  1.00  0.00     0.131 A 
ATOM     64  C   UNL A   1      42.723  21.041  26.642  1.00  0.00     0.055 A 
ATOM     65  C   UNL A   1      44.429  22.182  25.416  1.00  0.00     0.041 A 
ATOM     66  F   UNL A   1      44.730  24.476  25.684  1.00  0.00    -0.206 F 
ATOM     67  C   UNL A   1      43.745  21.007  25.696  1.00  0.00     0.022 A 
BRANCH  64  68
ATOM     68  S   UNL A   1      41.731  19.559  26.967  1.00  0.00     0.124 S 
ATOM     69  O   UNL A   1      42.745  18.593  27.378  1.00  0.00    -0.237 OA
ATOM     70  O   UNL A   1      40.820  20.020  28.009  1.00  0.00    -0.237 OA
ATOM     71  O   UNL A   1      41.103  19.282  25.676  1.00  0.00    -0.744 OA
ENDBRANCH  64  68
ENDBRANCH  47  61
BRANCH  48  72
ATOM     72  C   UNL A   1      41.314  31.579  31.971  1.00  0.00     0.023 A 
ATOM     73  C   UNL A   1      40.421  30.804  32.742  1.00  0.00     0.031 A 
ATOM     74  C   UNL A   1      41.269  32.973  32.116  1.00  0.00     0.131 A 
ATOM     75  C   UNL A   1      39.608  31.415  33.708  1.00  0.00     0.055 A 
ATOM     76  C   UNL A   1      40.436  33.580  33.063  1.00  0.00     0.041 A 
ATOM     77  F   UNL A   1      42.116  33.758  31.435  1.00  0.00    -0.206 F 
ATOM     78  C   UNL A   1      39.632  32.800  33.893  1.00  0.00     0.022 A 
BRANCH  75  79
ATOM     79  S   UNL A   1      38.670  30.389  34.877  1.00  0.00     0.124 S 
ATOM     80  O   UNL A   1      38.091  29.378  34.000  1.00  0.00    -0.237 OA
ATOM     81  O   UNL A   1      39.697  29.913  35.800  1.00  0.00    -0.237 OA
ATOM     82  O   UNL A   1      37.723  31.337  35.458  1.00  0.00    -0.744 OA
ENDBRANCH  75  79
ENDBRANCH  48  72
BRANCH  60  83
ATOM     83  C   UNL A   1      45.419  25.642  32.945  1.00  0.00     0.023 A 
ATOM     84  C   UNL A   1      46.793  25.420  33.122  1.00  0.00     0.031 A 
ATOM     85  C   UNL A   1      44.567  24.783  33.688  1.00  0.00     0.131 A 
ATOM     86  C   UNL A   1      47.265  24.490  34.069  1.00  0.00     0.055 A 
ATOM     87  C   UNL A   1      45.038  23.813  34.577  1.00  0.00     0.041 A 
ATOM     88  F   UNL A   1      43.232  24.856  33.608  1.00  0.00    -0.206 F 
ATOM     89  C   UNL A   1      46.397  23.677  34.792  1.00  0.00     0.022 A 
BRANCH  86  90
ATOM     90  S   UNL A   1      49.046  24.406  34.382  1.00  0.00     0.124 S 
ATOM     91  O   UNL A   1      49.148  23.302  35.330  1.00  0.00    -0.237 OA
ATOM     92  O   UNL A   1      49.571  24.145  33.044  1.00  0.00    -0.237 OA
ATOM     93  O   UNL A   1      49.365  25.725  34.926  1.00  0.00    -0.744 OA
ENDBRANCH  86  90
ENDBRANCH  60  83
ENDBRANCH  34  35
ENDBRANCH  26  29
ENDBRANCH  24  25
ENDBRANCH  23  24
ENDBRANCH  22  23
ENDBRANCH   1  22
TORSDOF 20
ENDMDL
