MODEL 1
REMARK VINA RESULT:     -12.9      0.000      0.000
REMARK SMILES O=C(NCCCCCCNC(=O)c1ccccc1Nc1cccc(S(F)(F)(F)(F)F)c1)c1ccc(-c2c3nc(c(-c4cc(S(=O)(=O)[O-])ccc4F)c4ccc([nH]4)c(-c4cc(S(=O)(=O)[O-])ccc4F)c4nc(c(-c5cc(S(=O)(=O)[O-])ccc5F)c5ccc2[nH]5)C=C4)C=C3)cc1
REMARK SMILES IDX 6 1 5 2 4 3 3 4 1 5 2 6 32 8 33 9 94 10 34 11 93 12 35 13
REMARK SMILES IDX 36 14 37 15 87 16 38 17 92 18 86 19 88 20 39 21 91 22 85 23
REMARK SMILES IDX 84 24 40 26 72 27 52 28 71 29 53 30 56 31 70 32 89 33 54 34
REMARK SMILES IDX 55 35 69 37 90 38 57 39 41 40 42 41 50 42 43 43 49 44 51 45
REMARK SMILES IDX 48 46 44 47 45 48 46 49 47 50 73 51 74 52 82 53 75 54 81 55
REMARK SMILES IDX 83 56 80 57 76 58 77 59 78 60 79 61 58 62 59 63 67 64 60 65
REMARK SMILES IDX 66 66 68 67 65 68 61 69 62 70 63 71 64 72 7 73 8 74 9 75
REMARK SMILES IDX 10 76 11 77 12 79 13 80 14 81 18 82 15 83 17 84 16 85 19 86
REMARK SMILES IDX 20 88 21 89 31 90 22 91 24 92 23 93 25 94 26 95 27 96 28 97
REMARK SMILES IDX 29 98 30 99
REMARK H PARENT 3 7 88 25 56 36 10 78 19 87
REMARK Flexibility Score: inf
ROOT
ATOM      1  C   UNL A   1      31.824  30.505  26.878  1.00  0.00     0.002 C 
ENDROOT
BRANCH   1   2
ATOM      2  C   UNL A   1      31.510  31.991  26.802  1.00  0.00     0.021 C 
BRANCH   2   3
ATOM      3  C   UNL A   1      32.730  32.789  27.230  1.00  0.00     0.116 C 
BRANCH   3   4
ATOM      4  N   UNL A   1      32.325  34.159  27.573  1.00  0.00    -0.352 N 
ATOM      5  O   UNL A   1      32.724  36.101  28.883  1.00  0.00    -0.269 OA
ATOM      6  C   UNL A   1      33.074  34.916  28.587  1.00  0.00     0.251 C 
ATOM      7  H   UNL A   1      31.551  34.570  27.124  1.00  0.00     0.163 HD
BRANCH   6   8
ATOM      8  C   UNL A   1      34.269  34.281  29.279  1.00  0.00     0.039 A 
ATOM      9  C   UNL A   1      35.555  34.397  28.776  1.00  0.00     0.014 A 
ATOM     10  C   UNL A   1      34.006  33.501  30.320  1.00  0.00     0.014 A 
ATOM     11  C   UNL A   1      36.452  33.418  29.265  1.00  0.00     0.010 A 
ATOM     12  C   UNL A   1      34.971  32.668  30.833  1.00  0.00     0.010 A 
ATOM     13  C   UNL A   1      36.248  32.687  30.345  1.00  0.00    -0.014 A 
BRANCH  13  14
ATOM     14  C   UNL A   1      37.371  31.908  31.009  1.00  0.00     0.031 A 
ATOM     15  C   UNL A   1      37.976  30.937  30.210  1.00  0.00     0.074 A 
ATOM     16  C   UNL A   1      37.811  32.252  32.275  1.00  0.00     0.049 A 
ATOM     17  N   UNL A   1      39.063  30.216  30.488  1.00  0.00    -0.248 NA
ATOM     18  C   UNL A   1      37.489  30.545  28.878  1.00  0.00     0.031 C 
ATOM     19  C   UNL A   1      37.212  33.237  33.085  1.00  0.00     0.029 A 
ATOM     20  N   UNL A   1      38.877  31.727  32.972  1.00  0.00    -0.354 N 
ATOM     21  C   UNL A   1      39.351  29.403  29.470  1.00  0.00     0.074 A 
ATOM     22  C   UNL A   1      38.338  29.598  28.422  1.00  0.00     0.031 C 
ATOM     23  C   UNL A   1      37.898  33.296  34.256  1.00  0.00     0.029 A 
ATOM     24  C   UNL A   1      38.940  32.350  34.199  1.00  0.00     0.049 A 
ATOM     25  H   UNL A   1      39.489  31.026  32.648  1.00  0.00     0.167 HD
ATOM     26  C   UNL A   1      40.417  28.507  29.371  1.00  0.00     0.034 A 
ATOM     27  C   UNL A   1      39.843  32.118  35.223  1.00  0.00     0.034 A 
ATOM     28  C   UNL A   1      41.346  28.307  30.379  1.00  0.00     0.049 A 
ATOM     29  C   UNL A   1      40.876  31.181  35.149  1.00  0.00     0.074 A 
ATOM     30  C   UNL A   1      42.432  27.414  30.295  1.00  0.00     0.029 A 
ATOM     31  N   UNL A   1      41.394  28.912  31.616  1.00  0.00    -0.354 N 
ATOM     32  N   UNL A   1      41.186  30.396  34.116  1.00  0.00    -0.248 NA
ATOM     33  C   UNL A   1      41.820  30.905  36.240  1.00  0.00     0.031 C 
ATOM     34  C   UNL A   1      43.119  27.472  31.467  1.00  0.00     0.029 A 
ATOM     35  C   UNL A   1      42.473  28.404  32.304  1.00  0.00     0.049 A 
ATOM     36  H   UNL A   1      40.765  29.592  31.950  1.00  0.00     0.167 HD
ATOM     37  C   UNL A   1      42.249  29.646  34.411  1.00  0.00     0.074 A 
ATOM     38  C   UNL A   1      42.667  29.956  35.784  1.00  0.00     0.031 C 
ATOM     39  C   UNL A   1      42.889  28.716  33.589  1.00  0.00     0.034 A 
BRANCH  26  40
ATOM     40  C   UNL A   1      40.566  27.707  28.089  1.00  0.00     0.023 A 
ATOM     41  C   UNL A   1      40.083  26.412  27.993  1.00  0.00     0.031 A 
ATOM     42  C   UNL A   1      41.195  28.285  27.071  1.00  0.00     0.131 A 
ATOM     43  C   UNL A   1      40.571  25.700  26.871  1.00  0.00     0.055 A 
ATOM     44  C   UNL A   1      41.521  27.562  25.949  1.00  0.00     0.041 A 
ATOM     45  F   UNL A   1      41.513  29.574  27.141  1.00  0.00    -0.206 F 
ATOM     46  C   UNL A   1      41.126  26.260  25.812  1.00  0.00     0.022 A 
BRANCH  43  47
ATOM     47  S   UNL A   1      40.423  23.896  26.890  1.00  0.00     0.124 S 
ATOM     48  O   UNL A   1      40.611  23.383  28.320  1.00  0.00    -0.237 OA
ATOM     49  O   UNL A   1      39.036  23.493  26.382  1.00  0.00    -0.237 OA
ATOM     50  O   UNL A   1      41.621  23.215  25.877  1.00  0.00    -0.744 OA
ENDBRANCH  43  47
ENDBRANCH  26  40
BRANCH  27  51
ATOM     51  C   UNL A   1      39.703  32.932  36.499  1.00  0.00     0.023 A 
ATOM     52  C   UNL A   1      39.040  32.350  37.568  1.00  0.00     0.031 A 
ATOM     53  C   UNL A   1      40.208  34.157  36.587  1.00  0.00     0.131 A 
ATOM     54  C   UNL A   1      38.708  33.259  38.600  1.00  0.00     0.055 A 
ATOM     55  C   UNL A   1      39.956  34.941  37.687  1.00  0.00     0.041 A 
ATOM     56  F   UNL A   1      40.968  34.629  35.602  1.00  0.00    -0.206 F 
ATOM     57  C   UNL A   1      39.257  34.450  38.755  1.00  0.00     0.022 A 
BRANCH  54  58
ATOM     58  S   UNL A   1      37.442  32.754  39.791  1.00  0.00     0.124 S 
ATOM     59  O   UNL A   1      37.835  31.414  40.415  1.00  0.00    -0.237 OA
ATOM     60  O   UNL A   1      37.324  33.814  40.889  1.00  0.00    -0.237 OA
ATOM     61  O   UNL A   1      35.939  32.593  38.992  1.00  0.00    -0.744 OA
ENDBRANCH  54  58
ENDBRANCH  27  51
BRANCH  39  62
ATOM     62  C   UNL A   1      44.116  28.005  34.135  1.00  0.00     0.023 A 
ATOM     63  C   UNL A   1      44.002  26.804  34.817  1.00  0.00     0.031 A 
ATOM     64  C   UNL A   1      45.287  28.619  34.011  1.00  0.00     0.131 A 
ATOM     65  C   UNL A   1      45.141  26.473  35.588  1.00  0.00     0.055 A 
ATOM     66  C   UNL A   1      46.391  28.160  34.687  1.00  0.00     0.041 A 
ATOM     67  F   UNL A   1      45.390  29.687  33.226  1.00  0.00    -0.206 F 
ATOM     68  C   UNL A   1      46.337  27.012  35.427  1.00  0.00     0.022 A 
BRANCH  65  69
ATOM     69  S   UNL A   1      44.948  25.222  36.881  1.00  0.00     0.124 S 
ATOM     70  O   UNL A   1      43.470  25.110  37.265  1.00  0.00    -0.237 OA
ATOM     71  O   UNL A   1      45.444  23.870  36.364  1.00  0.00    -0.237 OA
ATOM     72  O   UNL A   1      45.860  25.677  38.255  1.00  0.00    -0.744 OA
ENDBRANCH  65  69
ENDBRANCH  39  62
ENDBRANCH  13  14
ENDBRANCH   6   8
ENDBRANCH   3   4
ENDBRANCH   2   3
ENDBRANCH   1   2
BRANCH   1  73
ATOM     73  C   UNL A   1      33.313  30.314  27.113  1.00  0.00     0.002 C 
BRANCH  73  74
ATOM     74  C   UNL A   1      33.880  29.389  26.049  1.00  0.00     0.021 C 
BRANCH  74  75
ATOM     75  C   UNL A   1      32.897  29.279  24.896  1.00  0.00     0.116 C 
BRANCH  75  76
ATOM     76  N   UNL A   1      33.623  29.368  23.621  1.00  0.00    -0.352 N 
ATOM     77  C   UNL A   1      33.739  28.184  22.757  1.00  0.00     0.253 C 
ATOM     78  H   UNL A   1      34.031  30.221  23.346  1.00  0.00     0.163 HD
ATOM     79  O   UNL A   1      34.368  28.262  21.655  1.00  0.00    -0.269 OA
BRANCH  77  80
ATOM     80  C   UNL A   1      33.109  26.869  23.182  1.00  0.00     0.063 A 
ATOM     81  C   UNL A   1      33.792  26.037  24.055  1.00  0.00     0.016 A 
ATOM     82  C   UNL A   1      31.912  26.537  22.711  1.00  0.00     0.051 A 
ATOM     83  C   UNL A   1      33.252  24.733  24.146  1.00  0.00     0.001 A 
ATOM     84  C   UNL A   1      31.386  25.292  22.952  1.00  0.00     0.027 A 
ATOM     85  C   UNL A   1      32.036  24.398  23.757  1.00  0.00     0.002 A 
BRANCH  82  86
ATOM     86  N   UNL A   1      31.145  27.512  21.923  1.00  0.00    -0.355 N 
ATOM     87  H   UNL A   1      31.406  27.709  20.993  1.00  0.00     0.167 HD
BRANCH  86  88
ATOM     88  C   UNL A   1      29.987  28.193  22.519  1.00  0.00     0.040 A 
ATOM     89  C   UNL A   1      28.972  27.438  23.085  1.00  0.00     0.026 A 
ATOM     90  C   UNL A   1      29.933  29.519  22.505  1.00  0.00     0.050 A 
ATOM     91  C   UNL A   1      27.793  28.174  23.355  1.00  0.00     0.004 A 
ATOM     92  C   UNL A   1      28.797  30.178  22.912  1.00  0.00     0.109 A 
ATOM     93  C   UNL A   1      27.733  29.492  23.425  1.00  0.00     0.024 A 
BRANCH  92  94
ATOM     94  S   UNL A   1      28.711  31.980  22.765  1.00  0.00     0.310 S 
ATOM     95  F   UNL A   1      27.303  32.002  23.495  1.00  0.00    -0.094 F 
ATOM     96  F   UNL A   1      27.931  31.743  21.416  1.00  0.00    -0.094 F 
ATOM     97  F   UNL A   1      28.582  33.520  22.602  1.00  0.00    -0.094 F 
ATOM     98  F   UNL A   1      29.369  32.193  24.185  1.00  0.00    -0.094 F 
ATOM     99  F   UNL A   1      28.750  30.417  22.999  1.00  0.00    -0.094 F 
ENDBRANCH  92  94
ENDBRANCH  86  88
ENDBRANCH  82  86
ENDBRANCH  77  80
ENDBRANCH  75  76
ENDBRANCH  74  75
ENDBRANCH  73  74
ENDBRANCH   1  73
TORSDOF 19
ENDMDL
MODEL 2
REMARK VINA RESULT:     -12.8      1.270      7.340
REMARK SMILES O=C(NCCCCCCNC(=O)c1ccccc1Nc1cccc(S(F)(F)(F)(F)F)c1)c1ccc(-c2c3nc(c(-c4cc(S(=O)(=O)[O-])ccc4F)c4ccc([nH]4)c(-c4cc(S(=O)(=O)[O-])ccc4F)c4nc(c(-c5cc(S(=O)(=O)[O-])ccc5F)c5ccc2[nH]5)C=C4)C=C3)cc1
REMARK SMILES IDX 6 1 5 2 4 3 3 4 1 5 2 6 32 8 33 9 94 10 34 11 93 12 35 13
REMARK SMILES IDX 36 14 37 15 87 16 38 17 92 18 86 19 88 20 39 21 91 22 85 23
REMARK SMILES IDX 84 24 40 26 72 27 52 28 71 29 53 30 56 31 70 32 89 33 54 34
REMARK SMILES IDX 55 35 69 37 90 38 57 39 41 40 42 41 50 42 43 43 49 44 51 45
REMARK SMILES IDX 48 46 44 47 45 48 46 49 47 50 73 51 74 52 82 53 75 54 81 55
REMARK SMILES IDX 83 56 80 57 76 58 77 59 78 60 79 61 58 62 59 63 67 64 60 65
REMARK SMILES IDX 66 66 68 67 65 68 61 69 62 70 63 71 64 72 7 73 8 74 9 75
REMARK SMILES IDX 10 76 11 77 12 79 13 80 14 81 18 82 15 83 17 84 16 85 19 86
REMARK SMILES IDX 20 88 21 89 31 90 22 91 24 92 23 93 25 94 26 95 27 96 28 97
REMARK SMILES IDX 29 98 30 99
REMARK H PARENT 3 7 88 25 56 36 10 78 19 87
REMARK Flexibility Score: inf
ROOT
ATOM      1  C   UNL A   1      32.289  30.039  27.159  1.00  0.00     0.002 C 
ENDROOT
BRANCH   1   2
ATOM      2  C   UNL A   1      31.731  31.429  26.897  1.00  0.00     0.021 C 
BRANCH   2   3
ATOM      3  C   UNL A   1      32.857  32.448  26.968  1.00  0.00     0.116 C 
BRANCH   3   4
ATOM      4  N   UNL A   1      32.318  33.746  27.400  1.00  0.00    -0.352 N 
ATOM      5  O   UNL A   1      32.538  35.637  28.821  1.00  0.00    -0.269 OA
ATOM      6  C   UNL A   1      33.004  34.515  28.448  1.00  0.00     0.251 C 
ATOM      7  H   UNL A   1      31.497  34.099  26.987  1.00  0.00     0.163 HD
BRANCH   6   8
ATOM      8  C   UNL A   1      34.272  33.969  29.084  1.00  0.00     0.039 A 
ATOM      9  C   UNL A   1      35.529  34.422  28.720  1.00  0.00     0.014 A 
ATOM     10  C   UNL A   1      34.125  32.944  29.915  1.00  0.00     0.014 A 
ATOM     11  C   UNL A   1      36.579  33.538  29.062  1.00  0.00     0.010 A 
ATOM     12  C   UNL A   1      35.212  32.207  30.317  1.00  0.00     0.010 A 
ATOM     13  C   UNL A   1      36.479  32.562  29.946  1.00  0.00    -0.014 A 
BRANCH  13  14
ATOM     14  C   UNL A   1      37.705  31.871  30.519  1.00  0.00     0.031 A 
ATOM     15  C   UNL A   1      38.029  32.221  31.830  1.00  0.00     0.074 A 
ATOM     16  C   UNL A   1      38.354  30.882  29.799  1.00  0.00     0.049 A 
ATOM     17  N   UNL A   1      38.957  31.671  32.614  1.00  0.00    -0.248 NA
ATOM     18  C   UNL A   1      37.364  33.296  32.583  1.00  0.00     0.031 C 
ATOM     19  C   UNL A   1      38.028  30.516  28.479  1.00  0.00     0.029 A 
ATOM     20  N   UNL A   1      39.402  30.088  30.209  1.00  0.00    -0.354 N 
ATOM     21  C   UNL A   1      38.959  32.262  33.811  1.00  0.00     0.074 A 
ATOM     22  C   UNL A   1      37.939  33.320  33.806  1.00  0.00     0.031 C 
ATOM     23  C   UNL A   1      38.876  29.525  28.095  1.00  0.00     0.029 A 
ATOM     24  C   UNL A   1      39.744  29.253  29.168  1.00  0.00     0.049 A 
ATOM     25  H   UNL A   1      39.833  30.114  31.095  1.00  0.00     0.167 HD
ATOM     26  C   UNL A   1      39.769  31.960  34.907  1.00  0.00     0.034 A 
ATOM     27  C   UNL A   1      40.755  28.306  29.137  1.00  0.00     0.034 A 
ATOM     28  C   UNL A   1      40.751  30.982  34.889  1.00  0.00     0.049 A 
ATOM     29  C   UNL A   1      41.605  28.043  30.214  1.00  0.00     0.074 A 
ATOM     30  C   UNL A   1      41.572  30.659  35.987  1.00  0.00     0.029 A 
ATOM     31  N   UNL A   1      41.109  30.165  33.840  1.00  0.00    -0.354 N 
ATOM     32  N   UNL A   1      41.581  28.607  31.422  1.00  0.00    -0.248 NA
ATOM     33  C   UNL A   1      42.699  27.064  30.181  1.00  0.00     0.031 C 
ATOM     34  C   UNL A   1      42.420  29.668  35.602  1.00  0.00     0.029 A 
ATOM     35  C   UNL A   1      42.143  29.356  34.257  1.00  0.00     0.049 A 
ATOM     36  H   UNL A   1      40.697  30.160  32.945  1.00  0.00     0.167 HD
ATOM     37  C   UNL A   1      42.537  28.084  32.192  1.00  0.00     0.074 A 
ATOM     38  C   UNL A   1      43.274  27.090  31.403  1.00  0.00     0.031 C 
ATOM     39  C   UNL A   1      42.821  28.395  33.523  1.00  0.00     0.034 A 
BRANCH  26  40
ATOM     40  C   UNL A   1      39.564  32.748  36.189  1.00  0.00     0.023 A 
ATOM     41  C   UNL A   1      38.874  32.204  37.260  1.00  0.00     0.031 A 
ATOM     42  C   UNL A   1      40.052  33.983  36.239  1.00  0.00     0.131 A 
ATOM     43  C   UNL A   1      38.495  33.154  38.240  1.00  0.00     0.055 A 
ATOM     44  C   UNL A   1      39.752  34.811  37.293  1.00  0.00     0.041 A 
ATOM     45  F   UNL A   1      40.836  34.421  35.258  1.00  0.00    -0.206 F 
ATOM     46  C   UNL A   1      39.024  34.358  38.359  1.00  0.00     0.022 A 
BRANCH  43  47
ATOM     47  S   UNL A   1      37.198  32.684  39.410  1.00  0.00     0.124 S 
ATOM     48  O   UNL A   1      37.255  33.604  40.632  1.00  0.00    -0.237 OA
ATOM     49  O   UNL A   1      35.830  32.818  38.736  1.00  0.00    -0.237 OA
ATOM     50  O   UNL A   1      37.434  31.064  39.904  1.00  0.00    -0.744 OA
ENDBRANCH  43  47
ENDBRANCH  26  40
BRANCH  27  51
ATOM     51  C   UNL A   1      40.948  27.507  27.859  1.00  0.00     0.023 A 
ATOM     52  C   UNL A   1      40.447  26.215  27.821  1.00  0.00     0.031 A 
ATOM     53  C   UNL A   1      41.569  28.035  26.811  1.00  0.00     0.131 A 
ATOM     54  C   UNL A   1      40.908  25.453  26.722  1.00  0.00     0.055 A 
ATOM     55  C   UNL A   1      41.868  27.264  25.713  1.00  0.00     0.041 A 
ATOM     56  F   UNL A   1      41.904  29.322  26.823  1.00  0.00    -0.206 F 
ATOM     57  C   UNL A   1      41.455  25.963  25.633  1.00  0.00     0.022 A 
BRANCH  54  58
ATOM     58  S   UNL A   1      40.737  23.654  26.814  1.00  0.00     0.124 S 
ATOM     59  O   UNL A   1      41.820  22.994  25.959  1.00  0.00    -0.237 OA
ATOM     60  O   UNL A   1      40.887  23.201  28.269  1.00  0.00    -0.237 OA
ATOM     61  O   UNL A   1      39.194  23.198  26.233  1.00  0.00    -0.744 OA
ENDBRANCH  54  58
ENDBRANCH  27  51
BRANCH  39  62
ATOM     62  C   UNL A   1      43.943  27.633  34.211  1.00  0.00     0.023 A 
ATOM     63  C   UNL A   1      45.247  28.098  34.181  1.00  0.00     0.031 A 
ATOM     64  C   UNL A   1      43.641  26.464  34.764  1.00  0.00     0.131 A 
ATOM     65  C   UNL A   1      46.213  27.117  34.507  1.00  0.00     0.055 A 
ATOM     66  C   UNL A   1      44.634  25.613  35.185  1.00  0.00     0.041 A 
ATOM     67  F   UNL A   1      42.366  26.115  34.911  1.00  0.00    -0.206 F 
ATOM     68  C   UNL A   1      45.948  25.984  35.130  1.00  0.00     0.022 A 
BRANCH  65  69
ATOM     69  S   UNL A   1      47.931  27.440  34.039  1.00  0.00     0.124 S 
ATOM     70  O   UNL A   1      48.237  26.743  32.711  1.00  0.00    -0.237 OA
ATOM     71  O   UNL A   1      48.145  28.948  33.885  1.00  0.00    -0.237 OA
ATOM     72  O   UNL A   1      48.975  26.837  35.252  1.00  0.00    -0.744 OA
ENDBRANCH  65  69
ENDBRANCH  39  62
ENDBRANCH  13  14
ENDBRANCH   6   8
ENDBRANCH   3   4
ENDBRANCH   2   3
ENDBRANCH   1   2
BRANCH   1  73
ATOM     73  C   UNL A   1      33.795  30.125  27.341  1.00  0.00     0.002 C 
BRANCH  73  74
ATOM     74  C   UNL A   1      34.468  29.044  26.511  1.00  0.00     0.021 C 
BRANCH  74  75
ATOM     75  C   UNL A   1      33.508  28.556  25.439  1.00  0.00     0.116 C 
BRANCH  75  76
ATOM     76  N   UNL A   1      34.041  28.896  24.112  1.00  0.00    -0.352 N 
ATOM     77  C   UNL A   1      33.865  27.965  22.988  1.00  0.00     0.253 C 
ATOM     78  H   UNL A   1      34.514  29.749  23.975  1.00  0.00     0.163 HD
ATOM     79  O   UNL A   1      34.326  28.260  21.841  1.00  0.00    -0.269 OA
BRANCH  77  80
ATOM     80  C   UNL A   1      33.132  26.651  23.199  1.00  0.00     0.063 A 
ATOM     81  C   UNL A   1      33.713  25.666  23.981  1.00  0.00     0.016 A 
ATOM     82  C   UNL A   1      31.946  26.467  22.630  1.00  0.00     0.051 A 
ATOM     83  C   UNL A   1      33.091  24.401  23.867  1.00  0.00     0.001 A 
ATOM     84  C   UNL A   1      31.332  25.239  22.673  1.00  0.00     0.027 A 
ATOM     85  C   UNL A   1      31.880  24.204  23.379  1.00  0.00     0.002 A 
BRANCH  82  86
ATOM     86  N   UNL A   1      31.285  27.588  21.947  1.00  0.00    -0.355 N 
ATOM     87  H   UNL A   1      31.638  27.919  21.089  1.00  0.00     0.167 HD
BRANCH  86  88
ATOM     88  C   UNL A   1      30.097  28.215  22.542  1.00  0.00     0.040 A 
ATOM     89  C   UNL A   1      29.115  27.414  23.104  1.00  0.00     0.026 A 
ATOM     90  C   UNL A   1      29.983  29.537  22.530  1.00  0.00     0.050 A 
ATOM     91  C   UNL A   1      27.904  28.096  23.372  1.00  0.00     0.004 A 
ATOM     92  C   UNL A   1      28.818  30.143  22.935  1.00  0.00     0.109 A 
ATOM     93  C   UNL A   1      27.784  29.409  23.445  1.00  0.00     0.024 A 
BRANCH  92  94
ATOM     94  S   UNL A   1      28.651  31.940  22.792  1.00  0.00     0.310 S 
ATOM     95  F   UNL A   1      27.241  31.897  23.516  1.00  0.00    -0.094 F 
ATOM     96  F   UNL A   1      27.887  31.671  21.440  1.00  0.00    -0.094 F 
ATOM     97  F   UNL A   1      28.453  33.473  22.631  1.00  0.00    -0.094 F 
ATOM     98  F   UNL A   1      29.293  32.179  24.215  1.00  0.00    -0.094 F 
ATOM     99  F   UNL A   1      28.759  30.380  23.022  1.00  0.00    -0.094 F 
ENDBRANCH  92  94
ENDBRANCH  86  88
ENDBRANCH  82  86
ENDBRANCH  77  80
ENDBRANCH  75  76
ENDBRANCH  74  75
ENDBRANCH  73  74
ENDBRANCH   1  73
TORSDOF 19
ENDMDL
MODEL 3
REMARK VINA RESULT:     -12.7      1.965      2.246
REMARK SMILES O=C(NCCCCCCNC(=O)c1ccccc1Nc1cccc(S(F)(F)(F)(F)F)c1)c1ccc(-c2c3nc(c(-c4cc(S(=O)(=O)[O-])ccc4F)c4ccc([nH]4)c(-c4cc(S(=O)(=O)[O-])ccc4F)c4nc(c(-c5cc(S(=O)(=O)[O-])ccc5F)c5ccc2[nH]5)C=C4)C=C3)cc1
REMARK SMILES IDX 6 1 5 2 4 3 3 4 1 5 2 6 32 8 33 9 94 10 34 11 93 12 35 13
REMARK SMILES IDX 36 14 37 15 87 16 38 17 92 18 86 19 88 20 39 21 91 22 85 23
REMARK SMILES IDX 84 24 40 26 72 27 52 28 71 29 53 30 56 31 70 32 89 33 54 34
REMARK SMILES IDX 55 35 69 37 90 38 57 39 41 40 42 41 50 42 43 43 49 44 51 45
REMARK SMILES IDX 48 46 44 47 45 48 46 49 47 50 73 51 74 52 82 53 75 54 81 55
REMARK SMILES IDX 83 56 80 57 76 58 77 59 78 60 79 61 58 62 59 63 67 64 60 65
REMARK SMILES IDX 66 66 68 67 65 68 61 69 62 70 63 71 64 72 7 73 8 74 9 75
REMARK SMILES IDX 10 76 11 77 12 79 13 80 14 81 18 82 15 83 17 84 16 85 19 86
REMARK SMILES IDX 20 88 21 89 31 90 22 91 24 92 23 93 25 94 26 95 27 96 28 97
REMARK SMILES IDX 29 98 30 99
REMARK H PARENT 3 7 88 25 56 36 10 78 19 87
REMARK Flexibility Score: inf
ROOT
ATOM      1  C   UNL A   1      32.000  30.788  26.873  1.00  0.00     0.002 C 
ENDROOT
BRANCH   1   2
ATOM      2  C   UNL A   1      31.816  32.293  26.760  1.00  0.00     0.021 C 
BRANCH   2   3
ATOM      3  C   UNL A   1      32.877  32.996  27.591  1.00  0.00     0.116 C 
BRANCH   3   4
ATOM      4  N   UNL A   1      32.479  34.394  27.813  1.00  0.00    -0.352 N 
ATOM      5  O   UNL A   1      32.870  36.431  28.972  1.00  0.00    -0.269 OA
ATOM      6  C   UNL A   1      33.214  35.222  28.781  1.00  0.00     0.251 C 
ATOM      7  H   UNL A   1      31.721  34.775  27.313  1.00  0.00     0.163 HD
BRANCH   6   8
ATOM      8  C   UNL A   1      34.384  34.634  29.551  1.00  0.00     0.039 A 
ATOM      9  C   UNL A   1      35.662  34.584  29.018  1.00  0.00     0.014 A 
ATOM     10  C   UNL A   1      34.099  34.051  30.709  1.00  0.00     0.014 A 
ATOM     11  C   UNL A   1      36.509  33.642  29.648  1.00  0.00     0.010 A 
ATOM     12  C   UNL A   1      35.023  33.253  31.338  1.00  0.00     0.010 A 
ATOM     13  C   UNL A   1      36.287  33.111  30.836  1.00  0.00    -0.014 A 
BRANCH  13  14
ATOM     14  C   UNL A   1      37.377  32.380  31.603  1.00  0.00     0.031 A 
ATOM     15  C   UNL A   1      37.995  31.337  30.911  1.00  0.00     0.074 A 
ATOM     16  C   UNL A   1      37.778  32.827  32.850  1.00  0.00     0.049 A 
ATOM     17  N   UNL A   1      39.062  30.631  31.288  1.00  0.00    -0.248 NA
ATOM     18  C   UNL A   1      37.548  30.838  29.602  1.00  0.00     0.031 C 
ATOM     19  C   UNL A   1      37.165  33.883  33.551  1.00  0.00     0.029 A 
ATOM     20  N   UNL A   1      38.812  32.352  33.626  1.00  0.00    -0.354 N 
ATOM     21  C   UNL A   1      39.373  29.731  30.353  1.00  0.00     0.074 A 
ATOM     22  C   UNL A   1      38.400  29.846  29.258  1.00  0.00     0.031 C 
ATOM     23  C   UNL A   1      37.812  34.035  34.736  1.00  0.00     0.029 A 
ATOM     24  C   UNL A   1      38.842  33.077  34.796  1.00  0.00     0.049 A 
ATOM     25  H   UNL A   1      39.425  31.619  33.384  1.00  0.00     0.167 HD
ATOM     26  C   UNL A   1      40.430  28.819  30.369  1.00  0.00     0.034 A 
ATOM     27  C   UNL A   1      39.707  32.925  35.867  1.00  0.00     0.034 A 
ATOM     28  C   UNL A   1      41.322  28.696  31.422  1.00  0.00     0.049 A 
ATOM     29  C   UNL A   1      40.729  31.973  35.910  1.00  0.00     0.074 A 
ATOM     30  C   UNL A   1      42.398  27.787  31.453  1.00  0.00     0.029 A 
ATOM     31  N   UNL A   1      41.336  29.405  32.604  1.00  0.00    -0.354 N 
ATOM     32  N   UNL A   1      41.063  31.100  34.958  1.00  0.00    -0.248 NA
ATOM     33  C   UNL A   1      41.631  31.782  37.053  1.00  0.00     0.031 C 
ATOM     34  C   UNL A   1      43.045  27.939  32.638  1.00  0.00     0.029 A 
ATOM     35  C   UNL A   1      42.384  28.945  33.370  1.00  0.00     0.049 A 
ATOM     36  H   UNL A   1      40.705  30.118  32.856  1.00  0.00     0.167 HD
ATOM     37  C   UNL A   1      42.105  30.366  35.354  1.00  0.00     0.074 A 
ATOM     38  C   UNL A   1      42.481  30.789  36.709  1.00  0.00     0.031 C 
ATOM     39  C   UNL A   1      42.760  29.363  34.637  1.00  0.00     0.034 A 
BRANCH  26  40
ATOM     40  C   UNL A   1      40.612  27.910  29.166  1.00  0.00     0.023 A 
ATOM     41  C   UNL A   1      41.630  28.127  28.252  1.00  0.00     0.031 A 
ATOM     42  C   UNL A   1      39.747  26.914  29.009  1.00  0.00     0.131 A 
ATOM     43  C   UNL A   1      41.478  27.409  27.042  1.00  0.00     0.055 A 
ATOM     44  C   UNL A   1      39.743  26.166  27.857  1.00  0.00     0.041 A 
ATOM     45  F   UNL A   1      38.876  26.640  29.977  1.00  0.00    -0.206 F 
ATOM     46  C   UNL A   1      40.684  26.365  26.886  1.00  0.00     0.022 A 
BRANCH  43  47
ATOM     47  S   UNL A   1      42.437  27.960  25.609  1.00  0.00     0.124 S 
ATOM     48  O   UNL A   1      42.510  26.830  24.579  1.00  0.00    -0.237 OA
ATOM     49  O   UNL A   1      41.759  29.180  24.980  1.00  0.00    -0.237 OA
ATOM     50  O   UNL A   1      44.017  28.380  26.109  1.00  0.00    -0.744 OA
ENDBRANCH  43  47
ENDBRANCH  26  40
BRANCH  27  51
ATOM     51  C   UNL A   1      39.535  33.846  37.064  1.00  0.00     0.023 A 
ATOM     52  C   UNL A   1      40.341  34.971  37.136  1.00  0.00     0.031 A 
ATOM     53  C   UNL A   1      38.635  33.583  38.004  1.00  0.00     0.131 A 
ATOM     54  C   UNL A   1      40.320  35.612  38.397  1.00  0.00     0.055 A 
ATOM     55  C   UNL A   1      38.581  34.337  39.151  1.00  0.00     0.041 A 
ATOM     56  F   UNL A   1      37.775  32.582  37.832  1.00  0.00    -0.206 F 
ATOM     57  C   UNL A   1      39.389  35.428  39.315  1.00  0.00     0.022 A 
BRANCH  54  58
ATOM     58  S   UNL A   1      41.662  36.765  38.778  1.00  0.00     0.124 S 
ATOM     59  O   UNL A   1      42.432  37.092  37.497  1.00  0.00    -0.237 OA
ATOM     60  O   UNL A   1      41.077  38.052  39.365  1.00  0.00    -0.237 OA
ATOM     61  O   UNL A   1      42.721  36.050  39.914  1.00  0.00    -0.744 OA
ENDBRANCH  54  58
ENDBRANCH  27  51
BRANCH  39  62
ATOM     62  C   UNL A   1      43.958  28.688  35.284  1.00  0.00     0.023 A 
ATOM     63  C   UNL A   1      43.816  27.509  35.998  1.00  0.00     0.031 A 
ATOM     64  C   UNL A   1      45.127  29.315  35.215  1.00  0.00     0.131 A 
ATOM     65  C   UNL A   1      44.907  27.220  36.851  1.00  0.00     0.055 A 
ATOM     66  C   UNL A   1      46.191  28.895  35.975  1.00  0.00     0.041 A 
ATOM     67  F   UNL A   1      45.267  30.358  34.402  1.00  0.00    -0.206 F 
ATOM     68  C   UNL A   1      46.103  27.771  36.749  1.00  0.00     0.022 A 
BRANCH  65  69
ATOM     69  S   UNL A   1      44.647  26.010  38.171  1.00  0.00     0.124 S 
ATOM     70  O   UNL A   1      43.897  26.674  39.329  1.00  0.00    -0.237 OA
ATOM     71  O   UNL A   1      43.822  24.838  37.635  1.00  0.00    -0.237 OA
ATOM     72  O   UNL A   1      46.159  25.437  38.726  1.00  0.00    -0.744 OA
ENDBRANCH  65  69
ENDBRANCH  39  62
ENDBRANCH  13  14
ENDBRANCH   6   8
ENDBRANCH   3   4
ENDBRANCH   2   3
ENDBRANCH   1   2
BRANCH   1  73
ATOM     73  C   UNL A   1      33.445  30.480  27.227  1.00  0.00     0.002 C 
BRANCH  73  74
ATOM     74  C   UNL A   1      33.952  29.348  26.348  1.00  0.00     0.021 C 
BRANCH  74  75
ATOM     75  C   UNL A   1      32.970  29.108  25.214  1.00  0.00     0.116 C 
BRANCH  75  76
ATOM     76  N   UNL A   1      33.643  29.333  23.926  1.00  0.00    -0.352 N 
ATOM     77  C   UNL A   1      33.720  28.247  22.938  1.00  0.00     0.253 C 
ATOM     78  H   UNL A   1      34.042  30.210  23.726  1.00  0.00     0.163 HD
ATOM     79  O   UNL A   1      34.302  28.442  21.825  1.00  0.00    -0.269 OA
BRANCH  77  80
ATOM     80  C   UNL A   1      33.103  26.893  23.247  1.00  0.00     0.063 A 
ATOM     81  C   UNL A   1      33.762  26.026  24.104  1.00  0.00     0.016 A 
ATOM     82  C   UNL A   1      31.943  26.564  22.692  1.00  0.00     0.051 A 
ATOM     83  C   UNL A   1      33.253  24.706  24.086  1.00  0.00     0.001 A 
ATOM     84  C   UNL A   1      31.438  25.293  22.828  1.00  0.00     0.027 A 
ATOM     85  C   UNL A   1      32.068  24.367  23.611  1.00  0.00     0.002 A 
BRANCH  82  86
ATOM     86  N   UNL A   1      31.192  27.567  21.924  1.00  0.00    -0.355 N 
ATOM     87  H   UNL A   1      31.466  27.789  21.004  1.00  0.00     0.167 HD
BRANCH  86  88
ATOM     88  C   UNL A   1      30.033  28.239  22.526  1.00  0.00     0.040 A 
ATOM     89  C   UNL A   1      29.010  27.477  23.067  1.00  0.00     0.026 A 
ATOM     90  C   UNL A   1      29.985  29.566  22.542  1.00  0.00     0.050 A 
ATOM     91  C   UNL A   1      27.832  28.212  23.345  1.00  0.00     0.004 A 
ATOM     92  C   UNL A   1      28.849  30.220  22.954  1.00  0.00     0.109 A 
ATOM     93  C   UNL A   1      27.777  29.528  23.444  1.00  0.00     0.024 A 
BRANCH  92  94
ATOM     94  S   UNL A   1      28.772  32.026  22.847  1.00  0.00     0.310 S 
ATOM     95  F   UNL A   1      27.331  32.034  23.511  1.00  0.00    -0.094 F 
ATOM     96  F   UNL A   1      28.054  31.823  21.458  1.00  0.00    -0.094 F 
ATOM     97  F   UNL A   1      28.651  33.570  22.715  1.00  0.00    -0.094 F 
ATOM     98  F   UNL A   1      29.362  32.203  24.301  1.00  0.00    -0.094 F 
ATOM     99  F   UNL A   1      28.797  30.458  23.044  1.00  0.00    -0.094 F 
ENDBRANCH  92  94
ENDBRANCH  86  88
ENDBRANCH  82  86
ENDBRANCH  77  80
ENDBRANCH  75  76
ENDBRANCH  74  75
ENDBRANCH  73  74
ENDBRANCH   1  73
TORSDOF 19
ENDMDL
