MODEL 1
REMARK VINA RESULT:     -10.9      0.000      0.000
REMARK SMILES O=C(NCCCCCCNC(=O)c1ccc([C@H]2CCC[N@@H+](CCN3CCCC3=O)C2)cc1)c1ccc(-c2c3nc(c(-c4cc(S(=O)(=O)[O-])ccc4F)c4ccc([nH]4)c(-c4cc(S(=O)(=O)[O-])ccc4F)c4nc(c(-c5cc(S(=O)(=O)[O-])ccc5F)c5ccc2[nH]5)C=C4)C=C3)cc1
REMARK SMILES IDX 7 1 6 2 5 3 4 4 3 5 1 6 2 7 33 9 34 10 95 11 35 12 94 13
REMARK SMILES IDX 36 14 37 15 38 16 88 17 39 18 93 19 87 20 89 21 40 22 92 23
REMARK SMILES IDX 86 24 85 25 41 27 73 28 53 29 72 30 54 31 57 32 71 33 90 34
REMARK SMILES IDX 55 35 56 36 70 38 91 39 58 40 42 41 43 42 51 43 44 44 50 45
REMARK SMILES IDX 52 46 49 47 45 48 46 49 47 50 48 51 74 52 75 53 83 54 76 55
REMARK SMILES IDX 82 56 84 57 81 58 77 59 78 60 79 61 80 62 59 63 60 64 68 65
REMARK SMILES IDX 61 66 67 67 69 68 66 69 62 70 63 71 64 72 65 73 8 74 9 75
REMARK SMILES IDX 10 76 11 77 12 79 13 80 14 81 32 82 15 83 31 84 16 85 17 86
REMARK SMILES IDX 18 87 30 88 19 89 21 90 20 91 22 93 23 94 24 95 25 96 28 97
REMARK SMILES IDX 26 98 27 99 29 100
REMARK H PARENT 3 8 89 26 57 37 10 78 21 92
REMARK Flexibility Score: inf
ROOT
ATOM      1  C   UNL A   1      32.982  25.401  25.536  1.00  0.00     0.002 C 
ENDROOT
BRANCH   1   2
ATOM      2  C   UNL A   1      32.779  26.674  26.361  1.00  0.00     0.002 C 
BRANCH   2   3
ATOM      3  C   UNL A   1      33.082  27.980  25.628  1.00  0.00     0.021 C 
BRANCH   3   4
ATOM      4  C   UNL A   1      34.169  28.834  26.268  1.00  0.00     0.116 C 
BRANCH   4   5
ATOM      5  N   UNL A   1      33.743  30.207  26.504  1.00  0.00    -0.352 N 
ATOM      6  O   UNL A   1      33.682  32.202  27.560  1.00  0.00    -0.269 OA
ATOM      7  C   UNL A   1      34.259  31.135  27.379  1.00  0.00     0.251 C 
ATOM      8  H   UNL A   1      32.980  30.513  25.963  1.00  0.00     0.163 HD
BRANCH   7   9
ATOM      9  C   UNL A   1      35.504  30.824  28.117  1.00  0.00     0.039 A 
ATOM     10  C   UNL A   1      35.614  29.635  28.840  1.00  0.00     0.014 A 
ATOM     11  C   UNL A   1      36.560  31.740  28.103  1.00  0.00     0.014 A 
ATOM     12  C   UNL A   1      36.702  29.441  29.681  1.00  0.00     0.010 A 
ATOM     13  C   UNL A   1      37.704  31.488  28.870  1.00  0.00     0.010 A 
ATOM     14  C   UNL A   1      37.771  30.351  29.691  1.00  0.00    -0.014 A 
BRANCH  14  15
ATOM     15  C   UNL A   1      38.966  30.054  30.526  1.00  0.00     0.031 A 
ATOM     16  C   UNL A   1      39.103  30.601  31.920  1.00  0.00     0.074 A 
ATOM     17  C   UNL A   1      39.915  29.242  30.021  1.00  0.00     0.049 A 
ATOM     18  N   UNL A   1      40.069  30.418  32.786  1.00  0.00    -0.248 NA
ATOM     19  C   UNL A   1      38.024  31.474  32.403  1.00  0.00     0.031 C 
ATOM     20  C   UNL A   1      39.885  28.649  28.680  1.00  0.00     0.029 A 
ATOM     21  N   UNL A   1      41.071  28.751  30.571  1.00  0.00    -0.354 N 
ATOM     22  C   UNL A   1      39.724  31.162  33.910  1.00  0.00     0.074 A 
ATOM     23  C   UNL A   1      38.478  31.831  33.596  1.00  0.00     0.031 C 
ATOM     24  C   UNL A   1      40.935  27.831  28.535  1.00  0.00     0.029 A 
ATOM     25  C   UNL A   1      41.761  27.906  29.733  1.00  0.00     0.049 A 
ATOM     26  H   UNL A   1      41.378  28.982  31.477  1.00  0.00     0.167 HD
ATOM     27  C   UNL A   1      40.384  31.266  35.093  1.00  0.00     0.034 A 
ATOM     28  C   UNL A   1      42.941  27.279  29.897  1.00  0.00     0.034 A 
ATOM     29  C   UNL A   1      41.632  30.595  35.379  1.00  0.00     0.049 A 
ATOM     30  C   UNL A   1      43.685  27.468  31.192  1.00  0.00     0.074 A 
ATOM     31  C   UNL A   1      42.372  30.613  36.550  1.00  0.00     0.029 A 
ATOM     32  N   UNL A   1      42.337  29.799  34.483  1.00  0.00    -0.354 N 
ATOM     33  N   UNL A   1      43.335  28.160  32.251  1.00  0.00    -0.248 NA
ATOM     34  C   UNL A   1      44.979  26.790  31.312  1.00  0.00     0.031 C 
ATOM     35  C   UNL A   1      43.557  29.901  36.335  1.00  0.00     0.029 A 
ATOM     36  C   UNL A   1      43.518  29.355  35.063  1.00  0.00     0.049 A 
ATOM     37  H   UNL A   1      42.040  29.581  33.571  1.00  0.00     0.167 HD
ATOM     38  C   UNL A   1      44.356  27.974  33.177  1.00  0.00     0.074 A 
ATOM     39  C   UNL A   1      45.320  27.089  32.556  1.00  0.00     0.031 C 
ATOM     40  C   UNL A   1      44.483  28.485  34.429  1.00  0.00     0.034 A 
BRANCH  27  41
ATOM     41  C   UNL A   1      39.790  32.179  36.144  1.00  0.00     0.023 A 
ATOM     42  C   UNL A   1      38.883  31.709  37.111  1.00  0.00     0.031 A 
ATOM     43  C   UNL A   1      40.118  33.547  36.167  1.00  0.00     0.131 A 
ATOM     44  C   UNL A   1      38.278  32.608  38.004  1.00  0.00     0.055 A 
ATOM     45  C   UNL A   1      39.580  34.421  37.114  1.00  0.00     0.041 A 
ATOM     46  F   UNL A   1      40.961  34.063  35.258  1.00  0.00    -0.206 F 
ATOM     47  C   UNL A   1      38.640  33.956  38.030  1.00  0.00     0.022 A 
BRANCH  44  48
ATOM     48  S   UNL A   1      36.896  32.018  39.023  1.00  0.00     0.124 S 
ATOM     49  O   UNL A   1      36.866  30.596  38.692  1.00  0.00    -0.237 OA
ATOM     50  O   UNL A   1      37.333  32.347  40.375  1.00  0.00    -0.237 OA
ATOM     51  O   UNL A   1      35.755  32.788  38.532  1.00  0.00    -0.744 OA
ENDBRANCH  44  48
ENDBRANCH  27  41
BRANCH  28  52
ATOM     52  C   UNL A   1      43.507  26.441  28.801  1.00  0.00     0.023 A 
ATOM     53  C   UNL A   1      44.378  26.990  27.848  1.00  0.00     0.031 A 
ATOM     54  C   UNL A   1      43.155  25.085  28.669  1.00  0.00     0.131 A 
ATOM     55  C   UNL A   1      44.829  26.201  26.779  1.00  0.00     0.055 A 
ATOM     56  C   UNL A   1      43.660  24.288  27.642  1.00  0.00     0.041 A 
ATOM     57  F   UNL A   1      42.326  24.508  29.554  1.00  0.00    -0.206 F 
ATOM     58  C   UNL A   1      44.491  24.850  26.679  1.00  0.00     0.022 A 
BRANCH  55  59
ATOM     59  S   UNL A   1      45.787  26.997  25.461  1.00  0.00     0.124 S 
ATOM     60  O   UNL A   1      44.833  27.975  24.952  1.00  0.00    -0.237 OA
ATOM     61  O   UNL A   1      46.926  27.536  26.198  1.00  0.00    -0.237 OA
ATOM     62  O   UNL A   1      46.097  25.895  24.554  1.00  0.00    -0.744 OA
ENDBRANCH  55  59
ENDBRANCH  28  52
BRANCH  40  63
ATOM     63  C   UNL A   1      45.694  28.050  35.222  1.00  0.00     0.023 A 
ATOM     64  C   UNL A   1      45.664  26.929  36.071  1.00  0.00     0.031 A 
ATOM     65  C   UNL A   1      46.886  28.793  35.152  1.00  0.00     0.131 A 
ATOM     66  C   UNL A   1      46.778  26.625  36.867  1.00  0.00     0.055 A 
ATOM     67  C   UNL A   1      48.016  28.443  35.892  1.00  0.00     0.041 A 
ATOM     68  F   UNL A   1      46.972  29.877  34.366  1.00  0.00    -0.206 F 
ATOM     69  C   UNL A   1      47.961  27.363  36.769  1.00  0.00     0.022 A 
BRANCH  66  70
ATOM     70  S   UNL A   1      46.622  25.325  38.123  1.00  0.00     0.124 S 
ATOM     71  O   UNL A   1      45.188  25.339  38.395  1.00  0.00    -0.237 OA
ATOM     72  O   UNL A   1      47.127  24.151  37.421  1.00  0.00    -0.237 OA
ATOM     73  O   UNL A   1      47.466  25.803  39.218  1.00  0.00    -0.744 OA
ENDBRANCH  66  70
ENDBRANCH  40  63
ENDBRANCH  14  15
ENDBRANCH   7   9
ENDBRANCH   4   5
ENDBRANCH   3   4
ENDBRANCH   2   3
ENDBRANCH   1   2
BRANCH   1  74
ATOM     74  C   UNL A   1      31.700  24.684  25.095  1.00  0.00     0.021 C 
BRANCH  74  75
ATOM     75  C   UNL A   1      31.773  24.012  23.722  1.00  0.00     0.116 C 
BRANCH  75  76
ATOM     76  N   UNL A   1      31.694  22.562  23.835  1.00  0.00    -0.352 N 
ATOM     77  C   UNL A   1      32.703  21.645  23.991  1.00  0.00     0.251 C 
ATOM     78  H   UNL A   1      30.786  22.185  23.793  1.00  0.00     0.163 HD
ATOM     79  O   UNL A   1      32.490  20.449  23.820  1.00  0.00    -0.269 OA
BRANCH  77  80
ATOM     80  C   UNL A   1      34.050  22.100  24.384  1.00  0.00     0.039 A 
ATOM     81  C   UNL A   1      34.451  22.017  25.717  1.00  0.00     0.014 A 
ATOM     82  C   UNL A   1      34.894  22.674  23.438  1.00  0.00     0.014 A 
ATOM     83  C   UNL A   1      35.745  22.411  26.081  1.00  0.00     0.005 A 
ATOM     84  C   UNL A   1      36.174  23.081  23.813  1.00  0.00     0.005 A 
ATOM     85  C   UNL A   1      36.655  22.895  25.123  1.00  0.00    -0.039 A 
BRANCH  85  86
ATOM     86  C   UNL A   1      38.123  23.186  25.497  1.00  0.00     0.074 C 
ATOM     87  C   UNL A   1      38.216  24.247  26.614  1.00  0.00     0.020 C 
ATOM     88  C   UNL A   1      38.878  21.906  25.952  1.00  0.00     0.270 C 
ATOM     89  C   UNL A   1      39.646  24.410  27.115  1.00  0.00     0.062 C 
ATOM     90  N   UNL A   1      40.193  22.064  26.584  1.00  0.00    -0.333 N 
ATOM     91  C   UNL A   1      40.189  23.084  27.635  1.00  0.00     0.262 C 
ATOM     92  H   UNL A   1      40.829  22.396  25.859  1.00  0.00     0.348 HD
BRANCH  90  93
ATOM     93  C   UNL A   1      40.712  20.765  27.086  1.00  0.00     0.284 C 
BRANCH  93  94
ATOM     94  C   UNL A   1      41.136  19.636  26.097  1.00  0.00     0.180 C 
BRANCH  94  95
ATOM     95  N   UNL A   1      42.544  19.630  25.725  1.00  0.00    -0.337 N 
ATOM     96  C   UNL A   1      43.318  18.419  25.623  1.00  0.00     0.120 C 
ATOM     97  C   UNL A   1      43.260  20.750  25.330  1.00  0.00     0.222 C 
ATOM     98  C   UNL A   1      44.753  18.911  25.636  1.00  0.00     0.031 C 
ATOM     99  C   UNL A   1      44.680  20.317  25.051  1.00  0.00     0.102 C 
ATOM    100  O   UNL A   1      42.847  21.892  25.242  1.00  0.00    -0.275 OA
ENDBRANCH  94  95
ENDBRANCH  93  94
ENDBRANCH  90  93
ENDBRANCH  85  86
ENDBRANCH  77  80
ENDBRANCH  75  76
ENDBRANCH  74  75
ENDBRANCH   1  74
TORSDOF 20
ENDMDL
MODEL 2
REMARK VINA RESULT:     -10.9      0.879      7.530
REMARK SMILES O=C(NCCCCCCNC(=O)c1ccc([C@H]2CCC[N@@H+](CCN3CCCC3=O)C2)cc1)c1ccc(-c2c3nc(c(-c4cc(S(=O)(=O)[O-])ccc4F)c4ccc([nH]4)c(-c4cc(S(=O)(=O)[O-])ccc4F)c4nc(c(-c5cc(S(=O)(=O)[O-])ccc5F)c5ccc2[nH]5)C=C4)C=C3)cc1
REMARK SMILES IDX 7 1 6 2 5 3 4 4 3 5 1 6 2 7 33 9 34 10 95 11 35 12 94 13
REMARK SMILES IDX 36 14 37 15 38 16 88 17 39 18 93 19 87 20 89 21 40 22 92 23
REMARK SMILES IDX 86 24 85 25 41 27 73 28 53 29 72 30 54 31 57 32 71 33 90 34
REMARK SMILES IDX 55 35 56 36 70 38 91 39 58 40 42 41 43 42 51 43 44 44 50 45
REMARK SMILES IDX 52 46 49 47 45 48 46 49 47 50 48 51 74 52 75 53 83 54 76 55
REMARK SMILES IDX 82 56 84 57 81 58 77 59 78 60 79 61 80 62 59 63 60 64 68 65
REMARK SMILES IDX 61 66 67 67 69 68 66 69 62 70 63 71 64 72 65 73 8 74 9 75
REMARK SMILES IDX 10 76 11 77 12 79 13 80 14 81 32 82 15 83 31 84 16 85 17 86
REMARK SMILES IDX 18 87 30 88 19 89 21 90 20 91 22 93 23 94 24 95 25 96 28 97
REMARK SMILES IDX 26 98 27 99 29 100
REMARK H PARENT 3 8 89 26 57 37 10 78 21 92
REMARK Flexibility Score: inf
ROOT
ATOM      1  C   UNL A   1      33.132  25.533  25.507  1.00  0.00     0.002 C 
ENDROOT
BRANCH   1   2
ATOM      2  C   UNL A   1      32.912  26.852  26.255  1.00  0.00     0.002 C 
BRANCH   2   3
ATOM      3  C   UNL A   1      33.391  28.103  25.520  1.00  0.00     0.021 C 
BRANCH   3   4
ATOM      4  C   UNL A   1      34.402  28.946  26.287  1.00  0.00     0.116 C 
BRANCH   4   5
ATOM      5  N   UNL A   1      33.913  30.286  26.582  1.00  0.00    -0.352 N 
ATOM      6  O   UNL A   1      33.722  32.208  27.751  1.00  0.00    -0.269 OA
ATOM      7  C   UNL A   1      34.348  31.175  27.538  1.00  0.00     0.251 C 
ATOM      8  H   UNL A   1      33.167  30.598  26.020  1.00  0.00     0.163 HD
BRANCH   7   9
ATOM      9  C   UNL A   1      35.564  30.862  28.321  1.00  0.00     0.039 A 
ATOM     10  C   UNL A   1      35.620  29.704  29.099  1.00  0.00     0.014 A 
ATOM     11  C   UNL A   1      36.647  31.745  28.295  1.00  0.00     0.014 A 
ATOM     12  C   UNL A   1      36.680  29.517  29.976  1.00  0.00     0.010 A 
ATOM     13  C   UNL A   1      37.763  31.496  29.101  1.00  0.00     0.010 A 
ATOM     14  C   UNL A   1      37.776  30.396  29.974  1.00  0.00    -0.014 A 
BRANCH  14  15
ATOM     15  C   UNL A   1      38.940  30.102  30.853  1.00  0.00     0.031 A 
ATOM     16  C   UNL A   1      40.046  29.186  30.407  1.00  0.00     0.074 A 
ATOM     17  C   UNL A   1      39.006  30.710  32.053  1.00  0.00     0.049 A 
ATOM     18  N   UNL A   1      41.139  28.843  31.042  1.00  0.00    -0.248 NA
ATOM     19  C   UNL A   1      39.904  28.565  29.082  1.00  0.00     0.031 C 
ATOM     20  C   UNL A   1      37.991  31.622  32.589  1.00  0.00     0.029 A 
ATOM     21  N   UNL A   1      39.969  30.680  33.029  1.00  0.00    -0.354 N 
ATOM     22  C   UNL A   1      41.810  27.958  30.205  1.00  0.00     0.074 A 
ATOM     23  C   UNL A   1      40.976  27.787  29.033  1.00  0.00     0.031 C 
ATOM     24  C   UNL A   1      38.411  32.111  33.763  1.00  0.00     0.029 A 
ATOM     25  C   UNL A   1      39.680  31.483  34.109  1.00  0.00     0.049 A 
ATOM     26  H   UNL A   1      40.787  30.137  32.964  1.00  0.00     0.167 HD
ATOM     27  C   UNL A   1      43.012  27.356  30.396  1.00  0.00     0.034 A 
ATOM     28  C   UNL A   1      40.347  31.675  35.262  1.00  0.00     0.034 A 
ATOM     29  C   UNL A   1      43.822  27.536  31.580  1.00  0.00     0.049 A 
ATOM     30  C   UNL A   1      41.643  30.940  35.477  1.00  0.00     0.074 A 
ATOM     31  C   UNL A   1      45.064  26.993  31.866  1.00  0.00     0.029 A 
ATOM     32  N   UNL A   1      43.468  28.305  32.683  1.00  0.00    -0.354 N 
ATOM     33  N   UNL A   1      42.272  30.121  34.666  1.00  0.00    -0.248 NA
ATOM     34  C   UNL A   1      42.317  31.158  36.760  1.00  0.00     0.031 C 
ATOM     35  C   UNL A   1      45.419  27.363  33.168  1.00  0.00     0.029 A 
ATOM     36  C   UNL A   1      44.448  28.217  33.663  1.00  0.00     0.049 A 
ATOM     37  H   UNL A   1      42.642  28.835  32.758  1.00  0.00     0.167 HD
ATOM     38  C   UNL A   1      43.435  29.750  35.333  1.00  0.00     0.074 A 
ATOM     39  C   UNL A   1      43.426  30.452  36.601  1.00  0.00     0.031 C 
ATOM     40  C   UNL A   1      44.422  28.909  34.933  1.00  0.00     0.034 A 
BRANCH  27  41
ATOM     41  C   UNL A   1      43.496  26.407  29.321  1.00  0.00     0.023 A 
ATOM     42  C   UNL A   1      43.790  26.846  28.018  1.00  0.00     0.031 A 
ATOM     43  C   UNL A   1      43.642  25.035  29.596  1.00  0.00     0.131 A 
ATOM     44  C   UNL A   1      44.138  25.917  27.024  1.00  0.00     0.055 A 
ATOM     45  C   UNL A   1      44.073  24.127  28.626  1.00  0.00     0.041 A 
ATOM     46  F   UNL A   1      43.356  24.547  30.815  1.00  0.00    -0.206 F 
ATOM     47  C   UNL A   1      44.308  24.564  27.326  1.00  0.00     0.022 A 
BRANCH  44  48
ATOM     48  S   UNL A   1      44.209  26.480  25.300  1.00  0.00     0.124 S 
ATOM     49  O   UNL A   1      45.046  25.453  24.684  1.00  0.00    -0.237 OA
ATOM     50  O   UNL A   1      42.806  26.478  24.905  1.00  0.00    -0.237 OA
ATOM     51  O   UNL A   1      44.828  27.801  25.395  1.00  0.00    -0.744 OA
ENDBRANCH  44  48
ENDBRANCH  27  41
BRANCH  28  52
ATOM     52  C   UNL A   1      39.790  32.576  36.312  1.00  0.00     0.023 A 
ATOM     53  C   UNL A   1      38.888  32.095  37.273  1.00  0.00     0.031 A 
ATOM     54  C   UNL A   1      40.126  33.942  36.349  1.00  0.00     0.131 A 
ATOM     55  C   UNL A   1      38.315  32.981  38.197  1.00  0.00     0.055 A 
ATOM     56  C   UNL A   1      39.605  34.805  37.312  1.00  0.00     0.041 A 
ATOM     57  F   UNL A   1      40.986  34.455  35.454  1.00  0.00    -0.206 F 
ATOM     58  C   UNL A   1      38.680  34.328  38.235  1.00  0.00     0.022 A 
BRANCH  55  59
ATOM     59  S   UNL A   1      37.004  32.364  39.287  1.00  0.00     0.124 S 
ATOM     60  O   UNL A   1      37.243  33.135  40.502  1.00  0.00    -0.237 OA
ATOM     61  O   UNL A   1      35.800  32.708  38.536  1.00  0.00    -0.237 OA
ATOM     62  O   UNL A   1      37.289  30.935  39.387  1.00  0.00    -0.744 OA
ENDBRANCH  55  59
ENDBRANCH  28  52
BRANCH  40  63
ATOM     63  C   UNL A   1      45.600  28.747  35.867  1.00  0.00     0.023 A 
ATOM     64  C   UNL A   1      45.593  27.812  36.917  1.00  0.00     0.031 A 
ATOM     65  C   UNL A   1      46.733  29.567  35.721  1.00  0.00     0.131 A 
ATOM     66  C   UNL A   1      46.664  27.769  37.822  1.00  0.00     0.055 A 
ATOM     67  C   UNL A   1      47.827  29.470  36.581  1.00  0.00     0.041 A 
ATOM     68  F   UNL A   1      46.793  30.483  34.742  1.00  0.00    -0.206 F 
ATOM     69  C   UNL A   1      47.790  28.578  37.650  1.00  0.00     0.022 A 
BRANCH  66  70
ATOM     70  S   UNL A   1      46.515  26.726  39.299  1.00  0.00     0.124 S 
ATOM     71  O   UNL A   1      46.300  25.405  38.716  1.00  0.00    -0.237 OA
ATOM     72  O   UNL A   1      47.800  26.932  39.957  1.00  0.00    -0.237 OA
ATOM     73  O   UNL A   1      45.362  27.289  40.001  1.00  0.00    -0.744 OA
ENDBRANCH  66  70
ENDBRANCH  40  63
ENDBRANCH  14  15
ENDBRANCH   7   9
ENDBRANCH   4   5
ENDBRANCH   3   4
ENDBRANCH   2   3
ENDBRANCH   1   2
BRANCH   1  74
ATOM     74  C   UNL A   1      31.864  24.854  24.974  1.00  0.00     0.021 C 
BRANCH  74  75
ATOM     75  C   UNL A   1      32.024  24.156  23.621  1.00  0.00     0.116 C 
BRANCH  75  76
ATOM     76  N   UNL A   1      31.977  22.707  23.762  1.00  0.00    -0.352 N 
ATOM     77  C   UNL A   1      33.002  21.821  23.978  1.00  0.00     0.251 C 
ATOM     78  H   UNL A   1      31.081  22.306  23.691  1.00  0.00     0.163 HD
ATOM     79  O   UNL A   1      32.827  20.616  23.823  1.00  0.00    -0.269 OA
BRANCH  77  80
ATOM     80  C   UNL A   1      34.320  22.319  24.414  1.00  0.00     0.039 A 
ATOM     81  C   UNL A   1      34.643  22.338  25.770  1.00  0.00     0.014 A 
ATOM     82  C   UNL A   1      35.214  22.833  23.479  1.00  0.00     0.014 A 
ATOM     83  C   UNL A   1      35.910  22.772  26.179  1.00  0.00     0.005 A 
ATOM     84  C   UNL A   1      36.467  23.281  23.897  1.00  0.00     0.005 A 
ATOM     85  C   UNL A   1      36.871  23.196  25.243  1.00  0.00    -0.039 A 
BRANCH  85  86
ATOM     86  C   UNL A   1      38.312  23.531  25.680  1.00  0.00     0.074 C 
ATOM     87  C   UNL A   1      38.324  24.586  26.807  1.00  0.00     0.020 C 
ATOM     88  C   UNL A   1      39.088  22.272  26.157  1.00  0.00     0.270 C 
ATOM     89  C   UNL A   1      39.727  24.791  27.368  1.00  0.00     0.062 C 
ATOM     90  N   UNL A   1      40.371  22.468  26.844  1.00  0.00    -0.333 N 
ATOM     91  C   UNL A   1      40.290  23.479  27.901  1.00  0.00     0.262 C 
ATOM     92  H   UNL A   1      41.025  22.826  26.149  1.00  0.00     0.348 HD
BRANCH  90  93
ATOM     93  C   UNL A   1      40.910  21.182  27.360  1.00  0.00     0.284 C 
BRANCH  93  94
ATOM     94  C   UNL A   1      41.140  19.971  26.405  1.00  0.00     0.180 C 
BRANCH  94  95
ATOM     95  N   UNL A   1      42.509  19.795  25.939  1.00  0.00    -0.337 N 
ATOM     96  C   UNL A   1      43.413  20.899  25.742  1.00  0.00     0.120 C 
ATOM     97  C   UNL A   1      43.122  18.567  25.738  1.00  0.00     0.222 C 
ATOM     98  C   UNL A   1      44.514  20.308  24.883  1.00  0.00     0.031 C 
ATOM     99  C   UNL A   1      44.523  18.825  25.239  1.00  0.00     0.102 C 
ATOM    100  O   UNL A   1      42.629  17.465  25.902  1.00  0.00    -0.275 OA
ENDBRANCH  94  95
ENDBRANCH  93  94
ENDBRANCH  90  93
ENDBRANCH  85  86
ENDBRANCH  77  80
ENDBRANCH  75  76
ENDBRANCH  74  75
ENDBRANCH   1  74
TORSDOF 20
ENDMDL
MODEL 3
REMARK VINA RESULT:     -10.3      5.634     10.786
REMARK SMILES O=C(NCCCCCCNC(=O)c1ccc([C@H]2CCC[N@@H+](CCN3CCCC3=O)C2)cc1)c1ccc(-c2c3nc(c(-c4cc(S(=O)(=O)[O-])ccc4F)c4ccc([nH]4)c(-c4cc(S(=O)(=O)[O-])ccc4F)c4nc(c(-c5cc(S(=O)(=O)[O-])ccc5F)c5ccc2[nH]5)C=C4)C=C3)cc1
REMARK SMILES IDX 7 1 6 2 5 3 4 4 3 5 1 6 2 7 33 9 34 10 95 11 35 12 94 13
REMARK SMILES IDX 36 14 37 15 38 16 88 17 39 18 93 19 87 20 89 21 40 22 92 23
REMARK SMILES IDX 86 24 85 25 41 27 73 28 53 29 72 30 54 31 57 32 71 33 90 34
REMARK SMILES IDX 55 35 56 36 70 38 91 39 58 40 42 41 43 42 51 43 44 44 50 45
REMARK SMILES IDX 52 46 49 47 45 48 46 49 47 50 48 51 74 52 75 53 83 54 76 55
REMARK SMILES IDX 82 56 84 57 81 58 77 59 78 60 79 61 80 62 59 63 60 64 68 65
REMARK SMILES IDX 61 66 67 67 69 68 66 69 62 70 63 71 64 72 65 73 8 74 9 75
REMARK SMILES IDX 10 76 11 77 12 79 13 80 14 81 32 82 15 83 31 84 16 85 17 86
REMARK SMILES IDX 18 87 30 88 19 89 21 90 20 91 22 93 23 94 24 95 25 96 28 97
REMARK SMILES IDX 26 98 27 99 29 100
REMARK H PARENT 3 8 89 26 57 37 10 78 21 92
REMARK Flexibility Score: inf
ROOT
ATOM      1  C   UNL A   1      38.472  28.005  28.299  1.00  0.00     0.002 C 
ENDROOT
BRANCH   1   2
ATOM      2  C   UNL A   1      39.375  26.976  28.986  1.00  0.00     0.002 C 
BRANCH   2   3
ATOM      3  C   UNL A   1      39.382  25.588  28.348  1.00  0.00     0.021 C 
BRANCH   3   4
ATOM      4  C   UNL A   1      40.759  24.951  28.217  1.00  0.00     0.116 C 
BRANCH   4   5
ATOM      5  N   UNL A   1      41.233  24.906  26.840  1.00  0.00    -0.352 N 
ATOM      6  O   UNL A   1      42.026  25.737  24.896  1.00  0.00    -0.269 OA
ATOM      7  C   UNL A   1      41.824  25.900  26.095  1.00  0.00     0.251 C 
ATOM      8  H   UNL A   1      41.114  24.044  26.379  1.00  0.00     0.163 HD
BRANCH   7   9
ATOM      9  C   UNL A   1      42.192  27.176  26.748  1.00  0.00     0.039 A 
ATOM     10  C   UNL A   1      43.125  27.190  27.787  1.00  0.00     0.014 A 
ATOM     11  C   UNL A   1      41.582  28.364  26.335  1.00  0.00     0.014 A 
ATOM     12  C   UNL A   1      43.320  28.353  28.519  1.00  0.00     0.010 A 
ATOM     13  C   UNL A   1      41.864  29.557  27.008  1.00  0.00     0.010 A 
ATOM     14  C   UNL A   1      42.711  29.557  28.128  1.00  0.00    -0.014 A 
BRANCH  14  15
ATOM     15  C   UNL A   1      43.029  30.804  28.875  1.00  0.00     0.031 A 
ATOM     16  C   UNL A   1      44.131  31.725  28.429  1.00  0.00     0.074 A 
ATOM     17  C   UNL A   1      42.276  31.117  29.948  1.00  0.00     0.049 A 
ATOM     18  N   UNL A   1      44.520  32.860  28.955  1.00  0.00    -0.248 NA
ATOM     19  C   UNL A   1      44.903  31.317  27.247  1.00  0.00     0.031 C 
ATOM     20  C   UNL A   1      41.178  30.299  30.470  1.00  0.00     0.029 A 
ATOM     21  N   UNL A   1      42.296  32.209  30.776  1.00  0.00    -0.354 N 
ATOM     22  C   UNL A   1      45.589  33.297  28.180  1.00  0.00     0.074 A 
ATOM     23  C   UNL A   1      45.811  32.280  27.172  1.00  0.00     0.031 C 
ATOM     24  C   UNL A   1      40.592  30.943  31.488  1.00  0.00     0.029 A 
ATOM     25  C   UNL A   1      41.323  32.176  31.750  1.00  0.00     0.049 A 
ATOM     26  H   UNL A   1      42.942  32.945  30.685  1.00  0.00     0.167 HD
ATOM     27  C   UNL A   1      46.308  34.443  28.296  1.00  0.00     0.034 A 
ATOM     28  C   UNL A   1      41.062  33.028  32.758  1.00  0.00     0.034 A 
ATOM     29  C   UNL A   1      46.073  35.439  29.317  1.00  0.00     0.049 A 
ATOM     30  C   UNL A   1      41.920  34.256  32.906  1.00  0.00     0.074 A 
ATOM     31  C   UNL A   1      46.726  36.646  29.512  1.00  0.00     0.029 A 
ATOM     32  N   UNL A   1      45.123  35.342  30.327  1.00  0.00    -0.354 N 
ATOM     33  N   UNL A   1      42.915  34.663  32.152  1.00  0.00    -0.248 NA
ATOM     34  C   UNL A   1      41.617  35.138  34.037  1.00  0.00     0.031 C 
ATOM     35  C   UNL A   1      46.230  37.233  30.681  1.00  0.00     0.029 A 
ATOM     36  C   UNL A   1      45.200  36.445  31.167  1.00  0.00     0.049 A 
ATOM     37  H   UNL A   1      44.486  34.598  30.431  1.00  0.00     0.167 HD
ATOM     38  C   UNL A   1      43.337  35.868  32.704  1.00  0.00     0.074 A 
ATOM     39  C   UNL A   1      42.474  36.128  33.838  1.00  0.00     0.031 C 
ATOM     40  C   UNL A   1      44.344  36.688  32.307  1.00  0.00     0.034 A 
BRANCH  27  41
ATOM     41  C   UNL A   1      47.449  34.653  27.324  1.00  0.00     0.023 A 
ATOM     42  C   UNL A   1      48.767  34.270  27.630  1.00  0.00     0.031 A 
ATOM     43  C   UNL A   1      47.220  35.268  26.080  1.00  0.00     0.131 A 
ATOM     44  C   UNL A   1      49.812  34.574  26.742  1.00  0.00     0.055 A 
ATOM     45  C   UNL A   1      48.250  35.489  25.163  1.00  0.00     0.041 A 
ATOM     46  F   UNL A   1      45.987  35.678  25.736  1.00  0.00    -0.206 F 
ATOM     47  C   UNL A   1      49.559  35.157  25.499  1.00  0.00     0.022 A 
BRANCH  44  48
ATOM     48  S   UNL A   1      51.522  34.341  27.306  1.00  0.00     0.124 S 
ATOM     49  O   UNL A   1      51.401  34.593  28.740  1.00  0.00    -0.237 OA
ATOM     50  O   UNL A   1      51.799  32.962  26.924  1.00  0.00    -0.237 OA
ATOM     51  O   UNL A   1      52.269  35.356  26.565  1.00  0.00    -0.744 OA
ENDBRANCH  44  48
ENDBRANCH  27  41
BRANCH  28  52
ATOM     52  C   UNL A   1      39.963  32.738  33.724  1.00  0.00     0.023 A 
ATOM     53  C   UNL A   1      38.661  33.208  33.500  1.00  0.00     0.031 A 
ATOM     54  C   UNL A   1      40.209  32.014  34.905  1.00  0.00     0.131 A 
ATOM     55  C   UNL A   1      37.666  32.992  34.466  1.00  0.00     0.055 A 
ATOM     56  C   UNL A   1      39.201  31.745  35.830  1.00  0.00     0.041 A 
ATOM     57  F   UNL A   1      41.437  31.539  35.169  1.00  0.00    -0.206 F 
ATOM     58  C   UNL A   1      37.922  32.249  35.620  1.00  0.00     0.022 A 
BRANCH  55  59
ATOM     59  S   UNL A   1      36.052  33.787  34.237  1.00  0.00     0.124 S 
ATOM     60  O   UNL A   1      35.375  32.836  33.363  1.00  0.00    -0.237 OA
ATOM     61  O   UNL A   1      35.556  33.864  35.608  1.00  0.00    -0.237 OA
ATOM     62  O   UNL A   1      36.389  35.070  33.625  1.00  0.00    -0.744 OA
ENDBRANCH  55  59
ENDBRANCH  28  52
BRANCH  40  63
ATOM     63  C   UNL A   1      44.526  37.970  33.086  1.00  0.00     0.023 A 
ATOM     64  C   UNL A   1      43.723  39.101  32.855  1.00  0.00     0.031 A 
ATOM     65  C   UNL A   1      45.545  38.070  34.051  1.00  0.00     0.131 A 
ATOM     66  C   UNL A   1      43.996  40.302  33.527  1.00  0.00     0.055 A 
ATOM     67  C   UNL A   1      45.764  39.246  34.770  1.00  0.00     0.041 A 
ATOM     68  F   UNL A   1      46.348  37.026  34.309  1.00  0.00    -0.206 F 
ATOM     69  C   UNL A   1      44.999  40.376  34.497  1.00  0.00     0.022 A 
BRANCH  66  70
ATOM     70  S   UNL A   1      43.102  41.800  33.031  1.00  0.00     0.124 S 
ATOM     71  O   UNL A   1      43.178  41.730  31.575  1.00  0.00    -0.237 OA
ATOM     72  O   UNL A   1      41.782  41.583  33.612  1.00  0.00    -0.237 OA
ATOM     73  O   UNL A   1      43.877  42.880  33.641  1.00  0.00    -0.744 OA
ENDBRANCH  66  70
ENDBRANCH  40  63
ENDBRANCH  14  15
ENDBRANCH   7   9
ENDBRANCH   4   5
ENDBRANCH   3   4
ENDBRANCH   2   3
ENDBRANCH   1   2
BRANCH   1  74
ATOM     74  C   UNL A   1      38.179  29.274  29.109  1.00  0.00     0.021 C 
BRANCH  74  75
ATOM     75  C   UNL A   1      36.694  29.558  29.352  1.00  0.00     0.116 C 
BRANCH  75  76
ATOM     76  N   UNL A   1      36.326  30.891  28.895  1.00  0.00    -0.352 N 
ATOM     77  C   UNL A   1      35.419  31.261  27.935  1.00  0.00     0.251 C 
ATOM     78  H   UNL A   1      36.796  31.633  29.339  1.00  0.00     0.163 HD
ATOM     79  O   UNL A   1      35.408  32.408  27.497  1.00  0.00    -0.269 OA
BRANCH  77  80
ATOM     80  C   UNL A   1      34.438  30.279  27.438  1.00  0.00     0.039 A 
ATOM     81  C   UNL A   1      34.868  29.031  26.990  1.00  0.00     0.014 A 
ATOM     82  C   UNL A   1      33.092  30.624  27.350  1.00  0.00     0.014 A 
ATOM     83  C   UNL A   1      33.930  28.085  26.556  1.00  0.00     0.005 A 
ATOM     84  C   UNL A   1      32.168  29.682  26.899  1.00  0.00     0.005 A 
ATOM     85  C   UNL A   1      32.553  28.371  26.559  1.00  0.00    -0.039 A 
BRANCH  85  86
ATOM     86  C   UNL A   1      31.514  27.281  26.224  1.00  0.00     0.074 C 
ATOM     87  C   UNL A   1      30.938  27.473  24.805  1.00  0.00     0.020 C 
ATOM     88  C   UNL A   1      32.108  25.849  26.339  1.00  0.00     0.270 C 
ATOM     89  C   UNL A   1      30.049  26.304  24.398  1.00  0.00     0.062 C 
ATOM     90  N   UNL A   1      31.326  24.729  25.802  1.00  0.00    -0.333 N 
ATOM     91  C   UNL A   1      30.825  24.994  24.452  1.00  0.00     0.262 C 
ATOM     92  H   UNL A   1      30.508  24.629  26.402  1.00  0.00     0.348 HD
BRANCH  90  93
ATOM     93  C   UNL A   1      32.093  23.457  25.860  1.00  0.00     0.284 C 
BRANCH  93  94
ATOM     94  C   UNL A   1      32.562  22.746  24.554  1.00  0.00     0.180 C 
BRANCH  94  95
ATOM     95  N   UNL A   1      34.005  22.680  24.364  1.00  0.00    -0.337 N 
ATOM     96  C   UNL A   1      34.775  23.782  23.845  1.00  0.00     0.120 C 
ATOM     97  C   UNL A   1      34.804  21.613  24.750  1.00  0.00     0.222 C 
ATOM     98  C   UNL A   1      36.086  23.139  23.435  1.00  0.00     0.031 C 
ATOM     99  C   UNL A   1      36.226  21.934  24.358  1.00  0.00     0.102 C 
ATOM    100  O   UNL A   1      34.441  20.581  25.286  1.00  0.00    -0.275 OA
ENDBRANCH  94  95
ENDBRANCH  93  94
ENDBRANCH  90  93
ENDBRANCH  85  86
ENDBRANCH  77  80
ENDBRANCH  75  76
ENDBRANCH  74  75
ENDBRANCH   1  74
TORSDOF 20
ENDMDL
