MODEL 1
REMARK VINA RESULT:     -12.2      0.000      0.000
REMARK SMILES O=C(NCCCCCCNC(=O)[C@]1(NC(=O)C2CCN(C(=O)C3CC3)CC2)CCCc2ccccc21)c1ccc(-c2c3nc(c(-c4cc(S(=O)(=O)[O-])ccc4F)c4ccc([nH]4)c(-c4cc(S(=O)(=O)[O-])ccc4F)c4nc(c(-c5cc(S(=O)(=O)[O-])ccc5F)c5ccc2[nH]5)C=C4)C=C3)cc1
REMARK SMILES IDX 6 1 5 2 4 3 3 4 1 5 2 6 37 8 38 9 99 10 39 11 98 12 40 13
REMARK SMILES IDX 41 14 42 15 92 16 43 17 97 18 91 19 93 20 44 21 96 22 90 23
REMARK SMILES IDX 89 24 45 26 77 27 57 28 76 29 58 30 61 31 75 32 94 33 59 34
REMARK SMILES IDX 60 35 74 37 95 38 62 39 46 40 47 41 55 42 48 43 54 44 56 45
REMARK SMILES IDX 53 46 49 47 50 48 51 49 52 50 78 51 79 52 87 53 80 54 86 55
REMARK SMILES IDX 88 56 85 57 81 58 82 59 83 60 84 61 63 62 64 63 72 64 65 65
REMARK SMILES IDX 71 66 73 67 70 68 66 69 67 70 68 71 69 72 7 73 8 74 9 75
REMARK SMILES IDX 10 76 11 77 12 79 13 80 28 81 36 82 29 83 31 84 35 85 30 86
REMARK SMILES IDX 32 87 34 88 33 89 14 90 15 91 16 93 17 94 18 95 27 96 19 97
REMARK SMILES IDX 26 98 20 99 21 100 22 101 23 102 24 103 25 104
REMARK H PARENT 3 7 93 25 61 36 10 78 14 92
REMARK Flexibility Score: inf
ROOT
ATOM      1  C   UNL A   1      33.116  31.542  27.288  1.00  0.00     0.002 C 
ENDROOT
BRANCH   1   2
ATOM      2  C   UNL A   1      32.498  32.927  27.492  1.00  0.00     0.021 C 
BRANCH   2   3
ATOM      3  C   UNL A   1      33.481  34.010  27.912  1.00  0.00     0.116 C 
BRANCH   3   4
ATOM      4  N   UNL A   1      33.004  34.783  29.046  1.00  0.00    -0.352 N 
ATOM      5  O   UNL A   1      32.830  35.356  31.223  1.00  0.00    -0.269 OA
ATOM      6  C   UNL A   1      33.449  34.762  30.346  1.00  0.00     0.251 C 
ATOM      7  H   UNL A   1      32.263  35.404  28.859  1.00  0.00     0.163 HD
BRANCH   6   8
ATOM      8  C   UNL A   1      34.669  33.995  30.677  1.00  0.00     0.039 A 
ATOM      9  C   UNL A   1      34.576  32.805  31.401  1.00  0.00     0.014 A 
ATOM     10  C   UNL A   1      35.916  34.488  30.288  1.00  0.00     0.014 A 
ATOM     11  C   UNL A   1      35.733  32.191  31.866  1.00  0.00     0.010 A 
ATOM     12  C   UNL A   1      37.078  33.815  30.678  1.00  0.00     0.010 A 
ATOM     13  C   UNL A   1      36.997  32.681  31.502  1.00  0.00    -0.014 A 
BRANCH  13  14
ATOM     14  C   UNL A   1      38.213  31.966  31.971  1.00  0.00     0.031 A 
ATOM     15  C   UNL A   1      38.821  32.266  33.315  1.00  0.00     0.074 A 
ATOM     16  C   UNL A   1      38.743  31.009  31.184  1.00  0.00     0.049 A 
ATOM     17  N   UNL A   1      39.862  31.719  33.889  1.00  0.00    -0.248 NA
ATOM     18  C   UNL A   1      38.186  33.325  34.111  1.00  0.00     0.031 C 
ATOM     19  C   UNL A   1      38.239  30.637  29.859  1.00  0.00     0.029 A 
ATOM     20  N   UNL A   1      39.798  30.157  31.387  1.00  0.00    -0.354 N 
ATOM     21  C   UNL A   1      40.025  32.382  35.102  1.00  0.00     0.074 A 
ATOM     22  C   UNL A   1      38.990  33.394  35.162  1.00  0.00     0.031 C 
ATOM     23  C   UNL A   1      38.945  29.597  29.395  1.00  0.00     0.029 A 
ATOM     24  C   UNL A   1      39.997  29.274  30.351  1.00  0.00     0.049 A 
ATOM     25  H   UNL A   1      40.359  30.176  32.195  1.00  0.00     0.167 HD
ATOM     26  C   UNL A   1      40.946  32.161  36.074  1.00  0.00     0.034 A 
ATOM     27  C   UNL A   1      40.931  28.319  30.181  1.00  0.00     0.034 A 
ATOM     28  C   UNL A   1      41.965  31.138  35.997  1.00  0.00     0.049 A 
ATOM     29  C   UNL A   1      41.953  28.108  31.264  1.00  0.00     0.074 A 
ATOM     30  C   UNL A   1      42.927  30.807  36.935  1.00  0.00     0.029 A 
ATOM     31  N   UNL A   1      42.159  30.284  34.917  1.00  0.00    -0.354 N 
ATOM     32  N   UNL A   1      42.079  28.733  32.412  1.00  0.00    -0.248 NA
ATOM     33  C   UNL A   1      42.950  27.058  31.032  1.00  0.00     0.031 C 
ATOM     34  C   UNL A   1      43.742  29.804  36.397  1.00  0.00     0.029 A 
ATOM     35  C   UNL A   1      43.240  29.448  35.155  1.00  0.00     0.049 A 
ATOM     36  H   UNL A   1      41.607  30.274  34.101  1.00  0.00     0.167 HD
ATOM     37  C   UNL A   1      43.158  28.130  33.051  1.00  0.00     0.074 A 
ATOM     38  C   UNL A   1      43.629  27.081  32.168  1.00  0.00     0.031 C 
ATOM     39  C   UNL A   1      43.707  28.414  34.260  1.00  0.00     0.034 A 
BRANCH  26  40
ATOM     40  C   UNL A   1      40.923  33.075  37.278  1.00  0.00     0.023 A 
ATOM     41  C   UNL A   1      40.243  32.735  38.460  1.00  0.00     0.031 A 
ATOM     42  C   UNL A   1      41.572  34.323  37.232  1.00  0.00     0.131 A 
ATOM     43  C   UNL A   1      40.162  33.657  39.516  1.00  0.00     0.055 A 
ATOM     44  C   UNL A   1      41.557  35.203  38.316  1.00  0.00     0.041 A 
ATOM     45  F   UNL A   1      42.221  34.715  36.125  1.00  0.00    -0.206 F 
ATOM     46  C   UNL A   1      40.836  34.879  39.462  1.00  0.00     0.022 A 
BRANCH  43  47
ATOM     47  S   UNL A   1      39.045  33.296  40.899  1.00  0.00     0.124 S 
ATOM     48  O   UNL A   1      39.445  34.307  41.876  1.00  0.00    -0.237 OA
ATOM     49  O   UNL A   1      37.729  33.478  40.298  1.00  0.00    -0.237 OA
ATOM     50  O   UNL A   1      39.382  31.921  41.263  1.00  0.00    -0.744 OA
ENDBRANCH  43  47
ENDBRANCH  26  40
BRANCH  27  51
ATOM     51  C   UNL A   1      40.952  27.504  28.934  1.00  0.00     0.023 A 
ATOM     52  C   UNL A   1      41.934  27.707  27.953  1.00  0.00     0.031 A 
ATOM     53  C   UNL A   1      39.972  26.524  28.694  1.00  0.00     0.131 A 
ATOM     54  C   UNL A   1      41.890  26.971  26.759  1.00  0.00     0.055 A 
ATOM     55  C   UNL A   1      39.966  25.756  27.529  1.00  0.00     0.041 A 
ATOM     56  F   UNL A   1      39.012  26.285  29.604  1.00  0.00    -0.206 F 
ATOM     57  C   UNL A   1      40.922  25.987  26.547  1.00  0.00     0.022 A 
BRANCH  54  58
ATOM     58  S   UNL A   1      43.078  27.376  25.448  1.00  0.00     0.124 S 
ATOM     59  O   UNL A   1      44.150  28.011  26.205  1.00  0.00    -0.237 OA
ATOM     60  O   UNL A   1      43.375  26.060  24.893  1.00  0.00    -0.237 OA
ATOM     61  O   UNL A   1      42.321  28.265  24.568  1.00  0.00    -0.744 OA
ENDBRANCH  54  58
ENDBRANCH  27  51
BRANCH  39  62
ATOM     62  C   UNL A   1      44.848  27.534  34.710  1.00  0.00     0.023 A 
ATOM     63  C   UNL A   1      44.632  26.361  35.454  1.00  0.00     0.031 A 
ATOM     64  C   UNL A   1      46.175  27.899  34.421  1.00  0.00     0.131 A 
ATOM     65  C   UNL A   1      45.726  25.635  35.948  1.00  0.00     0.055 A 
ATOM     66  C   UNL A   1      47.258  27.135  34.858  1.00  0.00     0.041 A 
ATOM     67  F   UNL A   1      46.440  29.011  33.717  1.00  0.00    -0.206 F 
ATOM     68  C   UNL A   1      47.038  26.006  35.640  1.00  0.00     0.022 A 
BRANCH  65  69
ATOM     69  S   UNL A   1      45.415  24.264  37.094  1.00  0.00     0.124 S 
ATOM     70  O   UNL A   1      45.101  23.170  36.179  1.00  0.00    -0.237 OA
ATOM     71  O   UNL A   1      46.686  24.156  37.802  1.00  0.00    -0.237 OA
ATOM     72  O   UNL A   1      44.293  24.738  37.900  1.00  0.00    -0.744 OA
ENDBRANCH  65  69
ENDBRANCH  39  62
ENDBRANCH  13  14
ENDBRANCH   6   8
ENDBRANCH   3   4
ENDBRANCH   2   3
ENDBRANCH   1   2
BRANCH   1  73
ATOM     73  C   UNL A   1      32.195  30.489  26.661  1.00  0.00     0.002 C 
BRANCH  73  74
ATOM     74  C   UNL A   1      32.333  29.070  27.222  1.00  0.00     0.021 C 
BRANCH  74  75
ATOM     75  C   UNL A   1      33.709  28.450  27.023  1.00  0.00     0.116 C 
BRANCH  75  76
ATOM     76  N   UNL A   1      34.198  28.609  25.671  1.00  0.00    -0.354 N 
ATOM     77  C   UNL A   1      33.867  27.958  24.524  1.00  0.00     0.250 C 
ATOM     78  H   UNL A   1      34.885  29.305  25.563  1.00  0.00     0.163 HD
ATOM     79  O   UNL A   1      33.930  28.685  23.523  1.00  0.00    -0.272 OA
BRANCH  77  80
ATOM     80  C   UNL A   1      33.465  26.434  24.399  1.00  0.00     0.145 C 
ATOM     81  C   UNL A   1      33.919  26.042  22.956  1.00  0.00     0.044 C 
ATOM     82  C   UNL A   1      31.969  26.121  24.560  1.00  0.00    -0.010 A 
ATOM     83  C   UNL A   1      33.020  26.647  21.892  1.00  0.00     0.008 C 
ATOM     84  C   UNL A   1      31.118  25.976  23.433  1.00  0.00    -0.042 A 
ATOM     85  C   UNL A   1      31.392  26.042  25.844  1.00  0.00     0.007 A 
ATOM     86  C   UNL A   1      31.621  26.061  22.009  1.00  0.00     0.036 C 
ATOM     87  C   UNL A   1      29.739  25.773  23.617  1.00  0.00     0.004 A 
ATOM     88  C   UNL A   1      30.017  25.847  26.007  1.00  0.00     0.000 A 
ATOM     89  C   UNL A   1      29.192  25.721  24.896  1.00  0.00     0.000 A 
BRANCH  80  90
ATOM     90  N   UNL A   1      34.246  25.480  25.264  1.00  0.00    -0.338 N 
ATOM     91  C   UNL A   1      34.853  24.281  25.078  1.00  0.00     0.224 C 
ATOM     92  H   UNL A   1      34.337  25.805  26.189  1.00  0.00     0.164 HD
ATOM     93  O   UNL A   1      35.839  24.038  25.778  1.00  0.00    -0.275 OA
BRANCH  91  94
ATOM     94  C   UNL A   1      34.271  23.227  24.145  1.00  0.00     0.082 C 
ATOM     95  C   UNL A   1      32.959  22.671  24.737  1.00  0.00     0.035 C 
ATOM     96  C   UNL A   1      35.286  22.092  23.856  1.00  0.00     0.035 C 
ATOM     97  C   UNL A   1      33.162  21.592  25.793  1.00  0.00     0.120 C 
ATOM     98  C   UNL A   1      35.365  21.057  24.984  1.00  0.00     0.120 C 
ATOM     99  N   UNL A   1      34.029  20.552  25.266  1.00  0.00    -0.342 N 
ATOM    100  C   UNL A   1      33.438  19.338  24.916  1.00  0.00     0.225 C 
ATOM    101  O   UNL A   1      32.235  19.148  25.094  1.00  0.00    -0.275 OA
BRANCH 100 102
ATOM    102  C   UNL A   1      34.173  18.172  24.341  1.00  0.00     0.079 C 
ATOM    103  C   UNL A   1      33.912  16.704  24.499  1.00  0.00     0.014 C 
ATOM    104  C   UNL A   1      33.626  17.382  23.182  1.00  0.00     0.014 C 
ENDBRANCH 100 102
ENDBRANCH  91  94
ENDBRANCH  80  90
ENDBRANCH  77  80
ENDBRANCH  75  76
ENDBRANCH  74  75
ENDBRANCH  73  74
ENDBRANCH   1  73
TORSDOF 19
ENDMDL
MODEL 2
REMARK VINA RESULT:     -12.1      2.144      8.620
REMARK SMILES O=C(NCCCCCCNC(=O)[C@]1(NC(=O)C2CCN(C(=O)C3CC3)CC2)CCCc2ccccc21)c1ccc(-c2c3nc(c(-c4cc(S(=O)(=O)[O-])ccc4F)c4ccc([nH]4)c(-c4cc(S(=O)(=O)[O-])ccc4F)c4nc(c(-c5cc(S(=O)(=O)[O-])ccc5F)c5ccc2[nH]5)C=C4)C=C3)cc1
REMARK SMILES IDX 6 1 5 2 4 3 3 4 1 5 2 6 37 8 38 9 99 10 39 11 98 12 40 13
REMARK SMILES IDX 41 14 42 15 92 16 43 17 97 18 91 19 93 20 44 21 96 22 90 23
REMARK SMILES IDX 89 24 45 26 77 27 57 28 76 29 58 30 61 31 75 32 94 33 59 34
REMARK SMILES IDX 60 35 74 37 95 38 62 39 46 40 47 41 55 42 48 43 54 44 56 45
REMARK SMILES IDX 53 46 49 47 50 48 51 49 52 50 78 51 79 52 87 53 80 54 86 55
REMARK SMILES IDX 88 56 85 57 81 58 82 59 83 60 84 61 63 62 64 63 72 64 65 65
REMARK SMILES IDX 71 66 73 67 70 68 66 69 67 70 68 71 69 72 7 73 8 74 9 75
REMARK SMILES IDX 10 76 11 77 12 79 13 80 28 81 36 82 29 83 31 84 35 85 30 86
REMARK SMILES IDX 32 87 34 88 33 89 14 90 15 91 16 93 17 94 18 95 27 96 19 97
REMARK SMILES IDX 26 98 20 99 21 100 22 101 23 102 24 103 25 104
REMARK H PARENT 3 7 93 25 61 36 10 78 14 92
REMARK Flexibility Score: inf
ROOT
ATOM      1  C   UNL A   1      31.373  30.720  26.193  1.00  0.00     0.002 C 
ENDROOT
BRANCH   1   2
ATOM      2  C   UNL A   1      31.351  32.207  26.553  1.00  0.00     0.021 C 
BRANCH   2   3
ATOM      3  C   UNL A   1      32.660  32.752  27.101  1.00  0.00     0.116 C 
BRANCH   3   4
ATOM      4  N   UNL A   1      32.514  34.082  27.667  1.00  0.00    -0.352 N 
ATOM      5  O   UNL A   1      32.834  35.723  29.185  1.00  0.00    -0.269 OA
ATOM      6  C   UNL A   1      33.190  34.643  28.724  1.00  0.00     0.251 C 
ATOM      7  H   UNL A   1      31.842  34.658  27.237  1.00  0.00     0.163 HD
BRANCH   6   8
ATOM      8  C   UNL A   1      34.336  33.918  29.312  1.00  0.00     0.039 A 
ATOM      9  C   UNL A   1      34.119  32.817  30.143  1.00  0.00     0.014 A 
ATOM     10  C   UNL A   1      35.634  34.364  29.057  1.00  0.00     0.014 A 
ATOM     11  C   UNL A   1      35.186  32.259  30.837  1.00  0.00     0.010 A 
ATOM     12  C   UNL A   1      36.716  33.739  29.684  1.00  0.00     0.010 A 
ATOM     13  C   UNL A   1      36.498  32.705  30.609  1.00  0.00    -0.014 A 
BRANCH  13  14
ATOM     14  C   UNL A   1      37.622  32.046  31.326  1.00  0.00     0.031 A 
ATOM     15  C   UNL A   1      38.418  30.946  30.678  1.00  0.00     0.074 A 
ATOM     16  C   UNL A   1      37.943  32.482  32.560  1.00  0.00     0.049 A 
ATOM     17  N   UNL A   1      39.443  30.283  31.150  1.00  0.00    -0.248 NA
ATOM     18  C   UNL A   1      38.003  30.527  29.333  1.00  0.00     0.031 C 
ATOM     19  C   UNL A   1      37.236  33.540  33.288  1.00  0.00     0.029 A 
ATOM     20  N   UNL A   1      38.954  32.115  33.410  1.00  0.00    -0.354 N 
ATOM     21  C   UNL A   1      39.782  29.351  30.173  1.00  0.00     0.074 A 
ATOM     22  C   UNL A   1      38.828  29.518  29.096  1.00  0.00     0.031 C 
ATOM     23  C   UNL A   1      37.868  33.777  34.445  1.00  0.00     0.029 A 
ATOM     24  C   UNL A   1      38.979  32.842  34.578  1.00  0.00     0.049 A 
ATOM     25  H   UNL A   1      39.599  31.401  33.205  1.00  0.00     0.167 HD
ATOM     26  C   UNL A   1      40.797  28.449  30.175  1.00  0.00     0.034 A 
ATOM     27  C   UNL A   1      39.795  32.757  35.646  1.00  0.00     0.034 A 
ATOM     28  C   UNL A   1      41.742  28.307  31.258  1.00  0.00     0.049 A 
ATOM     29  C   UNL A   1      40.899  31.736  35.631  1.00  0.00     0.074 A 
ATOM     30  C   UNL A   1      42.826  27.450  31.351  1.00  0.00     0.029 A 
ATOM     31  N   UNL A   1      41.717  29.037  32.442  1.00  0.00    -0.354 N 
ATOM     32  N   UNL A   1      41.214  30.875  34.690  1.00  0.00    -0.248 NA
ATOM     33  C   UNL A   1      41.760  31.680  36.817  1.00  0.00     0.031 C 
ATOM     34  C   UNL A   1      43.411  27.612  32.612  1.00  0.00     0.029 A 
ATOM     35  C   UNL A   1      42.746  28.629  33.278  1.00  0.00     0.049 A 
ATOM     36  H   UNL A   1      41.063  29.742  32.655  1.00  0.00     0.167 HD
ATOM     37  C   UNL A   1      42.331  30.194  35.163  1.00  0.00     0.074 A 
ATOM     38  C   UNL A   1      42.643  30.760  36.461  1.00  0.00     0.031 C 
ATOM     39  C   UNL A   1      43.038  29.194  34.576  1.00  0.00     0.034 A 
BRANCH  26  40
ATOM     40  C   UNL A   1      40.900  27.515  28.991  1.00  0.00     0.023 A 
ATOM     41  C   UNL A   1      41.855  27.700  27.976  1.00  0.00     0.031 A 
ATOM     42  C   UNL A   1      40.010  26.433  28.862  1.00  0.00     0.131 A 
ATOM     43  C   UNL A   1      41.850  26.868  26.845  1.00  0.00     0.055 A 
ATOM     44  C   UNL A   1      40.062  25.559  27.774  1.00  0.00     0.041 A 
ATOM     45  F   UNL A   1      39.063  26.214  29.788  1.00  0.00    -0.206 F 
ATOM     46  C   UNL A   1      40.976  25.784  26.749  1.00  0.00     0.022 A 
BRANCH  43  47
ATOM     47  S   UNL A   1      42.903  27.314  25.436  1.00  0.00     0.124 S 
ATOM     48  O   UNL A   1      42.133  28.394  24.820  1.00  0.00    -0.237 OA
ATOM     49  O   UNL A   1      44.147  27.709  26.084  1.00  0.00    -0.237 OA
ATOM     50  O   UNL A   1      42.968  26.081  24.653  1.00  0.00    -0.744 OA
ENDBRANCH  43  47
ENDBRANCH  26  40
BRANCH  27  51
ATOM     51  C   UNL A   1      39.591  33.653  36.819  1.00  0.00     0.023 A 
ATOM     52  C   UNL A   1      38.991  33.178  37.996  1.00  0.00     0.031 A 
ATOM     53  C   UNL A   1      39.972  35.005  36.771  1.00  0.00     0.131 A 
ATOM     54  C   UNL A   1      38.750  34.059  39.060  1.00  0.00     0.055 A 
ATOM     55  C   UNL A   1      39.781  35.865  37.854  1.00  0.00     0.041 A 
ATOM     56  F   UNL A   1      40.556  35.509  35.672  1.00  0.00    -0.206 F 
ATOM     57  C   UNL A   1      39.155  35.395  39.003  1.00  0.00     0.022 A 
BRANCH  54  58
ATOM     58  S   UNL A   1      37.827  33.449  40.498  1.00  0.00     0.124 S 
ATOM     59  O   UNL A   1      38.693  32.377  40.974  1.00  0.00    -0.237 OA
ATOM     60  O   UNL A   1      37.756  34.639  41.339  1.00  0.00    -0.237 OA
ATOM     61  O   UNL A   1      36.554  33.017  39.924  1.00  0.00    -0.744 OA
ENDBRANCH  54  58
ENDBRANCH  27  51
BRANCH  39  62
ATOM     62  C   UNL A   1      44.250  28.692  35.324  1.00  0.00     0.023 A 
ATOM     63  C   UNL A   1      44.165  27.645  36.258  1.00  0.00     0.031 A 
ATOM     64  C   UNL A   1      45.501  29.302  35.126  1.00  0.00     0.131 A 
ATOM     65  C   UNL A   1      45.292  27.287  37.012  1.00  0.00     0.055 A 
ATOM     66  C   UNL A   1      46.635  28.897  35.831  1.00  0.00     0.041 A 
ATOM     67  F   UNL A   1      45.640  30.309  34.249  1.00  0.00    -0.206 F 
ATOM     68  C   UNL A   1      46.532  27.896  36.792  1.00  0.00     0.022 A 
BRANCH  65  69
ATOM     69  S   UNL A   1      45.093  26.096  38.365  1.00  0.00     0.124 S 
ATOM     70  O   UNL A   1      46.408  26.134  38.998  1.00  0.00    -0.237 OA
ATOM     71  O   UNL A   1      43.998  26.677  39.133  1.00  0.00    -0.237 OA
ATOM     72  O   UNL A   1      44.774  24.847  37.677  1.00  0.00    -0.744 OA
ENDBRANCH  65  69
ENDBRANCH  39  62
ENDBRANCH  13  14
ENDBRANCH   6   8
ENDBRANCH   3   4
ENDBRANCH   2   3
ENDBRANCH   1   2
BRANCH   1  73
ATOM     73  C   UNL A   1      32.412  29.871  26.935  1.00  0.00     0.002 C 
BRANCH  73  74
ATOM     74  C   UNL A   1      31.884  28.580  27.569  1.00  0.00     0.021 C 
BRANCH  74  75
ATOM     75  C   UNL A   1      31.546  27.484  26.568  1.00  0.00     0.116 C 
BRANCH  75  76
ATOM     76  N   UNL A   1      32.644  26.566  26.361  1.00  0.00    -0.354 N 
ATOM     77  C   UNL A   1      32.880  25.672  25.365  1.00  0.00     0.250 C 
ATOM     78  H   UNL A   1      33.337  26.592  27.060  1.00  0.00     0.163 HD
ATOM     79  O   UNL A   1      34.086  25.536  25.115  1.00  0.00    -0.272 OA
BRANCH  77  80
ATOM     80  C   UNL A   1      31.788  24.837  24.582  1.00  0.00     0.145 C 
ATOM     81  C   UNL A   1      30.514  24.947  25.482  1.00  0.00     0.044 C 
ATOM     82  C   UNL A   1      32.116  23.354  24.352  1.00  0.00    -0.010 A 
ATOM     83  C   UNL A   1      30.638  24.114  26.747  1.00  0.00     0.008 C 
ATOM     84  C   UNL A   1      31.623  22.344  25.219  1.00  0.00    -0.042 A 
ATOM     85  C   UNL A   1      32.982  22.970  23.308  1.00  0.00     0.007 A 
ATOM     86  C   UNL A   1      30.705  22.639  26.384  1.00  0.00     0.036 C 
ATOM     87  C   UNL A   1      32.012  21.006  25.029  1.00  0.00     0.004 A 
ATOM     88  C   UNL A   1      33.363  21.636  23.139  1.00  0.00     0.000 A 
ATOM     89  C   UNL A   1      32.885  20.657  24.002  1.00  0.00     0.000 A 
BRANCH  80  90
ATOM     90  N   UNL A   1      31.325  25.429  23.277  1.00  0.00    -0.338 N 
ATOM     91  C   UNL A   1      31.185  26.684  22.781  1.00  0.00     0.224 C 
ATOM     92  H   UNL A   1      31.060  24.739  22.628  1.00  0.00     0.164 HD
ATOM     93  O   UNL A   1      31.323  26.823  21.563  1.00  0.00    -0.275 OA
BRANCH  91  94
ATOM     94  C   UNL A   1      30.747  27.847  23.661  1.00  0.00     0.082 C 
ATOM     95  C   UNL A   1      29.262  27.679  24.050  1.00  0.00     0.035 C 
ATOM     96  C   UNL A   1      30.999  29.214  22.975  1.00  0.00     0.035 C 
ATOM     97  C   UNL A   1      28.284  28.148  22.981  1.00  0.00     0.120 C 
ATOM     98  C   UNL A   1      29.921  29.578  21.947  1.00  0.00     0.120 C 
ATOM     99  N   UNL A   1      28.612  29.506  22.581  1.00  0.00    -0.342 N 
ATOM    100  C   UNL A   1      27.776  30.528  23.028  1.00  0.00     0.225 C 
ATOM    101  O   UNL A   1      26.773  30.276  23.697  1.00  0.00    -0.275 OA
BRANCH 100 102
ATOM    102  C   UNL A   1      27.976  31.978  22.732  1.00  0.00     0.079 C 
ATOM    103  C   UNL A   1      29.191  32.693  22.224  1.00  0.00     0.014 C 
ATOM    104  C   UNL A   1      27.998  32.505  21.322  1.00  0.00     0.014 C 
ENDBRANCH 100 102
ENDBRANCH  91  94
ENDBRANCH  80  90
ENDBRANCH  77  80
ENDBRANCH  75  76
ENDBRANCH  74  75
ENDBRANCH  73  74
ENDBRANCH   1  73
TORSDOF 19
ENDMDL
MODEL 3
REMARK VINA RESULT:     -12.1      5.538     10.118
REMARK SMILES O=C(NCCCCCCNC(=O)[C@]1(NC(=O)C2CCN(C(=O)C3CC3)CC2)CCCc2ccccc21)c1ccc(-c2c3nc(c(-c4cc(S(=O)(=O)[O-])ccc4F)c4ccc([nH]4)c(-c4cc(S(=O)(=O)[O-])ccc4F)c4nc(c(-c5cc(S(=O)(=O)[O-])ccc5F)c5ccc2[nH]5)C=C4)C=C3)cc1
REMARK SMILES IDX 6 1 5 2 4 3 3 4 1 5 2 6 37 8 38 9 99 10 39 11 98 12 40 13
REMARK SMILES IDX 41 14 42 15 92 16 43 17 97 18 91 19 93 20 44 21 96 22 90 23
REMARK SMILES IDX 89 24 45 26 77 27 57 28 76 29 58 30 61 31 75 32 94 33 59 34
REMARK SMILES IDX 60 35 74 37 95 38 62 39 46 40 47 41 55 42 48 43 54 44 56 45
REMARK SMILES IDX 53 46 49 47 50 48 51 49 52 50 78 51 79 52 87 53 80 54 86 55
REMARK SMILES IDX 88 56 85 57 81 58 82 59 83 60 84 61 63 62 64 63 72 64 65 65
REMARK SMILES IDX 71 66 73 67 70 68 66 69 67 70 68 71 69 72 7 73 8 74 9 75
REMARK SMILES IDX 10 76 11 77 12 79 13 80 28 81 36 82 29 83 31 84 35 85 30 86
REMARK SMILES IDX 32 87 34 88 33 89 14 90 15 91 16 93 17 94 18 95 27 96 19 97
REMARK SMILES IDX 26 98 20 99 21 100 22 101 23 102 24 103 25 104
REMARK H PARENT 3 7 93 25 61 36 10 78 14 92
REMARK Flexibility Score: inf
ROOT
ATOM      1  C   UNL A   1      39.741  22.146  26.844  1.00  0.00     0.002 C 
ENDROOT
BRANCH   1   2
ATOM      2  C   UNL A   1      39.898  20.810  26.113  1.00  0.00     0.021 C 
BRANCH   2   3
ATOM      3  C   UNL A   1      40.719  19.767  26.856  1.00  0.00     0.116 C 
BRANCH   3   4
ATOM      4  N   UNL A   1      41.821  19.258  26.059  1.00  0.00    -0.352 N 
ATOM      5  O   UNL A   1      43.649  19.399  24.739  1.00  0.00    -0.269 OA
ATOM      6  C   UNL A   1      42.887  19.947  25.530  1.00  0.00     0.251 C 
ATOM      7  H   UNL A   1      41.803  18.291  25.872  1.00  0.00     0.163 HD
BRANCH   6   8
ATOM      8  C   UNL A   1      43.089  21.362  25.909  1.00  0.00     0.039 A 
ATOM      9  C   UNL A   1      42.990  22.368  24.945  1.00  0.00     0.014 A 
ATOM     10  C   UNL A   1      43.411  21.679  27.229  1.00  0.00     0.014 A 
ATOM     11  C   UNL A   1      43.362  23.667  25.268  1.00  0.00     0.010 A 
ATOM     12  C   UNL A   1      43.693  23.005  27.573  1.00  0.00     0.010 A 
ATOM     13  C   UNL A   1      43.708  24.004  26.587  1.00  0.00    -0.014 A 
BRANCH  13  14
ATOM     14  C   UNL A   1      44.045  25.416  26.908  1.00  0.00     0.031 A 
ATOM     15  C   UNL A   1      43.026  26.338  27.522  1.00  0.00     0.074 A 
ATOM     16  C   UNL A   1      45.300  25.849  26.675  1.00  0.00     0.049 A 
ATOM     17  N   UNL A   1      43.160  27.587  27.889  1.00  0.00    -0.248 NA
ATOM     18  C   UNL A   1      41.680  25.790  27.741  1.00  0.00     0.031 C 
ATOM     19  C   UNL A   1      46.369  25.043  26.079  1.00  0.00     0.029 A 
ATOM     20  N   UNL A   1      45.899  27.055  26.933  1.00  0.00    -0.354 N 
ATOM     21  C   UNL A   1      41.912  27.986  28.359  1.00  0.00     0.074 A 
ATOM     22  C   UNL A   1      41.028  26.849  28.199  1.00  0.00     0.031 C 
ATOM     23  C   UNL A   1      47.504  25.755  26.070  1.00  0.00     0.029 A 
ATOM     24  C   UNL A   1      47.232  27.089  26.591  1.00  0.00     0.049 A 
ATOM     25  H   UNL A   1      45.423  27.822  27.324  1.00  0.00     0.167 HD
ATOM     26  C   UNL A   1      41.543  29.184  28.880  1.00  0.00     0.034 A 
ATOM     27  C   UNL A   1      48.132  28.086  26.672  1.00  0.00     0.034 A 
ATOM     28  C   UNL A   1      42.445  30.302  29.038  1.00  0.00     0.049 A 
ATOM     29  C   UNL A   1      47.692  29.411  27.235  1.00  0.00     0.074 A 
ATOM     30  C   UNL A   1      42.187  31.549  29.582  1.00  0.00     0.029 A 
ATOM     31  N   UNL A   1      43.780  30.313  28.649  1.00  0.00    -0.354 N 
ATOM     32  N   UNL A   1      46.512  29.763  27.690  1.00  0.00    -0.248 NA
ATOM     33  C   UNL A   1      48.708  30.467  27.300  1.00  0.00     0.031 C 
ATOM     34  C   UNL A   1      43.341  32.332  29.459  1.00  0.00     0.029 A 
ATOM     35  C   UNL A   1      44.347  31.551  28.914  1.00  0.00     0.049 A 
ATOM     36  H   UNL A   1      44.254  29.551  28.243  1.00  0.00     0.167 HD
ATOM     37  C   UNL A   1      46.654  31.078  28.124  1.00  0.00     0.074 A 
ATOM     38  C   UNL A   1      48.038  31.443  27.892  1.00  0.00     0.031 C 
ATOM     39  C   UNL A   1      45.726  31.906  28.667  1.00  0.00     0.034 A 
BRANCH  26  40
ATOM     40  C   UNL A   1      40.092  29.359  29.267  1.00  0.00     0.023 A 
ATOM     41  C   UNL A   1      39.677  29.391  30.609  1.00  0.00     0.031 A 
ATOM     42  C   UNL A   1      39.102  29.471  28.273  1.00  0.00     0.131 A 
ATOM     43  C   UNL A   1      38.309  29.454  30.921  1.00  0.00     0.055 A 
ATOM     44  C   UNL A   1      37.750  29.615  28.590  1.00  0.00     0.041 A 
ATOM     45  F   UNL A   1      39.433  29.428  26.972  1.00  0.00    -0.206 F 
ATOM     46  C   UNL A   1      37.345  29.592  29.921  1.00  0.00     0.022 A 
BRANCH  43  47
ATOM     47  S   UNL A   1      37.801  29.205  32.645  1.00  0.00     0.124 S 
ATOM     48  O   UNL A   1      38.908  29.823  33.373  1.00  0.00    -0.237 OA
ATOM     49  O   UNL A   1      36.528  29.912  32.705  1.00  0.00    -0.237 OA
ATOM     50  O   UNL A   1      37.717  27.751  32.772  1.00  0.00    -0.744 OA
ENDBRANCH  43  47
ENDBRANCH  26  40
BRANCH  27  51
ATOM     51  C   UNL A   1      49.529  27.877  26.198  1.00  0.00     0.023 A 
ATOM     52  C   UNL A   1      49.879  28.098  24.857  1.00  0.00     0.031 A 
ATOM     53  C   UNL A   1      50.531  27.428  27.076  1.00  0.00     0.131 A 
ATOM     54  C   UNL A   1      51.185  27.828  24.423  1.00  0.00     0.055 A 
ATOM     55  C   UNL A   1      51.843  27.216  26.652  1.00  0.00     0.041 A 
ATOM     56  F   UNL A   1      50.251  27.208  28.372  1.00  0.00    -0.206 F 
ATOM     57  C   UNL A   1      52.173  27.404  25.315  1.00  0.00     0.022 A 
BRANCH  54  58
ATOM     58  S   UNL A   1      51.557  27.969  22.653  1.00  0.00     0.124 S 
ATOM     59  O   UNL A   1      52.926  27.471  22.597  1.00  0.00    -0.237 OA
ATOM     60  O   UNL A   1      50.536  27.111  22.061  1.00  0.00    -0.237 OA
ATOM     61  O   UNL A   1      51.399  29.398  22.386  1.00  0.00    -0.744 OA
ENDBRANCH  54  58
ENDBRANCH  27  51
BRANCH  39  62
ATOM     62  C   UNL A   1      46.205  33.273  29.094  1.00  0.00     0.023 A 
ATOM     63  C   UNL A   1      46.161  34.379  28.227  1.00  0.00     0.031 A 
ATOM     64  C   UNL A   1      46.753  33.458  30.376  1.00  0.00     0.131 A 
ATOM     65  C   UNL A   1      46.720  35.602  28.626  1.00  0.00     0.055 A 
ATOM     66  C   UNL A   1      47.248  34.695  30.791  1.00  0.00     0.041 A 
ATOM     67  F   UNL A   1      46.824  32.436  31.243  1.00  0.00    -0.206 F 
ATOM     68  C   UNL A   1      47.249  35.771  29.909  1.00  0.00     0.022 A 
BRANCH  65  69
ATOM     69  S   UNL A   1      46.854  36.937  27.406  1.00  0.00     0.124 S 
ATOM     70  O   UNL A   1      45.452  37.245  27.139  1.00  0.00    -0.237 OA
ATOM     71  O   UNL A   1      47.601  37.954  28.137  1.00  0.00    -0.237 OA
ATOM     72  O   UNL A   1      47.574  36.317  26.296  1.00  0.00    -0.744 OA
ENDBRANCH  65  69
ENDBRANCH  39  62
ENDBRANCH  13  14
ENDBRANCH   6   8
ENDBRANCH   3   4
ENDBRANCH   2   3
ENDBRANCH   1   2
BRANCH   1  73
ATOM     73  C   UNL A   1      39.279  23.326  25.982  1.00  0.00     0.002 C 
BRANCH  73  74
ATOM     74  C   UNL A   1      38.083  24.115  26.525  1.00  0.00     0.021 C 
BRANCH  74  75
ATOM     75  C   UNL A   1      36.742  23.705  25.933  1.00  0.00     0.116 C 
BRANCH  75  76
ATOM     76  N   UNL A   1      35.776  23.342  26.947  1.00  0.00    -0.354 N 
ATOM     77  C   UNL A   1      34.423  23.231  26.885  1.00  0.00     0.250 C 
ATOM     78  H   UNL A   1      36.164  23.143  27.829  1.00  0.00     0.163 HD
ATOM     79  O   UNL A   1      33.979  22.341  27.625  1.00  0.00    -0.272 OA
BRANCH  77  80
ATOM     80  C   UNL A   1      33.452  24.123  26.012  1.00  0.00     0.145 C 
ATOM     81  C   UNL A   1      32.150  24.217  26.873  1.00  0.00     0.044 C 
ATOM     82  C   UNL A   1      33.099  23.568  24.624  1.00  0.00    -0.010 A 
ATOM     83  C   UNL A   1      31.380  22.908  26.883  1.00  0.00     0.008 C 
ATOM     84  C   UNL A   1      31.903  22.837  24.401  1.00  0.00    -0.042 A 
ATOM     85  C   UNL A   1      34.000  23.713  23.549  1.00  0.00     0.007 A 
ATOM     86  C   UNL A   1      30.873  22.601  25.482  1.00  0.00     0.036 C 
ATOM     87  C   UNL A   1      31.652  22.272  23.138  1.00  0.00     0.004 A 
ATOM     88  C   UNL A   1      33.737  23.137  22.303  1.00  0.00     0.000 A 
ATOM     89  C   UNL A   1      32.569  22.411  22.100  1.00  0.00     0.000 A 
BRANCH  80  90
ATOM     90  N   UNL A   1      33.854  25.567  25.859  1.00  0.00    -0.338 N 
ATOM     91  C   UNL A   1      33.252  26.765  26.066  1.00  0.00     0.224 C 
ATOM     92  H   UNL A   1      34.776  25.664  25.529  1.00  0.00     0.164 HD
ATOM     93  O   UNL A   1      33.980  27.710  26.381  1.00  0.00    -0.275 OA
BRANCH  91  94
ATOM     94  C   UNL A   1      31.768  26.972  25.794  1.00  0.00     0.082 C 
ATOM     95  C   UNL A   1      31.465  26.694  24.306  1.00  0.00     0.035 C 
ATOM     96  C   UNL A   1      31.299  28.389  26.210  1.00  0.00     0.035 C 
ATOM     97  C   UNL A   1      31.775  27.862  23.380  1.00  0.00     0.120 C 
ATOM     98  C   UNL A   1      31.644  29.464  25.172  1.00  0.00     0.120 C 
ATOM     99  N   UNL A   1      31.121  29.062  23.874  1.00  0.00    -0.342 N 
ATOM    100  C   UNL A   1      29.997  29.514  23.182  1.00  0.00     0.225 C 
ATOM    101  O   UNL A   1      29.609  28.939  22.166  1.00  0.00    -0.275 OA
BRANCH 100 102
ATOM    102  C   UNL A   1      29.193  30.713  23.563  1.00  0.00     0.079 C 
ATOM    103  C   UNL A   1      28.784  31.894  22.734  1.00  0.00     0.014 C 
ATOM    104  C   UNL A   1      27.755  30.871  23.145  1.00  0.00     0.014 C 
ENDBRANCH 100 102
ENDBRANCH  91  94
ENDBRANCH  80  90
ENDBRANCH  77  80
ENDBRANCH  75  76
ENDBRANCH  74  75
ENDBRANCH  73  74
ENDBRANCH   1  73
TORSDOF 19
ENDMDL
