MODEL 1
REMARK VINA RESULT:     -12.0      0.000      0.000
REMARK SMILES O=C(NCCCCCCNC(=O)c1cnn(Cc2ccccc2)c1-n1cccc1)c1ccc(-c2c3nc(c(-c4cc(S(=O)(=O)[O-])ccc4F)c4ccc([nH]4)c(-c4cc(S(=O)(=O)[O-])ccc4F)c4nc(c(-c5cc(S(=O)(=O)[O-])ccc5F)c5ccc2[nH]5)C=C4)C=C3)cc1
REMARK SMILES IDX 6 1 5 2 4 3 3 4 1 5 2 6 30 8 31 9 92 10 32 11 91 12 33 13
REMARK SMILES IDX 34 14 35 15 85 16 36 17 90 18 84 19 86 20 37 21 89 22 83 23
REMARK SMILES IDX 82 24 38 26 70 27 50 28 69 29 51 30 54 31 68 32 87 33 52 34
REMARK SMILES IDX 53 35 67 37 88 38 55 39 39 40 40 41 48 42 41 43 47 44 49 45
REMARK SMILES IDX 46 46 42 47 43 48 44 49 45 50 71 51 72 52 80 53 73 54 79 55
REMARK SMILES IDX 81 56 78 57 74 58 75 59 76 60 77 61 56 62 57 63 65 64 58 65
REMARK SMILES IDX 64 66 66 67 63 68 59 69 60 70 61 71 62 72 7 73 8 74 9 75
REMARK SMILES IDX 10 76 11 77 12 79 13 80 14 81 24 82 15 83 16 84 25 85 26 86
REMARK SMILES IDX 29 87 27 88 28 89 17 90 18 91 19 92 23 93 20 94 22 95 21 96
REMARK H PARENT 3 7 86 25 54 36 10 78
REMARK Flexibility Score: inf
ROOT
ATOM      1  C   UNL A   1      38.232  23.406  26.162  1.00  0.00     0.002 C 
ENDROOT
BRANCH   1   2
ATOM      2  C   UNL A   1      38.846  22.007  26.032  1.00  0.00     0.021 C 
BRANCH   2   3
ATOM      3  C   UNL A   1      40.176  21.816  26.755  1.00  0.00     0.116 C 
BRANCH   3   4
ATOM      4  N   UNL A   1      41.342  21.976  25.909  1.00  0.00    -0.352 N 
ATOM      5  O   UNL A   1      43.059  22.820  24.790  1.00  0.00    -0.269 OA
ATOM      6  C   UNL A   1      42.161  23.034  25.609  1.00  0.00     0.251 C 
ATOM      7  H   UNL A   1      41.602  21.145  25.450  1.00  0.00     0.163 HD
BRANCH   6   8
ATOM      8  C   UNL A   1      42.018  24.405  26.177  1.00  0.00     0.039 A 
ATOM      9  C   UNL A   1      41.230  25.419  25.634  1.00  0.00     0.014 A 
ATOM     10  C   UNL A   1      42.663  24.652  27.401  1.00  0.00     0.014 A 
ATOM     11  C   UNL A   1      41.139  26.670  26.266  1.00  0.00     0.010 A 
ATOM     12  C   UNL A   1      42.540  25.887  28.052  1.00  0.00     0.010 A 
ATOM     13  C   UNL A   1      41.799  26.924  27.478  1.00  0.00    -0.014 A 
BRANCH  13  14
ATOM     14  C   UNL A   1      41.598  28.239  28.134  1.00  0.00     0.031 A 
ATOM     15  C   UNL A   1      42.620  29.310  27.900  1.00  0.00     0.074 A 
ATOM     16  C   UNL A   1      40.478  28.661  28.764  1.00  0.00     0.049 A 
ATOM     17  N   UNL A   1      43.247  30.039  28.773  1.00  0.00    -0.248 NA
ATOM     18  C   UNL A   1      42.936  29.639  26.502  1.00  0.00     0.031 C 
ATOM     19  C   UNL A   1      39.188  27.977  28.837  1.00  0.00     0.029 A 
ATOM     20  N   UNL A   1      40.233  29.865  29.390  1.00  0.00    -0.354 N 
ATOM     21  C   UNL A   1      43.908  31.026  28.046  1.00  0.00     0.074 A 
ATOM     22  C   UNL A   1      43.738  30.694  26.650  1.00  0.00     0.031 C 
ATOM     23  C   UNL A   1      38.253  28.843  29.281  1.00  0.00     0.029 A 
ATOM     24  C   UNL A   1      38.894  30.100  29.650  1.00  0.00     0.049 A 
ATOM     25  H   UNL A   1      40.947  30.502  29.628  1.00  0.00     0.167 HD
ATOM     26  C   UNL A   1      44.435  32.154  28.594  1.00  0.00     0.034 A 
ATOM     27  C   UNL A   1      38.303  31.227  30.116  1.00  0.00     0.034 A 
ATOM     28  C   UNL A   1      44.513  32.150  30.024  1.00  0.00     0.049 A 
ATOM     29  C   UNL A   1      39.282  32.083  30.827  1.00  0.00     0.074 A 
ATOM     30  C   UNL A   1      45.308  31.559  30.980  1.00  0.00     0.029 A 
ATOM     31  N   UNL A   1      43.504  32.794  30.690  1.00  0.00    -0.354 N 
ATOM     32  N   UNL A   1      39.853  31.778  31.958  1.00  0.00    -0.248 NA
ATOM     33  C   UNL A   1      39.733  33.333  30.221  1.00  0.00     0.031 C 
ATOM     34  C   UNL A   1      44.604  31.664  32.215  1.00  0.00     0.029 A 
ATOM     35  C   UNL A   1      43.379  32.271  31.955  1.00  0.00     0.049 A 
ATOM     36  H   UNL A   1      42.952  33.521  30.319  1.00  0.00     0.167 HD
ATOM     37  C   UNL A   1      40.950  32.609  32.041  1.00  0.00     0.074 A 
ATOM     38  C   UNL A   1      40.740  33.640  31.043  1.00  0.00     0.031 C 
ATOM     39  C   UNL A   1      42.099  32.178  32.628  1.00  0.00     0.034 A 
BRANCH  26  40
ATOM     40  C   UNL A   1      44.668  33.426  27.828  1.00  0.00     0.023 A 
ATOM     41  C   UNL A   1      45.949  33.723  27.321  1.00  0.00     0.031 A 
ATOM     42  C   UNL A   1      43.710  34.460  27.793  1.00  0.00     0.131 A 
ATOM     43  C   UNL A   1      46.228  34.989  26.775  1.00  0.00     0.055 A 
ATOM     44  C   UNL A   1      43.978  35.708  27.225  1.00  0.00     0.041 A 
ATOM     45  F   UNL A   1      42.505  34.311  28.369  1.00  0.00    -0.206 F 
ATOM     46  C   UNL A   1      45.243  35.980  26.716  1.00  0.00     0.022 A 
BRANCH  43  47
ATOM     47  S   UNL A   1      47.922  35.364  26.218  1.00  0.00     0.124 S 
ATOM     48  O   UNL A   1      48.204  34.275  25.289  1.00  0.00    -0.237 OA
ATOM     49  O   UNL A   1      47.760  36.685  25.620  1.00  0.00    -0.237 OA
ATOM     50  O   UNL A   1      48.702  35.336  27.455  1.00  0.00    -0.744 OA
ENDBRANCH  43  47
ENDBRANCH  26  40
BRANCH  27  51
ATOM     51  C   UNL A   1      36.891  31.664  29.959  1.00  0.00     0.023 A 
ATOM     52  C   UNL A   1      36.241  32.379  30.983  1.00  0.00     0.031 A 
ATOM     53  C   UNL A   1      36.221  31.578  28.721  1.00  0.00     0.131 A 
ATOM     54  C   UNL A   1      34.981  32.964  30.758  1.00  0.00     0.055 A 
ATOM     55  C   UNL A   1      34.952  32.124  28.513  1.00  0.00     0.041 A 
ATOM     56  F   UNL A   1      36.812  31.032  27.646  1.00  0.00    -0.206 F 
ATOM     57  C   UNL A   1      34.328  32.828  29.532  1.00  0.00     0.022 A 
BRANCH  54  58
ATOM     58  S   UNL A   1      34.250  34.058  32.013  1.00  0.00     0.124 S 
ATOM     59  O   UNL A   1      33.284  34.819  31.229  1.00  0.00    -0.237 OA
ATOM     60  O   UNL A   1      33.702  33.119  32.985  1.00  0.00    -0.237 OA
ATOM     61  O   UNL A   1      35.403  34.823  32.490  1.00  0.00    -0.744 OA
ENDBRANCH  54  58
ENDBRANCH  27  51
BRANCH  39  62
ATOM     62  C   UNL A   1      41.973  31.293  33.831  1.00  0.00     0.023 A 
ATOM     63  C   UNL A   1      42.090  29.890  33.797  1.00  0.00     0.031 A 
ATOM     64  C   UNL A   1      41.788  31.916  35.078  1.00  0.00     0.131 A 
ATOM     65  C   UNL A   1      42.022  29.153  34.993  1.00  0.00     0.055 A 
ATOM     66  C   UNL A   1      41.720  31.184  36.262  1.00  0.00     0.041 A 
ATOM     67  F   UNL A   1      41.692  33.255  35.162  1.00  0.00    -0.206 F 
ATOM     68  C   UNL A   1      41.833  29.797  36.224  1.00  0.00     0.022 A 
BRANCH  65  69
ATOM     69  S   UNL A   1      42.179  27.337  34.952  1.00  0.00     0.124 S 
ATOM     70  O   UNL A   1      40.817  26.879  34.706  1.00  0.00    -0.237 OA
ATOM     71  O   UNL A   1      43.128  27.128  33.862  1.00  0.00    -0.237 OA
ATOM     72  O   UNL A   1      42.700  27.009  36.281  1.00  0.00    -0.744 OA
ENDBRANCH  65  69
ENDBRANCH  39  62
ENDBRANCH  13  14
ENDBRANCH   6   8
ENDBRANCH   3   4
ENDBRANCH   2   3
ENDBRANCH   1   2
BRANCH   1  73
ATOM     73  C   UNL A   1      37.064  23.724  25.220  1.00  0.00     0.002 C 
BRANCH  73  74
ATOM     74  C   UNL A   1      35.675  23.805  25.868  1.00  0.00     0.021 C 
BRANCH  74  75
ATOM     75  C   UNL A   1      35.011  22.458  26.161  1.00  0.00     0.116 C 
BRANCH  75  76
ATOM     76  N   UNL A   1      34.267  21.970  25.012  1.00  0.00    -0.352 N 
ATOM     77  C   UNL A   1      32.957  22.168  24.661  1.00  0.00     0.256 C 
ATOM     78  H   UNL A   1      34.785  21.411  24.389  1.00  0.00     0.163 HD
ATOM     79  O   UNL A   1      32.477  21.490  23.756  1.00  0.00    -0.269 OA
BRANCH  77  80
ATOM     80  C   UNL A   1      32.183  23.181  25.353  1.00  0.00     0.102 A 
ATOM     81  C   UNL A   1      31.708  23.118  26.681  1.00  0.00     0.151 A 
ATOM     82  C   UNL A   1      31.921  24.491  24.967  1.00  0.00     0.148 A 
ATOM     83  N   UNL A   1      31.154  24.256  27.092  1.00  0.00    -0.178 NA
ATOM     84  N   UNL A   1      31.238  25.073  26.013  1.00  0.00    -0.244 N 
BRANCH  82  85
ATOM     85  N   UNL A   1      32.253  25.107  23.757  1.00  0.00    -0.308 N 
ATOM     86  C   UNL A   1      33.474  25.672  23.435  1.00  0.00     0.093 A 
ATOM     87  C   UNL A   1      31.428  25.312  22.665  1.00  0.00     0.093 A 
ATOM     88  C   UNL A   1      33.431  26.172  22.152  1.00  0.00     0.020 A 
ATOM     89  C   UNL A   1      32.131  25.944  21.663  1.00  0.00     0.020 A 
ENDBRANCH  82  85
BRANCH  84  90
ATOM     90  C   UNL A   1      30.529  26.345  26.098  1.00  0.00     0.182 C 
BRANCH  90  91
ATOM     91  C   UNL A   1      31.461  27.534  26.109  1.00  0.00    -0.026 A 
ATOM     92  C   UNL A   1      32.248  27.822  27.234  1.00  0.00     0.005 A 
ATOM     93  C   UNL A   1      31.544  28.379  24.991  1.00  0.00     0.005 A 
ATOM     94  C   UNL A   1      33.085  28.941  27.242  1.00  0.00     0.000 A 
ATOM     95  C   UNL A   1      32.381  29.494  25.001  1.00  0.00     0.000 A 
ATOM     96  C   UNL A   1      33.149  29.778  26.128  1.00  0.00     0.000 A 
ENDBRANCH  90  91
ENDBRANCH  84  90
ENDBRANCH  77  80
ENDBRANCH  75  76
ENDBRANCH  74  75
ENDBRANCH  73  74
ENDBRANCH   1  73
TORSDOF 19
ENDMDL
MODEL 2
REMARK VINA RESULT:     -11.9      1.443      2.214
REMARK SMILES O=C(NCCCCCCNC(=O)c1cnn(Cc2ccccc2)c1-n1cccc1)c1ccc(-c2c3nc(c(-c4cc(S(=O)(=O)[O-])ccc4F)c4ccc([nH]4)c(-c4cc(S(=O)(=O)[O-])ccc4F)c4nc(c(-c5cc(S(=O)(=O)[O-])ccc5F)c5ccc2[nH]5)C=C4)C=C3)cc1
REMARK SMILES IDX 6 1 5 2 4 3 3 4 1 5 2 6 30 8 31 9 92 10 32 11 91 12 33 13
REMARK SMILES IDX 34 14 35 15 85 16 36 17 90 18 84 19 86 20 37 21 89 22 83 23
REMARK SMILES IDX 82 24 38 26 70 27 50 28 69 29 51 30 54 31 68 32 87 33 52 34
REMARK SMILES IDX 53 35 67 37 88 38 55 39 39 40 40 41 48 42 41 43 47 44 49 45
REMARK SMILES IDX 46 46 42 47 43 48 44 49 45 50 71 51 72 52 80 53 73 54 79 55
REMARK SMILES IDX 81 56 78 57 74 58 75 59 76 60 77 61 56 62 57 63 65 64 58 65
REMARK SMILES IDX 64 66 66 67 63 68 59 69 60 70 61 71 62 72 7 73 8 74 9 75
REMARK SMILES IDX 10 76 11 77 12 79 13 80 14 81 24 82 15 83 16 84 25 85 26 86
REMARK SMILES IDX 29 87 27 88 28 89 17 90 18 91 19 92 23 93 20 94 22 95 21 96
REMARK H PARENT 3 7 86 25 54 36 10 78
REMARK Flexibility Score: inf
ROOT
ATOM      1  C   UNL A   1      37.452  22.645  24.661  1.00  0.00     0.002 C 
ENDROOT
BRANCH   1   2
ATOM      2  C   UNL A   1      38.297  21.594  25.391  1.00  0.00     0.021 C 
BRANCH   2   3
ATOM      3  C   UNL A   1      39.262  22.153  26.433  1.00  0.00     0.116 C 
BRANCH   3   4
ATOM      4  N   UNL A   1      40.647  22.184  26.006  1.00  0.00    -0.352 N 
ATOM      5  O   UNL A   1      42.733  22.811  25.594  1.00  0.00    -0.269 OA
ATOM      6  C   UNL A   1      41.661  23.097  26.136  1.00  0.00     0.251 C 
ATOM      7  H   UNL A   1      40.918  21.375  25.515  1.00  0.00     0.163 HD
BRANCH   6   8
ATOM      8  C   UNL A   1      41.544  24.400  26.850  1.00  0.00     0.039 A 
ATOM      9  C   UNL A   1      42.134  24.697  28.078  1.00  0.00     0.014 A 
ATOM     10  C   UNL A   1      40.858  25.429  26.180  1.00  0.00     0.014 A 
ATOM     11  C   UNL A   1      41.987  25.970  28.652  1.00  0.00     0.010 A 
ATOM     12  C   UNL A   1      40.746  26.710  26.735  1.00  0.00     0.010 A 
ATOM     13  C   UNL A   1      41.285  26.991  27.994  1.00  0.00    -0.014 A 
BRANCH  13  14
ATOM     14  C   UNL A   1      41.235  28.336  28.617  1.00  0.00     0.031 A 
ATOM     15  C   UNL A   1      42.314  29.317  28.270  1.00  0.00     0.074 A 
ATOM     16  C   UNL A   1      40.203  28.863  29.314  1.00  0.00     0.049 A 
ATOM     17  N   UNL A   1      43.060  30.020  29.066  1.00  0.00    -0.248 NA
ATOM     18  C   UNL A   1      42.546  29.579  26.841  1.00  0.00     0.031 C 
ATOM     19  C   UNL A   1      38.874  28.283  29.507  1.00  0.00     0.029 A 
ATOM     20  N   UNL A   1      40.099  30.101  29.913  1.00  0.00    -0.354 N 
ATOM     21  C   UNL A   1      43.736  30.930  28.258  1.00  0.00     0.074 A 
ATOM     22  C   UNL A   1      43.434  30.571  26.891  1.00  0.00     0.031 C 
ATOM     23  C   UNL A   1      38.045  29.233  29.988  1.00  0.00     0.029 A 
ATOM     24  C   UNL A   1      38.805  30.447  30.264  1.00  0.00     0.049 A 
ATOM     25  H   UNL A   1      40.875  30.686  30.074  1.00  0.00     0.167 HD
ATOM     26  C   UNL A   1      44.388  32.030  28.725  1.00  0.00     0.034 A 
ATOM     27  C   UNL A   1      38.339  31.629  30.733  1.00  0.00     0.034 A 
ATOM     28  C   UNL A   1      44.575  32.062  30.144  1.00  0.00     0.049 A 
ATOM     29  C   UNL A   1      39.432  32.427  31.338  1.00  0.00     0.074 A 
ATOM     30  C   UNL A   1      45.395  31.439  31.059  1.00  0.00     0.029 A 
ATOM     31  N   UNL A   1      43.672  32.802  30.860  1.00  0.00    -0.354 N 
ATOM     32  N   UNL A   1      40.064  32.112  32.433  1.00  0.00    -0.248 NA
ATOM     33  C   UNL A   1      39.928  33.620  30.656  1.00  0.00     0.031 C 
ATOM     34  C   UNL A   1      44.798  31.635  32.338  1.00  0.00     0.029 A 
ATOM     35  C   UNL A   1      43.606  32.328  32.149  1.00  0.00     0.049 A 
ATOM     36  H   UNL A   1      43.150  33.558  30.506  1.00  0.00     0.167 HD
ATOM     37  C   UNL A   1      41.224  32.857  32.404  1.00  0.00     0.074 A 
ATOM     38  C   UNL A   1      41.015  33.871  31.389  1.00  0.00     0.031 C 
ATOM     39  C   UNL A   1      42.378  32.355  32.918  1.00  0.00     0.034 A 
BRANCH  26  40
ATOM     40  C   UNL A   1      44.656  33.256  27.899  1.00  0.00     0.023 A 
ATOM     41  C   UNL A   1      45.959  33.527  27.436  1.00  0.00     0.031 A 
ATOM     42  C   UNL A   1      43.701  34.284  27.760  1.00  0.00     0.131 A 
ATOM     43  C   UNL A   1      46.263  34.761  26.832  1.00  0.00     0.055 A 
ATOM     44  C   UNL A   1      43.995  35.498  27.134  1.00  0.00     0.041 A 
ATOM     45  F   UNL A   1      42.470  34.165  28.286  1.00  0.00    -0.206 F 
ATOM     46  C   UNL A   1      45.283  35.744  26.671  1.00  0.00     0.022 A 
BRANCH  43  47
ATOM     47  S   UNL A   1      47.982  35.108  26.335  1.00  0.00     0.124 S 
ATOM     48  O   UNL A   1      48.045  34.555  24.987  1.00  0.00    -0.237 OA
ATOM     49  O   UNL A   1      48.037  36.563  26.430  1.00  0.00    -0.237 OA
ATOM     50  O   UNL A   1      48.777  34.393  27.332  1.00  0.00    -0.744 OA
ENDBRANCH  43  47
ENDBRANCH  26  40
BRANCH  27  51
ATOM     51  C   UNL A   1      36.956  32.171  30.666  1.00  0.00     0.023 A 
ATOM     52  C   UNL A   1      36.252  32.493  31.843  1.00  0.00     0.031 A 
ATOM     53  C   UNL A   1      36.379  32.583  29.448  1.00  0.00     0.131 A 
ATOM     54  C   UNL A   1      35.030  33.188  31.777  1.00  0.00     0.055 A 
ATOM     55  C   UNL A   1      35.145  33.236  29.382  1.00  0.00     0.041 A 
ATOM     56  F   UNL A   1      37.032  32.439  28.284  1.00  0.00    -0.206 F 
ATOM     57  C   UNL A   1      34.468  33.549  30.551  1.00  0.00     0.022 A 
BRANCH  54  58
ATOM     58  S   UNL A   1      34.240  33.782  33.302  1.00  0.00     0.124 S 
ATOM     59  O   UNL A   1      32.942  33.120  33.251  1.00  0.00    -0.237 OA
ATOM     60  O   UNL A   1      35.158  33.331  34.342  1.00  0.00    -0.237 OA
ATOM     61  O   UNL A   1      34.206  35.233  33.109  1.00  0.00    -0.744 OA
ENDBRANCH  54  58
ENDBRANCH  27  51
BRANCH  39  62
ATOM     62  C   UNL A   1      42.279  31.518  34.158  1.00  0.00     0.023 A 
ATOM     63  C   UNL A   1      42.042  30.131  34.159  1.00  0.00     0.031 A 
ATOM     64  C   UNL A   1      42.501  32.158  35.391  1.00  0.00     0.131 A 
ATOM     65  C   UNL A   1      42.032  29.423  35.375  1.00  0.00     0.055 A 
ATOM     66  C   UNL A   1      42.490  31.455  36.594  1.00  0.00     0.041 A 
ATOM     67  F   UNL A   1      42.752  33.478  35.438  1.00  0.00    -0.206 F 
ATOM     68  C   UNL A   1      42.252  30.083  36.592  1.00  0.00     0.022 A 
BRANCH  65  69
ATOM     69  S   UNL A   1      41.730  27.625  35.378  1.00  0.00     0.124 S 
ATOM     70  O   UNL A   1      41.157  27.374  36.695  1.00  0.00    -0.237 OA
ATOM     71  O   UNL A   1      40.824  27.456  34.246  1.00  0.00    -0.237 OA
ATOM     72  O   UNL A   1      43.064  27.054  35.177  1.00  0.00    -0.744 OA
ENDBRANCH  65  69
ENDBRANCH  39  62
ENDBRANCH  13  14
ENDBRANCH   6   8
ENDBRANCH   3   4
ENDBRANCH   2   3
ENDBRANCH   1   2
BRANCH   1  73
ATOM     73  C   UNL A   1      36.758  23.689  25.543  1.00  0.00     0.002 C 
BRANCH  73  74
ATOM     74  C   UNL A   1      35.392  23.287  26.119  1.00  0.00     0.021 C 
BRANCH  74  75
ATOM     75  C   UNL A   1      34.221  24.182  25.709  1.00  0.00     0.116 C 
BRANCH  75  76
ATOM     76  N   UNL A   1      33.033  23.899  26.496  1.00  0.00    -0.352 N 
ATOM     77  C   UNL A   1      31.748  24.349  26.345  1.00  0.00     0.256 C 
ATOM     78  H   UNL A   1      33.174  23.289  27.255  1.00  0.00     0.163 HD
ATOM     79  O   UNL A   1      30.940  24.149  27.248  1.00  0.00    -0.269 OA
BRANCH  77  80
ATOM     80  C   UNL A   1      31.374  25.029  25.119  1.00  0.00     0.102 A 
ATOM     81  C   UNL A   1      30.617  24.493  24.055  1.00  0.00     0.151 A 
ATOM     82  C   UNL A   1      31.480  26.380  24.806  1.00  0.00     0.148 A 
ATOM     83  N   UNL A   1      30.306  25.395  23.128  1.00  0.00    -0.178 NA
ATOM     84  N   UNL A   1      30.890  26.537  23.570  1.00  0.00    -0.244 N 
BRANCH  82  85
ATOM     85  N   UNL A   1      32.079  27.388  25.565  1.00  0.00    -0.308 N 
ATOM     86  C   UNL A   1      31.440  28.234  26.453  1.00  0.00     0.093 A 
ATOM     87  C   UNL A   1      33.410  27.768  25.554  1.00  0.00     0.093 A 
ATOM     88  C   UNL A   1      32.356  29.089  27.024  1.00  0.00     0.020 A 
ATOM     89  C   UNL A   1      33.608  28.794  26.452  1.00  0.00     0.020 A 
ENDBRANCH  82  85
BRANCH  84  90
ATOM     90  C   UNL A   1      30.888  27.671  22.652  1.00  0.00     0.182 C 
BRANCH  90  91
ATOM     91  C   UNL A   1      29.758  28.638  22.921  1.00  0.00    -0.026 A 
ATOM     92  C   UNL A   1      30.019  29.974  23.258  1.00  0.00     0.005 A 
ATOM     93  C   UNL A   1      28.425  28.206  22.849  1.00  0.00     0.005 A 
ATOM     94  C   UNL A   1      28.967  30.851  23.533  1.00  0.00     0.000 A 
ATOM     95  C   UNL A   1      27.376  29.084  23.121  1.00  0.00     0.000 A 
ATOM     96  C   UNL A   1      27.646  30.406  23.468  1.00  0.00     0.000 A 
ENDBRANCH  90  91
ENDBRANCH  84  90
ENDBRANCH  77  80
ENDBRANCH  75  76
ENDBRANCH  74  75
ENDBRANCH  73  74
ENDBRANCH   1  73
TORSDOF 19
ENDMDL
MODEL 3
REMARK VINA RESULT:     -11.9      3.380      9.339
REMARK SMILES O=C(NCCCCCCNC(=O)c1cnn(Cc2ccccc2)c1-n1cccc1)c1ccc(-c2c3nc(c(-c4cc(S(=O)(=O)[O-])ccc4F)c4ccc([nH]4)c(-c4cc(S(=O)(=O)[O-])ccc4F)c4nc(c(-c5cc(S(=O)(=O)[O-])ccc5F)c5ccc2[nH]5)C=C4)C=C3)cc1
REMARK SMILES IDX 6 1 5 2 4 3 3 4 1 5 2 6 30 8 31 9 92 10 32 11 91 12 33 13
REMARK SMILES IDX 34 14 35 15 85 16 36 17 90 18 84 19 86 20 37 21 89 22 83 23
REMARK SMILES IDX 82 24 38 26 70 27 50 28 69 29 51 30 54 31 68 32 87 33 52 34
REMARK SMILES IDX 53 35 67 37 88 38 55 39 39 40 40 41 48 42 41 43 47 44 49 45
REMARK SMILES IDX 46 46 42 47 43 48 44 49 45 50 71 51 72 52 80 53 73 54 79 55
REMARK SMILES IDX 81 56 78 57 74 58 75 59 76 60 77 61 56 62 57 63 65 64 58 65
REMARK SMILES IDX 64 66 66 67 63 68 59 69 60 70 61 71 62 72 7 73 8 74 9 75
REMARK SMILES IDX 10 76 11 77 12 79 13 80 14 81 24 82 15 83 16 84 25 85 26 86
REMARK SMILES IDX 29 87 27 88 28 89 17 90 18 91 19 92 23 93 20 94 22 95 21 96
REMARK H PARENT 3 7 86 25 54 36 10 78
REMARK Flexibility Score: inf
ROOT
ATOM      1  C   UNL A   1      34.137  29.474  27.504  1.00  0.00     0.002 C 
ENDROOT
BRANCH   1   2
ATOM      2  C   UNL A   1      33.551  30.891  27.464  1.00  0.00     0.021 C 
BRANCH   2   3
ATOM      3  C   UNL A   1      34.491  31.992  27.947  1.00  0.00     0.116 C 
BRANCH   3   4
ATOM      4  N   UNL A   1      34.423  32.251  29.371  1.00  0.00    -0.352 N 
ATOM      5  O   UNL A   1      34.825  32.275  31.551  1.00  0.00    -0.269 OA
ATOM      6  C   UNL A   1      35.219  31.918  30.437  1.00  0.00     0.251 C 
ATOM      7  H   UNL A   1      33.635  32.780  29.630  1.00  0.00     0.163 HD
BRANCH   6   8
ATOM      8  C   UNL A   1      36.487  31.141  30.339  1.00  0.00     0.039 A 
ATOM      9  C   UNL A   1      37.764  31.697  30.266  1.00  0.00     0.014 A 
ATOM     10  C   UNL A   1      36.380  29.742  30.418  1.00  0.00     0.014 A 
ATOM     11  C   UNL A   1      38.900  30.874  30.208  1.00  0.00     0.010 A 
ATOM     12  C   UNL A   1      37.516  28.922  30.401  1.00  0.00     0.010 A 
ATOM     13  C   UNL A   1      38.792  29.476  30.266  1.00  0.00    -0.014 A 
BRANCH  13  14
ATOM     14  C   UNL A   1      40.035  28.667  30.282  1.00  0.00     0.031 A 
ATOM     15  C   UNL A   1      40.754  28.501  31.586  1.00  0.00     0.074 A 
ATOM     16  C   UNL A   1      40.493  27.876  29.285  1.00  0.00     0.049 A 
ATOM     17  N   UNL A   1      42.010  28.697  31.852  1.00  0.00    -0.248 NA
ATOM     18  C   UNL A   1      39.970  27.998  32.724  1.00  0.00     0.031 C 
ATOM     19  C   UNL A   1      39.819  27.550  28.029  1.00  0.00     0.029 A 
ATOM     20  N   UNL A   1      41.635  27.104  29.242  1.00  0.00    -0.354 N 
ATOM     21  C   UNL A   1      42.216  28.191  33.133  1.00  0.00     0.074 A 
ATOM     22  C   UNL A   1      40.915  27.834  33.650  1.00  0.00     0.031 C 
ATOM     23  C   UNL A   1      40.450  26.507  27.448  1.00  0.00     0.029 A 
ATOM     24  C   UNL A   1      41.646  26.176  28.214  1.00  0.00     0.049 A 
ATOM     25  H   UNL A   1      42.375  27.203  29.886  1.00  0.00     0.167 HD
ATOM     26  C   UNL A   1      43.443  27.938  33.665  1.00  0.00     0.034 A 
ATOM     27  C   UNL A   1      42.535  25.182  27.976  1.00  0.00     0.034 A 
ATOM     28  C   UNL A   1      44.544  28.480  32.927  1.00  0.00     0.049 A 
ATOM     29  C   UNL A   1      43.831  25.461  28.639  1.00  0.00     0.074 A 
ATOM     30  C   UNL A   1      45.107  29.722  32.740  1.00  0.00     0.029 A 
ATOM     31  N   UNL A   1      45.191  27.620  32.080  1.00  0.00    -0.354 N 
ATOM     32  N   UNL A   1      44.645  26.423  28.307  1.00  0.00    -0.248 NA
ATOM     33  C   UNL A   1      44.237  24.680  29.805  1.00  0.00     0.031 C 
ATOM     34  C   UNL A   1      45.935  29.623  31.584  1.00  0.00     0.029 A 
ATOM     35  C   UNL A   1      45.804  28.333  31.077  1.00  0.00     0.049 A 
ATOM     36  H   UNL A   1      45.213  26.639  32.174  1.00  0.00     0.167 HD
ATOM     37  C   UNL A   1      45.478  26.579  29.394  1.00  0.00     0.074 A 
ATOM     38  C   UNL A   1      45.292  25.392  30.206  1.00  0.00     0.031 C 
ATOM     39  C   UNL A   1      45.945  27.810  29.734  1.00  0.00     0.034 A 
BRANCH  26  40
ATOM     40  C   UNL A   1      43.687  26.947  34.768  1.00  0.00     0.023 A 
ATOM     41  C   UNL A   1      44.067  27.394  36.050  1.00  0.00     0.031 A 
ATOM     42  C   UNL A   1      43.781  25.563  34.520  1.00  0.00     0.131 A 
ATOM     43  C   UNL A   1      44.485  26.480  37.033  1.00  0.00     0.055 A 
ATOM     44  C   UNL A   1      44.169  24.651  35.505  1.00  0.00     0.041 A 
ATOM     45  F   UNL A   1      43.564  25.061  33.293  1.00  0.00    -0.206 F 
ATOM     46  C   UNL A   1      44.529  25.108  36.768  1.00  0.00     0.022 A 
BRANCH  43  47
ATOM     47  S   UNL A   1      45.061  27.107  38.645  1.00  0.00     0.124 S 
ATOM     48  O   UNL A   1      44.725  28.525  38.577  1.00  0.00    -0.237 OA
ATOM     49  O   UNL A   1      44.273  26.310  39.580  1.00  0.00    -0.237 OA
ATOM     50  O   UNL A   1      46.493  26.812  38.634  1.00  0.00    -0.744 OA
ENDBRANCH  43  47
ENDBRANCH  26  40
BRANCH  27  51
ATOM     51  C   UNL A   1      42.334  23.925  27.208  1.00  0.00     0.023 A 
ATOM     52  C   UNL A   1      43.329  23.450  26.333  1.00  0.00     0.031 A 
ATOM     53  C   UNL A   1      41.257  23.056  27.478  1.00  0.00     0.131 A 
ATOM     54  C   UNL A   1      43.227  22.167  25.763  1.00  0.00     0.055 A 
ATOM     55  C   UNL A   1      41.136  21.799  26.878  1.00  0.00     0.041 A 
ATOM     56  F   UNL A   1      40.328  23.362  28.396  1.00  0.00    -0.206 F 
ATOM     57  C   UNL A   1      42.128  21.346  26.022  1.00  0.00     0.022 A 
BRANCH  54  58
ATOM     58  S   UNL A   1      44.614  21.484  24.807  1.00  0.00     0.124 S 
ATOM     59  O   UNL A   1      45.742  21.708  25.704  1.00  0.00    -0.237 OA
ATOM     60  O   UNL A   1      44.216  20.096  24.600  1.00  0.00    -0.237 OA
ATOM     61  O   UNL A   1      44.611  22.305  23.595  1.00  0.00    -0.744 OA
ENDBRANCH  54  58
ENDBRANCH  27  51
BRANCH  39  62
ATOM     62  C   UNL A   1      46.292  28.752  28.620  1.00  0.00     0.023 A 
ATOM     63  C   UNL A   1      45.484  29.832  28.217  1.00  0.00     0.031 A 
ATOM     64  C   UNL A   1      47.534  28.575  27.986  1.00  0.00     0.131 A 
ATOM     65  C   UNL A   1      45.930  30.699  27.203  1.00  0.00     0.055 A 
ATOM     66  C   UNL A   1      47.974  29.434  26.981  1.00  0.00     0.041 A 
ATOM     67  F   UNL A   1      48.348  27.569  28.352  1.00  0.00    -0.206 F 
ATOM     68  C   UNL A   1      47.171  30.500  26.582  1.00  0.00     0.022 A 
BRANCH  65  69
ATOM     69  S   UNL A   1      44.889  32.102  26.683  1.00  0.00     0.124 S 
ATOM     70  O   UNL A   1      44.456  32.695  27.942  1.00  0.00    -0.237 OA
ATOM     71  O   UNL A   1      45.814  32.903  25.886  1.00  0.00    -0.237 OA
ATOM     72  O   UNL A   1      43.820  31.466  25.910  1.00  0.00    -0.744 OA
ENDBRANCH  65  69
ENDBRANCH  39  62
ENDBRANCH  13  14
ENDBRANCH   6   8
ENDBRANCH   3   4
ENDBRANCH   2   3
ENDBRANCH   1   2
BRANCH   1  73
ATOM     73  C   UNL A   1      34.419  28.819  26.147  1.00  0.00     0.002 C 
BRANCH  73  74
ATOM     74  C   UNL A   1      33.335  27.871  25.614  1.00  0.00     0.021 C 
BRANCH  74  75
ATOM     75  C   UNL A   1      32.994  26.691  26.526  1.00  0.00     0.116 C 
BRANCH  75  76
ATOM     76  N   UNL A   1      31.557  26.515  26.655  1.00  0.00    -0.352 N 
ATOM     77  C   UNL A   1      30.756  25.481  26.246  1.00  0.00     0.256 C 
ATOM     78  H   UNL A   1      31.087  27.254  27.105  1.00  0.00     0.163 HD
ATOM     79  O   UNL A   1      29.537  25.632  26.269  1.00  0.00    -0.269 OA
BRANCH  77  80
ATOM     80  C   UNL A   1      31.367  24.237  25.820  1.00  0.00     0.102 A 
ATOM     81  C   UNL A   1      31.303  22.995  26.487  1.00  0.00     0.151 A 
ATOM     82  C   UNL A   1      31.951  23.929  24.596  1.00  0.00     0.148 A 
ATOM     83  N   UNL A   1      31.834  21.997  25.785  1.00  0.00    -0.178 NA
ATOM     84  N   UNL A   1      32.281  22.591  24.652  1.00  0.00    -0.244 N 
BRANCH  82  85
ATOM     85  N   UNL A   1      32.188  24.790  23.522  1.00  0.00    -0.308 N 
ATOM     86  C   UNL A   1      33.368  25.462  23.256  1.00  0.00     0.093 A 
ATOM     87  C   UNL A   1      31.290  25.176  22.542  1.00  0.00     0.093 A 
ATOM     88  C   UNL A   1      33.229  26.209  22.107  1.00  0.00     0.020 A 
ATOM     89  C   UNL A   1      31.909  26.029  21.654  1.00  0.00     0.020 A 
ENDBRANCH  82  85
BRANCH  84  90
ATOM     90  C   UNL A   1      33.097  21.773  23.760  1.00  0.00     0.182 C 
BRANCH  90  91
ATOM     91  C   UNL A   1      34.576  21.899  24.042  1.00  0.00    -0.026 A 
ATOM     92  C   UNL A   1      35.368  22.814  23.335  1.00  0.00     0.005 A 
ATOM     93  C   UNL A   1      35.182  21.088  25.014  1.00  0.00     0.005 A 
ATOM     94  C   UNL A   1      36.740  22.901  23.584  1.00  0.00     0.000 A 
ATOM     95  C   UNL A   1      36.552  21.179  25.264  1.00  0.00     0.000 A 
ATOM     96  C   UNL A   1      37.332  22.082  24.546  1.00  0.00     0.000 A 
ENDBRANCH  90  91
ENDBRANCH  84  90
ENDBRANCH  77  80
ENDBRANCH  75  76
ENDBRANCH  74  75
ENDBRANCH  73  74
ENDBRANCH   1  73
TORSDOF 19
ENDMDL
