MODEL 1
REMARK VINA RESULT:     -12.2      0.000      0.000
REMARK SMILES CN1C(=O)C[C@@H](C(=O)NCCCCCCNC(=O)c2ccc(-c3c4nc(c(-c5cc(S(=O)(=O)[O-])ccc5F)c5ccc([nH]5)c(-c5cc(S(=O)(=O)[O-])ccc5F)c5nc(c(-c6cc(S(=O)(=O)[O-])ccc6F)c6ccc3[nH]6)C=C5)C=C4)cc2)C12CCN(C(=O)c1ccccc1-n1cccn1)CC2
REMARK SMILES IDX 13 1 12 2 11 3 10 4 9 5 7 6 8 7 6 9 1 10 2 11 3 12 82 13
REMARK SMILES IDX 4 14 5 15 83 16 100 17 84 18 99 19 85 20 86 21 87 22 88 23
REMARK SMILES IDX 89 24 93 25 90 26 92 27 91 28 94 29 95 30 98 31 96 32 97 33
REMARK SMILES IDX 14 34 15 35 16 36 17 37 18 39 19 40 20 41 81 42 21 43 80 44
REMARK SMILES IDX 22 45 23 46 24 47 74 48 25 49 79 50 73 51 75 52 26 53 78 54
REMARK SMILES IDX 72 55 71 56 27 58 59 59 39 60 58 61 40 62 43 63 57 64 76 65
REMARK SMILES IDX 41 66 42 67 56 69 77 70 44 71 28 72 29 73 37 74 30 75 36 76
REMARK SMILES IDX 38 77 35 78 31 79 32 80 33 81 34 82 60 83 61 84 69 85 62 86
REMARK SMILES IDX 68 87 70 88 67 89 63 90 64 91 65 92 66 93 45 94 46 95 54 96
REMARK SMILES IDX 47 97 53 98 55 99 52 100 48 101 49 102 50 103 51 104
REMARK H PARENT 9 8 16 38 75 57 43 68
REMARK Flexibility Score: inf
ROOT
ATOM      1  C   UNL A   1      40.840  21.697  27.720  1.00  0.00     0.002 C 
ENDROOT
BRANCH   1   2
ATOM      2  C   UNL A   1      40.142  22.888  27.062  1.00  0.00     0.002 C 
BRANCH   2   3
ATOM      3  C   UNL A   1      38.923  22.512  26.224  1.00  0.00     0.021 C 
BRANCH   3   4
ATOM      4  C   UNL A   1      37.997  23.685  25.875  1.00  0.00     0.116 C 
BRANCH   4   5
ATOM      5  N   UNL A   1      37.324  23.537  24.594  1.00  0.00    -0.356 N 
ATOM      6  C   UNL A   1      36.145  22.979  24.216  1.00  0.00     0.226 C 
ATOM      7  O   UNL A   1      35.877  23.039  23.009  1.00  0.00    -0.275 OA
ATOM      8  H   UNL A   1      37.830  23.923  23.843  1.00  0.00     0.163 HD
BRANCH   6   9
ATOM      9  C   UNL A   1      35.147  22.277  25.148  1.00  0.00     0.113 C 
ATOM     10  C   UNL A   1      32.163  20.729  23.494  1.00  0.00     0.147 C 
ATOM     11  N   UNL A   1      33.365  21.072  24.231  1.00  0.00    -0.339 N 
ATOM     12  C   UNL A   1      34.326  20.119  24.538  1.00  0.00     0.223 C 
ATOM     13  C   UNL A   1      33.635  22.391  24.832  1.00  0.00     0.058 C 
ATOM     14  O   UNL A   1      34.299  18.932  24.247  1.00  0.00    -0.275 OA
ATOM     15  C   UNL A   1      35.445  20.785  25.280  1.00  0.00     0.116 C 
ATOM     16  C   UNL A   1      33.315  23.586  23.920  1.00  0.00     0.051 C 
ATOM     17  C   UNL A   1      32.758  22.524  26.116  1.00  0.00     0.051 C 
ATOM     18  C   UNL A   1      33.441  24.928  24.624  1.00  0.00     0.122 C 
ATOM     19  C   UNL A   1      32.733  23.928  26.734  1.00  0.00     0.122 C 
ATOM     20  N   UNL A   1      32.495  24.956  25.725  1.00  0.00    -0.338 N 
ATOM     21  C   UNL A   1      31.444  25.863  25.866  1.00  0.00     0.256 C 
ATOM     22  O   UNL A   1      30.694  25.885  26.839  1.00  0.00    -0.269 OA
BRANCH  21  23
ATOM     23  C   UNL A   1      31.225  26.899  24.824  1.00  0.00     0.065 A 
ATOM     24  C   UNL A   1      30.377  26.525  23.767  1.00  0.00     0.016 A 
ATOM     25  C   UNL A   1      31.722  28.212  24.874  1.00  0.00     0.077 A 
ATOM     26  C   UNL A   1      29.995  27.454  22.797  1.00  0.00     0.001 A 
ATOM     27  C   UNL A   1      31.281  29.156  23.926  1.00  0.00     0.029 A 
ATOM     28  C   UNL A   1      30.431  28.772  22.887  1.00  0.00     0.002 A 
BRANCH  25  29
ATOM     29  N   UNL A   1      32.669  28.646  25.834  1.00  0.00    -0.240 N 
ATOM     30  C   UNL A   1      32.452  29.145  27.098  1.00  0.00     0.115 A 
ATOM     31  N   UNL A   1      34.000  28.583  25.554  1.00  0.00    -0.177 NA
ATOM     32  C   UNL A   1      33.683  29.451  27.631  1.00  0.00     0.042 A 
ATOM     33  C   UNL A   1      34.598  29.101  26.626  1.00  0.00     0.135 A 
ENDBRANCH  25  29
ENDBRANCH  21  23
ENDBRANCH   6   9
ENDBRANCH   4   5
ENDBRANCH   3   4
ENDBRANCH   2   3
ENDBRANCH   1   2
BRANCH   1  34
ATOM     34  C   UNL A   1      41.144  20.532  26.774  1.00  0.00     0.021 C 
BRANCH  34  35
ATOM     35  C   UNL A   1      42.344  19.682  27.177  1.00  0.00     0.116 C 
BRANCH  35  36
ATOM     36  N   UNL A   1      43.152  19.316  26.026  1.00  0.00    -0.352 N 
ATOM     37  C   UNL A   1      43.858  20.127  25.176  1.00  0.00     0.251 C 
ATOM     38  H   UNL A   1      43.198  18.353  25.829  1.00  0.00     0.163 HD
ATOM     39  O   UNL A   1      44.269  19.684  24.108  1.00  0.00    -0.269 OA
BRANCH  37  40
ATOM     40  C   UNL A   1      44.103  21.537  25.550  1.00  0.00     0.039 A 
ATOM     41  C   UNL A   1      43.556  22.551  24.762  1.00  0.00     0.014 A 
ATOM     42  C   UNL A   1      44.874  21.853  26.673  1.00  0.00     0.014 A 
ATOM     43  C   UNL A   1      43.741  23.885  25.132  1.00  0.00     0.010 A 
ATOM     44  C   UNL A   1      44.990  23.178  27.082  1.00  0.00     0.010 A 
ATOM     45  C   UNL A   1      44.431  24.208  26.312  1.00  0.00    -0.014 A 
BRANCH  45  46
ATOM     46  C   UNL A   1      44.583  25.623  26.746  1.00  0.00     0.031 A 
ATOM     47  C   UNL A   1      45.928  26.294  26.676  1.00  0.00     0.074 A 
ATOM     48  C   UNL A   1      43.521  26.283  27.249  1.00  0.00     0.049 A 
ATOM     49  N   UNL A   1      46.274  27.496  27.058  1.00  0.00    -0.248 NA
ATOM     50  C   UNL A   1      47.036  25.495  26.129  1.00  0.00     0.031 C 
ATOM     51  C   UNL A   1      42.177  25.722  27.403  1.00  0.00     0.029 A 
ATOM     52  N   UNL A   1      43.402  27.562  27.728  1.00  0.00    -0.354 N 
ATOM     53  C   UNL A   1      47.639  27.596  26.808  1.00  0.00     0.074 A 
ATOM     54  C   UNL A   1      48.067  26.308  26.304  1.00  0.00     0.031 C 
ATOM     55  C   UNL A   1      41.364  26.661  27.912  1.00  0.00     0.029 A 
ATOM     56  C   UNL A   1      42.137  27.872  28.172  1.00  0.00     0.049 A 
ATOM     57  H   UNL A   1      44.151  28.200  27.752  1.00  0.00     0.167 HD
ATOM     58  C   UNL A   1      48.453  28.670  26.963  1.00  0.00     0.034 A 
ATOM     59  C   UNL A   1      41.656  28.997  28.740  1.00  0.00     0.034 A 
ATOM     60  C   UNL A   1      48.005  29.947  27.462  1.00  0.00     0.049 A 
ATOM     61  C   UNL A   1      42.589  30.166  28.936  1.00  0.00     0.074 A 
ATOM     62  C   UNL A   1      48.730  31.117  27.608  1.00  0.00     0.029 A 
ATOM     63  N   UNL A   1      46.718  30.221  27.910  1.00  0.00    -0.354 N 
ATOM     64  N   UNL A   1      43.866  30.263  28.642  1.00  0.00    -0.248 NA
ATOM     65  C   UNL A   1      42.014  31.379  29.528  1.00  0.00     0.031 C 
ATOM     66  C   UNL A   1      47.909  32.069  28.220  1.00  0.00     0.029 A 
ATOM     67  C   UNL A   1      46.641  31.528  28.370  1.00  0.00     0.049 A 
ATOM     68  H   UNL A   1      45.970  29.582  27.904  1.00  0.00     0.167 HD
ATOM     69  C   UNL A   1      44.236  31.561  28.984  1.00  0.00     0.074 A 
ATOM     70  C   UNL A   1      43.044  32.211  29.489  1.00  0.00     0.031 C 
ATOM     71  C   UNL A   1      45.449  32.162  28.885  1.00  0.00     0.034 A 
BRANCH  58  72
ATOM     72  C   UNL A   1      49.915  28.492  26.618  1.00  0.00     0.023 A 
ATOM     73  C   UNL A   1      50.404  28.723  25.320  1.00  0.00     0.031 A 
ATOM     74  C   UNL A   1      50.830  28.063  27.595  1.00  0.00     0.131 A 
ATOM     75  C   UNL A   1      51.745  28.444  25.014  1.00  0.00     0.055 A 
ATOM     76  C   UNL A   1      52.183  27.874  27.307  1.00  0.00     0.041 A 
ATOM     77  F   UNL A   1      50.422  27.802  28.847  1.00  0.00    -0.206 F 
ATOM     78  C   UNL A   1      52.645  28.050  26.007  1.00  0.00     0.022 A 
BRANCH  75  79
ATOM     79  S   UNL A   1      52.257  28.453  23.274  1.00  0.00     0.124 S 
ATOM     80  O   UNL A   1      53.713  28.445  23.397  1.00  0.00    -0.237 OA
ATOM     81  O   UNL A   1      51.652  27.230  22.761  1.00  0.00    -0.237 OA
ATOM     82  O   UNL A   1      51.691  29.697  22.756  1.00  0.00    -0.744 OA
ENDBRANCH  75  79
ENDBRANCH  58  72
BRANCH  59  83
ATOM     83  C   UNL A   1      40.233  29.070  29.184  1.00  0.00     0.023 A 
ATOM     84  C   UNL A   1      39.891  28.983  30.542  1.00  0.00     0.031 A 
ATOM     85  C   UNL A   1      39.190  29.184  28.248  1.00  0.00     0.131 A 
ATOM     86  C   UNL A   1      38.539  28.963  30.923  1.00  0.00     0.055 A 
ATOM     87  C   UNL A   1      37.850  29.225  28.636  1.00  0.00     0.041 A 
ATOM     88  F   UNL A   1      39.461  29.270  26.935  1.00  0.00    -0.206 F 
ATOM     89  C   UNL A   1      37.518  29.100  29.981  1.00  0.00     0.022 A 
BRANCH  86  90
ATOM     90  S   UNL A   1      38.132  28.657  32.664  1.00  0.00     0.124 S 
ATOM     91  O   UNL A   1      39.230  29.330  33.348  1.00  0.00    -0.237 OA
ATOM     92  O   UNL A   1      36.820  29.284  32.783  1.00  0.00    -0.237 OA
ATOM     93  O   UNL A   1      38.134  27.199  32.762  1.00  0.00    -0.744 OA
ENDBRANCH  86  90
ENDBRANCH  59  83
BRANCH  71  94
ATOM     94  C   UNL A   1      45.532  33.615  29.291  1.00  0.00     0.023 A 
ATOM     95  C   UNL A   1      45.161  34.653  28.419  1.00  0.00     0.031 A 
ATOM     96  C   UNL A   1      46.001  33.965  30.570  1.00  0.00     0.131 A 
ATOM     97  C   UNL A   1      45.321  35.990  28.814  1.00  0.00     0.055 A 
ATOM     98  C   UNL A   1      46.091  35.295  30.983  1.00  0.00     0.041 A 
ATOM     99  F   UNL A   1      46.375  33.017  31.445  1.00  0.00    -0.206 F 
ATOM    100  C   UNL A   1      45.765  36.318  30.098  1.00  0.00     0.022 A 
BRANCH  97 101
ATOM    101  S   UNL A   1      45.045  37.300  27.590  1.00  0.00     0.124 S 
ATOM    102  O   UNL A   1      46.286  37.263  26.822  1.00  0.00    -0.237 OA
ATOM    103  O   UNL A   1      43.851  36.830  26.894  1.00  0.00    -0.237 OA
ATOM    104  O   UNL A   1      44.855  38.498  28.406  1.00  0.00    -0.744 OA
ENDBRANCH  97 101
ENDBRANCH  71  94
ENDBRANCH  45  46
ENDBRANCH  37  40
ENDBRANCH  35  36
ENDBRANCH  34  35
ENDBRANCH   1  34
TORSDOF 18
ENDMDL
MODEL 2
REMARK VINA RESULT:     -10.9      2.899      7.849
REMARK SMILES CN1C(=O)C[C@@H](C(=O)NCCCCCCNC(=O)c2ccc(-c3c4nc(c(-c5cc(S(=O)(=O)[O-])ccc5F)c5ccc([nH]5)c(-c5cc(S(=O)(=O)[O-])ccc5F)c5nc(c(-c6cc(S(=O)(=O)[O-])ccc6F)c6ccc3[nH]6)C=C5)C=C4)cc2)C12CCN(C(=O)c1ccccc1-n1cccn1)CC2
REMARK SMILES IDX 13 1 12 2 11 3 10 4 9 5 7 6 8 7 6 9 1 10 2 11 3 12 82 13
REMARK SMILES IDX 4 14 5 15 83 16 100 17 84 18 99 19 85 20 86 21 87 22 88 23
REMARK SMILES IDX 89 24 93 25 90 26 92 27 91 28 94 29 95 30 98 31 96 32 97 33
REMARK SMILES IDX 14 34 15 35 16 36 17 37 18 39 19 40 20 41 81 42 21 43 80 44
REMARK SMILES IDX 22 45 23 46 24 47 74 48 25 49 79 50 73 51 75 52 26 53 78 54
REMARK SMILES IDX 72 55 71 56 27 58 59 59 39 60 58 61 40 62 43 63 57 64 76 65
REMARK SMILES IDX 41 66 42 67 56 69 77 70 44 71 28 72 29 73 37 74 30 75 36 76
REMARK SMILES IDX 38 77 35 78 31 79 32 80 33 81 34 82 60 83 61 84 69 85 62 86
REMARK SMILES IDX 68 87 70 88 67 89 63 90 64 91 65 92 66 93 45 94 46 95 54 96
REMARK SMILES IDX 47 97 53 98 55 99 52 100 48 101 49 102 50 103 51 104
REMARK H PARENT 9 8 16 38 75 57 43 68
REMARK Flexibility Score: inf
ROOT
ATOM      1  C   UNL A   1      39.533  20.589  25.776  1.00  0.00     0.002 C 
ENDROOT
BRANCH   1   2
ATOM      2  C   UNL A   1      38.170  20.024  25.373  1.00  0.00     0.002 C 
BRANCH   2   3
ATOM      3  C   UNL A   1      37.389  20.907  24.404  1.00  0.00     0.021 C 
BRANCH   3   4
ATOM      4  C   UNL A   1      35.888  21.017  24.703  1.00  0.00     0.116 C 
BRANCH   4   5
ATOM      5  N   UNL A   1      35.590  21.329  26.092  1.00  0.00    -0.356 N 
ATOM      6  C   UNL A   1      34.439  21.409  26.807  1.00  0.00     0.226 C 
ATOM      7  O   UNL A   1      34.561  21.701  28.004  1.00  0.00    -0.275 OA
ATOM      8  H   UNL A   1      36.394  21.523  26.627  1.00  0.00     0.163 HD
BRANCH   6   9
ATOM      9  C   UNL A   1      33.024  21.187  26.254  1.00  0.00     0.113 C 
ATOM     10  C   UNL A   1      32.567  21.852  22.595  1.00  0.00     0.147 C 
ATOM     11  N   UNL A   1      32.650  21.341  23.951  1.00  0.00    -0.339 N 
ATOM     12  C   UNL A   1      32.766  19.981  24.208  1.00  0.00     0.223 C 
ATOM     13  C   UNL A   1      32.494  22.156  25.169  1.00  0.00     0.058 C 
ATOM     14  O   UNL A   1      32.814  19.082  23.382  1.00  0.00    -0.275 OA
ATOM     15  C   UNL A   1      32.850  19.777  25.691  1.00  0.00     0.116 C 
ATOM     16  C   UNL A   1      33.260  23.488  25.148  1.00  0.00     0.051 C 
ATOM     17  C   UNL A   1      30.977  22.482  25.339  1.00  0.00     0.051 C 
ATOM     18  C   UNL A   1      32.944  24.380  26.339  1.00  0.00     0.122 C 
ATOM     19  C   UNL A   1      30.661  23.522  26.422  1.00  0.00     0.122 C 
ATOM     20  N   UNL A   1      31.527  24.693  26.311  1.00  0.00    -0.338 N 
ATOM     21  C   UNL A   1      30.983  25.974  26.203  1.00  0.00     0.256 C 
ATOM     22  O   UNL A   1      29.777  26.202  26.234  1.00  0.00    -0.269 OA
BRANCH  21  23
ATOM     23  C   UNL A   1      31.888  27.148  26.092  1.00  0.00     0.065 A 
ATOM     24  C   UNL A   1      32.036  27.910  27.263  1.00  0.00     0.016 A 
ATOM     25  C   UNL A   1      32.647  27.477  24.956  1.00  0.00     0.077 A 
ATOM     26  C   UNL A   1      32.957  28.960  27.318  1.00  0.00     0.001 A 
ATOM     27  C   UNL A   1      33.615  28.496  25.042  1.00  0.00     0.029 A 
ATOM     28  C   UNL A   1      33.757  29.240  26.215  1.00  0.00     0.002 A 
BRANCH  25  29
ATOM     29  N   UNL A   1      32.481  26.839  23.702  1.00  0.00    -0.240 N 
ATOM     30  C   UNL A   1      31.347  26.737  22.928  1.00  0.00     0.115 A 
ATOM     31  N   UNL A   1      33.540  26.228  23.104  1.00  0.00    -0.177 NA
ATOM     32  C   UNL A   1      31.682  26.000  21.815  1.00  0.00     0.042 A 
ATOM     33  C   UNL A   1      33.041  25.698  21.987  1.00  0.00     0.135 A 
ENDBRANCH  25  29
ENDBRANCH  21  23
ENDBRANCH   6   9
ENDBRANCH   4   5
ENDBRANCH   3   4
ENDBRANCH   2   3
ENDBRANCH   1   2
BRANCH   1  34
ATOM     34  C   UNL A   1      39.503  22.038  26.270  1.00  0.00     0.021 C 
BRANCH  34  35
ATOM     35  C   UNL A   1      40.854  22.585  26.718  1.00  0.00     0.116 C 
BRANCH  35  36
ATOM     36  N   UNL A   1      41.890  22.323  25.734  1.00  0.00    -0.352 N 
ATOM     37  C   UNL A   1      42.823  23.183  25.214  1.00  0.00     0.251 C 
ATOM     38  H   UNL A   1      41.927  21.401  25.393  1.00  0.00     0.163 HD
ATOM     39  O   UNL A   1      43.450  22.869  24.207  1.00  0.00    -0.269 OA
BRANCH  37  40
ATOM     40  C   UNL A   1      43.052  24.490  25.866  1.00  0.00     0.039 A 
ATOM     41  C   UNL A   1      42.720  25.657  25.177  1.00  0.00     0.014 A 
ATOM     42  C   UNL A   1      43.596  24.560  27.152  1.00  0.00     0.014 A 
ATOM     43  C   UNL A   1      42.887  26.896  25.801  1.00  0.00     0.010 A 
ATOM     44  C   UNL A   1      43.688  25.788  27.800  1.00  0.00     0.010 A 
ATOM     45  C   UNL A   1      43.341  26.969  27.128  1.00  0.00    -0.014 A 
BRANCH  45  46
ATOM     46  C   UNL A   1      43.467  28.279  27.822  1.00  0.00     0.031 A 
ATOM     47  C   UNL A   1      42.268  28.901  28.483  1.00  0.00     0.074 A 
ATOM     48  C   UNL A   1      44.649  28.927  27.813  1.00  0.00     0.049 A 
ATOM     49  N   UNL A   1      42.162  30.057  29.088  1.00  0.00    -0.248 NA
ATOM     50  C   UNL A   1      41.014  28.134  28.433  1.00  0.00     0.031 C 
ATOM     51  C   UNL A   1      45.871  28.440  27.169  1.00  0.00     0.029 A 
ATOM     52  N   UNL A   1      45.018  30.133  28.352  1.00  0.00    -0.354 N 
ATOM     53  C   UNL A   1      40.831  30.160  29.480  1.00  0.00     0.074 A 
ATOM     54  C   UNL A   1      40.157  28.979  28.985  1.00  0.00     0.031 C 
ATOM     55  C   UNL A   1      46.860  29.324  27.375  1.00  0.00     0.029 A 
ATOM     56  C   UNL A   1      46.332  30.465  28.118  1.00  0.00     0.049 A 
ATOM     57  H   UNL A   1      44.400  30.707  28.860  1.00  0.00     0.167 HD
ATOM     58  C   UNL A   1      40.235  31.139  30.206  1.00  0.00     0.034 A 
ATOM     59  C   UNL A   1      47.031  31.570  28.448  1.00  0.00     0.034 A 
ATOM     60  C   UNL A   1      40.928  32.307  30.695  1.00  0.00     0.049 A 
ATOM     61  C   UNL A   1      46.337  32.662  29.224  1.00  0.00     0.074 A 
ATOM     62  C   UNL A   1      40.436  33.331  31.484  1.00  0.00     0.029 A 
ATOM     63  N   UNL A   1      42.257  32.614  30.430  1.00  0.00    -0.354 N 
ATOM     64  N   UNL A   1      45.091  32.718  29.636  1.00  0.00    -0.248 NA
ATOM     65  C   UNL A   1      47.145  33.832  29.588  1.00  0.00     0.031 C 
ATOM     66  C   UNL A   1      41.439  34.296  31.626  1.00  0.00     0.029 A 
ATOM     67  C   UNL A   1      42.589  33.832  31.007  1.00  0.00     0.049 A 
ATOM     68  H   UNL A   1      42.874  32.051  29.910  1.00  0.00     0.167 HD
ATOM     69  C   UNL A   1      44.978  33.916  30.338  1.00  0.00     0.074 A 
ATOM     70  C   UNL A   1      46.286  34.539  30.305  1.00  0.00     0.031 C 
ATOM     71  C   UNL A   1      43.894  34.450  30.956  1.00  0.00     0.034 A 
BRANCH  58  72
ATOM     72  C   UNL A   1      38.755  30.998  30.483  1.00  0.00     0.023 A 
ATOM     73  C   UNL A   1      37.789  31.670  29.714  1.00  0.00     0.031 A 
ATOM     74  C   UNL A   1      38.303  30.199  31.549  1.00  0.00     0.131 A 
ATOM     75  C   UNL A   1      36.433  31.598  30.069  1.00  0.00     0.055 A 
ATOM     76  C   UNL A   1      36.945  30.059  31.842  1.00  0.00     0.041 A 
ATOM     77  F   UNL A   1      39.176  29.551  32.336  1.00  0.00    -0.206 F 
ATOM     78  C   UNL A   1      36.002  30.773  31.110  1.00  0.00     0.022 A 
BRANCH  75  79
ATOM     79  S   UNL A   1      35.263  32.719  29.253  1.00  0.00     0.124 S 
ATOM     80  O   UNL A   1      34.151  32.722  30.201  1.00  0.00    -0.237 OA
ATOM     81  O   UNL A   1      36.027  33.958  29.159  1.00  0.00    -0.237 OA
ATOM     82  O   UNL A   1      34.985  32.057  27.981  1.00  0.00    -0.744 OA
ENDBRANCH  75  79
ENDBRANCH  58  72
BRANCH  59  83
ATOM     83  C   UNL A   1      48.457  31.714  28.032  1.00  0.00     0.023 A 
ATOM     84  C   UNL A   1      49.494  31.140  28.782  1.00  0.00     0.031 A 
ATOM     85  C   UNL A   1      48.806  32.468  26.897  1.00  0.00     0.131 A 
ATOM     86  C   UNL A   1      50.831  31.368  28.418  1.00  0.00     0.055 A 
ATOM     87  C   UNL A   1      50.134  32.642  26.504  1.00  0.00     0.041 A 
ATOM     88  F   UNL A   1      47.853  33.041  26.142  1.00  0.00    -0.206 F 
ATOM     89  C   UNL A   1      51.157  32.101  27.276  1.00  0.00     0.022 A 
BRANCH  86  90
ATOM     90  S   UNL A   1      52.145  30.772  29.519  1.00  0.00     0.124 S 
ATOM     91  O   UNL A   1      52.449  29.469  28.938  1.00  0.00    -0.237 OA
ATOM     92  O   UNL A   1      53.166  31.801  29.357  1.00  0.00    -0.237 OA
ATOM     93  O   UNL A   1      51.500  30.737  30.830  1.00  0.00    -0.744 OA
ENDBRANCH  86  90
ENDBRANCH  59  83
BRANCH  71  94
ATOM     94  C   UNL A   1      44.094  35.755  31.691  1.00  0.00     0.023 A 
ATOM     95  C   UNL A   1      43.886  36.998  31.068  1.00  0.00     0.031 A 
ATOM     96  C   UNL A   1      44.509  35.753  33.035  1.00  0.00     0.131 A 
ATOM     97  C   UNL A   1      44.152  38.185  31.769  1.00  0.00     0.055 A 
ATOM     98  C   UNL A   1      44.703  36.936  33.748  1.00  0.00     0.041 A 
ATOM     99  F   UNL A   1      44.727  34.596  33.681  1.00  0.00    -0.206 F 
ATOM    100  C   UNL A   1      44.540  38.162  33.111  1.00  0.00     0.022 A 
BRANCH  97 101
ATOM    101  S   UNL A   1      44.089  39.761  30.871  1.00  0.00     0.124 S 
ATOM    102  O   UNL A   1      45.494  40.154  30.852  1.00  0.00    -0.237 OA
ATOM    103  O   UNL A   1      43.521  39.365  29.587  1.00  0.00    -0.237 OA
ATOM    104  O   UNL A   1      43.222  40.594  31.702  1.00  0.00    -0.744 OA
ENDBRANCH  97 101
ENDBRANCH  71  94
ENDBRANCH  45  46
ENDBRANCH  37  40
ENDBRANCH  35  36
ENDBRANCH  34  35
ENDBRANCH   1  34
TORSDOF 18
ENDMDL
MODEL 3
REMARK VINA RESULT:     -10.6      5.638      7.588
REMARK SMILES CN1C(=O)C[C@@H](C(=O)NCCCCCCNC(=O)c2ccc(-c3c4nc(c(-c5cc(S(=O)(=O)[O-])ccc5F)c5ccc([nH]5)c(-c5cc(S(=O)(=O)[O-])ccc5F)c5nc(c(-c6cc(S(=O)(=O)[O-])ccc6F)c6ccc3[nH]6)C=C5)C=C4)cc2)C12CCN(C(=O)c1ccccc1-n1cccn1)CC2
REMARK SMILES IDX 13 1 12 2 11 3 10 4 9 5 7 6 8 7 6 9 1 10 2 11 3 12 82 13
REMARK SMILES IDX 4 14 5 15 83 16 100 17 84 18 99 19 85 20 86 21 87 22 88 23
REMARK SMILES IDX 89 24 93 25 90 26 92 27 91 28 94 29 95 30 98 31 96 32 97 33
REMARK SMILES IDX 14 34 15 35 16 36 17 37 18 39 19 40 20 41 81 42 21 43 80 44
REMARK SMILES IDX 22 45 23 46 24 47 74 48 25 49 79 50 73 51 75 52 26 53 78 54
REMARK SMILES IDX 72 55 71 56 27 58 59 59 39 60 58 61 40 62 43 63 57 64 76 65
REMARK SMILES IDX 41 66 42 67 56 69 77 70 44 71 28 72 29 73 37 74 30 75 36 76
REMARK SMILES IDX 38 77 35 78 31 79 32 80 33 81 34 82 60 83 61 84 69 85 62 86
REMARK SMILES IDX 68 87 70 88 67 89 63 90 64 91 65 92 66 93 45 94 46 95 54 96
REMARK SMILES IDX 47 97 53 98 55 99 52 100 48 101 49 102 50 103 51 104
REMARK H PARENT 9 8 16 38 75 57 43 68
REMARK Flexibility Score: inf
ROOT
ATOM      1  C   UNL A   1      40.920  26.412  26.510  1.00  0.00     0.002 C 
ENDROOT
BRANCH   1   2
ATOM      2  C   UNL A   1      39.729  25.697  27.147  1.00  0.00     0.002 C 
BRANCH   2   3
ATOM      3  C   UNL A   1      39.372  24.367  26.488  1.00  0.00     0.021 C 
BRANCH   3   4
ATOM      4  C   UNL A   1      37.869  24.073  26.406  1.00  0.00     0.116 C 
BRANCH   4   5
ATOM      5  N   UNL A   1      37.409  23.754  25.063  1.00  0.00    -0.356 N 
ATOM      6  C   UNL A   1      36.344  23.064  24.578  1.00  0.00     0.226 C 
ATOM      7  O   UNL A   1      36.257  22.994  23.346  1.00  0.00    -0.275 OA
ATOM      8  H   UNL A   1      37.992  24.114  24.357  1.00  0.00     0.163 HD
BRANCH   6   9
ATOM      9  C   UNL A   1      35.271  22.363  25.424  1.00  0.00     0.113 C 
ATOM     10  C   UNL A   1      32.491  20.723  23.521  1.00  0.00     0.147 C 
ATOM     11  N   UNL A   1      33.609  21.105  24.364  1.00  0.00    -0.339 N 
ATOM     12  C   UNL A   1      34.551  20.176  24.786  1.00  0.00     0.223 C 
ATOM     13  C   UNL A   1      33.796  22.441  24.959  1.00  0.00     0.058 C 
ATOM     14  O   UNL A   1      34.573  18.984  24.520  1.00  0.00    -0.275 OA
ATOM     15  C   UNL A   1      35.581  20.880  25.618  1.00  0.00     0.116 C 
ATOM     16  C   UNL A   1      33.547  23.610  23.993  1.00  0.00     0.051 C 
ATOM     17  C   UNL A   1      32.795  22.584  26.147  1.00  0.00     0.051 C 
ATOM     18  C   UNL A   1      33.580  24.969  24.675  1.00  0.00     0.122 C 
ATOM     19  C   UNL A   1      32.686  24.000  26.728  1.00  0.00     0.122 C 
ATOM     20  N   UNL A   1      32.530  25.002  25.677  1.00  0.00    -0.338 N 
ATOM     21  C   UNL A   1      31.455  25.891  25.695  1.00  0.00     0.256 C 
ATOM     22  O   UNL A   1      30.614  25.919  26.589  1.00  0.00    -0.269 OA
BRANCH  21  23
ATOM     23  C   UNL A   1      31.322  26.901  24.612  1.00  0.00     0.065 A 
ATOM     24  C   UNL A   1      30.581  26.491  23.490  1.00  0.00     0.016 A 
ATOM     25  C   UNL A   1      31.796  28.222  24.678  1.00  0.00     0.077 A 
ATOM     26  C   UNL A   1      30.280  27.394  22.467  1.00  0.00     0.001 A 
ATOM     27  C   UNL A   1      31.434  29.138  23.672  1.00  0.00     0.029 A 
ATOM     28  C   UNL A   1      30.691  28.719  22.567  1.00  0.00     0.002 A 
BRANCH  25  29
ATOM     29  N   UNL A   1      32.644  28.690  25.712  1.00  0.00    -0.240 N 
ATOM     30  C   UNL A   1      33.995  28.483  25.882  1.00  0.00     0.115 A 
ATOM     31  N   UNL A   1      32.139  29.468  26.708  1.00  0.00    -0.177 NA
ATOM     32  C   UNL A   1      34.358  29.115  27.049  1.00  0.00     0.042 A 
ATOM     33  C   UNL A   1      33.169  29.689  27.524  1.00  0.00     0.135 A 
ENDBRANCH  25  29
ENDBRANCH  21  23
ENDBRANCH   6   9
ENDBRANCH   4   5
ENDBRANCH   3   4
ENDBRANCH   2   3
ENDBRANCH   1   2
BRANCH   1  34
ATOM     34  C   UNL A   1      41.706  25.570  25.501  1.00  0.00     0.021 C 
BRANCH  34  35
ATOM     35  C   UNL A   1      43.166  25.980  25.330  1.00  0.00     0.116 C 
BRANCH  35  36
ATOM     36  N   UNL A   1      44.068  25.003  25.916  1.00  0.00    -0.352 N 
ATOM     37  C   UNL A   1      44.696  25.031  27.134  1.00  0.00     0.251 C 
ATOM     38  H   UNL A   1      44.255  24.213  25.360  1.00  0.00     0.163 HD
ATOM     39  O   UNL A   1      45.623  24.260  27.361  1.00  0.00    -0.269 OA
BRANCH  37  40
ATOM     40  C   UNL A   1      44.258  26.005  28.157  1.00  0.00     0.039 A 
ATOM     41  C   UNL A   1      43.258  25.637  29.057  1.00  0.00     0.014 A 
ATOM     42  C   UNL A   1      44.833  27.278  28.222  1.00  0.00     0.014 A 
ATOM     43  C   UNL A   1      42.869  26.530  30.058  1.00  0.00     0.010 A 
ATOM     44  C   UNL A   1      44.500  28.136  29.266  1.00  0.00     0.010 A 
ATOM     45  C   UNL A   1      43.509  27.774  30.190  1.00  0.00    -0.014 A 
BRANCH  45  46
ATOM     46  C   UNL A   1      43.144  28.709  31.288  1.00  0.00     0.031 A 
ATOM     47  C   UNL A   1      43.801  28.584  32.636  1.00  0.00     0.074 A 
ATOM     48  C   UNL A   1      42.188  29.636  31.082  1.00  0.00     0.049 A 
ATOM     49  N   UNL A   1      43.579  29.265  33.731  1.00  0.00    -0.248 NA
ATOM     50  C   UNL A   1      44.822  27.535  32.778  1.00  0.00     0.031 C 
ATOM     51  C   UNL A   1      41.454  29.825  29.829  1.00  0.00     0.029 A 
ATOM     52  N   UNL A   1      41.664  30.588  31.919  1.00  0.00    -0.354 N 
ATOM     53  C   UNL A   1      44.424  28.722  34.694  1.00  0.00     0.074 A 
ATOM     54  C   UNL A   1      45.111  27.612  34.068  1.00  0.00     0.031 C 
ATOM     55  C   UNL A   1      40.596  30.848  29.971  1.00  0.00     0.029 A 
ATOM     56  C   UNL A   1      40.678  31.353  31.338  1.00  0.00     0.049 A 
ATOM     57  H   UNL A   1      41.965  30.713  32.847  1.00  0.00     0.167 HD
ATOM     58  C   UNL A   1      44.622  29.127  35.973  1.00  0.00     0.034 A 
ATOM     59  C   UNL A   1      39.915  32.339  31.852  1.00  0.00     0.034 A 
ATOM     60  C   UNL A   1      43.929  30.240  36.576  1.00  0.00     0.049 A 
ATOM     61  C   UNL A   1      40.128  32.749  33.288  1.00  0.00     0.074 A 
ATOM     62  C   UNL A   1      44.092  30.770  37.844  1.00  0.00     0.029 A 
ATOM     63  N   UNL A   1      42.931  30.986  35.960  1.00  0.00    -0.354 N 
ATOM     64  N   UNL A   1      40.972  32.261  34.169  1.00  0.00    -0.248 NA
ATOM     65  C   UNL A   1      39.297  33.846  33.794  1.00  0.00     0.031 C 
ATOM     66  C   UNL A   1      43.139  31.778  38.024  1.00  0.00     0.029 A 
ATOM     67  C   UNL A   1      42.443  31.944  36.836  1.00  0.00     0.049 A 
ATOM     68  H   UNL A   1      42.616  30.854  35.037  1.00  0.00     0.167 HD
ATOM     69  C   UNL A   1      40.793  33.018  35.324  1.00  0.00     0.074 A 
ATOM     70  C   UNL A   1      39.775  34.003  35.019  1.00  0.00     0.031 C 
ATOM     71  C   UNL A   1      41.416  32.913  36.525  1.00  0.00     0.034 A 
BRANCH  58  72
ATOM     72  C   UNL A   1      45.605  28.339  36.809  1.00  0.00     0.023 A 
ATOM     73  C   UNL A   1      45.230  27.164  37.485  1.00  0.00     0.031 A 
ATOM     74  C   UNL A   1      46.933  28.781  36.953  1.00  0.00     0.131 A 
ATOM     75  C   UNL A   1      46.142  26.522  38.336  1.00  0.00     0.055 A 
ATOM     76  C   UNL A   1      47.862  28.086  37.730  1.00  0.00     0.041 A 
ATOM     77  F   UNL A   1      47.347  29.909  36.353  1.00  0.00    -0.206 F 
ATOM     78  C   UNL A   1      47.465  26.958  38.439  1.00  0.00     0.022 A 
BRANCH  75  79
ATOM     79  S   UNL A   1      45.532  25.204  39.423  1.00  0.00     0.124 S 
ATOM     80  O   UNL A   1      44.715  24.418  38.502  1.00  0.00    -0.237 OA
ATOM     81  O   UNL A   1      46.766  24.575  39.879  1.00  0.00    -0.237 OA
ATOM     82  O   UNL A   1      44.781  25.926  40.448  1.00  0.00    -0.744 OA
ENDBRANCH  75  79
ENDBRANCH  58  72
BRANCH  59  83
ATOM     83  C   UNL A   1      38.865  32.994  31.017  1.00  0.00     0.023 A 
ATOM     84  C   UNL A   1      37.517  32.617  31.116  1.00  0.00     0.031 A 
ATOM     85  C   UNL A   1      39.204  33.980  30.074  1.00  0.00     0.131 A 
ATOM     86  C   UNL A   1      36.566  33.185  30.254  1.00  0.00     0.055 A 
ATOM     87  C   UNL A   1      38.245  34.587  29.261  1.00  0.00     0.041 A 
ATOM     88  F   UNL A   1      40.480  34.380  29.936  1.00  0.00    -0.206 F 
ATOM     89  C   UNL A   1      36.918  34.179  29.340  1.00  0.00     0.022 A 
BRANCH  86  90
ATOM     90  S   UNL A   1      34.872  32.535  30.280  1.00  0.00     0.124 S 
ATOM     91  O   UNL A   1      35.053  31.214  29.688  1.00  0.00    -0.237 OA
ATOM     92  O   UNL A   1      34.558  32.564  31.704  1.00  0.00    -0.237 OA
ATOM     93  O   UNL A   1      34.130  33.491  29.460  1.00  0.00    -0.744 OA
ENDBRANCH  86  90
ENDBRANCH  59  83
BRANCH  71  94
ATOM     94  C   UNL A   1      41.044  33.923  37.585  1.00  0.00     0.023 A 
ATOM     95  C   UNL A   1      41.789  35.098  37.786  1.00  0.00     0.031 A 
ATOM     96  C   UNL A   1      39.929  33.700  38.413  1.00  0.00     0.131 A 
ATOM     97  C   UNL A   1      41.447  35.974  38.829  1.00  0.00     0.055 A 
ATOM     98  C   UNL A   1      39.552  34.609  39.402  1.00  0.00     0.041 A 
ATOM     99  F   UNL A   1      39.182  32.593  38.270  1.00  0.00    -0.206 F 
ATOM    100  C   UNL A   1      40.322  35.746  39.625  1.00  0.00     0.022 A 
BRANCH  97 101
ATOM    101  S   UNL A   1      42.557  37.359  39.203  1.00  0.00     0.124 S 
ATOM    102  O   UNL A   1      43.157  37.626  37.901  1.00  0.00    -0.237 OA
ATOM    103  O   UNL A   1      41.632  38.374  39.699  1.00  0.00    -0.237 OA
ATOM    104  O   UNL A   1      43.467  36.809  40.206  1.00  0.00    -0.744 OA
ENDBRANCH  97 101
ENDBRANCH  71  94
ENDBRANCH  45  46
ENDBRANCH  37  40
ENDBRANCH  35  36
ENDBRANCH  34  35
ENDBRANCH   1  34
TORSDOF 18
ENDMDL
