MODEL 1
REMARK VINA RESULT:     -11.3      0.000      0.000
REMARK SMILES O=C(NCCCCCCNC(=O)[C@@H]1CC[C@]2(CC[NH2+]C2)C1)c1ccc(-c2c3nc(c(-c4cc(S(=O)(=O)[O-])ccc4F)c4ccc([nH]4)c(-c4cc(S(=O)(=O)[O-])ccc4F)c4nc(c(-c5cc(S(=O)(=O)[O-])ccc5F)c5ccc2[nH]5)C=C4)C=C3)cc1
REMARK SMILES IDX 5 1 4 2 3 3 1 4 2 5 22 7 23 8 84 9 24 10 83 11 25 12 26 13
REMARK SMILES IDX 27 14 77 15 28 16 82 17 76 18 78 19 29 20 81 21 75 22 74 23
REMARK SMILES IDX 30 25 62 26 42 27 61 28 43 29 46 30 60 31 79 32 44 33 45 34
REMARK SMILES IDX 59 36 80 37 47 38 31 39 32 40 40 41 33 42 39 43 41 44 38 45
REMARK SMILES IDX 34 46 35 47 36 48 37 49 63 50 64 51 72 52 65 53 71 54 73 55
REMARK SMILES IDX 70 56 66 57 67 58 68 59 69 60 48 61 49 62 57 63 50 64 56 65
REMARK SMILES IDX 58 66 55 67 51 68 52 69 53 70 54 71 6 72 7 73 8 74 9 75
REMARK SMILES IDX 10 76 11 77 12 79 13 80 14 81 21 82 15 83 16 84 17 85 20 86
REMARK SMILES IDX 18 87 19 88
REMARK H PARENT 3 6 78 24 46 35 10 78 19 89 19 90
REMARK Flexibility Score: inf
ROOT
ATOM      1  C   UNL A   1      31.535  32.231  26.525  1.00  0.00     0.021 C 
ENDROOT
BRANCH   1   2
ATOM      2  C   UNL A   1      32.745  32.742  27.295  1.00  0.00     0.116 C 
BRANCH   2   3
ATOM      3  N   UNL A   1      32.558  34.112  27.747  1.00  0.00    -0.352 N 
ATOM      4  O   UNL A   1      32.722  35.840  29.188  1.00  0.00    -0.269 OA
ATOM      5  C   UNL A   1      33.155  34.758  28.800  1.00  0.00     0.251 C 
ATOM      6  H   UNL A   1      31.914  34.648  27.229  1.00  0.00     0.163 HD
BRANCH   5   7
ATOM      7  C   UNL A   1      34.322  34.138  29.462  1.00  0.00     0.039 A 
ATOM      8  C   UNL A   1      34.132  33.241  30.517  1.00  0.00     0.014 A 
ATOM      9  C   UNL A   1      35.610  34.448  29.022  1.00  0.00     0.014 A 
ATOM     10  C   UNL A   1      35.230  32.751  31.212  1.00  0.00     0.010 A 
ATOM     11  C   UNL A   1      36.714  33.882  29.666  1.00  0.00     0.010 A 
ATOM     12  C   UNL A   1      36.533  33.044  30.777  1.00  0.00    -0.014 A 
BRANCH  12  13
ATOM     13  C   UNL A   1      37.682  32.391  31.453  1.00  0.00     0.031 A 
ATOM     14  C   UNL A   1      38.425  31.256  30.806  1.00  0.00     0.074 A 
ATOM     15  C   UNL A   1      38.064  32.856  32.659  1.00  0.00     0.049 A 
ATOM     16  N   UNL A   1      39.442  30.572  31.262  1.00  0.00    -0.248 NA
ATOM     17  C   UNL A   1      37.958  30.826  29.481  1.00  0.00     0.031 C 
ATOM     18  C   UNL A   1      37.410  33.955  33.378  1.00  0.00     0.029 A 
ATOM     19  N   UNL A   1      39.091  32.485  33.488  1.00  0.00    -0.354 N 
ATOM     20  C   UNL A   1      39.733  29.622  30.288  1.00  0.00     0.074 A 
ATOM     21  C   UNL A   1      38.757  29.798  29.233  1.00  0.00     0.031 C 
ATOM     22  C   UNL A   1      38.079  34.197  34.514  1.00  0.00     0.029 A 
ATOM     23  C   UNL A   1      39.154  33.224  34.646  1.00  0.00     0.049 A 
ATOM     24  H   UNL A   1      39.721  31.760  33.274  1.00  0.00     0.167 HD
ATOM     25  C   UNL A   1      40.725  28.697  30.280  1.00  0.00     0.034 A 
ATOM     26  C   UNL A   1      39.969  33.112  35.712  1.00  0.00     0.034 A 
ATOM     27  C   UNL A   1      41.683  28.538  31.351  1.00  0.00     0.049 A 
ATOM     28  C   UNL A   1      41.023  32.039  35.702  1.00  0.00     0.074 A 
ATOM     29  C   UNL A   1      42.746  27.653  31.434  1.00  0.00     0.029 A 
ATOM     30  N   UNL A   1      41.689  29.270  32.534  1.00  0.00    -0.354 N 
ATOM     31  N   UNL A   1      41.296  31.160  34.765  1.00  0.00    -0.248 NA
ATOM     32  C   UNL A   1      41.881  31.946  36.888  1.00  0.00     0.031 C 
ATOM     33  C   UNL A   1      43.342  27.798  32.692  1.00  0.00     0.029 A 
ATOM     34  C   UNL A   1      42.711  28.832  33.363  1.00  0.00     0.049 A 
ATOM     35  H   UNL A   1      41.058  29.995  32.750  1.00  0.00     0.167 HD
ATOM     36  C   UNL A   1      42.373  30.421  35.243  1.00  0.00     0.074 A 
ATOM     37  C   UNL A   1      42.712  30.976  36.539  1.00  0.00     0.031 C 
ATOM     38  C   UNL A   1      43.025  29.381  34.664  1.00  0.00     0.034 A 
BRANCH  25  39
ATOM     39  C   UNL A   1      40.795  27.756  29.099  1.00  0.00     0.023 A 
ATOM     40  C   UNL A   1      41.719  27.941  28.055  1.00  0.00     0.031 A 
ATOM     41  C   UNL A   1      39.910  26.667  29.006  1.00  0.00     0.131 A 
ATOM     42  C   UNL A   1      41.693  27.093  26.937  1.00  0.00     0.055 A 
ATOM     43  C   UNL A   1      39.943  25.778  27.928  1.00  0.00     0.041 A 
ATOM     44  F   UNL A   1      38.990  26.449  29.959  1.00  0.00    -0.206 F 
ATOM     45  C   UNL A   1      40.828  25.997  26.878  1.00  0.00     0.022 A 
BRANCH  42  46
ATOM     46  S   UNL A   1      42.707  27.526  25.496  1.00  0.00     0.124 S 
ATOM     47  O   UNL A   1      44.020  27.727  26.106  1.00  0.00    -0.237 OA
ATOM     48  O   UNL A   1      42.573  26.348  24.648  1.00  0.00    -0.237 OA
ATOM     49  O   UNL A   1      42.076  28.741  24.984  1.00  0.00    -0.744 OA
ENDBRANCH  42  46
ENDBRANCH  25  39
BRANCH  26  50
ATOM     50  C   UNL A   1      39.790  34.009  36.889  1.00  0.00     0.023 A 
ATOM     51  C   UNL A   1      39.223  33.536  38.081  1.00  0.00     0.031 A 
ATOM     52  C   UNL A   1      40.162  35.365  36.827  1.00  0.00     0.131 A 
ATOM     53  C   UNL A   1      39.005  34.422  39.149  1.00  0.00     0.055 A 
ATOM     54  C   UNL A   1      40.000  36.226  37.912  1.00  0.00     0.041 A 
ATOM     55  F   UNL A   1      40.713  35.869  35.711  1.00  0.00    -0.206 F 
ATOM     56  C   UNL A   1      39.404  35.758  39.078  1.00  0.00     0.022 A 
BRANCH  53  57
ATOM     57  S   UNL A   1      38.108  33.818  40.605  1.00  0.00     0.124 S 
ATOM     58  O   UNL A   1      36.964  33.151  39.993  1.00  0.00    -0.237 OA
ATOM     59  O   UNL A   1      39.098  32.949  41.231  1.00  0.00    -0.237 OA
ATOM     60  O   UNL A   1      37.797  35.040  41.343  1.00  0.00    -0.744 OA
ENDBRANCH  53  57
ENDBRANCH  26  50
BRANCH  38  61
ATOM     61  C   UNL A   1      44.196  28.807  35.422  1.00  0.00     0.023 A 
ATOM     62  C   UNL A   1      44.036  27.765  36.353  1.00  0.00     0.031 A 
ATOM     63  C   UNL A   1      45.487  29.330  35.230  1.00  0.00     0.131 A 
ATOM     64  C   UNL A   1      45.136  27.322  37.102  1.00  0.00     0.055 A 
ATOM     65  C   UNL A   1      46.590  28.840  35.931  1.00  0.00     0.041 A 
ATOM     66  F   UNL A   1      45.698  30.329  34.359  1.00  0.00    -0.206 F 
ATOM     67  C   UNL A   1      46.415  27.840  36.884  1.00  0.00     0.022 A 
BRANCH  64  68
ATOM     68  S   UNL A   1      44.855  26.131  38.441  1.00  0.00     0.124 S 
ATOM     69  O   UNL A   1      44.848  24.862  37.721  1.00  0.00    -0.237 OA
ATOM     70  O   UNL A   1      46.002  26.365  39.312  1.00  0.00    -0.237 OA
ATOM     71  O   UNL A   1      43.564  26.537  38.995  1.00  0.00    -0.744 OA
ENDBRANCH  64  68
ENDBRANCH  38  61
ENDBRANCH  12  13
ENDBRANCH   5   7
ENDBRANCH   2   3
ENDBRANCH   1   2
BRANCH   1  72
ATOM     72  C   UNL A   1      31.430  30.706  26.459  1.00  0.00     0.002 C 
BRANCH  72  73
ATOM     73  C   UNL A   1      32.639  29.948  27.019  1.00  0.00     0.002 C 
BRANCH  73  74
ATOM     74  C   UNL A   1      32.396  28.463  27.322  1.00  0.00     0.021 C 
BRANCH  74  75
ATOM     75  C   UNL A   1      31.593  27.737  26.245  1.00  0.00     0.116 C 
BRANCH  75  76
ATOM     76  N   UNL A   1      31.207  26.416  26.688  1.00  0.00    -0.356 N 
ATOM     77  C   UNL A   1      31.777  25.195  26.634  1.00  0.00     0.223 C 
ATOM     78  H   UNL A   1      30.328  26.405  27.129  1.00  0.00     0.163 HD
ATOM     79  O   UNL A   1      31.081  24.270  27.081  1.00  0.00    -0.275 OA
BRANCH  77  80
ATOM     80  C   UNL A   1      33.153  24.848  26.064  1.00  0.00     0.079 C 
ATOM     81  C   UNL A   1      33.504  24.904  24.591  1.00  0.00     0.014 C 
ATOM     82  C   UNL A   1      33.596  23.441  26.488  1.00  0.00     0.026 C 
ATOM     83  C   UNL A   1      33.250  23.501  24.053  1.00  0.00     0.014 C 
ATOM     84  C   UNL A   1      33.479  22.541  25.231  1.00  0.00     0.026 C 
ATOM     85  C   UNL A   1      32.357  21.491  25.387  1.00  0.00     0.074 C 
ATOM     86  C   UNL A   1      34.733  21.675  25.029  1.00  0.00     0.267 C 
ATOM     87  C   UNL A   1      33.062  20.141  25.396  1.00  0.00     0.261 C 
ATOM     88  N   UNL A   1      34.446  20.442  25.769  1.00  0.00    -0.346 N 
ATOM     89  H   UNL A   1      35.073  19.690  25.483  1.00  0.00     0.346 HD
ATOM     90  H   UNL A   1      34.575  20.540  26.776  1.00  0.00     0.346 HD
ENDBRANCH  77  80
ENDBRANCH  75  76
ENDBRANCH  74  75
ENDBRANCH  73  74
ENDBRANCH  72  73
ENDBRANCH   1  72
TORSDOF 16
ENDMDL
MODEL 2
REMARK VINA RESULT:     -11.3      2.593      3.925
REMARK SMILES O=C(NCCCCCCNC(=O)[C@@H]1CC[C@]2(CC[NH2+]C2)C1)c1ccc(-c2c3nc(c(-c4cc(S(=O)(=O)[O-])ccc4F)c4ccc([nH]4)c(-c4cc(S(=O)(=O)[O-])ccc4F)c4nc(c(-c5cc(S(=O)(=O)[O-])ccc5F)c5ccc2[nH]5)C=C4)C=C3)cc1
REMARK SMILES IDX 5 1 4 2 3 3 1 4 2 5 22 7 23 8 84 9 24 10 83 11 25 12 26 13
REMARK SMILES IDX 27 14 77 15 28 16 82 17 76 18 78 19 29 20 81 21 75 22 74 23
REMARK SMILES IDX 30 25 62 26 42 27 61 28 43 29 46 30 60 31 79 32 44 33 45 34
REMARK SMILES IDX 59 36 80 37 47 38 31 39 32 40 40 41 33 42 39 43 41 44 38 45
REMARK SMILES IDX 34 46 35 47 36 48 37 49 63 50 64 51 72 52 65 53 71 54 73 55
REMARK SMILES IDX 70 56 66 57 67 58 68 59 69 60 48 61 49 62 57 63 50 64 56 65
REMARK SMILES IDX 58 66 55 67 51 68 52 69 53 70 54 71 6 72 7 73 8 74 9 75
REMARK SMILES IDX 10 76 11 77 12 79 13 80 14 81 21 82 15 83 16 84 17 85 20 86
REMARK SMILES IDX 18 87 19 88
REMARK H PARENT 3 6 78 24 46 35 10 78 19 89 19 90
REMARK Flexibility Score: inf
ROOT
ATOM      1  C   UNL A   1      31.518  31.680  26.756  1.00  0.00     0.021 C 
ENDROOT
BRANCH   1   2
ATOM      2  C   UNL A   1      32.821  32.468  26.753  1.00  0.00     0.116 C 
BRANCH   2   3
ATOM      3  N   UNL A   1      32.641  33.809  27.288  1.00  0.00    -0.352 N 
ATOM      4  O   UNL A   1      32.792  35.438  28.842  1.00  0.00    -0.269 OA
ATOM      5  C   UNL A   1      33.220  34.376  28.396  1.00  0.00     0.251 C 
ATOM      6  H   UNL A   1      32.020  34.388  26.789  1.00  0.00     0.163 HD
BRANCH   5   7
ATOM      7  C   UNL A   1      34.359  33.696  29.047  1.00  0.00     0.039 A 
ATOM      8  C   UNL A   1      35.663  34.148  28.824  1.00  0.00     0.014 A 
ATOM      9  C   UNL A   1      34.123  32.608  29.888  1.00  0.00     0.014 A 
ATOM     10  C   UNL A   1      36.737  33.435  29.343  1.00  0.00     0.010 A 
ATOM     11  C   UNL A   1      35.201  31.947  30.482  1.00  0.00     0.010 A 
ATOM     12  C   UNL A   1      36.518  32.345  30.200  1.00  0.00    -0.014 A 
BRANCH  12  13
ATOM     13  C   UNL A   1      37.683  31.694  30.851  1.00  0.00     0.031 A 
ATOM     14  C   UNL A   1      38.524  30.688  30.118  1.00  0.00     0.074 A 
ATOM     15  C   UNL A   1      37.987  32.045  32.117  1.00  0.00     0.049 A 
ATOM     16  N   UNL A   1      39.567  30.023  30.542  1.00  0.00    -0.248 NA
ATOM     17  C   UNL A   1      38.136  30.380  28.734  1.00  0.00     0.031 C 
ATOM     18  C   UNL A   1      37.234  33.014  32.921  1.00  0.00     0.029 A 
ATOM     19  N   UNL A   1      39.004  31.650  32.944  1.00  0.00    -0.354 N 
ATOM     20  C   UNL A   1      39.958  29.207  29.484  1.00  0.00     0.074 A 
ATOM     21  C   UNL A   1      39.012  29.439  28.412  1.00  0.00     0.031 C 
ATOM     22  C   UNL A   1      37.842  33.169  34.105  1.00  0.00     0.029 A 
ATOM     23  C   UNL A   1      38.975  32.257  34.178  1.00  0.00     0.049 A 
ATOM     24  H   UNL A   1      39.690  30.994  32.681  1.00  0.00     0.167 HD
ATOM     25  C   UNL A   1      41.010  28.354  29.419  1.00  0.00     0.034 A 
ATOM     26  C   UNL A   1      39.755  32.078  35.261  1.00  0.00     0.034 A 
ATOM     27  C   UNL A   1      41.936  28.137  30.508  1.00  0.00     0.049 A 
ATOM     28  C   UNL A   1      40.879  31.082  35.181  1.00  0.00     0.074 A 
ATOM     29  C   UNL A   1      43.052  27.318  30.541  1.00  0.00     0.029 A 
ATOM     30  N   UNL A   1      41.848  28.731  31.763  1.00  0.00    -0.354 N 
ATOM     31  N   UNL A   1      41.246  30.332  34.167  1.00  0.00    -0.248 NA
ATOM     32  C   UNL A   1      41.696  30.911  36.386  1.00  0.00     0.031 C 
ATOM     33  C   UNL A   1      43.590  27.358  31.833  1.00  0.00     0.029 A 
ATOM     34  C   UNL A   1      42.866  28.269  32.584  1.00  0.00     0.049 A 
ATOM     35  H   UNL A   1      41.162  29.387  32.029  1.00  0.00     0.167 HD
ATOM     36  C   UNL A   1      42.351  29.614  34.609  1.00  0.00     0.074 A 
ATOM     37  C   UNL A   1      42.603  30.041  35.971  1.00  0.00     0.031 C 
ATOM     38  C   UNL A   1      43.093  28.688  33.950  1.00  0.00     0.034 A 
BRANCH  25  39
ATOM     39  C   UNL A   1      41.187  27.557  28.147  1.00  0.00     0.023 A 
ATOM     40  C   UNL A   1      40.844  26.196  28.069  1.00  0.00     0.031 A 
ATOM     41  C   UNL A   1      41.723  28.165  26.997  1.00  0.00     0.131 A 
ATOM     42  C   UNL A   1      41.103  25.473  26.893  1.00  0.00     0.055 A 
ATOM     43  C   UNL A   1      41.904  27.460  25.805  1.00  0.00     0.041 A 
ATOM     44  F   UNL A   1      42.091  29.456  27.014  1.00  0.00    -0.206 F 
ATOM     45  C   UNL A   1      41.607  26.102  25.752  1.00  0.00     0.022 A 
BRANCH  42  46
ATOM     46  S   UNL A   1      40.904  23.670  26.923  1.00  0.00     0.124 S 
ATOM     47  O   UNL A   1      41.248  23.356  28.308  1.00  0.00    -0.237 OA
ATOM     48  O   UNL A   1      39.502  23.501  26.560  1.00  0.00    -0.237 OA
ATOM     49  O   UNL A   1      41.868  23.201  25.929  1.00  0.00    -0.744 OA
ENDBRANCH  42  46
ENDBRANCH  25  39
BRANCH  26  50
ATOM     50  C   UNL A   1      39.472  32.826  36.519  1.00  0.00     0.023 A 
ATOM     51  C   UNL A   1      38.569  32.328  37.470  1.00  0.00     0.031 A 
ATOM     52  C   UNL A   1      40.085  34.066  36.776  1.00  0.00     0.131 A 
ATOM     53  C   UNL A   1      38.272  33.087  38.614  1.00  0.00     0.055 A 
ATOM     54  C   UNL A   1      39.832  34.787  37.943  1.00  0.00     0.041 A 
ATOM     55  F   UNL A   1      40.960  34.587  35.901  1.00  0.00    -0.206 F 
ATOM     56  C   UNL A   1      38.909  34.304  38.864  1.00  0.00     0.022 A 
BRANCH  53  57
ATOM     57  S   UNL A   1      36.969  32.498  39.729  1.00  0.00     0.124 S 
ATOM     58  O   UNL A   1      37.044  33.470  40.813  1.00  0.00    -0.237 OA
ATOM     59  O   UNL A   1      35.786  32.573  38.878  1.00  0.00    -0.237 OA
ATOM     60  O   UNL A   1      37.403  31.145  40.072  1.00  0.00    -0.744 OA
ENDBRANCH  53  57
ENDBRANCH  26  50
BRANCH  38  61
ATOM     61  C   UNL A   1      44.271  28.108  34.692  1.00  0.00     0.023 A 
ATOM     62  C   UNL A   1      44.163  26.922  35.441  1.00  0.00     0.031 A 
ATOM     63  C   UNL A   1      45.514  28.766  34.672  1.00  0.00     0.131 A 
ATOM     64  C   UNL A   1      45.258  26.466  36.190  1.00  0.00     0.055 A 
ATOM     65  C   UNL A   1      46.619  28.272  35.366  1.00  0.00     0.041 A 
ATOM     66  F   UNL A   1      45.673  29.905  33.979  1.00  0.00    -0.206 F 
ATOM     67  C   UNL A   1      46.490  27.124  36.142  1.00  0.00     0.022 A 
BRANCH  64  68
ATOM     68  S   UNL A   1      45.022  25.060  37.310  1.00  0.00     0.124 S 
ATOM     69  O   UNL A   1      43.584  24.832  37.211  1.00  0.00    -0.237 OA
ATOM     70  O   UNL A   1      45.873  24.037  36.712  1.00  0.00    -0.237 OA
ATOM     71  O   UNL A   1      45.481  25.570  38.602  1.00  0.00    -0.744 OA
ENDBRANCH  64  68
ENDBRANCH  38  61
ENDBRANCH  12  13
ENDBRANCH   5   7
ENDBRANCH   2   3
ENDBRANCH   1   2
BRANCH   1  72
ATOM     72  C   UNL A   1      31.702  30.162  26.708  1.00  0.00     0.002 C 
BRANCH  72  73
ATOM     73  C   UNL A   1      33.091  29.690  26.262  1.00  0.00     0.002 C 
BRANCH  73  74
ATOM     74  C   UNL A   1      33.216  29.346  24.772  1.00  0.00     0.021 C 
BRANCH  74  75
ATOM     75  C   UNL A   1      33.051  27.859  24.467  1.00  0.00     0.116 C 
BRANCH  75  76
ATOM     76  N   UNL A   1      32.341  27.661  23.223  1.00  0.00    -0.356 N 
ATOM     77  C   UNL A   1      31.056  27.789  22.835  1.00  0.00     0.223 C 
ATOM     78  H   UNL A   1      32.929  27.365  22.492  1.00  0.00     0.163 HD
ATOM     79  O   UNL A   1      30.825  27.453  21.663  1.00  0.00    -0.275 OA
BRANCH  77  80
ATOM     80  C   UNL A   1      29.882  28.269  23.690  1.00  0.00     0.079 C 
ATOM     81  C   UNL A   1      28.449  27.816  23.501  1.00  0.00     0.014 C 
ATOM     82  C   UNL A   1      29.780  29.800  23.692  1.00  0.00     0.026 C 
ATOM     83  C   UNL A   1      27.812  28.841  22.570  1.00  0.00     0.014 C 
ATOM     84  C   UNL A   1      28.553  30.165  22.817  1.00  0.00     0.026 C 
ATOM     85  C   UNL A   1      28.976  30.877  21.514  1.00  0.00     0.074 C 
ATOM     86  C   UNL A   1      27.653  31.207  23.501  1.00  0.00     0.267 C 
ATOM     87  C   UNL A   1      28.407  32.286  21.618  1.00  0.00     0.261 C 
ATOM     88  N   UNL A   1      28.184  32.497  23.050  1.00  0.00    -0.346 N 
ATOM     89  H   UNL A   1      27.509  33.245  23.209  1.00  0.00     0.346 HD
ATOM     90  H   UNL A   1      29.028  32.778  23.548  1.00  0.00     0.346 HD
ENDBRANCH  77  80
ENDBRANCH  75  76
ENDBRANCH  74  75
ENDBRANCH  73  74
ENDBRANCH  72  73
ENDBRANCH   1  72
TORSDOF 16
ENDMDL
MODEL 3
REMARK VINA RESULT:     -11.3      5.972     11.857
REMARK SMILES O=C(NCCCCCCNC(=O)[C@@H]1CC[C@]2(CC[NH2+]C2)C1)c1ccc(-c2c3nc(c(-c4cc(S(=O)(=O)[O-])ccc4F)c4ccc([nH]4)c(-c4cc(S(=O)(=O)[O-])ccc4F)c4nc(c(-c5cc(S(=O)(=O)[O-])ccc5F)c5ccc2[nH]5)C=C4)C=C3)cc1
REMARK SMILES IDX 5 1 4 2 3 3 1 4 2 5 22 7 23 8 84 9 24 10 83 11 25 12 26 13
REMARK SMILES IDX 27 14 77 15 28 16 82 17 76 18 78 19 29 20 81 21 75 22 74 23
REMARK SMILES IDX 30 25 62 26 42 27 61 28 43 29 46 30 60 31 79 32 44 33 45 34
REMARK SMILES IDX 59 36 80 37 47 38 31 39 32 40 40 41 33 42 39 43 41 44 38 45
REMARK SMILES IDX 34 46 35 47 36 48 37 49 63 50 64 51 72 52 65 53 71 54 73 55
REMARK SMILES IDX 70 56 66 57 67 58 68 59 69 60 48 61 49 62 57 63 50 64 56 65
REMARK SMILES IDX 58 66 55 67 51 68 52 69 53 70 54 71 6 72 7 73 8 74 9 75
REMARK SMILES IDX 10 76 11 77 12 79 13 80 14 81 21 82 15 83 16 84 17 85 20 86
REMARK SMILES IDX 18 87 19 88
REMARK H PARENT 3 6 78 24 46 35 10 78 19 89 19 90
REMARK Flexibility Score: inf
ROOT
ATOM      1  C   UNL A   1      38.145  19.880  25.077  1.00  0.00     0.021 C 
ENDROOT
BRANCH   1   2
ATOM      2  C   UNL A   1      39.230  20.349  26.038  1.00  0.00     0.116 C 
BRANCH   2   3
ATOM      3  N   UNL A   1      40.336  19.406  26.104  1.00  0.00    -0.352 N 
ATOM      4  O   UNL A   1      42.492  18.755  25.964  1.00  0.00    -0.269 OA
ATOM      5  C   UNL A   1      41.683  19.664  26.138  1.00  0.00     0.251 C 
ATOM      6  H   UNL A   1      40.084  18.454  26.127  1.00  0.00     0.163 HD
BRANCH   5   7
ATOM      7  C   UNL A   1      42.150  21.045  26.383  1.00  0.00     0.039 A 
ATOM      8  C   UNL A   1      42.426  21.469  27.686  1.00  0.00     0.014 A 
ATOM      9  C   UNL A   1      42.322  21.916  25.305  1.00  0.00     0.014 A 
ATOM     10  C   UNL A   1      42.751  22.798  27.923  1.00  0.00     0.010 A 
ATOM     11  C   UNL A   1      42.738  23.229  25.539  1.00  0.00     0.010 A 
ATOM     12  C   UNL A   1      42.938  23.686  26.852  1.00  0.00    -0.014 A 
BRANCH  12  13
ATOM     13  C   UNL A   1      43.424  25.061  27.130  1.00  0.00     0.031 A 
ATOM     14  C   UNL A   1      42.518  26.104  27.720  1.00  0.00     0.074 A 
ATOM     15  C   UNL A   1      44.713  25.350  26.861  1.00  0.00     0.049 A 
ATOM     16  N   UNL A   1      42.781  27.350  28.017  1.00  0.00    -0.248 NA
ATOM     17  C   UNL A   1      41.135  25.697  28.005  1.00  0.00     0.031 C 
ATOM     18  C   UNL A   1      45.681  24.409  26.285  1.00  0.00     0.029 A 
ATOM     19  N   UNL A   1      45.439  26.498  27.044  1.00  0.00    -0.354 N 
ATOM     20  C   UNL A   1      41.596  27.885  28.512  1.00  0.00     0.074 A 
ATOM     21  C   UNL A   1      40.604  26.832  28.439  1.00  0.00     0.031 C 
ATOM     22  C   UNL A   1      46.879  25.004  26.206  1.00  0.00     0.029 A 
ATOM     23  C   UNL A   1      46.751  26.386  26.646  1.00  0.00     0.049 A 
ATOM     24  H   UNL A   1      45.058  27.322  27.424  1.00  0.00     0.167 HD
ATOM     25  C   UNL A   1      41.367  29.135  28.986  1.00  0.00     0.034 A 
ATOM     26  C   UNL A   1      47.736  27.303  26.610  1.00  0.00     0.034 A 
ATOM     27  C   UNL A   1      42.374  30.170  29.041  1.00  0.00     0.049 A 
ATOM     28  C   UNL A   1      47.437  28.698  27.086  1.00  0.00     0.074 A 
ATOM     29  C   UNL A   1      42.258  31.462  29.527  1.00  0.00     0.029 A 
ATOM     30  N   UNL A   1      43.681  30.039  28.582  1.00  0.00    -0.354 N 
ATOM     31  N   UNL A   1      46.316  29.183  27.568  1.00  0.00    -0.248 NA
ATOM     32  C   UNL A   1      48.536  29.667  27.019  1.00  0.00     0.031 C 
ATOM     33  C   UNL A   1      43.465  32.131  29.293  1.00  0.00     0.029 A 
ATOM     34  C   UNL A   1      44.366  31.235  28.741  1.00  0.00     0.049 A 
ATOM     35  H   UNL A   1      44.064  29.215  28.201  1.00  0.00     0.167 HD
ATOM     36  C   UNL A   1      46.582  30.511  27.880  1.00  0.00     0.074 A 
ATOM     37  C   UNL A   1      47.976  30.741  27.555  1.00  0.00     0.031 C 
ATOM     38  C   UNL A   1      45.752  31.456  28.392  1.00  0.00     0.034 A 
BRANCH  25  39
ATOM     39  C   UNL A   1      39.962  29.465  29.436  1.00  0.00     0.023 A 
ATOM     40  C   UNL A   1      39.618  29.548  30.797  1.00  0.00     0.031 A 
ATOM     41  C   UNL A   1      38.945  29.683  28.489  1.00  0.00     0.131 A 
ATOM     42  C   UNL A   1      38.284  29.774  31.171  1.00  0.00     0.055 A 
ATOM     43  C   UNL A   1      37.635  29.987  28.868  1.00  0.00     0.041 A 
ATOM     44  F   UNL A   1      39.204  29.597  27.175  1.00  0.00    -0.206 F 
ATOM     45  C   UNL A   1      37.295  30.020  30.216  1.00  0.00     0.022 A 
BRANCH  42  46
ATOM     46  S   UNL A   1      37.833  29.601  32.921  1.00  0.00     0.124 S 
ATOM     47  O   UNL A   1      36.745  30.569  33.044  1.00  0.00    -0.237 OA
ATOM     48  O   UNL A   1      37.449  28.197  33.010  1.00  0.00    -0.237 OA
ATOM     49  O   UNL A   1      39.059  29.961  33.630  1.00  0.00    -0.744 OA
ENDBRANCH  42  46
ENDBRANCH  25  39
BRANCH  26  50
ATOM     50  C   UNL A   1      49.076  26.942  26.066  1.00  0.00     0.023 A 
ATOM     51  C   UNL A   1      49.472  27.349  24.783  1.00  0.00     0.031 A 
ATOM     52  C   UNL A   1      49.972  26.158  26.816  1.00  0.00     0.131 A 
ATOM     53  C   UNL A   1      50.712  26.936  24.272  1.00  0.00     0.055 A 
ATOM     54  C   UNL A   1      51.230  25.802  26.327  1.00  0.00     0.041 A 
ATOM     55  F   UNL A   1      49.646  25.744  28.051  1.00  0.00    -0.206 F 
ATOM     56  C   UNL A   1      51.600  26.180  25.041  1.00  0.00     0.022 A 
BRANCH  53  57
ATOM     57  S   UNL A   1      51.112  27.331  22.548  1.00  0.00     0.124 S 
ATOM     58  O   UNL A   1      51.118  28.789  22.571  1.00  0.00    -0.237 OA
ATOM     59  O   UNL A   1      52.411  26.686  22.384  1.00  0.00    -0.237 OA
ATOM     60  O   UNL A   1      50.016  26.721  21.798  1.00  0.00    -0.744 OA
ENDBRANCH  53  57
ENDBRANCH  26  50
BRANCH  38  61
ATOM     61  C   UNL A   1      46.353  32.813  28.664  1.00  0.00     0.023 A 
ATOM     62  C   UNL A   1      46.403  33.811  27.674  1.00  0.00     0.031 A 
ATOM     63  C   UNL A   1      46.910  33.101  29.922  1.00  0.00     0.131 A 
ATOM     64  C   UNL A   1      47.051  35.027  27.940  1.00  0.00     0.055 A 
ATOM     65  C   UNL A   1      47.495  34.336  30.202  1.00  0.00     0.041 A 
ATOM     66  F   UNL A   1      46.896  32.183  30.902  1.00  0.00    -0.206 F 
ATOM     67  C   UNL A   1      47.582  35.302  29.203  1.00  0.00     0.022 A 
BRANCH  64  68
ATOM     68  S   UNL A   1      47.285  36.204  26.581  1.00  0.00     0.124 S 
ATOM     69  O   UNL A   1      47.714  35.330  25.494  1.00  0.00    -0.237 OA
ATOM     70  O   UNL A   1      45.956  36.790  26.442  1.00  0.00    -0.237 OA
ATOM     71  O   UNL A   1      48.313  37.113  27.087  1.00  0.00    -0.744 OA
ENDBRANCH  64  68
ENDBRANCH  38  61
ENDBRANCH  12  13
ENDBRANCH   5   7
ENDBRANCH   2   3
ENDBRANCH   1   2
BRANCH   1  72
ATOM     72  C   UNL A   1      37.133  20.963  24.695  1.00  0.00     0.002 C 
BRANCH  72  73
ATOM     73  C   UNL A   1      36.908  22.045  25.759  1.00  0.00     0.002 C 
BRANCH  73  74
ATOM     74  C   UNL A   1      35.450  22.486  25.940  1.00  0.00     0.021 C 
BRANCH  74  75
ATOM     75  C   UNL A   1      34.659  21.620  26.918  1.00  0.00     0.116 C 
BRANCH  75  76
ATOM     76  N   UNL A   1      33.273  21.520  26.518  1.00  0.00    -0.356 N 
ATOM     77  C   UNL A   1      32.631  21.022  25.442  1.00  0.00     0.223 C 
ATOM     78  H   UNL A   1      32.657  21.902  27.184  1.00  0.00     0.163 HD
ATOM     79  O   UNL A   1      31.401  21.187  25.441  1.00  0.00    -0.275 OA
BRANCH  77  80
ATOM     80  C   UNL A   1      33.262  20.316  24.242  1.00  0.00     0.079 C 
ATOM     81  C   UNL A   1      32.494  19.872  23.013  1.00  0.00     0.014 C 
ATOM     82  C   UNL A   1      34.020  19.052  24.669  1.00  0.00     0.026 C 
ATOM     83  C   UNL A   1      32.089  18.427  23.281  1.00  0.00     0.014 C 
ATOM     84  C   UNL A   1      33.166  17.843  24.209  1.00  0.00     0.026 C 
ATOM     85  C   UNL A   1      32.579  17.071  25.411  1.00  0.00     0.074 C 
ATOM     86  C   UNL A   1      34.017  16.778  23.500  1.00  0.00     0.267 C 
ATOM     87  C   UNL A   1      33.233  15.697  25.369  1.00  0.00     0.261 C 
ATOM     88  N   UNL A   1      34.451  15.883  24.578  1.00  0.00    -0.346 N 
ATOM     89  H   UNL A   1      34.784  14.995  24.203  1.00  0.00     0.346 HD
ATOM     90  H   UNL A   1      35.228  16.260  25.122  1.00  0.00     0.346 HD
ENDBRANCH  77  80
ENDBRANCH  75  76
ENDBRANCH  74  75
ENDBRANCH  73  74
ENDBRANCH  72  73
ENDBRANCH   1  72
TORSDOF 16
ENDMDL
