MODEL 1
REMARK VINA RESULT:      -8.5      0.000      0.000
REMARK SMILES CS(=O)(=O)c1ccc(/C=C(/C(=O)NCCCCCCNC(=O)c2ccc(-c3c4nc(c(-c5cc(S(=O)(=O)[O-])ccc5F)c5ccc([nH]5)c(-c5cc(S(=O)(=O)[O-])ccc5F)c5nc(c(-c6cc(S(=O)(=O)[O-])ccc6F)c6ccc3[nH]6)C=C5)C=C4)cc2)c2ccc(-c3ccc(S(C)(=O)=O)cc3)cc2)cc1
REMARK SMILES IDX 16 1 15 2 14 3 13 4 11 5 12 6 10 8 9 9 8 10 5 11 6 12 103 13
REMARK SMILES IDX 7 14 102 15 2 16 1 17 3 18 4 19 86 20 87 21 101 22 88 23
REMARK SMILES IDX 100 24 89 25 90 26 91 27 99 28 92 29 98 30 93 31 94 32 95 33
REMARK SMILES IDX 96 34 97 35 17 36 18 37 19 38 20 39 21 40 22 42 23 43 24 44
REMARK SMILES IDX 85 45 25 46 84 47 26 48 27 49 28 50 78 51 29 52 83 53 77 54
REMARK SMILES IDX 79 55 30 56 82 57 76 58 75 59 31 61 63 62 43 63 62 64 44 65
REMARK SMILES IDX 47 66 61 67 80 68 45 69 46 70 60 72 81 73 48 74 32 75 33 76
REMARK SMILES IDX 41 77 34 78 40 79 42 80 39 81 35 82 36 83 37 84 38 85 64 86
REMARK SMILES IDX 65 87 73 88 66 89 72 90 74 91 71 92 67 93 68 94 69 95 70 96
REMARK SMILES IDX 49 97 50 98 58 99 51 100 57 101 59 102 56 103 52 104 53 105
REMARK SMILES IDX 54 106 55 107
REMARK H PARENT 13 7 20 41 79 60 47 71
REMARK Flexibility Score: inf
ROOT
ATOM      1  C   UNL A   1      46.626  36.961  34.245  1.00  0.00     0.002 C 
ENDROOT
BRANCH   1   2
ATOM      2  C   UNL A   1      47.735  35.993  34.692  1.00  0.00     0.021 C 
BRANCH   2   3
ATOM      3  C   UNL A   1      47.320  34.520  34.634  1.00  0.00     0.116 C 
BRANCH   3   4
ATOM      4  N   UNL A   1      46.569  34.178  35.826  1.00  0.00    -0.352 N 
ATOM      5  C   UNL A   1      45.527  33.348  36.083  1.00  0.00     0.251 C 
ATOM      6  O   UNL A   1      45.072  33.390  37.230  1.00  0.00    -0.269 OA
ATOM      7  H   UNL A   1      46.885  34.656  36.628  1.00  0.00     0.163 HD
BRANCH   5   8
ATOM      8  C   UNL A   1      44.990  32.346  35.088  1.00  0.00     0.047 C 
ATOM      9  C   UNL A   1      45.743  31.353  34.560  1.00  0.00     0.022 C 
BRANCH   9  10
ATOM     10  C   UNL A   1      45.326  30.243  33.673  1.00  0.00    -0.025 A 
ATOM     11  C   UNL A   1      44.722  28.155  31.892  1.00  0.00     0.067 A 
ATOM     12  C   UNL A   1      44.352  28.053  33.233  1.00  0.00     0.021 A 
ATOM     13  C   UNL A   1      45.343  29.310  31.416  1.00  0.00     0.021 A 
ATOM     14  C   UNL A   1      44.640  29.103  34.112  1.00  0.00     0.009 A 
ATOM     15  C   UNL A   1      45.641  30.346  32.307  1.00  0.00     0.009 A 
BRANCH  11  16
ATOM     16  S   UNL A   1      44.388  26.809  30.779  1.00  0.00     0.175 S 
ATOM     17  C   UNL A   1      45.869  26.643  29.817  1.00  0.00     0.163 C 
ATOM     18  O   UNL A   1      43.341  27.231  29.875  1.00  0.00    -0.224 OA
ATOM     19  O   UNL A   1      44.247  25.615  31.597  1.00  0.00    -0.224 OA
ENDBRANCH  11  16
ENDBRANCH   9  10
BRANCH   8  20
ATOM     20  C   UNL A   1      43.633  32.613  34.550  1.00  0.00    -0.013 A 
ATOM     21  C   UNL A   1      42.580  31.789  34.972  1.00  0.00     0.009 A 
ATOM     22  C   UNL A   1      43.345  33.709  33.731  1.00  0.00     0.009 A 
ATOM     23  C   UNL A   1      41.260  32.094  34.647  1.00  0.00     0.009 A 
ATOM     24  C   UNL A   1      42.014  34.021  33.418  1.00  0.00     0.009 A 
ATOM     25  C   UNL A   1      40.948  33.240  33.902  1.00  0.00    -0.018 A 
BRANCH  25  26
ATOM     26  C   UNL A   1      39.542  33.636  33.702  1.00  0.00    -0.018 A 
ATOM     27  C   UNL A   1      39.137  34.208  32.480  1.00  0.00     0.010 A 
ATOM     28  C   UNL A   1      38.568  33.437  34.693  1.00  0.00     0.010 A 
ATOM     29  C   UNL A   1      37.809  34.570  32.251  1.00  0.00     0.021 A 
ATOM     30  C   UNL A   1      37.234  33.797  34.475  1.00  0.00     0.021 A 
ATOM     31  C   UNL A   1      36.866  34.369  33.257  1.00  0.00     0.067 A 
BRANCH  31  32
ATOM     32  S   UNL A   1      35.177  34.822  32.951  1.00  0.00     0.175 S 
ATOM     33  C   UNL A   1      34.254  33.451  33.595  1.00  0.00     0.163 C 
ATOM     34  O   UNL A   1      34.892  35.986  33.769  1.00  0.00    -0.224 OA
ATOM     35  O   UNL A   1      34.976  34.852  31.515  1.00  0.00    -0.224 OA
ENDBRANCH  31  32
ENDBRANCH  25  26
ENDBRANCH   8  20
ENDBRANCH   5   8
ENDBRANCH   3   4
ENDBRANCH   2   3
ENDBRANCH   1   2
BRANCH   1  36
ATOM     36  C   UNL A   1      46.648  37.335  32.759  1.00  0.00     0.002 C 
BRANCH  36  37
ATOM     37  C   UNL A   1      45.283  37.324  32.068  1.00  0.00     0.021 C 
BRANCH  37  38
ATOM     38  C   UNL A   1      45.296  37.845  30.633  1.00  0.00     0.116 C 
BRANCH  38  39
ATOM     39  N   UNL A   1      46.597  37.668  30.006  1.00  0.00    -0.352 N 
ATOM     40  C   UNL A   1      47.173  36.517  29.526  1.00  0.00     0.251 C 
ATOM     41  H   UNL A   1      47.138  38.485  29.913  1.00  0.00     0.163 HD
ATOM     42  O   UNL A   1      48.364  36.502  29.226  1.00  0.00    -0.269 OA
BRANCH  40  43
ATOM     43  C   UNL A   1      46.353  35.294  29.397  1.00  0.00     0.039 A 
ATOM     44  C   UNL A   1      45.571  35.114  28.254  1.00  0.00     0.014 A 
ATOM     45  C   UNL A   1      46.375  34.318  30.399  1.00  0.00     0.014 A 
ATOM     46  C   UNL A   1      44.870  33.918  28.077  1.00  0.00     0.010 A 
ATOM     47  C   UNL A   1      45.722  33.105  30.195  1.00  0.00     0.010 A 
ATOM     48  C   UNL A   1      44.972  32.890  29.028  1.00  0.00    -0.014 A 
BRANCH  48  49
ATOM     49  C   UNL A   1      44.323  31.570  28.819  1.00  0.00     0.031 A 
ATOM     50  C   UNL A   1      45.016  30.513  28.005  1.00  0.00     0.074 A 
ATOM     51  C   UNL A   1      43.076  31.361  29.283  1.00  0.00     0.049 A 
ATOM     52  N   UNL A   1      44.565  29.354  27.598  1.00  0.00    -0.248 NA
ATOM     53  C   UNL A   1      46.387  30.815  27.573  1.00  0.00     0.031 C 
ATOM     54  C   UNL A   1      42.292  32.322  30.062  1.00  0.00     0.029 A 
ATOM     55  N   UNL A   1      42.238  30.282  29.152  1.00  0.00    -0.354 N 
ATOM     56  C   UNL A   1      45.593  28.791  26.848  1.00  0.00     0.074 A 
ATOM     57  C   UNL A   1      46.667  29.763  26.817  1.00  0.00     0.031 C 
ATOM     58  C   UNL A   1      41.093  31.786  30.345  1.00  0.00     0.029 A 
ATOM     59  C   UNL A   1      41.003  30.467  29.727  1.00  0.00     0.049 A 
ATOM     60  H   UNL A   1      42.497  29.452  28.689  1.00  0.00     0.167 HD
ATOM     61  C   UNL A   1      45.641  27.570  26.258  1.00  0.00     0.034 A 
ATOM     62  C   UNL A   1      39.911  29.677  29.734  1.00  0.00     0.034 A 
ATOM     63  C   UNL A   1      44.564  26.612  26.308  1.00  0.00     0.049 A 
ATOM     64  C   UNL A   1      39.967  28.349  29.024  1.00  0.00     0.074 A 
ATOM     65  C   UNL A   1      44.532  25.323  25.805  1.00  0.00     0.029 A 
ATOM     66  N   UNL A   1      43.321  26.844  26.883  1.00  0.00    -0.354 N 
ATOM     67  N   UNL A   1      40.964  27.811  28.359  1.00  0.00    -0.248 NA
ATOM     68  C   UNL A   1      38.754  27.523  29.065  1.00  0.00     0.031 C 
ATOM     69  C   UNL A   1      43.251  24.801  26.018  1.00  0.00     0.029 A 
ATOM     70  C   UNL A   1      42.503  25.737  26.712  1.00  0.00     0.049 A 
ATOM     71  H   UNL A   1      43.059  27.673  27.345  1.00  0.00     0.167 HD
ATOM     72  C   UNL A   1      40.501  26.574  27.919  1.00  0.00     0.074 A 
ATOM     73  C   UNL A   1      39.143  26.440  28.406  1.00  0.00     0.031 C 
ATOM     74  C   UNL A   1      41.143  25.630  27.185  1.00  0.00     0.034 A 
BRANCH  61  75
ATOM     75  C   UNL A   1      46.891  27.225  25.488  1.00  0.00     0.023 A 
ATOM     76  C   UNL A   1      47.112  27.706  24.185  1.00  0.00     0.031 A 
ATOM     77  C   UNL A   1      47.864  26.379  26.049  1.00  0.00     0.131 A 
ATOM     78  C   UNL A   1      48.232  27.275  23.458  1.00  0.00     0.055 A 
ATOM     79  C   UNL A   1      49.018  26.018  25.350  1.00  0.00     0.041 A 
ATOM     80  F   UNL A   1      47.701  25.875  27.282  1.00  0.00    -0.206 F 
ATOM     81  C   UNL A   1      49.199  26.453  24.041  1.00  0.00     0.022 A 
BRANCH  78  82
ATOM     82  S   UNL A   1      48.329  27.687  21.695  1.00  0.00     0.124 S 
ATOM     83  O   UNL A   1      47.024  28.300  21.462  1.00  0.00    -0.237 OA
ATOM     84  O   UNL A   1      49.477  28.586  21.645  1.00  0.00    -0.237 OA
ATOM     85  O   UNL A   1      48.524  26.390  21.050  1.00  0.00    -0.744 OA
ENDBRANCH  78  82
ENDBRANCH  61  75
BRANCH  62  86
ATOM     86  C   UNL A   1      38.660  30.127  30.406  1.00  0.00     0.023 A 
ATOM     87  C   UNL A   1      37.612  30.701  29.670  1.00  0.00     0.031 A 
ATOM     88  C   UNL A   1      38.508  30.020  31.800  1.00  0.00     0.131 A 
ATOM     89  C   UNL A   1      36.473  31.181  30.334  1.00  0.00     0.055 A 
ATOM     90  C   UNL A   1      37.354  30.458  32.451  1.00  0.00     0.041 A 
ATOM     91  F   UNL A   1      39.479  29.472  32.549  1.00  0.00    -0.206 F 
ATOM     92  C   UNL A   1      36.332  31.053  31.718  1.00  0.00     0.022 A 
BRANCH  89  93
ATOM     93  S   UNL A   1      35.202  32.041  29.367  1.00  0.00     0.124 S 
ATOM     94  O   UNL A   1      34.800  31.008  28.419  1.00  0.00    -0.237 OA
ATOM     95  O   UNL A   1      34.225  32.389  30.393  1.00  0.00    -0.237 OA
ATOM     96  O   UNL A   1      35.924  33.173  28.789  1.00  0.00    -0.744 OA
ENDBRANCH  89  93
ENDBRANCH  62  86
BRANCH  74  97
ATOM     97  C   UNL A   1      40.384  24.361  26.892  1.00  0.00     0.023 A 
ATOM     98  C   UNL A   1      39.195  24.371  26.140  1.00  0.00     0.031 A 
ATOM     99  C   UNL A   1      40.855  23.128  27.373  1.00  0.00     0.131 A 
ATOM    100  C   UNL A   1      38.496  23.174  25.927  1.00  0.00     0.055 A 
ATOM    101  C   UNL A   1      40.183  21.933  27.114  1.00  0.00     0.041 A 
ATOM    102  F   UNL A   1      41.984  23.064  28.098  1.00  0.00    -0.206 F 
ATOM    103  C   UNL A   1      38.991  21.953  26.395  1.00  0.00     0.022 A 
BRANCH 100 104
ATOM    104  S   UNL A   1      36.894  23.239  25.079  1.00  0.00     0.124 S 
ATOM    105  O   UNL A   1      36.319  21.941  25.418  1.00  0.00    -0.237 OA
ATOM    106  O   UNL A   1      36.259  24.399  25.697  1.00  0.00    -0.237 OA
ATOM    107  O   UNL A   1      37.256  23.409  23.673  1.00  0.00    -0.744 OA
ENDBRANCH 100 104
ENDBRANCH  74  97
ENDBRANCH  48  49
ENDBRANCH  40  43
ENDBRANCH  38  39
ENDBRANCH  37  38
ENDBRANCH  36  37
ENDBRANCH   1  36
TORSDOF 21
ENDMDL
MODEL 2
REMARK VINA RESULT:      -8.3      4.432     11.307
REMARK SMILES CS(=O)(=O)c1ccc(/C=C(/C(=O)NCCCCCCNC(=O)c2ccc(-c3c4nc(c(-c5cc(S(=O)(=O)[O-])ccc5F)c5ccc([nH]5)c(-c5cc(S(=O)(=O)[O-])ccc5F)c5nc(c(-c6cc(S(=O)(=O)[O-])ccc6F)c6ccc3[nH]6)C=C5)C=C4)cc2)c2ccc(-c3ccc(S(C)(=O)=O)cc3)cc2)cc1
REMARK SMILES IDX 16 1 15 2 14 3 13 4 11 5 12 6 10 8 9 9 8 10 5 11 6 12 103 13
REMARK SMILES IDX 7 14 102 15 2 16 1 17 3 18 4 19 86 20 87 21 101 22 88 23
REMARK SMILES IDX 100 24 89 25 90 26 91 27 99 28 92 29 98 30 93 31 94 32 95 33
REMARK SMILES IDX 96 34 97 35 17 36 18 37 19 38 20 39 21 40 22 42 23 43 24 44
REMARK SMILES IDX 85 45 25 46 84 47 26 48 27 49 28 50 78 51 29 52 83 53 77 54
REMARK SMILES IDX 79 55 30 56 82 57 76 58 75 59 31 61 63 62 43 63 62 64 44 65
REMARK SMILES IDX 47 66 61 67 80 68 45 69 46 70 60 72 81 73 48 74 32 75 33 76
REMARK SMILES IDX 41 77 34 78 40 79 42 80 39 81 35 82 36 83 37 84 38 85 64 86
REMARK SMILES IDX 65 87 73 88 66 89 72 90 74 91 71 92 67 93 68 94 69 95 70 96
REMARK SMILES IDX 49 97 50 98 58 99 51 100 57 101 59 102 56 103 52 104 53 105
REMARK SMILES IDX 54 106 55 107
REMARK H PARENT 13 7 20 41 79 60 47 71
REMARK Flexibility Score: inf
ROOT
ATOM      1  C   UNL A   1      36.090  33.949  32.742  1.00  0.00     0.002 C 
ENDROOT
BRANCH   1   2
ATOM      2  C   UNL A   1      36.176  33.462  31.285  1.00  0.00     0.021 C 
BRANCH   2   3
ATOM      3  C   UNL A   1      34.951  32.659  30.836  1.00  0.00     0.116 C 
BRANCH   3   4
ATOM      4  N   UNL A   1      34.331  33.314  29.700  1.00  0.00    -0.352 N 
ATOM      5  C   UNL A   1      34.037  32.930  28.432  1.00  0.00     0.251 C 
ATOM      6  O   UNL A   1      33.588  33.809  27.691  1.00  0.00    -0.269 OA
ATOM      7  H   UNL A   1      34.065  34.242  29.891  1.00  0.00     0.163 HD
BRANCH   5   8
ATOM      8  C   UNL A   1      34.143  31.505  27.942  1.00  0.00     0.047 C 
ATOM      9  C   UNL A   1      33.072  30.783  27.537  1.00  0.00     0.022 C 
BRANCH   9  10
ATOM     10  C   UNL A   1      33.039  29.431  26.932  1.00  0.00    -0.025 A 
ATOM     11  C   UNL A   1      32.765  26.872  25.802  1.00  0.00     0.067 A 
ATOM     12  C   UNL A   1      33.702  27.766  25.280  1.00  0.00     0.021 A 
ATOM     13  C   UNL A   1      32.001  27.221  26.916  1.00  0.00     0.021 A 
ATOM     14  C   UNL A   1      33.846  29.032  25.857  1.00  0.00     0.009 A 
ATOM     15  C   UNL A   1      32.142  28.496  27.474  1.00  0.00     0.009 A 
BRANCH  11  16
ATOM     16  S   UNL A   1      32.556  25.275  25.051  1.00  0.00     0.175 S 
ATOM     17  C   UNL A   1      34.206  24.703  24.742  1.00  0.00     0.163 C 
ATOM     18  O   UNL A   1      31.927  25.470  23.763  1.00  0.00    -0.224 OA
ATOM     19  O   UNL A   1      31.962  24.413  26.059  1.00  0.00    -0.224 OA
ENDBRANCH  11  16
ENDBRANCH   9  10
BRANCH   8  20
ATOM     20  C   UNL A   1      35.462  30.845  28.108  1.00  0.00    -0.013 A 
ATOM     21  C   UNL A   1      35.562  29.791  29.027  1.00  0.00     0.009 A 
ATOM     22  C   UNL A   1      36.571  31.158  27.316  1.00  0.00     0.009 A 
ATOM     23  C   UNL A   1      36.719  29.017  29.102  1.00  0.00     0.009 A 
ATOM     24  C   UNL A   1      37.727  30.368  27.384  1.00  0.00     0.009 A 
ATOM     25  C   UNL A   1      37.806  29.263  28.250  1.00  0.00    -0.018 A 
BRANCH  25  26
ATOM     26  C   UNL A   1      38.955  28.339  28.228  1.00  0.00    -0.018 A 
ATOM     27  C   UNL A   1      38.949  27.184  29.035  1.00  0.00     0.010 A 
ATOM     28  C   UNL A   1      40.066  28.557  27.397  1.00  0.00     0.010 A 
ATOM     29  C   UNL A   1      40.009  26.278  29.018  1.00  0.00     0.021 A 
ATOM     30  C   UNL A   1      41.136  27.657  27.372  1.00  0.00     0.021 A 
ATOM     31  C   UNL A   1      41.103  26.527  28.190  1.00  0.00     0.067 A 
BRANCH  31  32
ATOM     32  S   UNL A   1      42.442  25.362  28.167  1.00  0.00     0.175 S 
ATOM     33  C   UNL A   1      43.528  25.949  29.441  1.00  0.00     0.163 C 
ATOM     34  O   UNL A   1      41.903  24.082  28.583  1.00  0.00    -0.224 OA
ATOM     35  O   UNL A   1      43.134  25.504  26.900  1.00  0.00    -0.224 OA
ENDBRANCH  31  32
ENDBRANCH  25  26
ENDBRANCH   8  20
ENDBRANCH   5   8
ENDBRANCH   3   4
ENDBRANCH   2   3
ENDBRANCH   1   2
BRANCH   1  36
ATOM     36  C   UNL A   1      36.092  32.840  33.800  1.00  0.00     0.002 C 
BRANCH  36  37
ATOM     37  C   UNL A   1      37.339  31.953  33.806  1.00  0.00     0.021 C 
BRANCH  37  38
ATOM     38  C   UNL A   1      37.285  30.780  32.831  1.00  0.00     0.116 C 
BRANCH  38  39
ATOM     39  N   UNL A   1      37.916  29.590  33.381  1.00  0.00    -0.352 N 
ATOM     40  C   UNL A   1      39.166  29.082  33.126  1.00  0.00     0.251 C 
ATOM     41  H   UNL A   1      37.372  29.080  34.024  1.00  0.00     0.163 HD
ATOM     42  O   UNL A   1      39.462  27.952  33.507  1.00  0.00    -0.269 OA
BRANCH  40  43
ATOM     43  C   UNL A   1      40.142  29.898  32.373  1.00  0.00     0.039 A 
ATOM     44  C   UNL A   1      41.127  30.602  33.071  1.00  0.00     0.014 A 
ATOM     45  C   UNL A   1      40.093  29.947  30.976  1.00  0.00     0.014 A 
ATOM     46  C   UNL A   1      42.113  31.295  32.363  1.00  0.00     0.010 A 
ATOM     47  C   UNL A   1      41.108  30.591  30.273  1.00  0.00     0.010 A 
ATOM     48  C   UNL A   1      42.133  31.261  30.959  1.00  0.00    -0.014 A 
BRANCH  48  49
ATOM     49  C   UNL A   1      43.226  31.901  30.182  1.00  0.00     0.031 A 
ATOM     50  C   UNL A   1      44.503  31.152  29.925  1.00  0.00     0.074 A 
ATOM     51  C   UNL A   1      43.101  33.184  29.790  1.00  0.00     0.049 A 
ATOM     52  N   UNL A   1      45.618  31.576  29.387  1.00  0.00    -0.248 NA
ATOM     53  C   UNL A   1      44.534  29.747  30.355  1.00  0.00     0.031 C 
ATOM     54  C   UNL A   1      41.919  34.022  30.007  1.00  0.00     0.029 A 
ATOM     55  N   UNL A   1      43.982  34.017  29.147  1.00  0.00    -0.354 N 
ATOM     56  C   UNL A   1      46.491  30.494  29.426  1.00  0.00     0.074 A 
ATOM     57  C   UNL A   1      45.789  29.414  30.088  1.00  0.00     0.031 C 
ATOM     58  C   UNL A   1      42.147  35.245  29.499  1.00  0.00     0.029 A 
ATOM     59  C   UNL A   1      43.505  35.294  28.966  1.00  0.00     0.049 A 
ATOM     60  H   UNL A   1      44.873  33.727  28.844  1.00  0.00     0.167 HD
ATOM     61  C   UNL A   1      47.754  30.407  28.938  1.00  0.00     0.034 A 
ATOM     62  C   UNL A   1      44.102  36.388  28.455  1.00  0.00     0.034 A 
ATOM     63  C   UNL A   1      48.434  31.492  28.274  1.00  0.00     0.049 A 
ATOM     64  C   UNL A   1      45.525  36.284  27.969  1.00  0.00     0.074 A 
ATOM     65  C   UNL A   1      49.685  31.491  27.681  1.00  0.00     0.029 A 
ATOM     66  N   UNL A   1      47.926  32.776  28.127  1.00  0.00    -0.354 N 
ATOM     67  N   UNL A   1      46.322  35.240  27.970  1.00  0.00    -0.248 NA
ATOM     68  C   UNL A   1      46.129  37.503  27.416  1.00  0.00     0.031 C 
ATOM     69  C   UNL A   1      49.960  32.790  27.235  1.00  0.00     0.029 A 
ATOM     70  C   UNL A   1      48.854  33.586  27.489  1.00  0.00     0.049 A 
ATOM     71  H   UNL A   1      47.037  33.070  28.431  1.00  0.00     0.167 HD
ATOM     72  C   UNL A   1      47.515  35.675  27.399  1.00  0.00     0.074 A 
ATOM     73  C   UNL A   1      47.328  37.069  27.054  1.00  0.00     0.031 C 
ATOM     74  C   UNL A   1      48.660  34.982  27.173  1.00  0.00     0.034 A 
BRANCH  61  75
ATOM     75  C   UNL A   1      48.482  29.100  29.134  1.00  0.00     0.023 A 
ATOM     76  C   UNL A   1      48.386  28.054  28.199  1.00  0.00     0.031 A 
ATOM     77  C   UNL A   1      49.258  28.882  30.286  1.00  0.00     0.131 A 
ATOM     78  C   UNL A   1      48.987  26.815  28.469  1.00  0.00     0.055 A 
ATOM     79  C   UNL A   1      49.921  27.673  30.511  1.00  0.00     0.041 A 
ATOM     80  F   UNL A   1      49.372  29.837  31.223  1.00  0.00    -0.206 F 
ATOM     81  C   UNL A   1      49.773  26.625  29.607  1.00  0.00     0.022 A 
BRANCH  78  82
ATOM     82  S   UNL A   1      48.604  25.414  27.383  1.00  0.00     0.124 S 
ATOM     83  O   UNL A   1      47.298  24.997  27.889  1.00  0.00    -0.237 OA
ATOM     84  O   UNL A   1      48.611  26.029  26.061  1.00  0.00    -0.237 OA
ATOM     85  O   UNL A   1      49.693  24.473  27.640  1.00  0.00    -0.744 OA
ENDBRANCH  78  82
ENDBRANCH  61  75
BRANCH  62  86
ATOM     86  C   UNL A   1      43.375  37.688  28.401  1.00  0.00     0.023 A 
ATOM     87  C   UNL A   1      43.457  38.605  29.460  1.00  0.00     0.031 A 
ATOM     88  C   UNL A   1      42.559  38.016  27.304  1.00  0.00     0.131 A 
ATOM     89  C   UNL A   1      42.707  39.790  29.418  1.00  0.00     0.055 A 
ATOM     90  C   UNL A   1      41.850  39.217  27.246  1.00  0.00     0.041 A 
ATOM     91  F   UNL A   1      42.451  37.175  26.262  1.00  0.00    -0.206 F 
ATOM     92  C   UNL A   1      41.913  40.108  28.314  1.00  0.00     0.022 A 
BRANCH  89  93
ATOM     93  S   UNL A   1      42.731  40.884  30.864  1.00  0.00     0.124 S 
ATOM     94  O   UNL A   1      43.359  40.035  31.870  1.00  0.00    -0.237 OA
ATOM     95  O   UNL A   1      43.529  42.006  30.381  1.00  0.00    -0.237 OA
ATOM     96  O   UNL A   1      41.317  41.180  31.090  1.00  0.00    -0.744 OA
ENDBRANCH  89  93
ENDBRANCH  62  86
BRANCH  74  97
ATOM     97  C   UNL A   1      49.784  35.724  26.498  1.00  0.00     0.023 A 
ATOM     98  C   UNL A   1      50.765  36.406  27.238  1.00  0.00     0.031 A 
ATOM     99  C   UNL A   1      49.872  35.749  25.095  1.00  0.00     0.131 A 
ATOM    100  C   UNL A   1      51.771  37.120  26.569  1.00  0.00     0.055 A 
ATOM    101  C   UNL A   1      50.904  36.418  24.436  1.00  0.00     0.041 A 
ATOM    102  F   UNL A   1      48.959  35.114  24.342  1.00  0.00    -0.206 F 
ATOM    103  C   UNL A   1      51.855  37.118  25.174  1.00  0.00     0.022 A 
BRANCH 100 104
ATOM    104  S   UNL A   1      52.935  38.109  27.547  1.00  0.00     0.124 S 
ATOM    105  O   UNL A   1      54.220  37.705  26.987  1.00  0.00    -0.237 OA
ATOM    106  O   UNL A   1      52.512  39.475  27.253  1.00  0.00    -0.237 OA
ATOM    107  O   UNL A   1      52.691  37.669  28.920  1.00  0.00    -0.744 OA
ENDBRANCH 100 104
ENDBRANCH  74  97
ENDBRANCH  48  49
ENDBRANCH  40  43
ENDBRANCH  38  39
ENDBRANCH  37  38
ENDBRANCH  36  37
ENDBRANCH   1  36
TORSDOF 21
ENDMDL
MODEL 3
REMARK VINA RESULT:      -8.2      5.313     12.711
REMARK SMILES CS(=O)(=O)c1ccc(/C=C(/C(=O)NCCCCCCNC(=O)c2ccc(-c3c4nc(c(-c5cc(S(=O)(=O)[O-])ccc5F)c5ccc([nH]5)c(-c5cc(S(=O)(=O)[O-])ccc5F)c5nc(c(-c6cc(S(=O)(=O)[O-])ccc6F)c6ccc3[nH]6)C=C5)C=C4)cc2)c2ccc(-c3ccc(S(C)(=O)=O)cc3)cc2)cc1
REMARK SMILES IDX 16 1 15 2 14 3 13 4 11 5 12 6 10 8 9 9 8 10 5 11 6 12 103 13
REMARK SMILES IDX 7 14 102 15 2 16 1 17 3 18 4 19 86 20 87 21 101 22 88 23
REMARK SMILES IDX 100 24 89 25 90 26 91 27 99 28 92 29 98 30 93 31 94 32 95 33
REMARK SMILES IDX 96 34 97 35 17 36 18 37 19 38 20 39 21 40 22 42 23 43 24 44
REMARK SMILES IDX 85 45 25 46 84 47 26 48 27 49 28 50 78 51 29 52 83 53 77 54
REMARK SMILES IDX 79 55 30 56 82 57 76 58 75 59 31 61 63 62 43 63 62 64 44 65
REMARK SMILES IDX 47 66 61 67 80 68 45 69 46 70 60 72 81 73 48 74 32 75 33 76
REMARK SMILES IDX 41 77 34 78 40 79 42 80 39 81 35 82 36 83 37 84 38 85 64 86
REMARK SMILES IDX 65 87 73 88 66 89 72 90 74 91 71 92 67 93 68 94 69 95 70 96
REMARK SMILES IDX 49 97 50 98 58 99 51 100 57 101 59 102 56 103 52 104 53 105
REMARK SMILES IDX 54 106 55 107
REMARK H PARENT 13 7 20 41 79 60 47 71
REMARK Flexibility Score: inf
ROOT
ATOM      1  C   UNL A   1      36.248  32.771  29.634  1.00  0.00     0.002 C 
ENDROOT
BRANCH   1   2
ATOM      2  C   UNL A   1      35.113  33.384  28.797  1.00  0.00     0.021 C 
BRANCH   2   3
ATOM      3  C   UNL A   1      34.574  32.442  27.716  1.00  0.00     0.116 C 
BRANCH   3   4
ATOM      4  N   UNL A   1      35.063  31.098  27.954  1.00  0.00    -0.352 N 
ATOM      5  C   UNL A   1      34.611  29.858  27.643  1.00  0.00     0.251 C 
ATOM      6  O   UNL A   1      35.256  28.914  28.108  1.00  0.00    -0.269 OA
ATOM      7  H   UNL A   1      35.912  31.082  28.453  1.00  0.00     0.163 HD
BRANCH   5   8
ATOM      8  C   UNL A   1      33.453  29.598  26.707  1.00  0.00     0.047 C 
ATOM      9  C   UNL A   1      32.529  30.538  26.398  1.00  0.00     0.022 C 
BRANCH   9  10
ATOM     10  C   UNL A   1      31.419  30.462  25.420  1.00  0.00    -0.025 A 
ATOM     11  C   UNL A   1      29.357  30.518  23.512  1.00  0.00     0.067 A 
ATOM     12  C   UNL A   1      30.144  29.374  23.651  1.00  0.00     0.021 A 
ATOM     13  C   UNL A   1      29.552  31.616  24.351  1.00  0.00     0.021 A 
ATOM     14  C   UNL A   1      31.158  29.346  24.615  1.00  0.00     0.009 A 
ATOM     15  C   UNL A   1      30.580  31.582  25.299  1.00  0.00     0.009 A 
BRANCH  11  16
ATOM     16  S   UNL A   1      28.089  30.571  22.266  1.00  0.00     0.175 S 
ATOM     17  C   UNL A   1      27.834  32.299  21.958  1.00  0.00     0.163 C 
ATOM     18  O   UNL A   1      26.870  30.061  22.854  1.00  0.00    -0.224 OA
ATOM     19  O   UNL A   1      28.657  29.979  21.066  1.00  0.00    -0.224 OA
ENDBRANCH  11  16
ENDBRANCH   9  10
BRANCH   8  20
ATOM     20  C   UNL A   1      33.249  28.190  26.283  1.00  0.00    -0.013 A 
ATOM     21  C   UNL A   1      34.046  27.692  25.243  1.00  0.00     0.009 A 
ATOM     22  C   UNL A   1      32.380  27.318  26.945  1.00  0.00     0.009 A 
ATOM     23  C   UNL A   1      34.030  26.336  24.919  1.00  0.00     0.009 A 
ATOM     24  C   UNL A   1      32.378  25.954  26.626  1.00  0.00     0.009 A 
ATOM     25  C   UNL A   1      33.230  25.435  25.634  1.00  0.00    -0.018 A 
BRANCH  25  26
ATOM     26  C   UNL A   1      33.343  23.985  25.389  1.00  0.00    -0.018 A 
ATOM     27  C   UNL A   1      32.421  23.095  25.976  1.00  0.00     0.010 A 
ATOM     28  C   UNL A   1      34.337  23.450  24.553  1.00  0.00     0.010 A 
ATOM     29  C   UNL A   1      32.486  21.722  25.742  1.00  0.00     0.021 A 
ATOM     30  C   UNL A   1      34.412  22.074  24.313  1.00  0.00     0.021 A 
ATOM     31  C   UNL A   1      33.490  21.218  24.917  1.00  0.00     0.067 A 
BRANCH  31  32
ATOM     32  S   UNL A   1      33.556  19.470  24.617  1.00  0.00     0.175 S 
ATOM     33  C   UNL A   1      32.836  18.768  26.078  1.00  0.00     0.163 C 
ATOM     34  O   UNL A   1      32.676  19.194  23.498  1.00  0.00    -0.224 OA
ATOM     35  O   UNL A   1      34.952  19.076  24.582  1.00  0.00    -0.224 OA
ENDBRANCH  31  32
ENDBRANCH  25  26
ENDBRANCH   8  20
ENDBRANCH   5   8
ENDBRANCH   3   4
ENDBRANCH   2   3
ENDBRANCH   1   2
BRANCH   1  36
ATOM     36  C   UNL A   1      36.294  33.224  31.098  1.00  0.00     0.002 C 
BRANCH  36  37
ATOM     37  C   UNL A   1      36.664  32.130  32.103  1.00  0.00     0.021 C 
BRANCH  37  38
ATOM     38  C   UNL A   1      36.321  30.713  31.649  1.00  0.00     0.116 C 
BRANCH  38  39
ATOM     39  N   UNL A   1      36.936  29.709  32.503  1.00  0.00    -0.352 N 
ATOM     40  C   UNL A   1      38.252  29.316  32.562  1.00  0.00     0.251 C 
ATOM     41  H   UNL A   1      36.326  29.248  33.123  1.00  0.00     0.163 HD
ATOM     42  O   UNL A   1      38.565  28.304  33.183  1.00  0.00    -0.269 OA
BRANCH  40  43
ATOM     43  C   UNL A   1      39.279  30.109  31.854  1.00  0.00     0.039 A 
ATOM     44  C   UNL A   1      40.201  30.850  32.596  1.00  0.00     0.014 A 
ATOM     45  C   UNL A   1      39.339  30.100  30.456  1.00  0.00     0.014 A 
ATOM     46  C   UNL A   1      41.236  31.522  31.940  1.00  0.00     0.010 A 
ATOM     47  C   UNL A   1      40.403  30.724  29.809  1.00  0.00     0.010 A 
ATOM     48  C   UNL A   1      41.366  31.431  30.544  1.00  0.00    -0.014 A 
BRANCH  48  49
ATOM     49  C   UNL A   1      42.513  32.048  29.829  1.00  0.00     0.031 A 
ATOM     50  C   UNL A   1      43.734  31.228  29.518  1.00  0.00     0.074 A 
ATOM     51  C   UNL A   1      42.489  33.365  29.545  1.00  0.00     0.049 A 
ATOM     52  N   UNL A   1      44.883  31.610  29.024  1.00  0.00    -0.248 NA
ATOM     53  C   UNL A   1      43.655  29.794  29.830  1.00  0.00     0.031 C 
ATOM     54  C   UNL A   1      41.370  34.269  29.823  1.00  0.00     0.029 A 
ATOM     55  N   UNL A   1      43.438  34.179  28.977  1.00  0.00    -0.354 N 
ATOM     56  C   UNL A   1      45.673  30.466  28.978  1.00  0.00     0.074 A 
ATOM     57  C   UNL A   1      44.884  29.391  29.544  1.00  0.00     0.031 C 
ATOM     58  C   UNL A   1      41.696  35.508  29.419  1.00  0.00     0.029 A 
ATOM     59  C   UNL A   1      43.060  35.499  28.900  1.00  0.00     0.049 A 
ATOM     60  H   UNL A   1      44.307  33.848  28.656  1.00  0.00     0.167 HD
ATOM     61  C   UNL A   1      46.931  30.324  28.491  1.00  0.00     0.034 A 
ATOM     62  C   UNL A   1      43.743  36.584  28.485  1.00  0.00     0.034 A 
ATOM     63  C   UNL A   1      47.699  31.405  27.923  1.00  0.00     0.049 A 
ATOM     64  C   UNL A   1      45.160  36.412  28.000  1.00  0.00     0.074 A 
ATOM     65  C   UNL A   1      48.953  31.360  27.340  1.00  0.00     0.029 A 
ATOM     66  N   UNL A   1      47.290  32.732  27.880  1.00  0.00    -0.354 N 
ATOM     67  N   UNL A   1      45.876  35.315  27.919  1.00  0.00    -0.248 NA
ATOM     68  C   UNL A   1      45.859  37.624  27.553  1.00  0.00     0.031 C 
ATOM     69  C   UNL A   1      49.329  32.666  27.005  1.00  0.00     0.029 A 
ATOM     70  C   UNL A   1      48.284  33.519  27.317  1.00  0.00     0.049 A 
ATOM     71  H   UNL A   1      46.421  33.066  28.203  1.00  0.00     0.167 HD
ATOM     72  C   UNL A   1      47.105  35.703  27.392  1.00  0.00     0.074 A 
ATOM     73  C   UNL A   1      47.026  37.132  27.163  1.00  0.00     0.031 C 
ATOM     74  C   UNL A   1      48.198  34.947  27.117  1.00  0.00     0.034 A 
BRANCH  61  75
ATOM     75  C   UNL A   1      47.557  28.954  28.583  1.00  0.00     0.023 A 
ATOM     76  C   UNL A   1      47.342  27.977  27.595  1.00  0.00     0.031 A 
ATOM     77  C   UNL A   1      48.356  28.608  29.687  1.00  0.00     0.131 A 
ATOM     78  C   UNL A   1      47.849  26.680  27.769  1.00  0.00     0.055 A 
ATOM     79  C   UNL A   1      48.926  27.339  29.815  1.00  0.00     0.041 A 
ATOM     80  F   UNL A   1      48.583  29.493  30.670  1.00  0.00    -0.206 F 
ATOM     81  C   UNL A   1      48.660  26.361  28.861  1.00  0.00     0.022 A 
BRANCH  78  82
ATOM     82  S   UNL A   1      47.313  25.381  26.624  1.00  0.00     0.124 S 
ATOM     83  O   UNL A   1      45.879  25.645  26.528  1.00  0.00    -0.237 OA
ATOM     84  O   UNL A   1      48.098  25.671  25.429  1.00  0.00    -0.237 OA
ATOM     85  O   UNL A   1      47.666  24.144  27.318  1.00  0.00    -0.744 OA
ENDBRANCH  78  82
ENDBRANCH  61  75
BRANCH  62  86
ATOM     86  C   UNL A   1      43.115  37.934  28.535  1.00  0.00     0.023 A 
ATOM     87  C   UNL A   1      43.318  38.784  29.633  1.00  0.00     0.031 A 
ATOM     88  C   UNL A   1      42.274  38.380  27.500  1.00  0.00     0.131 A 
ATOM     89  C   UNL A   1      42.660  40.022  29.690  1.00  0.00     0.055 A 
ATOM     90  C   UNL A   1      41.657  39.632  27.540  1.00  0.00     0.041 A 
ATOM     91  F   UNL A   1      42.052  37.607  26.424  1.00  0.00    -0.206 F 
ATOM     92  C   UNL A   1      41.840  40.456  28.646  1.00  0.00     0.022 A 
BRANCH  89  93
ATOM     93  S   UNL A   1      42.839  41.032  31.185  1.00  0.00     0.124 S 
ATOM     94  O   UNL A   1      43.450  40.086  32.112  1.00  0.00    -0.237 OA
ATOM     95  O   UNL A   1      43.694  42.117  30.717  1.00  0.00    -0.237 OA
ATOM     96  O   UNL A   1      41.464  41.416  31.501  1.00  0.00    -0.744 OA
ENDBRANCH  89  93
ENDBRANCH  62  86
BRANCH  74  97
ATOM     97  C   UNL A   1      49.382  35.655  26.512  1.00  0.00     0.023 A 
ATOM     98  C   UNL A   1      50.380  36.237  27.312  1.00  0.00     0.031 A 
ATOM     99  C   UNL A   1      49.511  35.749  25.115  1.00  0.00     0.131 A 
ATOM    100  C   UNL A   1      51.444  36.924  26.709  1.00  0.00     0.055 A 
ATOM    101  C   UNL A   1      50.599  36.390  24.520  1.00  0.00     0.041 A 
ATOM    102  F   UNL A   1      48.584  35.212  24.306  1.00  0.00    -0.206 F 
ATOM    103  C   UNL A   1      51.568  36.991  25.319  1.00  0.00     0.022 A 
BRANCH 100 104
ATOM    104  S   UNL A   1      52.636  37.788  27.769  1.00  0.00     0.124 S 
ATOM    105  O   UNL A   1      53.852  37.010  27.553  1.00  0.00    -0.237 OA
ATOM    106  O   UNL A   1      52.634  39.136  27.211  1.00  0.00    -0.237 OA
ATOM    107  O   UNL A   1      52.055  37.671  29.105  1.00  0.00    -0.744 OA
ENDBRANCH 100 104
ENDBRANCH  74  97
ENDBRANCH  48  49
ENDBRANCH  40  43
ENDBRANCH  38  39
ENDBRANCH  37  38
ENDBRANCH  36  37
ENDBRANCH   1  36
TORSDOF 21
ENDMDL
