MODEL 1
REMARK VINA RESULT:     -11.2      0.000      0.000
REMARK SMILES O=C(NCCCCCCNC(=O)[C@H](F)Sc1cc2ccccc2[nH]1)c1ccc(-c2c3nc(c(-c4cc(S(=O)(=O)[O-])ccc4F)c4ccc([nH]4)c(-c4cc(S(=O)(=O)[O-])ccc4F)c4nc(c(-c5cc(S(=O)(=O)[O-])ccc5F)c5ccc2[nH]5)C=C4)C=C3)cc1
REMARK SMILES IDX 6 1 5 2 4 3 3 4 1 5 2 6 25 8 26 9 87 10 27 11 86 12 28 13
REMARK SMILES IDX 29 14 30 15 80 16 31 17 85 18 79 19 81 20 32 21 84 22 78 23
REMARK SMILES IDX 77 24 33 26 65 27 45 28 64 29 46 30 49 31 63 32 82 33 47 34
REMARK SMILES IDX 48 35 62 37 83 38 50 39 34 40 35 41 43 42 36 43 42 44 44 45
REMARK SMILES IDX 41 46 37 47 38 48 39 49 40 50 66 51 67 52 75 53 68 54 74 55
REMARK SMILES IDX 76 56 73 57 69 58 70 59 71 60 72 61 51 62 52 63 60 64 53 65
REMARK SMILES IDX 59 66 61 67 58 68 54 69 55 70 56 71 57 72 7 73 8 74 9 75
REMARK SMILES IDX 10 76 11 77 12 79 13 80 14 81 15 82 16 83 17 84 24 85 18 86
REMARK SMILES IDX 23 87 19 89 22 90 20 91 21 92
REMARK H PARENT 3 7 81 25 49 36 10 78 24 88
REMARK Flexibility Score: inf
ROOT
ATOM      1  C   UNL A   1      34.388  22.952  27.350  1.00  0.00     0.002 C 
ENDROOT
BRANCH   1   2
ATOM      2  C   UNL A   1      35.139  22.034  26.385  1.00  0.00     0.021 C 
BRANCH   2   3
ATOM      3  C   UNL A   1      36.510  22.536  25.953  1.00  0.00     0.116 C 
BRANCH   3   4
ATOM      4  N   UNL A   1      37.498  21.471  25.874  1.00  0.00    -0.352 N 
ATOM      5  O   UNL A   1      39.572  20.578  25.836  1.00  0.00    -0.269 OA
ATOM      6  C   UNL A   1      38.855  21.542  26.091  1.00  0.00     0.251 C 
ATOM      7  H   UNL A   1      37.150  20.582  25.633  1.00  0.00     0.163 HD
BRANCH   6   8
ATOM      8  C   UNL A   1      39.450  22.794  26.614  1.00  0.00     0.039 A 
ATOM      9  C   UNL A   1      39.041  24.032  26.115  1.00  0.00     0.014 A 
ATOM     10  C   UNL A   1      40.433  22.729  27.606  1.00  0.00     0.014 A 
ATOM     11  C   UNL A   1      39.711  25.187  26.502  1.00  0.00     0.010 A 
ATOM     12  C   UNL A   1      41.045  23.904  28.060  1.00  0.00     0.010 A 
ATOM     13  C   UNL A   1      40.710  25.141  27.490  1.00  0.00    -0.014 A 
BRANCH  13  14
ATOM     14  C   UNL A   1      41.329  26.417  27.938  1.00  0.00     0.031 A 
ATOM     15  C   UNL A   1      42.747  26.770  27.581  1.00  0.00     0.074 A 
ATOM     16  C   UNL A   1      40.564  27.292  28.622  1.00  0.00     0.049 A 
ATOM     17  N   UNL A   1      43.409  27.871  27.833  1.00  0.00    -0.248 NA
ATOM     18  C   UNL A   1      43.525  25.756  26.855  1.00  0.00     0.031 C 
ATOM     19  C   UNL A   1      39.181  27.044  29.041  1.00  0.00     0.029 A 
ATOM     20  N   UNL A   1      40.818  28.565  29.059  1.00  0.00    -0.354 N 
ATOM     21  C   UNL A   1      44.682  27.686  27.303  1.00  0.00     0.074 A 
ATOM     22  C   UNL A   1      44.709  26.347  26.751  1.00  0.00     0.031 C 
ATOM     23  C   UNL A   1      38.692  28.149  29.621  1.00  0.00     0.029 A 
ATOM     24  C   UNL A   1      39.740  29.160  29.674  1.00  0.00     0.049 A 
ATOM     25  H   UNL A   1      41.688  29.011  28.945  1.00  0.00     0.167 HD
ATOM     26  C   UNL A   1      45.724  28.555  27.273  1.00  0.00     0.034 A 
ATOM     27  C   UNL A   1      39.610  30.379  30.231  1.00  0.00     0.034 A 
ATOM     28  C   UNL A   1      45.683  29.884  27.837  1.00  0.00     0.049 A 
ATOM     29  C   UNL A   1      40.783  31.319  30.189  1.00  0.00     0.074 A 
ATOM     30  C   UNL A   1      46.681  30.844  27.866  1.00  0.00     0.029 A 
ATOM     31  N   UNL A   1      44.582  30.444  28.476  1.00  0.00    -0.354 N 
ATOM     32  N   UNL A   1      41.977  31.125  29.677  1.00  0.00    -0.248 NA
ATOM     33  C   UNL A   1      40.589  32.644  30.788  1.00  0.00     0.031 C 
ATOM     34  C   UNL A   1      46.204  31.959  28.567  1.00  0.00     0.029 A 
ATOM     35  C   UNL A   1      44.884  31.725  28.917  1.00  0.00     0.049 A 
ATOM     36  H   UNL A   1      43.714  29.997  28.598  1.00  0.00     0.167 HD
ATOM     37  C   UNL A   1      42.675  32.307  29.891  1.00  0.00     0.074 A 
ATOM     38  C   UNL A   1      41.755  33.220  30.540  1.00  0.00     0.031 C 
ATOM     39  C   UNL A   1      43.963  32.611  29.590  1.00  0.00     0.034 A 
BRANCH  26  40
ATOM     40  C   UNL A   1      47.008  28.078  26.636  1.00  0.00     0.023 A 
ATOM     41  C   UNL A   1      47.201  28.117  25.243  1.00  0.00     0.031 A 
ATOM     42  C   UNL A   1      48.053  27.569  27.428  1.00  0.00     0.131 A 
ATOM     43  C   UNL A   1      48.381  27.604  24.682  1.00  0.00     0.055 A 
ATOM     44  C   UNL A   1      49.254  27.125  26.870  1.00  0.00     0.041 A 
ATOM     45  F   UNL A   1      47.920  27.488  28.762  1.00  0.00    -0.206 F 
ATOM     46  C   UNL A   1      49.418  27.130  25.488  1.00  0.00     0.022 A 
BRANCH  43  47
ATOM     47  S   UNL A   1      48.493  27.456  22.878  1.00  0.00     0.124 S 
ATOM     48  O   UNL A   1      48.422  26.008  22.694  1.00  0.00    -0.237 OA
ATOM     49  O   UNL A   1      47.332  28.214  22.425  1.00  0.00    -0.237 OA
ATOM     50  O   UNL A   1      49.789  28.053  22.563  1.00  0.00    -0.744 OA
ENDBRANCH  43  47
ENDBRANCH  26  40
BRANCH  27  51
ATOM     51  C   UNL A   1      38.336  30.763  30.903  1.00  0.00     0.023 A 
ATOM     52  C   UNL A   1      37.328  31.458  30.216  1.00  0.00     0.031 A 
ATOM     53  C   UNL A   1      38.123  30.461  32.260  1.00  0.00     0.131 A 
ATOM     54  C   UNL A   1      36.170  31.862  30.899  1.00  0.00     0.055 A 
ATOM     55  C   UNL A   1      36.946  30.815  32.919  1.00  0.00     0.041 A 
ATOM     56  F   UNL A   1      39.054  29.794  32.961  1.00  0.00    -0.206 F 
ATOM     57  C   UNL A   1      35.967  31.534  32.242  1.00  0.00     0.022 A 
BRANCH  54  58
ATOM     58  S   UNL A   1      34.968  32.904  30.029  1.00  0.00     0.124 S 
ATOM     59  O   UNL A   1      34.074  33.299  31.112  1.00  0.00    -0.237 OA
ATOM     60  O   UNL A   1      35.820  33.958  29.486  1.00  0.00    -0.237 OA
ATOM     61  O   UNL A   1      34.389  32.001  29.038  1.00  0.00    -0.744 OA
ENDBRANCH  54  58
ENDBRANCH  27  51
BRANCH  39  62
ATOM     62  C   UNL A   1      44.428  34.000  29.954  1.00  0.00     0.023 A 
ATOM     63  C   UNL A   1      44.213  35.092  29.094  1.00  0.00     0.031 A 
ATOM     64  C   UNL A   1      45.136  34.223  31.147  1.00  0.00     0.131 A 
ATOM     65  C   UNL A   1      44.765  36.343  29.405  1.00  0.00     0.055 A 
ATOM     66  C   UNL A   1      45.631  35.485  31.480  1.00  0.00     0.041 A 
ATOM     67  F   UNL A   1      45.370  33.214  32.002  1.00  0.00    -0.206 F 
ATOM     68  C   UNL A   1      45.462  36.550  30.599  1.00  0.00     0.022 A 
BRANCH  65  69
ATOM     69  S   UNL A   1      44.658  37.671  28.173  1.00  0.00     0.124 S 
ATOM     70  O   UNL A   1      44.583  36.920  26.923  1.00  0.00    -0.237 OA
ATOM     71  O   UNL A   1      43.439  38.367  28.572  1.00  0.00    -0.237 OA
ATOM     72  O   UNL A   1      45.894  38.423  28.371  1.00  0.00    -0.744 OA
ENDBRANCH  65  69
ENDBRANCH  39  62
ENDBRANCH  13  14
ENDBRANCH   6   8
ENDBRANCH   3   4
ENDBRANCH   2   3
ENDBRANCH   1   2
BRANCH   1  73
ATOM     73  C   UNL A   1      32.941  22.551  27.659  1.00  0.00     0.002 C 
BRANCH  73  74
ATOM     74  C   UNL A   1      31.856  23.316  26.889  1.00  0.00     0.021 C 
BRANCH  74  75
ATOM     75  C   UNL A   1      31.043  22.466  25.913  1.00  0.00     0.116 C 
BRANCH  75  76
ATOM     76  N   UNL A   1      31.771  21.290  25.472  1.00  0.00    -0.353 N 
ATOM     77  C   UNL A   1      32.338  21.027  24.252  1.00  0.00     0.265 C 
ATOM     78  H   UNL A   1      31.874  20.580  26.147  1.00  0.00     0.163 HD
ATOM     79  O   UNL A   1      32.988  19.981  24.160  1.00  0.00    -0.271 OA
BRANCH  77  80
ATOM     80  C   UNL A   1      32.221  22.055  23.111  1.00  0.00     0.319 C 
ATOM     81  F   UNL A   1      31.858  21.509  21.914  1.00  0.00    -0.224 F 
BRANCH  80  82
ATOM     82  S   UNL A   1      33.768  22.989  22.875  1.00  0.00    -0.061 SA
BRANCH  82  83
ATOM     83  C   UNL A   1      33.496  24.433  23.792  1.00  0.00     0.076 A 
ATOM     84  C   UNL A   1      34.267  25.179  24.650  1.00  0.00     0.043 A 
ATOM     85  N   UNL A   1      32.268  25.027  23.703  1.00  0.00    -0.350 N 
ATOM     86  C   UNL A   1      33.481  26.279  25.089  1.00  0.00     0.001 A 
ATOM     87  C   UNL A   1      32.229  26.160  24.485  1.00  0.00     0.046 A 
ATOM     88  H   UNL A   1      31.519  24.692  23.159  1.00  0.00     0.167 HD
ATOM     89  C   UNL A   1      33.722  27.368  25.946  1.00  0.00     0.010 A 
ATOM     90  C   UNL A   1      31.198  27.079  24.701  1.00  0.00     0.027 A 
ATOM     91  C   UNL A   1      32.703  28.299  26.172  1.00  0.00     0.001 A 
ATOM     92  C   UNL A   1      31.459  28.153  25.558  1.00  0.00     0.002 A 
ENDBRANCH  82  83
ENDBRANCH  80  82
ENDBRANCH  77  80
ENDBRANCH  75  76
ENDBRANCH  74  75
ENDBRANCH  73  74
ENDBRANCH   1  73
TORSDOF 18
ENDMDL
MODEL 2
REMARK VINA RESULT:     -11.1      4.772      9.452
REMARK SMILES O=C(NCCCCCCNC(=O)[C@H](F)Sc1cc2ccccc2[nH]1)c1ccc(-c2c3nc(c(-c4cc(S(=O)(=O)[O-])ccc4F)c4ccc([nH]4)c(-c4cc(S(=O)(=O)[O-])ccc4F)c4nc(c(-c5cc(S(=O)(=O)[O-])ccc5F)c5ccc2[nH]5)C=C4)C=C3)cc1
REMARK SMILES IDX 6 1 5 2 4 3 3 4 1 5 2 6 25 8 26 9 87 10 27 11 86 12 28 13
REMARK SMILES IDX 29 14 30 15 80 16 31 17 85 18 79 19 81 20 32 21 84 22 78 23
REMARK SMILES IDX 77 24 33 26 65 27 45 28 64 29 46 30 49 31 63 32 82 33 47 34
REMARK SMILES IDX 48 35 62 37 83 38 50 39 34 40 35 41 43 42 36 43 42 44 44 45
REMARK SMILES IDX 41 46 37 47 38 48 39 49 40 50 66 51 67 52 75 53 68 54 74 55
REMARK SMILES IDX 76 56 73 57 69 58 70 59 71 60 72 61 51 62 52 63 60 64 53 65
REMARK SMILES IDX 59 66 61 67 58 68 54 69 55 70 56 71 57 72 7 73 8 74 9 75
REMARK SMILES IDX 10 76 11 77 12 79 13 80 14 81 15 82 16 83 17 84 24 85 18 86
REMARK SMILES IDX 23 87 19 89 22 90 20 91 21 92
REMARK H PARENT 3 7 81 25 49 36 10 78 24 88
REMARK Flexibility Score: inf
ROOT
ATOM      1  C   UNL A   1      31.616  27.966  26.432  1.00  0.00     0.002 C 
ENDROOT
BRANCH   1   2
ATOM      2  C   UNL A   1      33.082  28.083  26.851  1.00  0.00     0.021 C 
BRANCH   2   3
ATOM      3  C   UNL A   1      33.848  29.227  26.200  1.00  0.00     0.116 C 
BRANCH   3   4
ATOM      4  N   UNL A   1      33.551  30.517  26.804  1.00  0.00    -0.352 N 
ATOM      5  O   UNL A   1      33.781  32.205  28.287  1.00  0.00    -0.269 OA
ATOM      6  C   UNL A   1      34.250  31.190  27.780  1.00  0.00     0.251 C 
ATOM      7  H   UNL A   1      32.743  30.969  26.469  1.00  0.00     0.163 HD
BRANCH   6   8
ATOM      8  C   UNL A   1      35.563  30.670  28.231  1.00  0.00     0.039 A 
ATOM      9  C   UNL A   1      35.631  29.664  29.195  1.00  0.00     0.014 A 
ATOM     10  C   UNL A   1      36.737  31.202  27.690  1.00  0.00     0.014 A 
ATOM     11  C   UNL A   1      36.864  29.293  29.720  1.00  0.00     0.010 A 
ATOM     12  C   UNL A   1      37.982  30.762  28.158  1.00  0.00     0.010 A 
ATOM     13  C   UNL A   1      38.055  29.825  29.198  1.00  0.00    -0.014 A 
BRANCH  13  14
ATOM     14  C   UNL A   1      39.352  29.324  29.728  1.00  0.00     0.031 A 
ATOM     15  C   UNL A   1      39.971  29.907  30.968  1.00  0.00     0.074 A 
ATOM     16  C   UNL A   1      39.936  28.280  29.104  1.00  0.00     0.049 A 
ATOM     17  N   UNL A   1      41.058  29.535  31.597  1.00  0.00    -0.248 NA
ATOM     18  C   UNL A   1      39.290  31.058  31.578  1.00  0.00     0.031 C 
ATOM     19  C   UNL A   1      39.433  27.650  27.880  1.00  0.00     0.029 A 
ATOM     20  N   UNL A   1      41.050  27.547  29.419  1.00  0.00    -0.354 N 
ATOM     21  C   UNL A   1      41.197  30.406  32.674  1.00  0.00     0.074 A 
ATOM     22  C   UNL A   1      40.101  31.350  32.586  1.00  0.00     0.031 C 
ATOM     23  C   UNL A   1      40.200  26.592  27.582  1.00  0.00     0.029 A 
ATOM     24  C   UNL A   1      41.284  26.505  28.552  1.00  0.00     0.049 A 
ATOM     25  H   UNL A   1      41.626  27.747  30.191  1.00  0.00     0.167 HD
ATOM     26  C   UNL A   1      42.143  30.409  33.647  1.00  0.00     0.034 A 
ATOM     27  C   UNL A   1      42.268  25.586  28.530  1.00  0.00     0.034 A 
ATOM     28  C   UNL A   1      43.234  29.465  33.714  1.00  0.00     0.049 A 
ATOM     29  C   UNL A   1      43.307  25.617  29.617  1.00  0.00     0.074 A 
ATOM     30  C   UNL A   1      44.250  29.381  34.652  1.00  0.00     0.029 A 
ATOM     31  N   UNL A   1      43.456  28.438  32.803  1.00  0.00    -0.354 N 
ATOM     32  N   UNL A   1      43.415  26.447  30.629  1.00  0.00    -0.248 NA
ATOM     33  C   UNL A   1      44.347  24.585  29.565  1.00  0.00     0.031 C 
ATOM     34  C   UNL A   1      45.112  28.342  34.280  1.00  0.00     0.029 A 
ATOM     35  C   UNL A   1      44.600  27.730  33.148  1.00  0.00     0.049 A 
ATOM     36  H   UNL A   1      42.885  28.241  32.026  1.00  0.00     0.167 HD
ATOM     37  C   UNL A   1      44.537  26.032  31.337  1.00  0.00     0.074 A 
ATOM     38  C   UNL A   1      45.043  24.855  30.659  1.00  0.00     0.031 C 
ATOM     39  C   UNL A   1      45.107  26.577  32.443  1.00  0.00     0.034 A 
BRANCH  26  40
ATOM     40  C   UNL A   1      42.055  31.491  34.698  1.00  0.00     0.023 A 
ATOM     41  C   UNL A   1      41.033  31.499  35.665  1.00  0.00     0.031 A 
ATOM     42  C   UNL A   1      42.999  32.533  34.732  1.00  0.00     0.131 A 
ATOM     43  C   UNL A   1      40.945  32.556  36.584  1.00  0.00     0.055 A 
ATOM     44  C   UNL A   1      42.947  33.544  35.694  1.00  0.00     0.041 A 
ATOM     45  F   UNL A   1      43.985  32.590  33.823  1.00  0.00    -0.206 F 
ATOM     46  C   UNL A   1      41.909  33.567  36.620  1.00  0.00     0.022 A 
BRANCH  43  47
ATOM     47  S   UNL A   1      39.487  32.656  37.658  1.00  0.00     0.124 S 
ATOM     48  O   UNL A   1      38.759  31.445  37.284  1.00  0.00    -0.237 OA
ATOM     49  O   UNL A   1      40.075  32.659  38.993  1.00  0.00    -0.237 OA
ATOM     50  O   UNL A   1      38.847  33.906  37.255  1.00  0.00    -0.744 OA
ENDBRANCH  43  47
ENDBRANCH  26  40
BRANCH  27  51
ATOM     51  C   UNL A   1      42.335  24.587  27.427  1.00  0.00     0.023 A 
ATOM     52  C   UNL A   1      41.546  23.426  27.442  1.00  0.00     0.031 A 
ATOM     53  C   UNL A   1      43.218  24.770  26.347  1.00  0.00     0.131 A 
ATOM     54  C   UNL A   1      41.684  22.474  26.420  1.00  0.00     0.055 A 
ATOM     55  C   UNL A   1      43.311  23.849  25.304  1.00  0.00     0.041 A 
ATOM     56  F   UNL A   1      43.992  25.866  26.281  1.00  0.00    -0.206 F 
ATOM     57  C   UNL A   1      42.551  22.684  25.345  1.00  0.00     0.022 A 
BRANCH  54  58
ATOM     58  S   UNL A   1      40.778  20.910  26.561  1.00  0.00     0.124 S 
ATOM     59  O   UNL A   1      41.583  20.021  25.732  1.00  0.00    -0.237 OA
ATOM     60  O   UNL A   1      40.824  20.663  27.999  1.00  0.00    -0.237 OA
ATOM     61  O   UNL A   1      39.456  21.234  26.029  1.00  0.00    -0.744 OA
ENDBRANCH  54  58
ENDBRANCH  27  51
BRANCH  39  62
ATOM     62  C   UNL A   1      46.333  25.880  32.979  1.00  0.00     0.023 A 
ATOM     63  C   UNL A   1      47.593  26.053  32.378  1.00  0.00     0.031 A 
ATOM     64  C   UNL A   1      46.230  24.996  34.066  1.00  0.00     0.131 A 
ATOM     65  C   UNL A   1      48.687  25.296  32.823  1.00  0.00     0.055 A 
ATOM     66  C   UNL A   1      47.336  24.291  34.543  1.00  0.00     0.041 A 
ATOM     67  F   UNL A   1      45.050  24.793  34.673  1.00  0.00    -0.206 F 
ATOM     68  C   UNL A   1      48.570  24.425  33.910  1.00  0.00     0.022 A 
BRANCH  65  69
ATOM     69  S   UNL A   1      50.239  25.380  31.888  1.00  0.00     0.124 S 
ATOM     70  O   UNL A   1      50.623  23.974  31.808  1.00  0.00    -0.237 OA
ATOM     71  O   UNL A   1      49.815  25.997  30.636  1.00  0.00    -0.237 OA
ATOM     72  O   UNL A   1      51.101  26.210  32.727  1.00  0.00    -0.744 OA
ENDBRANCH  65  69
ENDBRANCH  39  62
ENDBRANCH  13  14
ENDBRANCH   6   8
ENDBRANCH   3   4
ENDBRANCH   2   3
ENDBRANCH   1   2
BRANCH   1  73
ATOM     73  C   UNL A   1      31.065  26.538  26.338  1.00  0.00     0.002 C 
BRANCH  73  74
ATOM     74  C   UNL A   1      32.083  25.451  25.963  1.00  0.00     0.021 C 
BRANCH  74  75
ATOM     75  C   UNL A   1      31.741  24.664  24.698  1.00  0.00     0.116 C 
BRANCH  75  76
ATOM     76  N   UNL A   1      32.929  24.226  23.987  1.00  0.00    -0.353 N 
ATOM     77  C   UNL A   1      33.443  24.673  22.797  1.00  0.00     0.265 C 
ATOM     78  H   UNL A   1      33.439  23.505  24.422  1.00  0.00     0.163 HD
ATOM     79  O   UNL A   1      34.527  24.194  22.450  1.00  0.00    -0.271 OA
BRANCH  77  80
ATOM     80  C   UNL A   1      32.716  25.782  22.013  1.00  0.00     0.319 C 
ATOM     81  F   UNL A   1      33.059  25.837  20.692  1.00  0.00    -0.224 F 
BRANCH  80  82
ATOM     82  S   UNL A   1      32.987  27.426  22.750  1.00  0.00    -0.061 SA
BRANCH  82  83
ATOM     83  C   UNL A   1      31.383  28.064  22.885  1.00  0.00     0.076 A 
ATOM     84  C   UNL A   1      30.127  27.522  22.767  1.00  0.00     0.043 A 
ATOM     85  N   UNL A   1      31.244  29.394  23.167  1.00  0.00    -0.350 N 
ATOM     86  C   UNL A   1      29.186  28.562  23.002  1.00  0.00     0.001 A 
ATOM     87  C   UNL A   1      29.911  29.728  23.246  1.00  0.00     0.046 A 
ATOM     88  H   UNL A   1      31.991  30.023  23.295  1.00  0.00     0.167 HD
ATOM     89  C   UNL A   1      27.780  28.615  23.029  1.00  0.00     0.010 A 
ATOM     90  C   UNL A   1      29.296  30.955  23.514  1.00  0.00     0.027 A 
ATOM     91  C   UNL A   1      27.148  29.834  23.297  1.00  0.00     0.001 A 
ATOM     92  C   UNL A   1      27.897  30.986  23.534  1.00  0.00     0.002 A 
ENDBRANCH  82  83
ENDBRANCH  80  82
ENDBRANCH  77  80
ENDBRANCH  75  76
ENDBRANCH  74  75
ENDBRANCH  73  74
ENDBRANCH   1  73
TORSDOF 18
ENDMDL
MODEL 3
REMARK VINA RESULT:     -11.0      4.931      9.735
REMARK SMILES O=C(NCCCCCCNC(=O)[C@H](F)Sc1cc2ccccc2[nH]1)c1ccc(-c2c3nc(c(-c4cc(S(=O)(=O)[O-])ccc4F)c4ccc([nH]4)c(-c4cc(S(=O)(=O)[O-])ccc4F)c4nc(c(-c5cc(S(=O)(=O)[O-])ccc5F)c5ccc2[nH]5)C=C4)C=C3)cc1
REMARK SMILES IDX 6 1 5 2 4 3 3 4 1 5 2 6 25 8 26 9 87 10 27 11 86 12 28 13
REMARK SMILES IDX 29 14 30 15 80 16 31 17 85 18 79 19 81 20 32 21 84 22 78 23
REMARK SMILES IDX 77 24 33 26 65 27 45 28 64 29 46 30 49 31 63 32 82 33 47 34
REMARK SMILES IDX 48 35 62 37 83 38 50 39 34 40 35 41 43 42 36 43 42 44 44 45
REMARK SMILES IDX 41 46 37 47 38 48 39 49 40 50 66 51 67 52 75 53 68 54 74 55
REMARK SMILES IDX 76 56 73 57 69 58 70 59 71 60 72 61 51 62 52 63 60 64 53 65
REMARK SMILES IDX 59 66 61 67 58 68 54 69 55 70 56 71 57 72 7 73 8 74 9 75
REMARK SMILES IDX 10 76 11 77 12 79 13 80 14 81 15 82 16 83 17 84 24 85 18 86
REMARK SMILES IDX 23 87 19 89 22 90 20 91 21 92
REMARK H PARENT 3 7 81 25 49 36 10 78 24 88
REMARK Flexibility Score: inf
ROOT
ATOM      1  C   UNL A   1      31.738  27.809  26.910  1.00  0.00     0.002 C 
ENDROOT
BRANCH   1   2
ATOM      2  C   UNL A   1      31.615  28.937  25.885  1.00  0.00     0.021 C 
BRANCH   2   3
ATOM      3  C   UNL A   1      32.780  29.916  25.863  1.00  0.00     0.116 C 
BRANCH   3   4
ATOM      4  N   UNL A   1      32.389  31.264  26.248  1.00  0.00    -0.352 N 
ATOM      5  O   UNL A   1      32.429  33.151  27.488  1.00  0.00    -0.269 OA
ATOM      6  C   UNL A   1      32.975  32.097  27.173  1.00  0.00     0.251 C 
ATOM      7  H   UNL A   1      31.600  31.628  25.785  1.00  0.00     0.163 HD
BRANCH   6   8
ATOM      8  C   UNL A   1      34.258  31.705  27.803  1.00  0.00     0.039 A 
ATOM      9  C   UNL A   1      34.442  30.408  28.284  1.00  0.00     0.014 A 
ATOM     10  C   UNL A   1      35.284  32.648  27.922  1.00  0.00     0.014 A 
ATOM     11  C   UNL A   1      35.588  30.095  29.007  1.00  0.00     0.010 A 
ATOM     12  C   UNL A   1      36.475  32.304  28.573  1.00  0.00     0.010 A 
ATOM     13  C   UNL A   1      36.625  31.033  29.147  1.00  0.00    -0.014 A 
BRANCH  13  14
ATOM     14  C   UNL A   1      37.871  30.618  29.847  1.00  0.00     0.031 A 
ATOM     15  C   UNL A   1      38.156  31.044  31.261  1.00  0.00     0.074 A 
ATOM     16  C   UNL A   1      38.718  29.790  29.204  1.00  0.00     0.049 A 
ATOM     17  N   UNL A   1      39.159  30.710  32.034  1.00  0.00    -0.248 NA
ATOM     18  C   UNL A   1      37.199  31.967  31.887  1.00  0.00     0.031 C 
ATOM     19  C   UNL A   1      38.551  29.330  27.821  1.00  0.00     0.029 A 
ATOM     20  N   UNL A   1      39.862  29.164  29.624  1.00  0.00    -0.354 N 
ATOM     21  C   UNL A   1      38.960  31.383  33.235  1.00  0.00     0.074 A 
ATOM     22  C   UNL A   1      37.759  32.176  33.071  1.00  0.00     0.031 C 
ATOM     23  C   UNL A   1      39.521  28.453  27.529  1.00  0.00     0.029 A 
ATOM     24  C   UNL A   1      40.414  28.334  28.674  1.00  0.00     0.049 A 
ATOM     25  H   UNL A   1      40.251  29.294  30.518  1.00  0.00     0.167 HD
ATOM     26  C   UNL A   1      39.705  31.334  34.369  1.00  0.00     0.034 A 
ATOM     27  C   UNL A   1      41.522  27.571  28.713  1.00  0.00     0.034 A 
ATOM     28  C   UNL A   1      40.906  30.543  34.512  1.00  0.00     0.049 A 
ATOM     29  C   UNL A   1      42.332  27.541  29.980  1.00  0.00     0.074 A 
ATOM     30  C   UNL A   1      41.738  30.425  35.613  1.00  0.00     0.029 A 
ATOM     31  N   UNL A   1      41.450  29.735  33.520  1.00  0.00    -0.354 N 
ATOM     32  N   UNL A   1      42.122  28.181  31.107  1.00  0.00    -0.248 NA
ATOM     33  C   UNL A   1      43.519  26.679  29.984  1.00  0.00     0.031 C 
ATOM     34  C   UNL A   1      42.810  29.591  35.270  1.00  0.00     0.029 A 
ATOM     35  C   UNL A   1      42.614  29.133  33.978  1.00  0.00     0.049 A 
ATOM     36  H   UNL A   1      41.066  29.609  32.623  1.00  0.00     0.167 HD
ATOM     37  C   UNL A   1      43.152  27.795  31.956  1.00  0.00     0.074 A 
ATOM     38  C   UNL A   1      43.956  26.836  31.225  1.00  0.00     0.031 C 
ATOM     39  C   UNL A   1      43.419  28.201  33.224  1.00  0.00     0.034 A 
BRANCH  26  40
ATOM     40  C   UNL A   1      39.256  32.187  35.533  1.00  0.00     0.023 A 
ATOM     41  C   UNL A   1      39.677  33.522  35.674  1.00  0.00     0.031 A 
ATOM     42  C   UNL A   1      38.403  31.660  36.519  1.00  0.00     0.131 A 
ATOM     43  C   UNL A   1      39.293  34.263  36.803  1.00  0.00     0.055 A 
ATOM     44  C   UNL A   1      37.968  32.425  37.603  1.00  0.00     0.041 A 
ATOM     45  F   UNL A   1      37.984  30.387  36.448  1.00  0.00    -0.206 F 
ATOM     46  C   UNL A   1      38.422  33.731  37.756  1.00  0.00     0.022 A 
BRANCH  43  47
ATOM     47  S   UNL A   1      40.043  35.893  37.069  1.00  0.00     0.124 S 
ATOM     48  O   UNL A   1      39.336  36.354  38.262  1.00  0.00    -0.237 OA
ATOM     49  O   UNL A   1      41.454  35.568  37.250  1.00  0.00    -0.237 OA
ATOM     50  O   UNL A   1      39.724  36.624  35.844  1.00  0.00    -0.744 OA
ENDBRANCH  43  47
ENDBRANCH  26  40
BRANCH  27  51
ATOM     51  C   UNL A   1      41.946  26.804  27.507  1.00  0.00     0.023 A 
ATOM     52  C   UNL A   1      41.727  25.422  27.405  1.00  0.00     0.031 A 
ATOM     53  C   UNL A   1      42.608  27.448  26.445  1.00  0.00     0.131 A 
ATOM     54  C   UNL A   1      42.199  24.720  26.285  1.00  0.00     0.055 A 
ATOM     55  C   UNL A   1      43.025  26.756  25.308  1.00  0.00     0.041 A 
ATOM     56  F   UNL A   1      42.839  28.770  26.491  1.00  0.00    -0.206 F 
ATOM     57  C   UNL A   1      42.834  25.381  25.230  1.00  0.00     0.022 A 
BRANCH  54  58
ATOM     58  S   UNL A   1      42.051  22.914  26.265  1.00  0.00     0.124 S 
ATOM     59  O   UNL A   1      40.608  22.729  26.363  1.00  0.00    -0.237 OA
ATOM     60  O   UNL A   1      42.655  22.576  24.979  1.00  0.00    -0.237 OA
ATOM     61  O   UNL A   1      42.816  22.497  27.438  1.00  0.00    -0.744 OA
ENDBRANCH  54  58
ENDBRANCH  27  51
BRANCH  39  62
ATOM     62  C   UNL A   1      44.627  27.585  33.886  1.00  0.00     0.023 A 
ATOM     63  C   UNL A   1      44.522  26.409  34.650  1.00  0.00     0.031 A 
ATOM     64  C   UNL A   1      45.884  28.208  33.794  1.00  0.00     0.131 A 
ATOM     65  C   UNL A   1      45.638  25.932  35.352  1.00  0.00     0.055 A 
ATOM     66  C   UNL A   1      47.005  27.693  34.447  1.00  0.00     0.041 A 
ATOM     67  F   UNL A   1      46.038  29.333  33.079  1.00  0.00    -0.206 F 
ATOM     68  C   UNL A   1      46.882  26.559  35.246  1.00  0.00     0.022 A 
BRANCH  65  69
ATOM     69  S   UNL A   1      45.414  24.544  36.500  1.00  0.00     0.124 S 
ATOM     70  O   UNL A   1      44.486  23.689  35.766  1.00  0.00    -0.237 OA
ATOM     71  O   UNL A   1      46.774  24.035  36.640  1.00  0.00    -0.237 OA
ATOM     72  O   UNL A   1      44.862  25.174  37.697  1.00  0.00    -0.744 OA
ENDBRANCH  65  69
ENDBRANCH  39  62
ENDBRANCH  13  14
ENDBRANCH   6   8
ENDBRANCH   3   4
ENDBRANCH   2   3
ENDBRANCH   1   2
BRANCH   1  73
ATOM     73  C   UNL A   1      32.225  26.463  26.360  1.00  0.00     0.002 C 
BRANCH  73  74
ATOM     74  C   UNL A   1      33.601  26.477  25.679  1.00  0.00     0.021 C 
BRANCH  74  75
ATOM     75  C   UNL A   1      34.246  25.101  25.510  1.00  0.00     0.116 C 
BRANCH  75  76
ATOM     76  N   UNL A   1      33.560  24.077  26.276  1.00  0.00    -0.353 N 
ATOM     77  C   UNL A   1      33.256  22.787  25.924  1.00  0.00     0.265 C 
ATOM     78  H   UNL A   1      33.272  24.346  27.178  1.00  0.00     0.163 HD
ATOM     79  O   UNL A   1      32.743  22.082  26.799  1.00  0.00    -0.271 OA
BRANCH  77  80
ATOM     80  C   UNL A   1      33.636  22.261  24.527  1.00  0.00     0.319 C 
ATOM     81  F   UNL A   1      34.562  23.029  23.882  1.00  0.00    -0.224 F 
BRANCH  80  82
ATOM     82  S   UNL A   1      32.180  22.081  23.447  1.00  0.00    -0.061 SA
BRANCH  82  83
ATOM     83  C   UNL A   1      31.641  23.714  23.242  1.00  0.00     0.076 A 
ATOM     84  C   UNL A   1      32.145  24.810  22.587  1.00  0.00     0.043 A 
ATOM     85  N   UNL A   1      30.463  24.078  23.832  1.00  0.00    -0.350 N 
ATOM     86  C   UNL A   1      31.228  25.882  22.773  1.00  0.00     0.001 A 
ATOM     87  C   UNL A   1      30.183  25.399  23.562  1.00  0.00     0.046 A 
ATOM     88  H   UNL A   1      29.896  23.482  24.373  1.00  0.00     0.167 HD
ATOM     89  C   UNL A   1      31.193  27.220  22.341  1.00  0.00     0.010 A 
ATOM     90  C   UNL A   1      29.100  26.195  23.946  1.00  0.00     0.027 A 
ATOM     91  C   UNL A   1      30.116  28.031  22.714  1.00  0.00     0.001 A 
ATOM     92  C   UNL A   1      29.087  27.524  23.507  1.00  0.00     0.002 A 
ENDBRANCH  82  83
ENDBRANCH  80  82
ENDBRANCH  77  80
ENDBRANCH  75  76
ENDBRANCH  74  75
ENDBRANCH  73  74
ENDBRANCH   1  73
TORSDOF 18
ENDMDL
