MODEL 1
REMARK VINA RESULT:     -11.6      0.000      0.000
REMARK SMILES CCCCOC(=O)[C@@H]1[C@H]2c3ccccc3[C@H](c3ccccc32)[C@@H]1C(=O)NCCCCCCNC(=O)c1ccc(-c2c3nc(c(-c4cc(S(=O)(=O)[O-])ccc4F)c4ccc([nH]4)c(-c4cc(S(=O)(=O)[O-])ccc4F)c4nc(c(-c5cc(S(=O)(=O)[O-])ccc5F)c5ccc2[nH]5)C=C4)C=C3)cc1
REMARK SMILES IDX 28 1 27 2 26 3 24 4 25 5 23 7 8 8 9 9 22 10 10 11 16 12
REMARK SMILES IDX 21 13 17 14 15 15 11 16 20 17 18 18 14 19 12 20 19 21 13 22
REMARK SMILES IDX 6 23 7 24 5 25 4 26 3 27 2 28 1 29 29 30 30 31 31 32 32 33
REMARK SMILES IDX 33 34 34 35 35 37 36 38 37 39 98 40 38 41 97 42 39 43 40 44
REMARK SMILES IDX 41 45 91 46 42 47 96 48 90 49 92 50 43 51 95 52 89 53 88 54
REMARK SMILES IDX 44 56 76 57 56 58 75 59 57 60 60 61 74 62 93 63 58 64 59 65
REMARK SMILES IDX 73 67 94 68 61 69 45 70 46 71 54 72 47 73 53 74 55 75 52 76
REMARK SMILES IDX 48 77 49 78 50 79 51 80 77 81 78 82 86 83 79 84 85 85 87 86
REMARK SMILES IDX 84 87 80 88 81 89 82 90 83 91 62 92 63 93 71 94 64 95 70 96
REMARK SMILES IDX 72 97 69 98 65 99 66 100 67 101 68 102
REMARK H PARENT 26 6 33 36 92 55 60 66
REMARK Flexibility Score: inf
ROOT
ATOM      1  C   UNL A   1      32.052  27.699  27.003  1.00  0.00     0.021 C 
ENDROOT
BRANCH   1   2
ATOM      2  C   UNL A   1      30.950  26.997  26.217  1.00  0.00     0.116 C 
BRANCH   2   3
ATOM      3  N   UNL A   1      30.731  25.638  26.660  1.00  0.00    -0.356 N 
ATOM      4  C   UNL A   1      31.422  24.487  26.513  1.00  0.00     0.224 C 
ATOM      5  O   UNL A   1      30.974  23.522  27.149  1.00  0.00    -0.275 OA
ATOM      6  H   UNL A   1      29.902  25.529  27.180  1.00  0.00     0.163 HD
BRANCH   4   7
ATOM      7  C   UNL A   1      32.632  24.265  25.608  1.00  0.00     0.105 C 
ATOM      8  C   UNL A   1      32.478  24.221  24.059  1.00  0.00     0.124 C 
ATOM      9  C   UNL A   1      33.254  23.004  23.471  1.00  0.00     0.065 C 
ATOM     10  C   UNL A   1      32.877  21.724  24.214  1.00  0.00    -0.036 A 
ATOM     11  C   UNL A   1      34.722  23.266  23.883  1.00  0.00    -0.036 A 
ATOM     12  C   UNL A   1      33.606  23.150  26.092  1.00  0.00     0.063 C 
ATOM     13  C   UNL A   1      32.504  20.526  23.618  1.00  0.00     0.004 A 
ATOM     14  C   UNL A   1      33.108  21.790  25.617  1.00  0.00    -0.036 A 
ATOM     15  C   UNL A   1      34.903  23.369  25.297  1.00  0.00    -0.036 A 
ATOM     16  C   UNL A   1      35.814  23.315  23.031  1.00  0.00     0.004 A 
ATOM     17  C   UNL A   1      32.386  19.388  24.420  1.00  0.00     0.000 A 
ATOM     18  C   UNL A   1      33.025  20.648  26.402  1.00  0.00     0.004 A 
ATOM     19  C   UNL A   1      36.164  23.542  25.845  1.00  0.00     0.004 A 
ATOM     20  C   UNL A   1      37.086  23.478  23.590  1.00  0.00     0.000 A 
ATOM     21  C   UNL A   1      32.661  19.444  25.795  1.00  0.00     0.000 A 
ATOM     22  C   UNL A   1      37.258  23.595  24.979  1.00  0.00     0.000 A 
BRANCH   8  23
ATOM     23  C   UNL A   1      31.115  24.553  23.501  1.00  0.00     0.310 C 
ATOM     24  O   UNL A   1      30.346  23.668  23.140  1.00  0.00    -0.252 OA
BRANCH  23  25
ATOM     25  O   UNL A   1      30.820  25.874  23.472  1.00  0.00    -0.465 OA
BRANCH  25  26
ATOM     26  C   UNL A   1      31.342  26.611  22.343  1.00  0.00     0.233 C 
BRANCH  26  27
ATOM     27  C   UNL A   1      31.625  28.082  22.660  1.00  0.00     0.041 C 
BRANCH  27  28
ATOM     28  C   UNL A   1      33.104  28.469  22.766  1.00  0.00     0.000 C 
ATOM     29  C   UNL A   1      33.844  27.770  23.894  1.00  0.00     0.004 C 
ENDBRANCH  27  28
ENDBRANCH  26  27
ENDBRANCH  25  26
ENDBRANCH  23  25
ENDBRANCH   8  23
ENDBRANCH   4   7
ENDBRANCH   2   3
ENDBRANCH   1   2
BRANCH   1  30
ATOM     30  C   UNL A   1      31.681  29.108  27.478  1.00  0.00     0.002 C 
BRANCH  30  31
ATOM     31  C   UNL A   1      31.605  30.184  26.385  1.00  0.00     0.002 C 
BRANCH  31  32
ATOM     32  C   UNL A   1      31.458  31.627  26.872  1.00  0.00     0.021 C 
BRANCH  32  33
ATOM     33  C   UNL A   1      32.651  32.529  26.572  1.00  0.00     0.116 C 
BRANCH  33  34
ATOM     34  N   UNL A   1      32.567  33.801  27.273  1.00  0.00    -0.352 N 
ATOM     35  C   UNL A   1      33.265  34.243  28.369  1.00  0.00     0.251 C 
ATOM     36  H   UNL A   1      31.913  34.439  26.907  1.00  0.00     0.163 HD
ATOM     37  O   UNL A   1      32.912  35.268  28.948  1.00  0.00    -0.269 OA
BRANCH  35  38
ATOM     38  C   UNL A   1      34.420  33.465  28.861  1.00  0.00     0.039 A 
ATOM     39  C   UNL A   1      34.226  32.230  29.485  1.00  0.00     0.014 A 
ATOM     40  C   UNL A   1      35.707  33.985  28.710  1.00  0.00     0.014 A 
ATOM     41  C   UNL A   1      35.300  31.591  30.097  1.00  0.00     0.010 A 
ATOM     42  C   UNL A   1      36.795  33.302  29.257  1.00  0.00     0.010 A 
ATOM     43  C   UNL A   1      36.595  32.122  29.992  1.00  0.00    -0.014 A 
BRANCH  43  44
ATOM     44  C   UNL A   1      37.737  31.429  30.641  1.00  0.00     0.031 A 
ATOM     45  C   UNL A   1      38.126  31.758  32.055  1.00  0.00     0.074 A 
ATOM     46  C   UNL A   1      38.419  30.496  29.948  1.00  0.00     0.049 A 
ATOM     47  N   UNL A   1      39.125  31.296  32.761  1.00  0.00    -0.248 NA
ATOM     48  C   UNL A   1      37.288  32.732  32.774  1.00  0.00     0.031 C 
ATOM     49  C   UNL A   1      38.114  30.088  28.577  1.00  0.00     0.029 A 
ATOM     50  N   UNL A   1      39.499  29.722  30.294  1.00  0.00    -0.354 N 
ATOM     51  C   UNL A   1      39.053  31.936  33.992  1.00  0.00     0.074 A 
ATOM     52  C   UNL A   1      37.925  32.839  33.932  1.00  0.00     0.031 C 
ATOM     53  C   UNL A   1      38.969  29.127  28.204  1.00  0.00     0.029 A 
ATOM     54  C   UNL A   1      39.935  28.904  29.278  1.00  0.00     0.049 A 
ATOM     55  H   UNL A   1      39.922  29.752  31.182  1.00  0.00     0.167 HD
ATOM     56  C   UNL A   1      39.853  31.775  35.072  1.00  0.00     0.034 A 
ATOM     57  C   UNL A   1      41.008  28.089  29.198  1.00  0.00     0.034 A 
ATOM     58  C   UNL A   1      40.958  30.851  35.116  1.00  0.00     0.049 A 
ATOM     59  C   UNL A   1      41.905  27.955  30.401  1.00  0.00     0.074 A 
ATOM     60  C   UNL A   1      41.803  30.585  36.179  1.00  0.00     0.029 A 
ATOM     61  N   UNL A   1      41.376  30.047  34.065  1.00  0.00    -0.354 N 
ATOM     62  N   UNL A   1      41.795  28.533  31.575  1.00  0.00    -0.248 NA
ATOM     63  C   UNL A   1      43.066  27.064  30.280  1.00  0.00     0.031 C 
ATOM     64  C   UNL A   1      42.773  29.682  35.750  1.00  0.00     0.029 A 
ATOM     65  C   UNL A   1      42.484  29.310  34.446  1.00  0.00     0.049 A 
ATOM     66  H   UNL A   1      40.947  30.006  33.179  1.00  0.00     0.167 HD
ATOM     67  C   UNL A   1      42.854  28.054  32.340  1.00  0.00     0.074 A 
ATOM     68  C   UNL A   1      43.583  27.124  31.502  1.00  0.00     0.031 C 
ATOM     69  C   UNL A   1      43.190  28.362  33.617  1.00  0.00     0.034 A 
BRANCH  56  70
ATOM     70  C   UNL A   1      39.588  32.589  36.315  1.00  0.00     0.023 A 
ATOM     71  C   UNL A   1      38.708  32.096  37.297  1.00  0.00     0.031 A 
ATOM     72  C   UNL A   1      40.063  33.906  36.449  1.00  0.00     0.131 A 
ATOM     73  C   UNL A   1      38.288  32.930  38.340  1.00  0.00     0.055 A 
ATOM     74  C   UNL A   1      39.675  34.719  37.515  1.00  0.00     0.041 A 
ATOM     75  F   UNL A   1      40.904  34.423  35.539  1.00  0.00    -0.206 F 
ATOM     76  C   UNL A   1      38.770  34.237  38.457  1.00  0.00     0.022 A 
BRANCH  73  77
ATOM     77  S   UNL A   1      37.036  32.383  39.533  1.00  0.00     0.124 S 
ATOM     78  O   UNL A   1      37.215  33.348  40.617  1.00  0.00    -0.237 OA
ATOM     79  O   UNL A   1      35.801  32.527  38.768  1.00  0.00    -0.237 OA
ATOM     80  O   UNL A   1      37.428  31.015  39.851  1.00  0.00    -0.744 OA
ENDBRANCH  73  77
ENDBRANCH  56  70
BRANCH  57  81
ATOM     81  C   UNL A   1      41.250  27.334  27.934  1.00  0.00     0.023 A 
ATOM     82  C   UNL A   1      41.069  25.937  27.886  1.00  0.00     0.031 A 
ATOM     83  C   UNL A   1      41.784  27.968  26.802  1.00  0.00     0.131 A 
ATOM     84  C   UNL A   1      41.498  25.215  26.766  1.00  0.00     0.055 A 
ATOM     85  C   UNL A   1      42.134  27.253  25.654  1.00  0.00     0.041 A 
ATOM     86  F   UNL A   1      41.988  29.294  26.802  1.00  0.00    -0.206 F 
ATOM     87  C   UNL A   1      42.013  25.867  25.641  1.00  0.00     0.022 A 
BRANCH  84  88
ATOM     88  S   UNL A   1      41.551  23.401  26.795  1.00  0.00     0.124 S 
ATOM     89  O   UNL A   1      41.997  23.132  28.158  1.00  0.00    -0.237 OA
ATOM     90  O   UNL A   1      40.160  23.058  26.506  1.00  0.00    -0.237 OA
ATOM     91  O   UNL A   1      42.502  23.068  25.741  1.00  0.00    -0.744 OA
ENDBRANCH  84  88
ENDBRANCH  57  81
BRANCH  69  92
ATOM     92  C   UNL A   1      44.388  27.687  34.241  1.00  0.00     0.023 A 
ATOM     93  C   UNL A   1      44.219  26.469  34.930  1.00  0.00     0.031 A 
ATOM     94  C   UNL A   1      45.634  28.330  34.323  1.00  0.00     0.131 A 
ATOM     95  C   UNL A   1      45.258  25.966  35.721  1.00  0.00     0.055 A 
ATOM     96  C   UNL A   1      46.686  27.794  35.069  1.00  0.00     0.041 A 
ATOM     97  F   UNL A   1      45.841  29.498  33.694  1.00  0.00    -0.206 F 
ATOM     98  C   UNL A   1      46.493  26.617  35.788  1.00  0.00     0.022 A 
BRANCH  95  99
ATOM     99  S   UNL A   1      45.007  24.511  36.777  1.00  0.00     0.124 S 
ATOM    100  O   UNL A   1      44.395  23.565  35.846  1.00  0.00    -0.237 OA
ATOM    101  O   UNL A   1      46.370  24.190  37.186  1.00  0.00    -0.237 OA
ATOM    102  O   UNL A   1      44.129  24.993  37.838  1.00  0.00    -0.744 OA
ENDBRANCH  95  99
ENDBRANCH  69  92
ENDBRANCH  43  44
ENDBRANCH  35  38
ENDBRANCH  33  34
ENDBRANCH  32  33
ENDBRANCH  31  32
ENDBRANCH  30  31
ENDBRANCH   1  30
TORSDOF 21
ENDMDL
MODEL 2
REMARK VINA RESULT:     -11.3      2.731      3.410
REMARK SMILES CCCCOC(=O)[C@@H]1[C@H]2c3ccccc3[C@H](c3ccccc32)[C@@H]1C(=O)NCCCCCCNC(=O)c1ccc(-c2c3nc(c(-c4cc(S(=O)(=O)[O-])ccc4F)c4ccc([nH]4)c(-c4cc(S(=O)(=O)[O-])ccc4F)c4nc(c(-c5cc(S(=O)(=O)[O-])ccc5F)c5ccc2[nH]5)C=C4)C=C3)cc1
REMARK SMILES IDX 28 1 27 2 26 3 24 4 25 5 23 7 8 8 9 9 22 10 10 11 16 12
REMARK SMILES IDX 21 13 17 14 15 15 11 16 20 17 18 18 14 19 12 20 19 21 13 22
REMARK SMILES IDX 6 23 7 24 5 25 4 26 3 27 2 28 1 29 29 30 30 31 31 32 32 33
REMARK SMILES IDX 33 34 34 35 35 37 36 38 37 39 98 40 38 41 97 42 39 43 40 44
REMARK SMILES IDX 41 45 91 46 42 47 96 48 90 49 92 50 43 51 95 52 89 53 88 54
REMARK SMILES IDX 44 56 76 57 56 58 75 59 57 60 60 61 74 62 93 63 58 64 59 65
REMARK SMILES IDX 73 67 94 68 61 69 45 70 46 71 54 72 47 73 53 74 55 75 52 76
REMARK SMILES IDX 48 77 49 78 50 79 51 80 77 81 78 82 86 83 79 84 85 85 87 86
REMARK SMILES IDX 84 87 80 88 81 89 82 90 83 91 62 92 63 93 71 94 64 95 70 96
REMARK SMILES IDX 72 97 69 98 65 99 66 100 67 101 68 102
REMARK H PARENT 26 6 33 36 92 55 60 66
REMARK Flexibility Score: inf
ROOT
ATOM      1  C   UNL A   1      31.940  26.881  26.501  1.00  0.00     0.021 C 
ENDROOT
BRANCH   1   2
ATOM      2  C   UNL A   1      30.603  26.377  25.968  1.00  0.00     0.116 C 
BRANCH   2   3
ATOM      3  N   UNL A   1      30.369  24.985  26.281  1.00  0.00    -0.356 N 
ATOM      4  C   UNL A   1      31.111  23.863  26.156  1.00  0.00     0.224 C 
ATOM      5  O   UNL A   1      30.610  22.845  26.655  1.00  0.00    -0.275 OA
ATOM      6  H   UNL A   1      29.479  24.819  26.669  1.00  0.00     0.163 HD
BRANCH   4   7
ATOM      7  C   UNL A   1      32.443  23.735  25.420  1.00  0.00     0.105 C 
ATOM      8  C   UNL A   1      32.514  23.830  23.868  1.00  0.00     0.124 C 
ATOM      9  C   UNL A   1      33.394  22.678  23.293  1.00  0.00     0.065 C 
ATOM     10  C   UNL A   1      32.942  21.333  23.858  1.00  0.00    -0.036 A 
ATOM     11  C   UNL A   1      34.781  22.915  23.935  1.00  0.00    -0.036 A 
ATOM     12  C   UNL A   1      33.362  22.589  25.940  1.00  0.00     0.063 C 
ATOM     13  C   UNL A   1      32.685  20.191  23.111  1.00  0.00     0.004 A 
ATOM     14  C   UNL A   1      32.967  21.274  25.279  1.00  0.00    -0.036 A 
ATOM     15  C   UNL A   1      34.754  22.892  25.364  1.00  0.00    -0.036 A 
ATOM     16  C   UNL A   1      35.983  23.051  23.258  1.00  0.00     0.004 A 
ATOM     17  C   UNL A   1      32.478  18.983  23.783  1.00  0.00     0.000 A 
ATOM     18  C   UNL A   1      32.798  20.065  25.941  1.00  0.00     0.004 A 
ATOM     19  C   UNL A   1      35.920  23.025  26.102  1.00  0.00     0.004 A 
ATOM     20  C   UNL A   1      37.157  23.175  24.007  1.00  0.00     0.000 A 
ATOM     21  C   UNL A   1      32.551  18.917  25.183  1.00  0.00     0.000 A 
ATOM     22  C   UNL A   1      37.125  23.167  25.412  1.00  0.00     0.000 A 
BRANCH   8  23
ATOM     23  C   UNL A   1      31.239  24.199  23.149  1.00  0.00     0.310 C 
ATOM     24  O   UNL A   1      30.220  23.527  23.281  1.00  0.00    -0.252 OA
BRANCH  23  25
ATOM     25  O   UNL A   1      31.313  25.324  22.400  1.00  0.00    -0.465 OA
BRANCH  25  26
ATOM     26  C   UNL A   1      32.224  26.339  22.879  1.00  0.00     0.233 C 
BRANCH  26  27
ATOM     27  C   UNL A   1      33.348  26.659  21.888  1.00  0.00     0.041 C 
BRANCH  27  28
ATOM     28  C   UNL A   1      34.018  28.027  22.058  1.00  0.00     0.000 C 
ATOM     29  C   UNL A   1      33.256  28.978  22.964  1.00  0.00     0.004 C 
ENDBRANCH  27  28
ENDBRANCH  26  27
ENDBRANCH  25  26
ENDBRANCH  23  25
ENDBRANCH   8  23
ENDBRANCH   4   7
ENDBRANCH   2   3
ENDBRANCH   1   2
BRANCH   1  30
ATOM     30  C   UNL A   1      31.816  27.904  27.634  1.00  0.00     0.002 C 
BRANCH  30  31
ATOM     31  C   UNL A   1      31.615  29.363  27.198  1.00  0.00     0.002 C 
BRANCH  31  32
ATOM     32  C   UNL A   1      32.687  29.941  26.271  1.00  0.00     0.021 C 
BRANCH  32  33
ATOM     33  C   UNL A   1      34.014  30.266  26.950  1.00  0.00     0.116 C 
BRANCH  33  34
ATOM     34  N   UNL A   1      33.928  31.458  27.778  1.00  0.00    -0.352 N 
ATOM     35  C   UNL A   1      34.712  31.845  28.837  1.00  0.00     0.251 C 
ATOM     36  H   UNL A   1      33.202  32.080  27.545  1.00  0.00     0.163 HD
ATOM     37  O   UNL A   1      34.363  32.784  29.547  1.00  0.00    -0.269 OA
BRANCH  35  38
ATOM     38  C   UNL A   1      35.959  31.108  29.129  1.00  0.00     0.039 A 
ATOM     39  C   UNL A   1      35.924  29.936  29.890  1.00  0.00     0.014 A 
ATOM     40  C   UNL A   1      37.173  31.605  28.652  1.00  0.00     0.014 A 
ATOM     41  C   UNL A   1      37.116  29.349  30.305  1.00  0.00     0.010 A 
ATOM     42  C   UNL A   1      38.365  30.967  29.005  1.00  0.00     0.010 A 
ATOM     43  C   UNL A   1      38.348  29.860  29.869  1.00  0.00    -0.014 A 
BRANCH  43  44
ATOM     44  C   UNL A   1      39.615  29.222  30.309  1.00  0.00     0.031 A 
ATOM     45  C   UNL A   1      40.341  29.726  31.525  1.00  0.00     0.074 A 
ATOM     46  C   UNL A   1      40.104  28.180  29.609  1.00  0.00     0.049 A 
ATOM     47  N   UNL A   1      41.483  29.329  32.022  1.00  0.00    -0.248 NA
ATOM     48  C   UNL A   1      39.706  30.817  32.283  1.00  0.00     0.031 C 
ATOM     49  C   UNL A   1      39.470  27.602  28.424  1.00  0.00     0.029 A 
ATOM     50  N   UNL A   1      41.236  27.424  29.784  1.00  0.00    -0.354 N 
ATOM     51  C   UNL A   1      41.717  30.133  33.132  1.00  0.00     0.074 A 
ATOM     52  C   UNL A   1      40.610  31.058  33.224  1.00  0.00     0.031 C 
ATOM     53  C   UNL A   1      40.207  26.570  27.992  1.00  0.00     0.029 A 
ATOM     54  C   UNL A   1      41.407  26.461  28.817  1.00  0.00     0.049 A 
ATOM     55  H   UNL A   1      41.865  27.559  30.528  1.00  0.00     0.167 HD
ATOM     56  C   UNL A   1      42.760  30.091  33.995  1.00  0.00     0.034 A 
ATOM     57  C   UNL A   1      42.427  25.606  28.593  1.00  0.00     0.034 A 
ATOM     58  C   UNL A   1      43.841  29.144  33.897  1.00  0.00     0.049 A 
ATOM     59  C   UNL A   1      43.594  25.605  29.546  1.00  0.00     0.074 A 
ATOM     60  C   UNL A   1      44.922  28.996  34.747  1.00  0.00     0.029 A 
ATOM     61  N   UNL A   1      43.986  28.192  32.898  1.00  0.00    -0.354 N 
ATOM     62  N   UNL A   1      43.777  26.340  30.619  1.00  0.00    -0.248 NA
ATOM     63  C   UNL A   1      44.689  24.666  29.271  1.00  0.00     0.031 C 
ATOM     64  C   UNL A   1      45.756  28.010  34.225  1.00  0.00     0.029 A 
ATOM     65  C   UNL A   1      45.154  27.475  33.096  1.00  0.00     0.049 A 
ATOM     66  H   UNL A   1      43.352  28.045  32.159  1.00  0.00     0.167 HD
ATOM     67  C   UNL A   1      44.992  25.932  31.161  1.00  0.00     0.074 A 
ATOM     68  C   UNL A   1      45.491  24.873  30.309  1.00  0.00     0.031 C 
ATOM     69  C   UNL A   1      45.633  26.399  32.260  1.00  0.00     0.034 A 
BRANCH  56  70
ATOM     70  C   UNL A   1      42.810  31.076  35.139  1.00  0.00     0.023 A 
ATOM     71  C   UNL A   1      43.475  32.305  34.971  1.00  0.00     0.031 A 
ATOM     72  C   UNL A   1      42.357  30.736  36.425  1.00  0.00     0.131 A 
ATOM     73  C   UNL A   1      43.716  33.125  36.080  1.00  0.00     0.055 A 
ATOM     74  C   UNL A   1      42.561  31.577  37.520  1.00  0.00     0.041 A 
ATOM     75  F   UNL A   1      41.716  29.574  36.637  1.00  0.00    -0.206 F 
ATOM     76  C   UNL A   1      43.258  32.770  37.352  1.00  0.00     0.022 A 
BRANCH  73  77
ATOM     77  S   UNL A   1      44.705  34.639  35.931  1.00  0.00     0.124 S 
ATOM     78  O   UNL A   1      45.879  34.157  35.206  1.00  0.00    -0.237 OA
ATOM     79  O   UNL A   1      43.816  35.510  35.169  1.00  0.00    -0.237 OA
ATOM     80  O   UNL A   1      44.949  35.036  37.313  1.00  0.00    -0.744 OA
ENDBRANCH  73  77
ENDBRANCH  56  70
BRANCH  57  81
ATOM     81  C   UNL A   1      42.350  24.678  27.426  1.00  0.00     0.023 A 
ATOM     82  C   UNL A   1      41.619  23.477  27.511  1.00  0.00     0.031 A 
ATOM     83  C   UNL A   1      43.101  24.911  26.264  1.00  0.00     0.131 A 
ATOM     84  C   UNL A   1      41.725  22.521  26.493  1.00  0.00     0.055 A 
ATOM     85  C   UNL A   1      43.138  23.990  25.214  1.00  0.00     0.041 A 
ATOM     86  F   UNL A   1      43.825  26.033  26.139  1.00  0.00    -0.206 F 
ATOM     87  C   UNL A   1      42.465  22.778  25.336  1.00  0.00     0.022 A 
BRANCH  84  88
ATOM     88  S   UNL A   1      41.039  20.855  26.710  1.00  0.00     0.124 S 
ATOM     89  O   UNL A   1      39.806  20.931  25.934  1.00  0.00    -0.237 OA
ATOM     90  O   UNL A   1      42.095  20.021  26.139  1.00  0.00    -0.237 OA
ATOM     91  O   UNL A   1      40.871  20.737  28.155  1.00  0.00    -0.744 OA
ENDBRANCH  84  88
ENDBRANCH  57  81
BRANCH  69  92
ATOM     92  C   UNL A   1      46.948  25.774  32.661  1.00  0.00     0.023 A 
ATOM     93  C   UNL A   1      46.966  24.760  33.641  1.00  0.00     0.031 A 
ATOM     94  C   UNL A   1      48.176  26.302  32.229  1.00  0.00     0.131 A 
ATOM     95  C   UNL A   1      48.182  24.353  34.200  1.00  0.00     0.055 A 
ATOM     96  C   UNL A   1      49.390  25.853  32.751  1.00  0.00     0.041 A 
ATOM     97  F   UNL A   1      48.210  27.277  31.306  1.00  0.00    -0.206 F 
ATOM     98  C   UNL A   1      49.395  24.888  33.755  1.00  0.00     0.022 A 
BRANCH  95  99
ATOM     99  S   UNL A   1      48.226  23.199  35.600  1.00  0.00     0.124 S 
ATOM    100  O   UNL A   1      48.489  21.926  34.933  1.00  0.00    -0.237 OA
ATOM    101  O   UNL A   1      49.330  23.725  36.397  1.00  0.00    -0.237 OA
ATOM    102  O   UNL A   1      46.902  23.323  36.200  1.00  0.00    -0.744 OA
ENDBRANCH  95  99
ENDBRANCH  69  92
ENDBRANCH  43  44
ENDBRANCH  35  38
ENDBRANCH  33  34
ENDBRANCH  32  33
ENDBRANCH  31  32
ENDBRANCH  30  31
ENDBRANCH   1  30
TORSDOF 21
ENDMDL
MODEL 3
REMARK VINA RESULT:     -11.3      0.768      7.196
REMARK SMILES CCCCOC(=O)[C@@H]1[C@H]2c3ccccc3[C@H](c3ccccc32)[C@@H]1C(=O)NCCCCCCNC(=O)c1ccc(-c2c3nc(c(-c4cc(S(=O)(=O)[O-])ccc4F)c4ccc([nH]4)c(-c4cc(S(=O)(=O)[O-])ccc4F)c4nc(c(-c5cc(S(=O)(=O)[O-])ccc5F)c5ccc2[nH]5)C=C4)C=C3)cc1
REMARK SMILES IDX 28 1 27 2 26 3 24 4 25 5 23 7 8 8 9 9 22 10 10 11 16 12
REMARK SMILES IDX 21 13 17 14 15 15 11 16 20 17 18 18 14 19 12 20 19 21 13 22
REMARK SMILES IDX 6 23 7 24 5 25 4 26 3 27 2 28 1 29 29 30 30 31 31 32 32 33
REMARK SMILES IDX 33 34 34 35 35 37 36 38 37 39 98 40 38 41 97 42 39 43 40 44
REMARK SMILES IDX 41 45 91 46 42 47 96 48 90 49 92 50 43 51 95 52 89 53 88 54
REMARK SMILES IDX 44 56 76 57 56 58 75 59 57 60 60 61 74 62 93 63 58 64 59 65
REMARK SMILES IDX 73 67 94 68 61 69 45 70 46 71 54 72 47 73 53 74 55 75 52 76
REMARK SMILES IDX 48 77 49 78 50 79 51 80 77 81 78 82 86 83 79 84 85 85 87 86
REMARK SMILES IDX 84 87 80 88 81 89 82 90 83 91 62 92 63 93 71 94 64 95 70 96
REMARK SMILES IDX 72 97 69 98 65 99 66 100 67 101 68 102
REMARK H PARENT 26 6 33 36 92 55 60 66
REMARK Flexibility Score: inf
ROOT
ATOM      1  C   UNL A   1      32.511  26.870  26.482  1.00  0.00     0.021 C 
ENDROOT
BRANCH   1   2
ATOM      2  C   UNL A   1      31.021  26.614  26.286  1.00  0.00     0.116 C 
BRANCH   2   3
ATOM      3  N   UNL A   1      30.667  25.225  26.472  1.00  0.00    -0.356 N 
ATOM      4  C   UNL A   1      31.295  24.059  26.209  1.00  0.00     0.224 C 
ATOM      5  O   UNL A   1      30.716  23.046  26.626  1.00  0.00    -0.275 OA
ATOM      6  H   UNL A   1      29.778  25.103  26.876  1.00  0.00     0.163 HD
BRANCH   4   7
ATOM      7  C   UNL A   1      32.586  23.884  25.412  1.00  0.00     0.105 C 
ATOM      8  C   UNL A   1      32.591  23.993  23.859  1.00  0.00     0.124 C 
ATOM      9  C   UNL A   1      33.395  22.812  23.235  1.00  0.00     0.065 C 
ATOM     10  C   UNL A   1      32.915  21.481  23.808  1.00  0.00    -0.036 A 
ATOM     11  C   UNL A   1      34.819  22.986  23.815  1.00  0.00    -0.036 A 
ATOM     12  C   UNL A   1      33.480  22.697  25.879  1.00  0.00     0.063 C 
ATOM     13  C   UNL A   1      32.578  20.358  23.063  1.00  0.00     0.004 A 
ATOM     14  C   UNL A   1      33.002  21.406  25.226  1.00  0.00    -0.036 A 
ATOM     15  C   UNL A   1      34.856  22.949  25.243  1.00  0.00    -0.036 A 
ATOM     16  C   UNL A   1      35.993  23.081  23.085  1.00  0.00     0.004 A 
ATOM     17  C   UNL A   1      32.352  19.153  23.734  1.00  0.00     0.000 A 
ATOM     18  C   UNL A   1      32.813  20.197  25.883  1.00  0.00     0.004 A 
ATOM     19  C   UNL A   1      36.059  23.027  25.928  1.00  0.00     0.004 A 
ATOM     20  C   UNL A   1      37.204  23.148  23.781  1.00  0.00     0.000 A 
ATOM     21  C   UNL A   1      32.486  19.069  25.128  1.00  0.00     0.000 A 
ATOM     22  C   UNL A   1      37.236  23.127  25.185  1.00  0.00     0.000 A 
BRANCH   8  23
ATOM     23  C   UNL A   1      31.301  24.421  23.203  1.00  0.00     0.310 C 
ATOM     24  O   UNL A   1      30.233  23.895  23.502  1.00  0.00    -0.252 OA
BRANCH  23  25
ATOM     25  O   UNL A   1      31.425  25.431  22.309  1.00  0.00    -0.465 OA
BRANCH  25  26
ATOM     26  C   UNL A   1      31.474  26.763  22.869  1.00  0.00     0.233 C 
BRANCH  26  27
ATOM     27  C   UNL A   1      30.094  27.413  23.006  1.00  0.00     0.041 C 
BRANCH  27  28
ATOM     28  C   UNL A   1      30.092  28.917  23.299  1.00  0.00     0.000 C 
ATOM     29  C   UNL A   1      29.970  29.787  22.060  1.00  0.00     0.004 C 
ENDBRANCH  27  28
ENDBRANCH  26  27
ENDBRANCH  25  26
ENDBRANCH  23  25
ENDBRANCH   8  23
ENDBRANCH   4   7
ENDBRANCH   2   3
ENDBRANCH   1   2
BRANCH   1  30
ATOM     30  C   UNL A   1      32.832  28.196  27.180  1.00  0.00     0.002 C 
BRANCH  30  31
ATOM     31  C   UNL A   1      31.657  29.174  27.329  1.00  0.00     0.002 C 
BRANCH  31  32
ATOM     32  C   UNL A   1      31.806  30.518  26.613  1.00  0.00     0.021 C 
BRANCH  32  33
ATOM     33  C   UNL A   1      33.083  31.282  26.945  1.00  0.00     0.116 C 
BRANCH  33  34
ATOM     34  N   UNL A   1      32.826  32.687  27.221  1.00  0.00    -0.352 N 
ATOM     35  C   UNL A   1      33.427  33.524  28.128  1.00  0.00     0.251 C 
ATOM     36  H   UNL A   1      32.117  33.099  26.676  1.00  0.00     0.163 HD
ATOM     37  O   UNL A   1      32.936  34.625  28.364  1.00  0.00    -0.269 OA
BRANCH  35  38
ATOM     38  C   UNL A   1      34.645  33.080  28.835  1.00  0.00     0.039 A 
ATOM     39  C   UNL A   1      35.910  33.402  28.335  1.00  0.00     0.014 A 
ATOM     40  C   UNL A   1      34.519  32.319  29.998  1.00  0.00     0.014 A 
ATOM     41  C   UNL A   1      37.043  32.833  28.908  1.00  0.00     0.010 A 
ATOM     42  C   UNL A   1      35.664  31.814  30.619  1.00  0.00     0.010 A 
ATOM     43  C   UNL A   1      36.931  32.030  30.054  1.00  0.00    -0.014 A 
BRANCH  43  44
ATOM     44  C   UNL A   1      38.147  31.435  30.665  1.00  0.00     0.031 A 
ATOM     45  C   UNL A   1      38.924  30.373  29.939  1.00  0.00     0.074 A 
ATOM     46  C   UNL A   1      38.549  31.861  31.878  1.00  0.00     0.049 A 
ATOM     47  N   UNL A   1      39.973  29.703  30.341  1.00  0.00    -0.248 NA
ATOM     48  C   UNL A   1      38.468  30.013  28.586  1.00  0.00     0.031 C 
ATOM     49  C   UNL A   1      37.878  32.899  32.662  1.00  0.00     0.029 A 
ATOM     50  N   UNL A   1      39.611  31.485  32.664  1.00  0.00    -0.354 N 
ATOM     51  C   UNL A   1      40.288  28.829  29.307  1.00  0.00     0.074 A 
ATOM     52  C   UNL A   1      39.305  29.034  28.267  1.00  0.00     0.031 C 
ATOM     53  C   UNL A   1      38.553  33.092  33.803  1.00  0.00     0.029 A 
ATOM     54  C   UNL A   1      39.658  32.139  33.872  1.00  0.00     0.049 A 
ATOM     55  H   UNL A   1      40.273  30.811  32.389  1.00  0.00     0.167 HD
ATOM     56  C   UNL A   1      41.310  27.944  29.237  1.00  0.00     0.034 A 
ATOM     57  C   UNL A   1      40.473  31.975  34.935  1.00  0.00     0.034 A 
ATOM     58  C   UNL A   1      42.292  27.773  30.278  1.00  0.00     0.049 A 
ATOM     59  C   UNL A   1      41.580  30.956  34.847  1.00  0.00     0.074 A 
ATOM     60  C   UNL A   1      43.389  26.931  30.282  1.00  0.00     0.029 A 
ATOM     61  N   UNL A   1      42.300  28.445  31.492  1.00  0.00    -0.354 N 
ATOM     62  N   UNL A   1      41.893  30.170  33.843  1.00  0.00    -0.248 NA
ATOM     63  C   UNL A   1      42.446  30.798  36.022  1.00  0.00     0.031 C 
ATOM     64  C   UNL A   1      44.015  27.037  31.523  1.00  0.00     0.029 A 
ATOM     65  C   UNL A   1      43.366  28.012  32.263  1.00  0.00     0.049 A 
ATOM     66  H   UNL A   1      41.647  29.129  31.764  1.00  0.00     0.167 HD
ATOM     67  C   UNL A   1      43.008  29.446  34.254  1.00  0.00     0.074 A 
ATOM     68  C   UNL A   1      43.326  29.901  35.591  1.00  0.00     0.031 C 
ATOM     69  C   UNL A   1      43.697  28.490  33.584  1.00  0.00     0.034 A 
BRANCH  56  70
ATOM     70  C   UNL A   1      41.457  27.083  28.005  1.00  0.00     0.023 A 
ATOM     71  C   UNL A   1      41.147  25.711  28.074  1.00  0.00     0.031 A 
ATOM     72  C   UNL A   1      42.054  27.572  26.831  1.00  0.00     0.131 A 
ATOM     73  C   UNL A   1      41.485  24.866  27.010  1.00  0.00     0.055 A 
ATOM     74  C   UNL A   1      42.348  26.733  25.755  1.00  0.00     0.041 A 
ATOM     75  F   UNL A   1      42.368  28.872  26.716  1.00  0.00    -0.206 F 
ATOM     76  C   UNL A   1      42.078  25.370  25.849  1.00  0.00     0.022 A 
BRANCH  73  77
ATOM     77  S   UNL A   1      41.245  23.071  27.124  1.00  0.00     0.124 S 
ATOM     78  O   UNL A   1      39.837  22.982  27.503  1.00  0.00    -0.237 OA
ATOM     79  O   UNL A   1      41.554  22.635  25.765  1.00  0.00    -0.237 OA
ATOM     80  O   UNL A   1      42.192  22.656  28.152  1.00  0.00    -0.744 OA
ENDBRANCH  73  77
ENDBRANCH  56  70
BRANCH  57  81
ATOM     81  C   UNL A   1      40.264  32.822  36.146  1.00  0.00     0.023 A 
ATOM     82  C   UNL A   1      39.423  32.389  37.190  1.00  0.00     0.031 A 
ATOM     83  C   UNL A   1      40.794  34.120  36.222  1.00  0.00     0.131 A 
ATOM     84  C   UNL A   1      39.070  33.275  38.215  1.00  0.00     0.055 A 
ATOM     85  C   UNL A   1      40.505  34.971  37.290  1.00  0.00     0.041 A 
ATOM     86  F   UNL A   1      41.590  34.584  35.247  1.00  0.00    -0.206 F 
ATOM     87  C   UNL A   1      39.621  34.558  38.283  1.00  0.00     0.022 A 
BRANCH  84  88
ATOM     88  S   UNL A   1      37.765  32.847  39.402  1.00  0.00     0.124 S 
ATOM     89  O   UNL A   1      37.797  33.986  40.313  1.00  0.00    -0.237 OA
ATOM     90  O   UNL A   1      36.590  32.764  38.535  1.00  0.00    -0.237 OA
ATOM     91  O   UNL A   1      38.212  31.576  39.961  1.00  0.00    -0.744 OA
ENDBRANCH  84  88
ENDBRANCH  57  81
BRANCH  69  92
ATOM     92  C   UNL A   1      44.899  27.857  34.245  1.00  0.00     0.023 A 
ATOM     93  C   UNL A   1      44.718  26.763  35.114  1.00  0.00     0.031 A 
ATOM     94  C   UNL A   1      46.172  28.445  34.172  1.00  0.00     0.131 A 
ATOM     95  C   UNL A   1      45.777  26.331  35.922  1.00  0.00     0.055 A 
ATOM     96  C   UNL A   1      47.240  27.975  34.939  1.00  0.00     0.041 A 
ATOM     97  F   UNL A   1      46.392  29.497  33.367  1.00  0.00    -0.206 F 
ATOM     98  C   UNL A   1      47.039  26.926  35.833  1.00  0.00     0.022 A 
BRANCH  95  99
ATOM     99  S   UNL A   1      45.524  25.061  37.192  1.00  0.00     0.124 S 
ATOM    100  O   UNL A   1      44.307  24.402  36.722  1.00  0.00    -0.237 OA
ATOM    101  O   UNL A   1      46.744  24.268  37.080  1.00  0.00    -0.237 OA
ATOM    102  O   UNL A   1      45.380  25.822  38.428  1.00  0.00    -0.744 OA
ENDBRANCH  95  99
ENDBRANCH  69  92
ENDBRANCH  43  44
ENDBRANCH  35  38
ENDBRANCH  33  34
ENDBRANCH  32  33
ENDBRANCH  31  32
ENDBRANCH  30  31
ENDBRANCH   1  30
TORSDOF 21
ENDMDL
