MODEL 1
REMARK VINA RESULT:     -11.3      0.000      0.000
REMARK SMILES CC[C@@](C)(NC(=O)c1cccc(Br)c1C)C(=O)NCCCCCCNC(=O)c1ccc(-c2c3nc(c(-c4cc(S(=O)(=O)[O-])ccc4F)c4ccc([nH]4)c(-c4cc(S(=O)(=O)[O-])ccc4F)c4nc(c(-c5cc(S(=O)(=O)[O-])ccc5F)c5ccc2[nH]5)C=C4)C=C3)cc1
REMARK SMILES IDX 22 1 21 2 20 3 19 4 18 5 16 6 17 7 3 9 4 10 2 11 1 12 5 13
REMARK SMILES IDX 6 14 7 16 8 17 9 18 14 19 10 20 12 21 15 22 11 23 13 24
REMARK SMILES IDX 23 25 24 26 25 27 26 28 27 30 28 31 29 32 90 33 30 34 89 35
REMARK SMILES IDX 31 36 32 37 33 38 83 39 34 40 88 41 82 42 84 43 35 44 87 45
REMARK SMILES IDX 81 46 80 47 36 49 68 50 48 51 67 52 49 53 52 54 66 55 85 56
REMARK SMILES IDX 50 57 51 58 65 60 86 61 53 62 37 63 38 64 46 65 39 66 45 67
REMARK SMILES IDX 47 68 44 69 40 70 41 71 42 72 43 73 69 74 70 75 78 76 71 77
REMARK SMILES IDX 77 78 79 79 76 80 72 81 73 82 74 83 75 84 54 85 55 86 63 87
REMARK SMILES IDX 56 88 62 89 64 90 61 91 57 92 58 93 59 94 60 95
REMARK H PARENT 18 8 5 15 25 29 84 48 52 59
REMARK Flexibility Score: inf
ROOT
ATOM      1  C   UNL A   1      31.847  30.037  26.843  1.00  0.00     0.002 C 
ENDROOT
BRANCH   1   2
ATOM      2  C   UNL A   1      31.696  29.266  25.552  1.00  0.00     0.002 C 
BRANCH   2   3
ATOM      3  C   UNL A   1      30.742  29.820  24.483  1.00  0.00     0.021 C 
BRANCH   3   4
ATOM      4  C   UNL A   1      30.053  29.073  23.293  1.00  0.00     0.116 C 
BRANCH   4   5
ATOM      5  N   UNL A   1      30.351  27.617  23.055  1.00  0.00    -0.354 N 
ATOM      6  C   UNL A   1      31.258  26.607  22.895  1.00  0.00     0.245 C 
ATOM      7  O   UNL A   1      30.637  25.521  22.885  1.00  0.00    -0.272 OA
ATOM      8  H   UNL A   1      29.470  27.185  22.974  1.00  0.00     0.163 HD
BRANCH   6   9
ATOM      9  C   UNL A   1      32.898  26.480  22.889  1.00  0.00     0.116 C 
ATOM     10  C   UNL A   1      33.170  25.178  22.103  1.00  0.00     0.045 C 
BRANCH   9  11
ATOM     11  C   UNL A   1      33.523  27.699  22.088  1.00  0.00     0.035 C 
ATOM     12  C   UNL A   1      34.190  28.853  22.829  1.00  0.00     0.007 C 
ENDBRANCH   9  11
BRANCH   9  13
ATOM     13  N   UNL A   1      33.846  26.410  24.086  1.00  0.00    -0.338 N 
ATOM     14  C   UNL A   1      33.604  26.068  25.415  1.00  0.00     0.252 C 
ATOM     15  H   UNL A   1      34.780  26.644  23.884  1.00  0.00     0.164 HD
ATOM     16  O   UNL A   1      34.131  26.692  26.330  1.00  0.00    -0.269 OA
BRANCH  14  17
ATOM     17  C   UNL A   1      32.854  24.827  25.707  1.00  0.00     0.043 A 
ATOM     18  C   UNL A   1      31.684  24.774  26.471  1.00  0.00     0.014 A 
ATOM     19  C   UNL A   1      33.512  23.639  25.450  1.00  0.00    -0.024 A 
ATOM     20  C   UNL A   1      31.059  23.546  26.731  1.00  0.00     0.002 A 
ATOM     21  C   UNL A   1      32.722  22.470  25.395  1.00  0.00     0.021 A 
ATOM     22  C   UNL A   1      35.006  23.731  25.840  1.00  0.00     0.046 C 
ATOM     23  C   UNL A   1      31.538  22.401  26.119  1.00  0.00     0.016 A 
ATOM     24  Br  UNL A   1      32.436  21.477  23.750  1.00  0.00    -0.051 Br
ENDBRANCH  14  17
ENDBRANCH   9  13
ENDBRANCH   6   9
ENDBRANCH   4   5
ENDBRANCH   3   4
ENDBRANCH   2   3
ENDBRANCH   1   2
BRANCH   1  25
ATOM     25  C   UNL A   1      31.919  31.549  26.661  1.00  0.00     0.021 C 
BRANCH  25  26
ATOM     26  C   UNL A   1      33.030  32.239  27.453  1.00  0.00     0.116 C 
BRANCH  26  27
ATOM     27  N   UNL A   1      32.795  33.673  27.566  1.00  0.00    -0.352 N 
ATOM     28  C   UNL A   1      33.203  34.501  28.581  1.00  0.00     0.251 C 
ATOM     29  H   UNL A   1      32.288  34.093  26.834  1.00  0.00     0.163 HD
ATOM     30  O   UNL A   1      32.648  35.584  28.779  1.00  0.00    -0.269 OA
BRANCH  28  31
ATOM     31  C   UNL A   1      34.324  34.057  29.424  1.00  0.00     0.039 A 
ATOM     32  C   UNL A   1      34.087  33.253  30.538  1.00  0.00     0.014 A 
ATOM     33  C   UNL A   1      35.627  34.391  29.039  1.00  0.00     0.014 A 
ATOM     34  C   UNL A   1      35.174  32.735  31.243  1.00  0.00     0.010 A 
ATOM     35  C   UNL A   1      36.702  33.804  29.690  1.00  0.00     0.010 A 
ATOM     36  C   UNL A   1      36.487  32.981  30.804  1.00  0.00    -0.014 A 
BRANCH  36  37
ATOM     37  C   UNL A   1      37.656  32.402  31.511  1.00  0.00     0.031 A 
ATOM     38  C   UNL A   1      38.405  31.258  30.888  1.00  0.00     0.074 A 
ATOM     39  C   UNL A   1      37.991  32.861  32.731  1.00  0.00     0.049 A 
ATOM     40  N   UNL A   1      39.401  30.560  31.370  1.00  0.00    -0.248 NA
ATOM     41  C   UNL A   1      37.947  30.816  29.563  1.00  0.00     0.031 C 
ATOM     42  C   UNL A   1      37.297  33.933  33.450  1.00  0.00     0.029 A 
ATOM     43  N   UNL A   1      38.990  32.480  33.590  1.00  0.00    -0.354 N 
ATOM     44  C   UNL A   1      39.682  29.594  30.410  1.00  0.00     0.074 A 
ATOM     45  C   UNL A   1      38.698  29.746  29.361  1.00  0.00     0.031 C 
ATOM     46  C   UNL A   1      37.906  34.138  34.628  1.00  0.00     0.029 A 
ATOM     47  C   UNL A   1      38.997  33.179  34.774  1.00  0.00     0.049 A 
ATOM     48  H   UNL A   1      39.641  31.772  33.379  1.00  0.00     0.167 HD
ATOM     49  C   UNL A   1      40.690  28.688  30.394  1.00  0.00     0.034 A 
ATOM     50  C   UNL A   1      39.781  33.050  35.863  1.00  0.00     0.034 A 
ATOM     51  C   UNL A   1      41.655  28.557  31.456  1.00  0.00     0.049 A 
ATOM     52  C   UNL A   1      40.872  32.008  35.843  1.00  0.00     0.074 A 
ATOM     53  C   UNL A   1      42.748  27.712  31.530  1.00  0.00     0.029 A 
ATOM     54  N   UNL A   1      41.634  29.282  32.642  1.00  0.00    -0.354 N 
ATOM     55  N   UNL A   1      41.171  31.145  34.899  1.00  0.00    -0.248 NA
ATOM     56  C   UNL A   1      41.735  31.930  37.027  1.00  0.00     0.031 C 
ATOM     57  C   UNL A   1      43.334  27.866  32.791  1.00  0.00     0.029 A 
ATOM     58  C   UNL A   1      42.667  28.874  33.471  1.00  0.00     0.049 A 
ATOM     59  H   UNL A   1      40.979  29.984  32.863  1.00  0.00     0.167 HD
ATOM     60  C   UNL A   1      42.273  30.436  35.367  1.00  0.00     0.074 A 
ATOM     61  C   UNL A   1      42.595  30.987  36.668  1.00  0.00     0.031 C 
ATOM     62  C   UNL A   1      42.960  29.424  34.775  1.00  0.00     0.034 A 
BRANCH  49  63
ATOM     63  C   UNL A   1      40.765  27.758  29.203  1.00  0.00     0.023 A 
ATOM     64  C   UNL A   1      41.704  27.951  28.173  1.00  0.00     0.031 A 
ATOM     65  C   UNL A   1      39.852  26.697  29.064  1.00  0.00     0.131 A 
ATOM     66  C   UNL A   1      41.646  27.164  27.013  1.00  0.00     0.055 A 
ATOM     67  C   UNL A   1      39.865  25.855  27.951  1.00  0.00     0.041 A 
ATOM     68  F   UNL A   1      38.916  26.473  30.000  1.00  0.00    -0.206 F 
ATOM     69  C   UNL A   1      40.752  26.099  26.906  1.00  0.00     0.022 A 
BRANCH  66  70
ATOM     70  S   UNL A   1      42.632  27.673  25.577  1.00  0.00     0.124 S 
ATOM     71  O   UNL A   1      41.895  28.847  25.115  1.00  0.00    -0.237 OA
ATOM     72  O   UNL A   1      43.940  27.931  26.168  1.00  0.00    -0.237 OA
ATOM     73  O   UNL A   1      42.565  26.515  24.688  1.00  0.00    -0.744 OA
ENDBRANCH  66  70
ENDBRANCH  49  63
BRANCH  50  74
ATOM     74  C   UNL A   1      39.549  33.905  37.062  1.00  0.00     0.023 A 
ATOM     75  C   UNL A   1      38.918  33.400  38.209  1.00  0.00     0.031 A 
ATOM     76  C   UNL A   1      39.942  35.256  37.068  1.00  0.00     0.131 A 
ATOM     77  C   UNL A   1      38.666  34.249  39.300  1.00  0.00     0.055 A 
ATOM     78  C   UNL A   1      39.739  36.081  38.176  1.00  0.00     0.041 A 
ATOM     79  F   UNL A   1      40.552  35.792  35.998  1.00  0.00    -0.206 F 
ATOM     80  C   UNL A   1      39.086  35.581  39.297  1.00  0.00     0.022 A 
BRANCH  77  81
ATOM     81  S   UNL A   1      37.702  33.607  40.696  1.00  0.00     0.124 S 
ATOM     82  O   UNL A   1      38.671  32.738  41.352  1.00  0.00    -0.237 OA
ATOM     83  O   UNL A   1      37.349  34.831  41.409  1.00  0.00    -0.237 OA
ATOM     84  O   UNL A   1      36.585  32.921  40.049  1.00  0.00    -0.744 OA
ENDBRANCH  77  81
ENDBRANCH  50  74
BRANCH  62  85
ATOM     85  C   UNL A   1      44.150  28.873  35.524  1.00  0.00     0.023 A 
ATOM     86  C   UNL A   1      44.030  27.787  36.408  1.00  0.00     0.031 A 
ATOM     87  C   UNL A   1      45.423  29.443  35.345  1.00  0.00     0.131 A 
ATOM     88  C   UNL A   1      45.153  27.340  37.119  1.00  0.00     0.055 A 
ATOM     89  C   UNL A   1      46.549  28.947  36.002  1.00  0.00     0.041 A 
ATOM     90  F   UNL A   1      45.595  30.486  34.516  1.00  0.00    -0.206 F 
ATOM     91  C   UNL A   1      46.416  27.898  36.906  1.00  0.00     0.022 A 
BRANCH  88  92
ATOM     92  S   UNL A   1      44.924  26.079  38.403  1.00  0.00     0.124 S 
ATOM     93  O   UNL A   1      44.110  25.086  37.710  1.00  0.00    -0.237 OA
ATOM     94  O   UNL A   1      46.296  25.683  38.702  1.00  0.00    -0.237 OA
ATOM     95  O   UNL A   1      44.240  26.801  39.475  1.00  0.00    -0.744 OA
ENDBRANCH  88  92
ENDBRANCH  62  85
ENDBRANCH  36  37
ENDBRANCH  28  31
ENDBRANCH  26  27
ENDBRANCH  25  26
ENDBRANCH   1  25
TORSDOF 19
ENDMDL
MODEL 2
REMARK VINA RESULT:     -11.2      1.836      2.686
REMARK SMILES CC[C@@](C)(NC(=O)c1cccc(Br)c1C)C(=O)NCCCCCCNC(=O)c1ccc(-c2c3nc(c(-c4cc(S(=O)(=O)[O-])ccc4F)c4ccc([nH]4)c(-c4cc(S(=O)(=O)[O-])ccc4F)c4nc(c(-c5cc(S(=O)(=O)[O-])ccc5F)c5ccc2[nH]5)C=C4)C=C3)cc1
REMARK SMILES IDX 22 1 21 2 20 3 19 4 18 5 16 6 17 7 3 9 4 10 2 11 1 12 5 13
REMARK SMILES IDX 6 14 7 16 8 17 9 18 14 19 10 20 12 21 15 22 11 23 13 24
REMARK SMILES IDX 23 25 24 26 25 27 26 28 27 30 28 31 29 32 90 33 30 34 89 35
REMARK SMILES IDX 31 36 32 37 33 38 83 39 34 40 88 41 82 42 84 43 35 44 87 45
REMARK SMILES IDX 81 46 80 47 36 49 68 50 48 51 67 52 49 53 52 54 66 55 85 56
REMARK SMILES IDX 50 57 51 58 65 60 86 61 53 62 37 63 38 64 46 65 39 66 45 67
REMARK SMILES IDX 47 68 44 69 40 70 41 71 42 72 43 73 69 74 70 75 78 76 71 77
REMARK SMILES IDX 77 78 79 79 76 80 72 81 73 82 74 83 75 84 54 85 55 86 63 87
REMARK SMILES IDX 56 88 62 89 64 90 61 91 57 92 58 93 59 94 60 95
REMARK H PARENT 18 8 5 15 25 29 84 48 52 59
REMARK Flexibility Score: inf
ROOT
ATOM      1  C   UNL A   1      31.190  30.588  25.679  1.00  0.00     0.002 C 
ENDROOT
BRANCH   1   2
ATOM      2  C   UNL A   1      31.923  29.548  26.497  1.00  0.00     0.002 C 
BRANCH   2   3
ATOM      3  C   UNL A   1      33.415  29.321  26.212  1.00  0.00     0.021 C 
BRANCH   3   4
ATOM      4  C   UNL A   1      34.127  28.055  25.631  1.00  0.00     0.116 C 
BRANCH   4   5
ATOM      5  N   UNL A   1      33.602  26.685  25.966  1.00  0.00    -0.354 N 
ATOM      6  C   UNL A   1      32.762  25.642  25.690  1.00  0.00     0.245 C 
ATOM      7  O   UNL A   1      33.068  24.686  26.438  1.00  0.00    -0.272 OA
ATOM      8  H   UNL A   1      34.101  26.407  26.767  1.00  0.00     0.163 HD
BRANCH   6   9
ATOM      9  C   UNL A   1      31.625  25.307  24.551  1.00  0.00     0.116 C 
ATOM     10  C   UNL A   1      30.683  24.299  25.246  1.00  0.00     0.045 C 
BRANCH   9  11
ATOM     11  C   UNL A   1      30.805  26.624  24.216  1.00  0.00     0.035 C 
ATOM     12  C   UNL A   1      29.327  26.545  23.848  1.00  0.00     0.007 C 
ENDBRANCH   9  11
BRANCH   9  13
ATOM     13  N   UNL A   1      31.829  24.735  23.149  1.00  0.00    -0.338 N 
ATOM     14  C   UNL A   1      32.983  24.276  22.517  1.00  0.00     0.252 C 
ATOM     15  H   UNL A   1      31.011  24.681  22.603  1.00  0.00     0.164 HD
ATOM     16  O   UNL A   1      33.198  24.534  21.337  1.00  0.00    -0.269 OA
BRANCH  14  17
ATOM     17  C   UNL A   1      33.855  23.319  23.230  1.00  0.00     0.043 A 
ATOM     18  C   UNL A   1      35.249  23.418  23.295  1.00  0.00     0.014 A 
ATOM     19  C   UNL A   1      33.275  22.120  23.598  1.00  0.00    -0.024 A 
ATOM     20  C   UNL A   1      36.000  22.441  23.963  1.00  0.00     0.002 A 
ATOM     21  C   UNL A   1      33.962  21.344  24.556  1.00  0.00     0.021 A 
ATOM     22  C   UNL A   1      32.319  21.600  22.498  1.00  0.00     0.046 C 
ATOM     23  C   UNL A   1      35.344  21.445  24.665  1.00  0.00     0.016 A 
ATOM     24  Br  UNL A   1      33.275  21.046  26.349  1.00  0.00    -0.051 Br
ENDBRANCH  14  17
ENDBRANCH   9  13
ENDBRANCH   6   9
ENDBRANCH   4   5
ENDBRANCH   3   4
ENDBRANCH   2   3
ENDBRANCH   1   2
BRANCH   1  25
ATOM     25  C   UNL A   1      31.181  31.979  26.304  1.00  0.00     0.021 C 
BRANCH  25  26
ATOM     26  C   UNL A   1      32.519  32.426  26.894  1.00  0.00     0.116 C 
BRANCH  26  27
ATOM     27  N   UNL A   1      32.472  33.816  27.331  1.00  0.00    -0.352 N 
ATOM     28  C   UNL A   1      33.153  34.376  28.382  1.00  0.00     0.251 C 
ATOM     29  H   UNL A   1      31.889  34.418  26.815  1.00  0.00     0.163 HD
ATOM     30  O   UNL A   1      32.770  35.429  28.897  1.00  0.00    -0.269 OA
BRANCH  28  31
ATOM     31  C   UNL A   1      34.353  33.682  28.874  1.00  0.00     0.039 A 
ATOM     32  C   UNL A   1      35.615  34.241  28.678  1.00  0.00     0.014 A 
ATOM     33  C   UNL A   1      34.193  32.500  29.606  1.00  0.00     0.014 A 
ATOM     34  C   UNL A   1      36.724  33.634  29.268  1.00  0.00     0.010 A 
ATOM     35  C   UNL A   1      35.284  31.950  30.262  1.00  0.00     0.010 A 
ATOM     36  C   UNL A   1      36.561  32.505  30.090  1.00  0.00    -0.014 A 
BRANCH  36  37
ATOM     37  C   UNL A   1      37.719  31.870  30.765  1.00  0.00     0.031 A 
ATOM     38  C   UNL A   1      38.499  30.802  30.051  1.00  0.00     0.074 A 
ATOM     39  C   UNL A   1      38.017  32.207  32.034  1.00  0.00     0.049 A 
ATOM     40  N   UNL A   1      39.491  30.070  30.487  1.00  0.00    -0.248 NA
ATOM     41  C   UNL A   1      38.081  30.492  28.676  1.00  0.00     0.031 C 
ATOM     42  C   UNL A   1      37.291  33.193  32.838  1.00  0.00     0.029 A 
ATOM     43  N   UNL A   1      38.998  31.751  32.877  1.00  0.00    -0.354 N 
ATOM     44  C   UNL A   1      39.810  29.209  29.442  1.00  0.00     0.074 A 
ATOM     45  C   UNL A   1      38.851  29.456  28.387  1.00  0.00     0.031 C 
ATOM     46  C   UNL A   1      37.866  33.284  34.047  1.00  0.00     0.029 A 
ATOM     47  C   UNL A   1      38.965  32.327  34.126  1.00  0.00     0.049 A 
ATOM     48  H   UNL A   1      39.664  31.075  32.613  1.00  0.00     0.167 HD
ATOM     49  C   UNL A   1      40.829  28.319  29.361  1.00  0.00     0.034 A 
ATOM     50  C   UNL A   1      39.723  32.096  35.216  1.00  0.00     0.034 A 
ATOM     51  C   UNL A   1      41.768  28.091  30.431  1.00  0.00     0.049 A 
ATOM     52  C   UNL A   1      40.827  31.073  35.120  1.00  0.00     0.074 A 
ATOM     53  C   UNL A   1      42.870  27.255  30.449  1.00  0.00     0.029 A 
ATOM     54  N   UNL A   1      41.707  28.693  31.683  1.00  0.00    -0.354 N 
ATOM     55  N   UNL A   1      41.162  30.313  34.103  1.00  0.00    -0.248 NA
ATOM     56  C   UNL A   1      41.661  30.884  36.313  1.00  0.00     0.031 C 
ATOM     57  C   UNL A   1      43.421  27.287  31.734  1.00  0.00     0.029 A 
ATOM     58  C   UNL A   1      42.724  28.214  32.495  1.00  0.00     0.049 A 
ATOM     59  H   UNL A   1      41.037  29.362  31.956  1.00  0.00     0.167 HD
ATOM     60  C   UNL A   1      42.261  29.572  34.527  1.00  0.00     0.074 A 
ATOM     61  C   UNL A   1      42.542  29.992  35.884  1.00  0.00     0.031 C 
ATOM     62  C   UNL A   1      42.976  28.632  33.855  1.00  0.00     0.034 A 
BRANCH  49  63
ATOM     63  C   UNL A   1      40.947  27.515  28.085  1.00  0.00     0.023 A 
ATOM     64  C   UNL A   1      40.505  26.182  28.009  1.00  0.00     0.031 A 
ATOM     65  C   UNL A   1      41.558  28.068  26.946  1.00  0.00     0.131 A 
ATOM     66  C   UNL A   1      40.766  25.420  26.861  1.00  0.00     0.055 A 
ATOM     67  C   UNL A   1      41.727  27.332  25.771  1.00  0.00     0.041 A 
ATOM     68  F   UNL A   1      42.023  29.327  26.961  1.00  0.00    -0.206 F 
ATOM     69  C   UNL A   1      41.349  25.993  25.730  1.00  0.00     0.022 A 
BRANCH  66  70
ATOM     70  S   UNL A   1      40.502  23.626  26.938  1.00  0.00     0.124 S 
ATOM     71  O   UNL A   1      39.194  23.494  26.302  1.00  0.00    -0.237 OA
ATOM     72  O   UNL A   1      41.636  23.108  26.182  1.00  0.00    -0.237 OA
ATOM     73  O   UNL A   1      40.522  23.338  28.370  1.00  0.00    -0.744 OA
ENDBRANCH  66  70
ENDBRANCH  49  63
BRANCH  50  74
ATOM     74  C   UNL A   1      39.449  32.823  36.489  1.00  0.00     0.023 A 
ATOM     75  C   UNL A   1      38.565  32.308  37.450  1.00  0.00     0.031 A 
ATOM     76  C   UNL A   1      40.059  34.063  36.754  1.00  0.00     0.131 A 
ATOM     77  C   UNL A   1      38.288  33.046  38.612  1.00  0.00     0.055 A 
ATOM     78  C   UNL A   1      39.823  34.766  37.936  1.00  0.00     0.041 A 
ATOM     79  F   UNL A   1      40.915  34.602  35.871  1.00  0.00    -0.206 F 
ATOM     80  C   UNL A   1      38.923  34.263  38.869  1.00  0.00     0.022 A 
BRANCH  77  81
ATOM     81  S   UNL A   1      37.017  32.430  39.751  1.00  0.00     0.124 S 
ATOM     82  O   UNL A   1      35.845  32.372  38.885  1.00  0.00    -0.237 OA
ATOM     83  O   UNL A   1      37.577  31.147  40.164  1.00  0.00    -0.237 OA
ATOM     84  O   UNL A   1      36.973  33.453  40.794  1.00  0.00    -0.744 OA
ENDBRANCH  77  81
ENDBRANCH  50  74
BRANCH  62  85
ATOM     85  C   UNL A   1      44.153  28.021  34.576  1.00  0.00     0.023 A 
ATOM     86  C   UNL A   1      44.041  26.813  35.286  1.00  0.00     0.031 A 
ATOM     87  C   UNL A   1      45.407  28.656  34.547  1.00  0.00     0.131 A 
ATOM     88  C   UNL A   1      45.148  26.307  35.981  1.00  0.00     0.055 A 
ATOM     89  C   UNL A   1      46.523  28.111  35.183  1.00  0.00     0.041 A 
ATOM     90  F   UNL A   1      45.571  29.815  33.888  1.00  0.00    -0.206 F 
ATOM     91  C   UNL A   1      46.394  26.936  35.917  1.00  0.00     0.022 A 
BRANCH  88  92
ATOM     92  S   UNL A   1      44.916  24.863  37.055  1.00  0.00     0.124 S 
ATOM     93  O   UNL A   1      44.281  25.457  38.226  1.00  0.00    -0.237 OA
ATOM     94  O   UNL A   1      44.070  23.999  36.239  1.00  0.00    -0.237 OA
ATOM     95  O   UNL A   1      46.277  24.373  37.270  1.00  0.00    -0.744 OA
ENDBRANCH  88  92
ENDBRANCH  62  85
ENDBRANCH  36  37
ENDBRANCH  28  31
ENDBRANCH  26  27
ENDBRANCH  25  26
ENDBRANCH   1  25
TORSDOF 19
ENDMDL
MODEL 3
REMARK VINA RESULT:     -11.1      1.926      7.920
REMARK SMILES CC[C@@](C)(NC(=O)c1cccc(Br)c1C)C(=O)NCCCCCCNC(=O)c1ccc(-c2c3nc(c(-c4cc(S(=O)(=O)[O-])ccc4F)c4ccc([nH]4)c(-c4cc(S(=O)(=O)[O-])ccc4F)c4nc(c(-c5cc(S(=O)(=O)[O-])ccc5F)c5ccc2[nH]5)C=C4)C=C3)cc1
REMARK SMILES IDX 22 1 21 2 20 3 19 4 18 5 16 6 17 7 3 9 4 10 2 11 1 12 5 13
REMARK SMILES IDX 6 14 7 16 8 17 9 18 14 19 10 20 12 21 15 22 11 23 13 24
REMARK SMILES IDX 23 25 24 26 25 27 26 28 27 30 28 31 29 32 90 33 30 34 89 35
REMARK SMILES IDX 31 36 32 37 33 38 83 39 34 40 88 41 82 42 84 43 35 44 87 45
REMARK SMILES IDX 81 46 80 47 36 49 68 50 48 51 67 52 49 53 52 54 66 55 85 56
REMARK SMILES IDX 50 57 51 58 65 60 86 61 53 62 37 63 38 64 46 65 39 66 45 67
REMARK SMILES IDX 47 68 44 69 40 70 41 71 42 72 43 73 69 74 70 75 78 76 71 77
REMARK SMILES IDX 77 78 79 79 76 80 72 81 73 82 74 83 75 84 54 85 55 86 63 87
REMARK SMILES IDX 56 88 62 89 64 90 61 91 57 92 58 93 59 94 60 95
REMARK H PARENT 18 8 5 15 25 29 84 48 52 59
REMARK Flexibility Score: inf
ROOT
ATOM      1  C   UNL A   1      31.204  31.222  25.868  1.00  0.00     0.002 C 
ENDROOT
BRANCH   1   2
ATOM      2  C   UNL A   1      32.260  30.222  26.280  1.00  0.00     0.002 C 
BRANCH   2   3
ATOM      3  C   UNL A   1      31.875  29.136  27.297  1.00  0.00     0.021 C 
BRANCH   3   4
ATOM      4  C   UNL A   1      32.190  27.604  27.271  1.00  0.00     0.116 C 
BRANCH   4   5
ATOM      5  N   UNL A   1      31.128  26.632  26.835  1.00  0.00    -0.354 N 
ATOM      6  C   UNL A   1      30.385  26.062  25.839  1.00  0.00     0.245 C 
ATOM      7  O   UNL A   1      29.740  25.108  26.329  1.00  0.00    -0.272 OA
ATOM      8  H   UNL A   1      30.819  26.199  27.664  1.00  0.00     0.163 HD
BRANCH   6   9
ATOM      9  C   UNL A   1      30.278  26.217  24.205  1.00  0.00     0.116 C 
ATOM     10  C   UNL A   1      28.759  26.265  23.932  1.00  0.00     0.045 C 
BRANCH   9  11
ATOM     11  C   UNL A   1      30.921  27.597  23.759  1.00  0.00     0.035 C 
ATOM     12  C   UNL A   1      30.039  28.811  23.486  1.00  0.00     0.007 C 
ENDBRANCH   9  11
BRANCH   9  13
ATOM     13  N   UNL A   1      30.832  25.285  23.128  1.00  0.00    -0.338 N 
ATOM     14  C   UNL A   1      32.145  24.942  22.814  1.00  0.00     0.252 C 
ATOM     15  H   UNL A   1      30.148  24.855  22.565  1.00  0.00     0.164 HD
ATOM     16  O   UNL A   1      32.507  24.842  21.647  1.00  0.00    -0.269 OA
BRANCH  14  17
ATOM     17  C   UNL A   1      33.052  24.517  23.903  1.00  0.00     0.043 A 
ATOM     18  C   UNL A   1      34.280  25.123  24.189  1.00  0.00     0.014 A 
ATOM     19  C   UNL A   1      32.794  23.282  24.467  1.00  0.00    -0.024 A 
ATOM     20  C   UNL A   1      35.093  24.628  25.217  1.00  0.00     0.002 A 
ATOM     21  C   UNL A   1      33.411  23.003  25.705  1.00  0.00     0.021 A 
ATOM     22  C   UNL A   1      32.366  22.254  23.392  1.00  0.00     0.046 C 
ATOM     23  C   UNL A   1      34.616  23.615  26.030  1.00  0.00     0.016 A 
ATOM     24  Br  UNL A   1      32.407  22.822  27.358  1.00  0.00    -0.051 Br
ENDBRANCH  14  17
ENDBRANCH   9  13
ENDBRANCH   6   9
ENDBRANCH   4   5
ENDBRANCH   3   4
ENDBRANCH   2   3
ENDBRANCH   1   2
BRANCH   1  25
ATOM     25  C   UNL A   1      31.338  32.583  26.541  1.00  0.00     0.021 C 
BRANCH  25  26
ATOM     26  C   UNL A   1      32.657  32.805  27.283  1.00  0.00     0.116 C 
BRANCH  26  27
ATOM     27  N   UNL A   1      32.780  34.178  27.756  1.00  0.00    -0.352 N 
ATOM     28  C   UNL A   1      33.561  34.630  28.790  1.00  0.00     0.251 C 
ATOM     29  H   UNL A   1      32.243  34.854  27.283  1.00  0.00     0.163 HD
ATOM     30  O   UNL A   1      33.316  35.702  29.348  1.00  0.00    -0.269 OA
BRANCH  28  31
ATOM     31  C   UNL A   1      34.698  33.798  29.209  1.00  0.00     0.039 A 
ATOM     32  C   UNL A   1      36.000  34.175  28.882  1.00  0.00     0.014 A 
ATOM     33  C   UNL A   1      34.451  32.673  30.004  1.00  0.00     0.014 A 
ATOM     34  C   UNL A   1      37.068  33.444  29.403  1.00  0.00     0.010 A 
ATOM     35  C   UNL A   1      35.515  32.003  30.589  1.00  0.00     0.010 A 
ATOM     36  C   UNL A   1      36.833  32.375  30.285  1.00  0.00    -0.014 A 
BRANCH  36  37
ATOM     37  C   UNL A   1      37.954  31.613  30.888  1.00  0.00     0.031 A 
ATOM     38  C   UNL A   1      38.397  31.932  32.289  1.00  0.00     0.074 A 
ATOM     39  C   UNL A   1      38.607  30.694  30.153  1.00  0.00     0.049 A 
ATOM     40  N   UNL A   1      39.398  31.442  32.972  1.00  0.00    -0.248 NA
ATOM     41  C   UNL A   1      37.633  32.966  33.000  1.00  0.00     0.031 C 
ATOM     42  C   UNL A   1      38.292  30.345  28.765  1.00  0.00     0.029 A 
ATOM     43  N   UNL A   1      39.677  29.893  30.461  1.00  0.00    -0.354 N 
ATOM     44  C   UNL A   1      39.388  32.114  34.189  1.00  0.00     0.074 A 
ATOM     45  C   UNL A   1      38.333  33.101  34.114  1.00  0.00     0.031 C 
ATOM     46  C   UNL A   1      39.135  29.385  28.351  1.00  0.00     0.029 A 
ATOM     47  C   UNL A   1      40.081  29.088  29.421  1.00  0.00     0.049 A 
ATOM     48  H   UNL A   1      40.113  29.893  31.343  1.00  0.00     0.167 HD
ATOM     49  C   UNL A   1      40.166  31.903  35.279  1.00  0.00     0.034 A 
ATOM     50  C   UNL A   1      41.111  28.223  29.334  1.00  0.00     0.034 A 
ATOM     51  C   UNL A   1      41.214  30.913  35.323  1.00  0.00     0.049 A 
ATOM     52  C   UNL A   1      41.992  28.030  30.543  1.00  0.00     0.074 A 
ATOM     53  C   UNL A   1      42.033  30.572  36.384  1.00  0.00     0.029 A 
ATOM     54  N   UNL A   1      41.597  30.113  34.252  1.00  0.00    -0.354 N 
ATOM     55  N   UNL A   1      41.929  28.624  31.713  1.00  0.00    -0.248 NA
ATOM     56  C   UNL A   1      43.073  27.045  30.425  1.00  0.00     0.031 C 
ATOM     57  C   UNL A   1      42.965  29.631  35.931  1.00  0.00     0.029 A 
ATOM     58  C   UNL A   1      42.669  29.312  34.613  1.00  0.00     0.049 A 
ATOM     59  H   UNL A   1      41.170  30.116  33.365  1.00  0.00     0.167 HD
ATOM     60  C   UNL A   1      42.949  28.066  32.478  1.00  0.00     0.074 A 
ATOM     61  C   UNL A   1      43.597  27.077  31.642  1.00  0.00     0.031 C 
ATOM     62  C   UNL A   1      43.315  28.344  33.757  1.00  0.00     0.034 A 
BRANCH  49  63
ATOM     63  C   UNL A   1      39.923  32.783  36.484  1.00  0.00     0.023 A 
ATOM     64  C   UNL A   1      39.110  32.364  37.553  1.00  0.00     0.031 A 
ATOM     65  C   UNL A   1      40.465  34.079  36.545  1.00  0.00     0.131 A 
ATOM     66  C   UNL A   1      38.784  33.261  38.581  1.00  0.00     0.055 A 
ATOM     67  C   UNL A   1      40.216  34.932  37.621  1.00  0.00     0.041 A 
ATOM     68  F   UNL A   1      41.231  34.548  35.547  1.00  0.00    -0.206 F 
ATOM     69  C   UNL A   1      39.353  34.533  38.638  1.00  0.00     0.022 A 
BRANCH  66  70
ATOM     70  S   UNL A   1      37.462  32.803  39.737  1.00  0.00     0.124 S 
ATOM     71  O   UNL A   1      36.299  32.764  38.854  1.00  0.00    -0.237 OA
ATOM     72  O   UNL A   1      37.921  31.515  40.246  1.00  0.00    -0.237 OA
ATOM     73  O   UNL A   1      37.463  33.894  40.709  1.00  0.00    -0.744 OA
ENDBRANCH  66  70
ENDBRANCH  49  63
BRANCH  50  74
ATOM     74  C   UNL A   1      41.379  27.501  28.058  1.00  0.00     0.023 A 
ATOM     75  C   UNL A   1      41.158  26.120  27.938  1.00  0.00     0.031 A 
ATOM     76  C   UNL A   1      41.881  28.186  26.936  1.00  0.00     0.131 A 
ATOM     77  C   UNL A   1      41.474  25.463  26.737  1.00  0.00     0.055 A 
ATOM     78  C   UNL A   1      42.140  27.539  25.727  1.00  0.00     0.041 A 
ATOM     79  F   UNL A   1      42.108  29.509  26.993  1.00  0.00    -0.206 F 
ATOM     80  C   UNL A   1      41.947  26.165  25.627  1.00  0.00     0.022 A 
BRANCH  77  81
ATOM     81  S   UNL A   1      41.334  23.655  26.673  1.00  0.00     0.124 S 
ATOM     82  O   UNL A   1      41.857  23.270  27.978  1.00  0.00    -0.237 OA
ATOM     83  O   UNL A   1      39.901  23.469  26.473  1.00  0.00    -0.237 OA
ATOM     84  O   UNL A   1      42.173  23.291  25.532  1.00  0.00    -0.744 OA
ENDBRANCH  77  81
ENDBRANCH  50  74
BRANCH  62  85
ATOM     85  C   UNL A   1      44.453  27.537  34.335  1.00  0.00     0.023 A 
ATOM     86  C   UNL A   1      44.242  26.281  34.930  1.00  0.00     0.031 A 
ATOM     87  C   UNL A   1      45.769  28.033  34.285  1.00  0.00     0.131 A 
ATOM     88  C   UNL A   1      45.321  25.588  35.497  1.00  0.00     0.055 A 
ATOM     89  C   UNL A   1      46.847  27.306  34.789  1.00  0.00     0.041 A 
ATOM     90  F   UNL A   1      46.028  29.229  33.733  1.00  0.00    -0.206 F 
ATOM     91  C   UNL A   1      46.626  26.082  35.412  1.00  0.00     0.022 A 
BRANCH  88  92
ATOM     92  S   UNL A   1      44.984  24.074  36.437  1.00  0.00     0.124 S 
ATOM     93  O   UNL A   1      44.632  24.605  37.750  1.00  0.00    -0.237 OA
ATOM     94  O   UNL A   1      43.893  23.471  35.680  1.00  0.00    -0.237 OA
ATOM     95  O   UNL A   1      46.252  23.347  36.383  1.00  0.00    -0.744 OA
ENDBRANCH  88  92
ENDBRANCH  62  85
ENDBRANCH  36  37
ENDBRANCH  28  31
ENDBRANCH  26  27
ENDBRANCH  25  26
ENDBRANCH   1  25
TORSDOF 19
ENDMDL
