MODEL 1
REMARK VINA RESULT:     -12.1      0.000      0.000
REMARK SMILES O=C(NCCCCCCNC(=O)[C@H]1CC=CC[C@@H]1C(=O)Nc1ccccc1C(=O)NCc1ccco1)c1ccc(-c2c3nc(c(-c4cc(S(=O)(=O)[O-])ccc4F)c4ccc([nH]4)c(-c4cc(S(=O)(=O)[O-])ccc4F)c4nc(c(-c5cc(S(=O)(=O)[O-])ccc5F)c5ccc2[nH]5)C=C4)C=C3)cc1
REMARK SMILES IDX 7 1 6 2 5 3 4 4 3 5 1 6 2 7 37 9 38 10 99 11 39 12 98 13
REMARK SMILES IDX 40 14 41 15 42 16 92 17 43 18 97 19 91 20 93 21 44 22 96 23
REMARK SMILES IDX 90 24 89 25 45 27 77 28 57 29 76 30 58 31 61 32 75 33 94 34
REMARK SMILES IDX 59 35 60 36 74 38 95 39 62 40 46 41 47 42 55 43 48 44 54 45
REMARK SMILES IDX 56 46 53 47 49 48 50 49 51 50 52 51 78 52 79 53 87 54 80 55
REMARK SMILES IDX 86 56 88 57 85 58 81 59 82 60 83 61 84 62 63 63 64 64 72 65
REMARK SMILES IDX 65 66 71 67 73 68 70 69 66 70 67 71 68 72 69 73 8 74 9 75
REMARK SMILES IDX 10 76 11 77 12 79 13 80 14 81 18 82 15 83 17 84 16 85 19 86
REMARK SMILES IDX 20 87 21 88 22 90 23 91 27 92 24 93 26 94 25 95 28 96 29 97
REMARK SMILES IDX 30 98 31 100 32 101 33 102 36 103 34 104 35 105
REMARK H PARENT 3 8 93 26 61 37 10 78 21 89 30 99
REMARK Flexibility Score: inf
ROOT
ATOM      1  C   UNL A   1      32.962  29.522  25.890  1.00  0.00     0.002 C 
ENDROOT
BRANCH   1   2
ATOM      2  C   UNL A   1      31.921  30.101  26.859  1.00  0.00     0.002 C 
BRANCH   2   3
ATOM      3  C   UNL A   1      31.826  31.632  26.867  1.00  0.00     0.021 C 
BRANCH   3   4
ATOM      4  C   UNL A   1      33.109  32.314  27.322  1.00  0.00     0.116 C 
BRANCH   4   5
ATOM      5  N   UNL A   1      32.864  33.722  27.585  1.00  0.00    -0.352 N 
ATOM      6  O   UNL A   1      32.692  35.493  28.969  1.00  0.00    -0.269 OA
ATOM      7  C   UNL A   1      33.280  34.455  28.660  1.00  0.00     0.251 C 
ATOM      8  H   UNL A   1      32.337  34.204  26.908  1.00  0.00     0.163 HD
BRANCH   7   9
ATOM      9  C   UNL A   1      34.459  34.001  29.416  1.00  0.00     0.039 A 
ATOM     10  C   UNL A   1      34.282  33.185  30.540  1.00  0.00     0.014 A 
ATOM     11  C   UNL A   1      35.740  34.339  28.977  1.00  0.00     0.014 A 
ATOM     12  C   UNL A   1      35.381  32.768  31.270  1.00  0.00     0.010 A 
ATOM     13  C   UNL A   1      36.850  33.846  29.665  1.00  0.00     0.010 A 
ATOM     14  C   UNL A   1      36.675  33.050  30.808  1.00  0.00    -0.014 A 
BRANCH  14  15
ATOM     15  C   UNL A   1      37.825  32.378  31.452  1.00  0.00     0.031 A 
ATOM     16  C   UNL A   1      38.557  31.269  30.761  1.00  0.00     0.074 A 
ATOM     17  C   UNL A   1      38.181  32.789  32.685  1.00  0.00     0.049 A 
ATOM     18  N   UNL A   1      39.548  30.542  31.204  1.00  0.00    -0.248 NA
ATOM     19  C   UNL A   1      38.117  30.926  29.401  1.00  0.00     0.031 C 
ATOM     20  C   UNL A   1      37.518  33.863  33.436  1.00  0.00     0.029 A 
ATOM     21  N   UNL A   1      39.175  32.367  33.527  1.00  0.00    -0.354 N 
ATOM     22  C   UNL A   1      39.839  29.637  30.191  1.00  0.00     0.074 A 
ATOM     23  C   UNL A   1      38.905  29.898  29.115  1.00  0.00     0.031 C 
ATOM     24  C   UNL A   1      38.140  34.030  34.610  1.00  0.00     0.029 A 
ATOM     25  C   UNL A   1      39.187  33.026  34.735  1.00  0.00     0.049 A 
ATOM     26  H   UNL A   1      39.819  31.660  33.291  1.00  0.00     0.167 HD
ATOM     27  C   UNL A   1      40.799  28.680  30.174  1.00  0.00     0.034 A 
ATOM     28  C   UNL A   1      39.928  32.815  35.839  1.00  0.00     0.034 A 
ATOM     29  C   UNL A   1      41.715  28.452  31.267  1.00  0.00     0.049 A 
ATOM     30  C   UNL A   1      40.946  31.709  35.807  1.00  0.00     0.074 A 
ATOM     31  C   UNL A   1      42.766  27.555  31.336  1.00  0.00     0.029 A 
ATOM     32  N   UNL A   1      41.675  29.110  32.491  1.00  0.00    -0.354 N 
ATOM     33  N   UNL A   1      41.240  30.890  34.823  1.00  0.00    -0.248 NA
ATOM     34  C   UNL A   1      41.727  31.494  37.029  1.00  0.00     0.031 C 
ATOM     35  C   UNL A   1      43.309  27.613  32.624  1.00  0.00     0.029 A 
ATOM     36  C   UNL A   1      42.650  28.604  33.337  1.00  0.00     0.049 A 
ATOM     37  H   UNL A   1      41.046  29.830  32.724  1.00  0.00     0.167 HD
ATOM     38  C   UNL A   1      42.255  30.071  35.306  1.00  0.00     0.074 A 
ATOM     39  C   UNL A   1      42.536  30.513  36.657  1.00  0.00     0.031 C 
ATOM     40  C   UNL A   1      42.897  29.047  34.690  1.00  0.00     0.034 A 
BRANCH  27  41
ATOM     41  C   UNL A   1      40.871  27.775  28.970  1.00  0.00     0.023 A 
ATOM     42  C   UNL A   1      41.871  27.908  27.991  1.00  0.00     0.031 A 
ATOM     43  C   UNL A   1      39.918  26.753  28.802  1.00  0.00     0.131 A 
ATOM     44  C   UNL A   1      41.866  27.068  26.865  1.00  0.00     0.055 A 
ATOM     45  C   UNL A   1      39.959  25.877  27.716  1.00  0.00     0.041 A 
ATOM     46  F   UNL A   1      38.925  26.593  29.691  1.00  0.00    -0.206 F 
ATOM     47  C   UNL A   1      40.930  26.038  26.734  1.00  0.00     0.022 A 
BRANCH  44  48
ATOM     48  S   UNL A   1      43.027  27.414  25.515  1.00  0.00     0.124 S 
ATOM     49  O   UNL A   1      44.119  28.078  26.225  1.00  0.00    -0.237 OA
ATOM     50  O   UNL A   1      43.318  26.082  24.999  1.00  0.00    -0.237 OA
ATOM     51  O   UNL A   1      42.264  28.279  24.618  1.00  0.00    -0.744 OA
ENDBRANCH  44  48
ENDBRANCH  27  41
BRANCH  28  52
ATOM     52  C   UNL A   1      39.689  33.618  37.071  1.00  0.00     0.023 A 
ATOM     53  C   UNL A   1      40.447  34.764  37.350  1.00  0.00     0.031 A 
ATOM     54  C   UNL A   1      38.716  33.227  38.011  1.00  0.00     0.131 A 
ATOM     55  C   UNL A   1      40.253  35.454  38.557  1.00  0.00     0.055 A 
ATOM     56  C   UNL A   1      38.483  33.952  39.181  1.00  0.00     0.041 A 
ATOM     57  F   UNL A   1      37.960  32.139  37.796  1.00  0.00    -0.206 F 
ATOM     58  C   UNL A   1      39.266  35.065  39.466  1.00  0.00     0.022 A 
BRANCH  55  59
ATOM     59  S   UNL A   1      41.384  36.810  38.969  1.00  0.00     0.124 S 
ATOM     60  O   UNL A   1      42.192  36.902  37.758  1.00  0.00    -0.237 OA
ATOM     61  O   UNL A   1      40.459  37.912  39.209  1.00  0.00    -0.237 OA
ATOM     62  O   UNL A   1      42.087  36.317  40.152  1.00  0.00    -0.744 OA
ENDBRANCH  55  59
ENDBRANCH  28  52
BRANCH  40  63
ATOM     63  C   UNL A   1      43.984  28.361  35.476  1.00  0.00     0.023 A 
ATOM     64  C   UNL A   1      45.320  28.793  35.412  1.00  0.00     0.031 A 
ATOM     65  C   UNL A   1      43.680  27.256  36.290  1.00  0.00     0.131 A 
ATOM     66  C   UNL A   1      46.312  28.091  36.112  1.00  0.00     0.055 A 
ATOM     67  C   UNL A   1      44.662  26.601  37.031  1.00  0.00     0.041 A 
ATOM     68  F   UNL A   1      42.420  26.801  36.381  1.00  0.00    -0.206 F 
ATOM     69  C   UNL A   1      45.989  27.010  36.936  1.00  0.00     0.022 A 
BRANCH  66  70
ATOM     70  S   UNL A   1      48.047  28.563  35.870  1.00  0.00     0.124 S 
ATOM     71  O   UNL A   1      48.585  27.395  35.181  1.00  0.00    -0.237 OA
ATOM     72  O   UNL A   1      47.932  29.778  35.071  1.00  0.00    -0.237 OA
ATOM     73  O   UNL A   1      48.540  28.763  37.232  1.00  0.00    -0.744 OA
ENDBRANCH  66  70
ENDBRANCH  40  63
ENDBRANCH  14  15
ENDBRANCH   7   9
ENDBRANCH   4   5
ENDBRANCH   3   4
ENDBRANCH   2   3
ENDBRANCH   1   2
BRANCH   1  74
ATOM     74  C   UNL A   1      32.386  28.724  24.719  1.00  0.00     0.021 C 
BRANCH  74  75
ATOM     75  C   UNL A   1      33.135  28.956  23.417  1.00  0.00     0.116 C 
BRANCH  75  76
ATOM     76  N   UNL A   1      32.272  29.296  22.317  1.00  0.00    -0.356 N 
ATOM     77  C   UNL A   1      30.952  29.562  22.237  1.00  0.00     0.224 C 
ATOM     78  H   UNL A   1      32.737  29.345  21.451  1.00  0.00     0.163 HD
ATOM     79  O   UNL A   1      30.557  29.968  21.136  1.00  0.00    -0.275 OA
BRANCH  77  80
ATOM     80  C   UNL A   1      29.924  29.279  23.340  1.00  0.00     0.095 C 
ATOM     81  C   UNL A   1      29.534  30.650  23.937  1.00  0.00     0.041 C 
ATOM     82  C   UNL A   1      28.813  28.254  23.061  1.00  0.00     0.095 C 
ATOM     83  C   UNL A   1      28.123  31.082  23.764  1.00  0.00    -0.030 C 
ATOM     84  C   UNL A   1      27.391  28.876  22.860  1.00  0.00     0.041 C 
ATOM     85  C   UNL A   1      27.174  30.293  23.267  1.00  0.00    -0.030 C 
BRANCH  82  86
ATOM     86  C   UNL A   1      28.610  26.930  23.823  1.00  0.00     0.228 C 
ATOM     87  O   UNL A   1      27.453  26.628  24.173  1.00  0.00    -0.274 OA
ATOM     88  N   UNL A   1      29.442  25.890  24.004  1.00  0.00    -0.325 N 
ATOM     89  H   UNL A   1      28.939  25.102  24.313  1.00  0.00     0.169 HD
BRANCH  88  90
ATOM     90  C   UNL A   1      30.796  25.581  23.890  1.00  0.00     0.054 A 
ATOM     91  C   UNL A   1      31.209  25.520  22.538  1.00  0.00     0.027 A 
ATOM     92  C   UNL A   1      31.734  25.307  24.891  1.00  0.00     0.063 A 
ATOM     93  C   UNL A   1      32.548  25.404  22.179  1.00  0.00     0.002 A 
ATOM     94  C   UNL A   1      33.099  25.268  24.508  1.00  0.00     0.016 A 
ATOM     95  C   UNL A   1      33.505  25.338  23.174  1.00  0.00     0.001 A 
BRANCH  92  96
ATOM     96  C   UNL A   1      31.516  24.992  26.340  1.00  0.00     0.253 C 
ATOM     97  O   UNL A   1      31.774  25.868  27.174  1.00  0.00    -0.269 OA
ATOM     98  N   UNL A   1      31.080  23.802  26.851  1.00  0.00    -0.345 N 
ATOM     99  H   UNL A   1      30.985  23.813  27.830  1.00  0.00     0.164 HD
BRANCH  98 100
ATOM    100  C   UNL A   1      30.729  22.531  26.261  1.00  0.00     0.191 C 
BRANCH 100 101
ATOM    101  C   UNL A   1      31.864  22.012  25.467  1.00  0.00     0.122 A 
ATOM    102  C   UNL A   1      33.114  21.528  25.787  1.00  0.00     0.047 A 
ATOM    103  O   UNL A   1      31.697  22.008  24.113  1.00  0.00    -0.467 OA
ATOM    104  C   UNL A   1      33.750  21.227  24.558  1.00  0.00     0.042 A 
ATOM    105  C   UNL A   1      32.846  21.538  23.569  1.00  0.00     0.195 A 
ENDBRANCH 100 101
ENDBRANCH  98 100
ENDBRANCH  92  96
ENDBRANCH  88  90
ENDBRANCH  82  86
ENDBRANCH  77  80
ENDBRANCH  75  76
ENDBRANCH  74  75
ENDBRANCH   1  74
TORSDOF 21
ENDMDL
MODEL 2
REMARK VINA RESULT:     -12.0      5.476     10.821
REMARK SMILES O=C(NCCCCCCNC(=O)[C@H]1CC=CC[C@@H]1C(=O)Nc1ccccc1C(=O)NCc1ccco1)c1ccc(-c2c3nc(c(-c4cc(S(=O)(=O)[O-])ccc4F)c4ccc([nH]4)c(-c4cc(S(=O)(=O)[O-])ccc4F)c4nc(c(-c5cc(S(=O)(=O)[O-])ccc5F)c5ccc2[nH]5)C=C4)C=C3)cc1
REMARK SMILES IDX 7 1 6 2 5 3 4 4 3 5 1 6 2 7 37 9 38 10 99 11 39 12 98 13
REMARK SMILES IDX 40 14 41 15 42 16 92 17 43 18 97 19 91 20 93 21 44 22 96 23
REMARK SMILES IDX 90 24 89 25 45 27 77 28 57 29 76 30 58 31 61 32 75 33 94 34
REMARK SMILES IDX 59 35 60 36 74 38 95 39 62 40 46 41 47 42 55 43 48 44 54 45
REMARK SMILES IDX 56 46 53 47 49 48 50 49 51 50 52 51 78 52 79 53 87 54 80 55
REMARK SMILES IDX 86 56 88 57 85 58 81 59 82 60 83 61 84 62 63 63 64 64 72 65
REMARK SMILES IDX 65 66 71 67 73 68 70 69 66 70 67 71 68 72 69 73 8 74 9 75
REMARK SMILES IDX 10 76 11 77 12 79 13 80 14 81 18 82 15 83 17 84 16 85 19 86
REMARK SMILES IDX 20 87 21 88 22 90 23 91 27 92 24 93 26 94 25 95 28 96 29 97
REMARK SMILES IDX 30 98 31 100 32 101 33 102 36 103 34 104 35 105
REMARK H PARENT 3 8 93 26 61 37 10 78 21 89 30 99
REMARK Flexibility Score: inf
ROOT
ATOM      1  C   UNL A   1      36.772  21.423  23.996  1.00  0.00     0.002 C 
ENDROOT
BRANCH   1   2
ATOM      2  C   UNL A   1      36.879  20.199  24.918  1.00  0.00     0.002 C 
BRANCH   2   3
ATOM      3  C   UNL A   1      38.259  19.532  24.950  1.00  0.00     0.021 C 
BRANCH   3   4
ATOM      4  C   UNL A   1      39.137  20.014  26.096  1.00  0.00     0.116 C 
BRANCH   4   5
ATOM      5  N   UNL A   1      40.392  19.282  26.110  1.00  0.00    -0.352 N 
ATOM      6  O   UNL A   1      42.590  19.079  25.646  1.00  0.00    -0.269 OA
ATOM      7  C   UNL A   1      41.657  19.792  26.022  1.00  0.00     0.251 C 
ATOM      8  H   UNL A   1      40.323  18.303  26.195  1.00  0.00     0.163 HD
BRANCH   7   9
ATOM      9  C   UNL A   1      41.888  21.192  26.414  1.00  0.00     0.039 A 
ATOM     10  C   UNL A   1      42.300  21.481  27.720  1.00  0.00     0.014 A 
ATOM     11  C   UNL A   1      41.750  22.211  25.470  1.00  0.00     0.014 A 
ATOM     12  C   UNL A   1      42.501  22.795  28.107  1.00  0.00     0.010 A 
ATOM     13  C   UNL A   1      42.037  23.526  25.838  1.00  0.00     0.010 A 
ATOM     14  C   UNL A   1      42.424  23.821  27.155  1.00  0.00    -0.014 A 
BRANCH  14  15
ATOM     15  C   UNL A   1      42.896  25.175  27.524  1.00  0.00     0.031 A 
ATOM     16  C   UNL A   1      42.002  26.133  28.248  1.00  0.00     0.074 A 
ATOM     17  C   UNL A   1      44.151  25.517  27.173  1.00  0.00     0.049 A 
ATOM     18  N   UNL A   1      42.240  27.370  28.597  1.00  0.00    -0.248 NA
ATOM     19  C   UNL A   1      40.666  25.646  28.622  1.00  0.00     0.031 C 
ATOM     20  C   UNL A   1      45.092  24.644  26.460  1.00  0.00     0.029 A 
ATOM     21  N   UNL A   1      44.858  26.675  27.361  1.00  0.00    -0.354 N 
ATOM     22  C   UNL A   1      41.079  27.821  29.212  1.00  0.00     0.074 A 
ATOM     23  C   UNL A   1      40.131  26.728  29.172  1.00  0.00     0.031 C 
ATOM     24  C   UNL A   1      46.255  25.287  26.297  1.00  0.00     0.029 A 
ATOM     25  C   UNL A   1      46.120  26.642  26.813  1.00  0.00     0.049 A 
ATOM     26  H   UNL A   1      44.498  27.456  27.841  1.00  0.00     0.167 HD
ATOM     27  C   UNL A   1      40.839  29.041  29.754  1.00  0.00     0.034 A 
ATOM     28  C   UNL A   1      47.049  27.610  26.697  1.00  0.00     0.034 A 
ATOM     29  C   UNL A   1      41.813  30.107  29.777  1.00  0.00     0.049 A 
ATOM     30  C   UNL A   1      46.730  28.967  27.259  1.00  0.00     0.074 A 
ATOM     31  C   UNL A   1      41.704  31.360  30.354  1.00  0.00     0.029 A 
ATOM     32  N   UNL A   1      43.068  30.054  29.180  1.00  0.00    -0.354 N 
ATOM     33  N   UNL A   1      45.643  29.366  27.880  1.00  0.00    -0.248 NA
ATOM     34  C   UNL A   1      47.756  30.004  27.106  1.00  0.00     0.031 C 
ATOM     35  C   UNL A   1      42.855  32.090  30.038  1.00  0.00     0.029 A 
ATOM     36  C   UNL A   1      43.720  31.268  29.331  1.00  0.00     0.049 A 
ATOM     37  H   UNL A   1      43.439  29.270  28.716  1.00  0.00     0.167 HD
ATOM     38  C   UNL A   1      45.863  30.700  28.203  1.00  0.00     0.074 A 
ATOM     39  C   UNL A   1      47.194  31.027  27.733  1.00  0.00     0.031 C 
ATOM     40  C   UNL A   1      45.040  31.577  28.833  1.00  0.00     0.034 A 
BRANCH  27  41
ATOM     41  C   UNL A   1      39.463  29.307  30.310  1.00  0.00     0.023 A 
ATOM     42  C   UNL A   1      38.492  30.028  29.592  1.00  0.00     0.031 A 
ATOM     43  C   UNL A   1      39.114  28.823  31.585  1.00  0.00     0.131 A 
ATOM     44  C   UNL A   1      37.241  30.287  30.175  1.00  0.00     0.055 A 
ATOM     45  C   UNL A   1      37.845  29.024  32.129  1.00  0.00     0.041 A 
ATOM     46  F   UNL A   1      40.007  28.148  32.326  1.00  0.00    -0.206 F 
ATOM     47  C   UNL A   1      36.902  29.770  31.428  1.00  0.00     0.022 A 
BRANCH  44  48
ATOM     48  S   UNL A   1      36.100  31.410  29.321  1.00  0.00     0.124 S 
ATOM     49  O   UNL A   1      35.379  30.491  28.443  1.00  0.00    -0.237 OA
ATOM     50  O   UNL A   1      35.331  31.977  30.423  1.00  0.00    -0.237 OA
ATOM     51  O   UNL A   1      36.988  32.346  28.633  1.00  0.00    -0.744 OA
ENDBRANCH  44  48
ENDBRANCH  27  41
BRANCH  28  52
ATOM     52  C   UNL A   1      48.324  27.347  25.972  1.00  0.00     0.023 A 
ATOM     53  C   UNL A   1      48.420  27.521  24.584  1.00  0.00     0.031 A 
ATOM     54  C   UNL A   1      49.462  26.881  26.658  1.00  0.00     0.131 A 
ATOM     55  C   UNL A   1      49.611  27.188  23.919  1.00  0.00     0.055 A 
ATOM     56  C   UNL A   1      50.663  26.612  26.001  1.00  0.00     0.041 A 
ATOM     57  F   UNL A   1      49.428  26.697  27.988  1.00  0.00    -0.206 F 
ATOM     58  C   UNL A   1      50.737  26.751  24.620  1.00  0.00     0.022 A 
BRANCH  55  59
ATOM     59  S   UNL A   1      49.631  27.239  22.107  1.00  0.00     0.124 S 
ATOM     60  O   UNL A   1      50.999  26.827  21.813  1.00  0.00    -0.237 OA
ATOM     61  O   UNL A   1      48.584  26.282  21.767  1.00  0.00    -0.237 OA
ATOM     62  O   UNL A   1      49.322  28.635  21.804  1.00  0.00    -0.744 OA
ENDBRANCH  55  59
ENDBRANCH  28  52
BRANCH  40  63
ATOM     63  C   UNL A   1      45.582  32.963  29.066  1.00  0.00     0.023 A 
ATOM     64  C   UNL A   1      45.477  33.967  28.087  1.00  0.00     0.031 A 
ATOM     65  C   UNL A   1      46.221  33.280  30.278  1.00  0.00     0.131 A 
ATOM     66  C   UNL A   1      46.047  35.227  28.319  1.00  0.00     0.055 A 
ATOM     67  C   UNL A   1      46.732  34.553  30.525  1.00  0.00     0.041 A 
ATOM     68  F   UNL A   1      46.352  32.355  31.242  1.00  0.00    -0.206 F 
ATOM     69  C   UNL A   1      46.657  35.532  29.539  1.00  0.00     0.022 A 
BRANCH  66  70
ATOM     70  S   UNL A   1      46.050  36.442  26.972  1.00  0.00     0.124 S 
ATOM     71  O   UNL A   1      46.279  35.598  25.804  1.00  0.00    -0.237 OA
ATOM     72  O   UNL A   1      44.721  37.033  27.081  1.00  0.00    -0.237 OA
ATOM     73  O   UNL A   1      47.155  37.334  27.319  1.00  0.00    -0.744 OA
ENDBRANCH  66  70
ENDBRANCH  40  63
ENDBRANCH  14  15
ENDBRANCH   7   9
ENDBRANCH   4   5
ENDBRANCH   3   4
ENDBRANCH   2   3
ENDBRANCH   1   2
BRANCH   1  74
ATOM     74  C   UNL A   1      37.062  22.768  24.666  1.00  0.00     0.021 C 
BRANCH  74  75
ATOM     75  C   UNL A   1      35.857  23.695  24.683  1.00  0.00     0.116 C 
BRANCH  75  76
ATOM     76  N   UNL A   1      34.928  23.439  23.615  1.00  0.00    -0.356 N 
ATOM     77  C   UNL A   1      33.608  23.162  23.597  1.00  0.00     0.224 C 
ATOM     78  H   UNL A   1      35.336  23.471  22.720  1.00  0.00     0.163 HD
ATOM     79  O   UNL A   1      33.084  23.142  22.474  1.00  0.00    -0.275 OA
BRANCH  77  80
ATOM     80  C   UNL A   1      32.771  22.758  24.817  1.00  0.00     0.095 C 
ATOM     81  C   UNL A   1      32.991  21.242  25.018  1.00  0.00     0.041 C 
ATOM     82  C   UNL A   1      32.787  23.675  26.052  1.00  0.00     0.095 C 
ATOM     83  C   UNL A   1      33.666  20.820  26.271  1.00  0.00    -0.030 C 
ATOM     84  C   UNL A   1      33.577  23.101  27.275  1.00  0.00     0.041 C 
ATOM     85  C   UNL A   1      33.941  21.656  27.270  1.00  0.00    -0.030 C 
BRANCH  82  86
ATOM     86  C   UNL A   1      31.566  24.418  26.627  1.00  0.00     0.228 C 
ATOM     87  O   UNL A   1      30.693  23.747  27.209  1.00  0.00    -0.274 OA
ATOM     88  N   UNL A   1      31.355  25.732  26.819  1.00  0.00    -0.325 N 
ATOM     89  H   UNL A   1      30.594  25.867  27.429  1.00  0.00     0.169 HD
BRANCH  88  90
ATOM     90  C   UNL A   1      31.878  26.961  26.422  1.00  0.00     0.054 A 
ATOM     91  C   UNL A   1      31.663  27.962  27.398  1.00  0.00     0.027 A 
ATOM     92  C   UNL A   1      32.524  27.311  25.231  1.00  0.00     0.063 A 
ATOM     93  C   UNL A   1      32.249  29.221  27.305  1.00  0.00     0.002 A 
ATOM     94  C   UNL A   1      33.176  28.570  25.193  1.00  0.00     0.016 A 
ATOM     95  C   UNL A   1      33.060  29.505  26.223  1.00  0.00     0.001 A 
BRANCH  92  96
ATOM     96  C   UNL A   1      32.600  26.565  23.934  1.00  0.00     0.253 C 
ATOM     97  O   UNL A   1      33.705  26.444  23.393  1.00  0.00    -0.269 OA
ATOM     98  N   UNL A   1      31.549  26.017  23.255  1.00  0.00    -0.345 N 
ATOM     99  H   UNL A   1      31.820  25.551  22.432  1.00  0.00     0.164 HD
BRANCH  98 100
ATOM    100  C   UNL A   1      30.123  25.974  23.487  1.00  0.00     0.191 C 
BRANCH 100 101
ATOM    101  C   UNL A   1      29.523  27.291  23.181  1.00  0.00     0.122 A 
ATOM    102  C   UNL A   1      28.263  27.828  23.334  1.00  0.00     0.047 A 
ATOM    103  O   UNL A   1      30.351  28.207  22.599  1.00  0.00    -0.467 OA
ATOM    104  C   UNL A   1      28.322  29.139  22.802  1.00  0.00     0.042 A 
ATOM    105  C   UNL A   1      29.614  29.321  22.366  1.00  0.00     0.195 A 
ENDBRANCH 100 101
ENDBRANCH  98 100
ENDBRANCH  92  96
ENDBRANCH  88  90
ENDBRANCH  82  86
ENDBRANCH  77  80
ENDBRANCH  75  76
ENDBRANCH  74  75
ENDBRANCH   1  74
TORSDOF 21
ENDMDL
MODEL 3
REMARK VINA RESULT:     -12.0      2.370      7.864
REMARK SMILES O=C(NCCCCCCNC(=O)[C@H]1CC=CC[C@@H]1C(=O)Nc1ccccc1C(=O)NCc1ccco1)c1ccc(-c2c3nc(c(-c4cc(S(=O)(=O)[O-])ccc4F)c4ccc([nH]4)c(-c4cc(S(=O)(=O)[O-])ccc4F)c4nc(c(-c5cc(S(=O)(=O)[O-])ccc5F)c5ccc2[nH]5)C=C4)C=C3)cc1
REMARK SMILES IDX 7 1 6 2 5 3 4 4 3 5 1 6 2 7 37 9 38 10 99 11 39 12 98 13
REMARK SMILES IDX 40 14 41 15 42 16 92 17 43 18 97 19 91 20 93 21 44 22 96 23
REMARK SMILES IDX 90 24 89 25 45 27 77 28 57 29 76 30 58 31 61 32 75 33 94 34
REMARK SMILES IDX 59 35 60 36 74 38 95 39 62 40 46 41 47 42 55 43 48 44 54 45
REMARK SMILES IDX 56 46 53 47 49 48 50 49 51 50 52 51 78 52 79 53 87 54 80 55
REMARK SMILES IDX 86 56 88 57 85 58 81 59 82 60 83 61 84 62 63 63 64 64 72 65
REMARK SMILES IDX 65 66 71 67 73 68 70 69 66 70 67 71 68 72 69 73 8 74 9 75
REMARK SMILES IDX 10 76 11 77 12 79 13 80 14 81 18 82 15 83 17 84 16 85 19 86
REMARK SMILES IDX 20 87 21 88 22 90 23 91 27 92 24 93 26 94 25 95 28 96 29 97
REMARK SMILES IDX 30 98 31 100 32 101 33 102 36 103 34 104 35 105
REMARK H PARENT 3 8 93 26 61 37 10 78 21 89 30 99
REMARK Flexibility Score: inf
ROOT
ATOM      1  C   UNL A   1      33.896  31.340  27.844  1.00  0.00     0.002 C 
ENDROOT
BRANCH   1   2
ATOM      2  C   UNL A   1      34.475  32.757  27.967  1.00  0.00     0.002 C 
BRANCH   2   3
ATOM      3  C   UNL A   1      33.433  33.881  28.009  1.00  0.00     0.021 C 
BRANCH   3   4
ATOM      4  C   UNL A   1      34.012  35.227  28.421  1.00  0.00     0.116 C 
BRANCH   4   5
ATOM      5  N   UNL A   1      33.404  35.677  29.662  1.00  0.00    -0.352 N 
ATOM      6  O   UNL A   1      32.629  35.320  31.749  1.00  0.00    -0.269 OA
ATOM      7  C   UNL A   1      33.485  35.089  30.893  1.00  0.00     0.251 C 
ATOM      8  H   UNL A   1      32.872  36.504  29.609  1.00  0.00     0.163 HD
BRANCH   7   9
ATOM      9  C   UNL A   1      34.626  34.205  31.185  1.00  0.00     0.039 A 
ATOM     10  C   UNL A   1      35.928  34.667  30.957  1.00  0.00     0.014 A 
ATOM     11  C   UNL A   1      34.405  32.943  31.736  1.00  0.00     0.014 A 
ATOM     12  C   UNL A   1      37.008  33.838  31.210  1.00  0.00     0.010 A 
ATOM     13  C   UNL A   1      35.498  32.142  32.070  1.00  0.00     0.010 A 
ATOM     14  C   UNL A   1      36.805  32.592  31.818  1.00  0.00    -0.014 A 
BRANCH  14  15
ATOM     15  C   UNL A   1      37.978  31.840  32.316  1.00  0.00     0.031 A 
ATOM     16  C   UNL A   1      38.611  32.179  33.630  1.00  0.00     0.074 A 
ATOM     17  C   UNL A   1      38.463  30.851  31.540  1.00  0.00     0.049 A 
ATOM     18  N   UNL A   1      39.672  31.657  34.185  1.00  0.00    -0.248 NA
ATOM     19  C   UNL A   1      37.979  33.246  34.419  1.00  0.00     0.031 C 
ATOM     20  C   UNL A   1      37.908  30.455  30.239  1.00  0.00     0.029 A 
ATOM     21  N   UNL A   1      39.521  29.999  31.717  1.00  0.00    -0.354 N 
ATOM     22  C   UNL A   1      39.853  32.344  35.379  1.00  0.00     0.074 A 
ATOM     23  C   UNL A   1      38.799  33.334  35.457  1.00  0.00     0.031 C 
ATOM     24  C   UNL A   1      38.613  29.425  29.753  1.00  0.00     0.029 A 
ATOM     25  C   UNL A   1      39.717  29.141  30.660  1.00  0.00     0.049 A 
ATOM     26  H   UNL A   1      40.086  30.000  32.523  1.00  0.00     0.167 HD
ATOM     27  C   UNL A   1      40.817  32.157  36.315  1.00  0.00     0.034 A 
ATOM     28  C   UNL A   1      40.702  28.255  30.423  1.00  0.00     0.034 A 
ATOM     29  C   UNL A   1      41.852  31.156  36.202  1.00  0.00     0.049 A 
ATOM     30  C   UNL A   1      41.787  28.111  31.455  1.00  0.00     0.074 A 
ATOM     31  C   UNL A   1      42.841  30.834  37.115  1.00  0.00     0.029 A 
ATOM     32  N   UNL A   1      42.045  30.329  35.101  1.00  0.00    -0.354 N 
ATOM     33  N   UNL A   1      41.919  28.737  32.602  1.00  0.00    -0.248 NA
ATOM     34  C   UNL A   1      42.854  27.148  31.163  1.00  0.00     0.031 C 
ATOM     35  C   UNL A   1      43.677  29.874  36.535  1.00  0.00     0.029 A 
ATOM     36  C   UNL A   1      43.166  29.535  35.292  1.00  0.00     0.049 A 
ATOM     37  H   UNL A   1      41.471  30.311  34.302  1.00  0.00     0.167 HD
ATOM     38  C   UNL A   1      43.080  28.230  33.175  1.00  0.00     0.074 A 
ATOM     39  C   UNL A   1      43.593  27.231  32.260  1.00  0.00     0.031 C 
ATOM     40  C   UNL A   1      43.670  28.560  34.352  1.00  0.00     0.034 A 
BRANCH  27  41
ATOM     41  C   UNL A   1      40.834  33.084  37.504  1.00  0.00     0.023 A 
ATOM     42  C   UNL A   1      40.210  32.756  38.719  1.00  0.00     0.031 A 
ATOM     43  C   UNL A   1      41.496  34.324  37.418  1.00  0.00     0.131 A 
ATOM     44  C   UNL A   1      40.216  33.675  39.781  1.00  0.00     0.055 A 
ATOM     45  C   UNL A   1      41.559  35.203  38.500  1.00  0.00     0.041 A 
ATOM     46  F   UNL A   1      42.091  34.702  36.276  1.00  0.00    -0.206 F 
ATOM     47  C   UNL A   1      40.907  34.886  39.688  1.00  0.00     0.022 A 
BRANCH  44  48
ATOM     48  S   UNL A   1      39.210  33.318  41.248  1.00  0.00     0.124 S 
ATOM     49  O   UNL A   1      40.160  33.572  42.329  1.00  0.00    -0.237 OA
ATOM     50  O   UNL A   1      38.116  34.273  41.121  1.00  0.00    -0.237 OA
ATOM     51  O   UNL A   1      38.838  31.915  41.076  1.00  0.00    -0.744 OA
ENDBRANCH  44  48
ENDBRANCH  27  41
BRANCH  28  52
ATOM     52  C   UNL A   1      40.740  27.494  29.143  1.00  0.00     0.023 A 
ATOM     53  C   UNL A   1      41.637  27.835  28.121  1.00  0.00     0.031 A 
ATOM     54  C   UNL A   1      39.848  26.430  28.908  1.00  0.00     0.131 A 
ATOM     55  C   UNL A   1      41.594  27.151  26.896  1.00  0.00     0.055 A 
ATOM     56  C   UNL A   1      39.851  25.711  27.712  1.00  0.00     0.041 A 
ATOM     57  F   UNL A   1      38.968  26.059  29.852  1.00  0.00    -0.206 F 
ATOM     58  C   UNL A   1      40.719  26.082  26.691  1.00  0.00     0.022 A 
BRANCH  55  59
ATOM     59  S   UNL A   1      42.632  27.749  25.535  1.00  0.00     0.124 S 
ATOM     60  O   UNL A   1      42.615  26.610  24.624  1.00  0.00    -0.237 OA
ATOM     61  O   UNL A   1      41.902  28.933  25.097  1.00  0.00    -0.237 OA
ATOM     62  O   UNL A   1      43.917  28.013  26.179  1.00  0.00    -0.744 OA
ENDBRANCH  55  59
ENDBRANCH  28  52
BRANCH  40  63
ATOM     63  C   UNL A   1      44.922  27.804  34.715  1.00  0.00     0.023 A 
ATOM     64  C   UNL A   1      44.867  26.578  35.400  1.00  0.00     0.031 A 
ATOM     65  C   UNL A   1      46.185  28.323  34.380  1.00  0.00     0.131 A 
ATOM     66  C   UNL A   1      46.056  25.934  35.772  1.00  0.00     0.055 A 
ATOM     67  C   UNL A   1      47.362  27.648  34.699  1.00  0.00     0.041 A 
ATOM     68  F   UNL A   1      46.292  29.493  33.730  1.00  0.00    -0.206 F 
ATOM     69  C   UNL A   1      47.302  26.452  35.409  1.00  0.00     0.022 A 
BRANCH  66  70
ATOM     70  S   UNL A   1      45.954  24.449  36.807  1.00  0.00     0.124 S 
ATOM     71  O   UNL A   1      46.641  24.877  38.020  1.00  0.00    -0.237 OA
ATOM     72  O   UNL A   1      44.514  24.248  36.925  1.00  0.00    -0.237 OA
ATOM     73  O   UNL A   1      46.657  23.436  36.020  1.00  0.00    -0.744 OA
ENDBRANCH  66  70
ENDBRANCH  40  63
ENDBRANCH  14  15
ENDBRANCH   7   9
ENDBRANCH   4   5
ENDBRANCH   3   4
ENDBRANCH   2   3
ENDBRANCH   1   2
BRANCH   1  74
ATOM     74  C   UNL A   1      34.926  30.211  27.902  1.00  0.00     0.021 C 
BRANCH  74  75
ATOM     75  C   UNL A   1      34.484  28.964  27.153  1.00  0.00     0.116 C 
BRANCH  75  76
ATOM     76  N   UNL A   1      34.292  29.185  25.745  1.00  0.00    -0.356 N 
ATOM     77  C   UNL A   1      33.310  28.837  24.888  1.00  0.00     0.224 C 
ATOM     78  H   UNL A   1      35.023  29.690  25.322  1.00  0.00     0.163 HD
ATOM     79  O   UNL A   1      33.396  29.325  23.753  1.00  0.00    -0.275 OA
BRANCH  77  80
ATOM     80  C   UNL A   1      32.207  27.811  25.177  1.00  0.00     0.095 C 
ATOM     81  C   UNL A   1      30.895  28.411  24.623  1.00  0.00     0.041 C 
ATOM     82  C   UNL A   1      32.504  26.325  24.920  1.00  0.00     0.095 C 
ATOM     83  C   UNL A   1      30.245  27.687  23.501  1.00  0.00    -0.030 C 
ATOM     84  C   UNL A   1      31.773  25.723  23.673  1.00  0.00     0.041 C 
ATOM     85  C   UNL A   1      30.650  26.495  23.069  1.00  0.00    -0.030 C 
BRANCH  82  86
ATOM     86  C   UNL A   1      32.522  25.220  25.993  1.00  0.00     0.228 C 
ATOM     87  O   UNL A   1      31.632  25.235  26.865  1.00  0.00    -0.274 OA
ATOM     88  N   UNL A   1      33.214  24.069  26.050  1.00  0.00    -0.325 N 
ATOM     89  H   UNL A   1      32.823  23.470  26.726  1.00  0.00     0.169 HD
BRANCH  88  90
ATOM     90  C   UNL A   1      34.315  23.461  25.449  1.00  0.00     0.054 A 
ATOM     91  C   UNL A   1      35.518  24.143  25.745  1.00  0.00     0.027 A 
ATOM     92  C   UNL A   1      34.366  22.341  24.612  1.00  0.00     0.063 A 
ATOM     93  C   UNL A   1      36.764  23.624  25.407  1.00  0.00     0.002 A 
ATOM     94  C   UNL A   1      35.645  21.790  24.344  1.00  0.00     0.016 A 
ATOM     95  C   UNL A   1      36.828  22.408  24.753  1.00  0.00     0.001 A 
BRANCH  92  96
ATOM     96  C   UNL A   1      33.255  21.638  23.892  1.00  0.00     0.253 C 
ATOM     97  O   UNL A   1      32.790  22.167  22.876  1.00  0.00    -0.269 OA
ATOM     98  N   UNL A   1      32.670  20.461  24.264  1.00  0.00    -0.345 N 
ATOM     99  H   UNL A   1      31.972  20.161  23.639  1.00  0.00     0.164 HD
BRANCH  98 100
ATOM    100  C   UNL A   1      32.858  19.561  25.379  1.00  0.00     0.191 C 
BRANCH 100 101
ATOM    101  C   UNL A   1      33.232  18.218  24.885  1.00  0.00     0.122 A 
ATOM    102  C   UNL A   1      33.753  17.744  23.702  1.00  0.00     0.047 A 
ATOM    103  O   UNL A   1      33.014  17.181  25.746  1.00  0.00    -0.467 OA
ATOM    104  C   UNL A   1      33.844  16.338  23.842  1.00  0.00     0.042 A 
ATOM    105  C   UNL A   1      33.381  16.044  25.103  1.00  0.00     0.195 A 
ENDBRANCH 100 101
ENDBRANCH  98 100
ENDBRANCH  92  96
ENDBRANCH  88  90
ENDBRANCH  82  86
ENDBRANCH  77  80
ENDBRANCH  75  76
ENDBRANCH  74  75
ENDBRANCH   1  74
TORSDOF 21
ENDMDL
