MODEL 1
REMARK VINA RESULT:     -13.0      0.000      0.000
REMARK SMILES Cc1cccc(-c2ccccc2C(=O)N2CC[C@H](O)C[C@@H]2C(=O)NCCCCCCNC(=O)c2ccc(-c3c4nc(c(-c5cc(S(=O)(=O)[O-])ccc5F)c5ccc([nH]5)c(-c5cc(S(=O)(=O)[O-])ccc5F)c5nc(c(-c6cc(S(=O)(=O)[O-])ccc6F)c6ccc3[nH]6)C=C5)C=C4)cc2)c1
REMARK SMILES IDX 27 1 26 2 25 3 24 4 22 5 23 6 21 8 15 9 16 10 17 11 20 12
REMARK SMILES IDX 18 13 13 14 14 15 12 16 7 17 8 18 9 19 11 20 10 21 6 22 1 23
REMARK SMILES IDX 2 24 3 25 97 26 4 27 5 28 19 29 28 31 29 32 30 33 31 34
REMARK SMILES IDX 32 35 33 37 34 38 35 39 96 40 36 41 95 42 37 43 38 44 39 45
REMARK SMILES IDX 89 46 40 47 94 48 88 49 90 50 41 51 93 52 87 53 86 54 42 56
REMARK SMILES IDX 74 57 54 58 73 59 55 60 58 61 72 62 91 63 56 64 57 65 71 67
REMARK SMILES IDX 92 68 59 69 43 70 44 71 52 72 45 73 51 74 53 75 50 76 46 77
REMARK SMILES IDX 47 78 48 79 49 80 75 81 76 82 84 83 77 84 83 85 85 86 82 87
REMARK SMILES IDX 78 88 79 89 80 90 81 91 60 92 61 93 69 94 62 95 68 96 70 97
REMARK SMILES IDX 67 98 63 99 64 100 65 101 66 102
REMARK H PARENT 24 7 19 30 31 36 90 55 58 66
REMARK Flexibility Score: inf
ROOT
ATOM      1  C   UNL A   1      33.354  28.937  25.492  1.00  0.00     0.002 C 
ENDROOT
BRANCH   1   2
ATOM      2  C   UNL A   1      33.115  28.356  24.093  1.00  0.00     0.021 C 
BRANCH   2   3
ATOM      3  C   UNL A   1      33.933  27.116  23.730  1.00  0.00     0.116 C 
BRANCH   3   4
ATOM      4  N   UNL A   1      33.102  26.014  23.285  1.00  0.00    -0.354 N 
ATOM      5  C   UNL A   1      32.384  25.103  23.998  1.00  0.00     0.242 C 
ATOM      6  O   UNL A   1      31.710  24.289  23.359  1.00  0.00    -0.273 OA
ATOM      7  H   UNL A   1      33.047  25.907  22.308  1.00  0.00     0.163 HD
BRANCH   5   8
ATOM      8  C   UNL A   1      32.472  25.037  25.544  1.00  0.00     0.177 C 
ATOM      9  N   UNL A   1      32.359  23.641  25.996  1.00  0.00    -0.326 N 
ATOM     10  C   UNL A   1      31.037  23.025  25.871  1.00  0.00     0.123 C 
ATOM     11  C   UNL A   1      29.991  23.837  26.627  1.00  0.00     0.053 C 
ATOM     12  C   UNL A   1      31.409  25.919  26.221  1.00  0.00     0.067 C 
ATOM     13  C   UNL A   1      30.000  25.315  26.250  1.00  0.00     0.118 C 
BRANCH   9  14
ATOM     14  C   UNL A   1      33.500  23.027  26.524  1.00  0.00     0.255 C 
ATOM     15  O   UNL A   1      33.506  22.605  27.680  1.00  0.00    -0.269 OA
BRANCH  14  16
ATOM     16  C   UNL A   1      34.779  23.007  25.747  1.00  0.00     0.047 A 
ATOM     17  C   UNL A   1      35.081  21.966  24.838  1.00  0.00    -0.006 A 
ATOM     18  C   UNL A   1      36.392  21.901  24.313  1.00  0.00     0.009 A 
ATOM     19  C   UNL A   1      37.373  22.824  24.674  1.00  0.00     0.001 A 
ATOM     20  C   UNL A   1      35.783  23.930  26.101  1.00  0.00     0.014 A 
ATOM     21  C   UNL A   1      37.067  23.844  25.563  1.00  0.00     0.001 A 
BRANCH  17  22
ATOM     22  C   UNL A   1      34.120  20.935  24.407  1.00  0.00    -0.017 A 
ATOM     23  C   UNL A   1      33.166  17.331  25.245  1.00  0.00     0.044 C 
ATOM     24  C   UNL A   1      33.167  18.692  24.617  1.00  0.00    -0.051 A 
ATOM     25  C   UNL A   1      32.208  19.013  23.649  1.00  0.00     0.003 A 
ATOM     26  C   UNL A   1      34.118  19.656  24.988  1.00  0.00     0.012 A 
ATOM     27  C   UNL A   1      32.197  20.277  23.062  1.00  0.00     0.001 A 
ATOM     28  C   UNL A   1      33.144  21.229  23.439  1.00  0.00     0.009 A 
ENDBRANCH  17  22
ENDBRANCH  14  16
ENDBRANCH   9  14
BRANCH  13  29
ATOM     29  O   UNL A   1      29.287  25.516  25.033  1.00  0.00    -0.393 OA
ATOM     30  H   UNL A   1      28.386  25.812  25.232  1.00  0.00     0.210 HD
ENDBRANCH  13  29
ENDBRANCH   5   8
ENDBRANCH   3   4
ENDBRANCH   2   3
ENDBRANCH   1   2
BRANCH   1  31
ATOM     31  C   UNL A   1      32.462  30.114  25.914  1.00  0.00     0.002 C 
BRANCH  31  32
ATOM     32  C   UNL A   1      32.975  30.974  27.070  1.00  0.00     0.021 C 
BRANCH  32  33
ATOM     33  C   UNL A   1      34.253  30.456  27.721  1.00  0.00     0.116 C 
BRANCH  33  34
ATOM     34  N   UNL A   1      35.021  31.470  28.433  1.00  0.00    -0.352 N 
ATOM     35  C   UNL A   1      36.247  31.344  29.068  1.00  0.00     0.251 C 
ATOM     36  H   UNL A   1      34.615  32.366  28.467  1.00  0.00     0.163 HD
ATOM     37  O   UNL A   1      36.727  32.269  29.705  1.00  0.00    -0.269 OA
BRANCH  35  38
ATOM     38  C   UNL A   1      37.027  30.095  28.880  1.00  0.00     0.039 A 
ATOM     39  C   UNL A   1      37.146  29.230  29.974  1.00  0.00     0.014 A 
ATOM     40  C   UNL A   1      37.787  29.886  27.733  1.00  0.00     0.014 A 
ATOM     41  C   UNL A   1      38.186  28.302  30.004  1.00  0.00     0.010 A 
ATOM     42  C   UNL A   1      38.876  29.040  27.801  1.00  0.00     0.010 A 
ATOM     43  C   UNL A   1      39.113  28.293  28.962  1.00  0.00    -0.014 A 
BRANCH  43  44
ATOM     44  C   UNL A   1      40.435  27.684  29.071  1.00  0.00     0.031 A 
ATOM     45  C   UNL A   1      40.679  26.282  28.680  1.00  0.00     0.074 A 
ATOM     46  C   UNL A   1      41.482  28.458  29.431  1.00  0.00     0.049 A 
ATOM     47  N   UNL A   1      41.684  25.574  29.078  1.00  0.00    -0.248 NA
ATOM     48  C   UNL A   1      39.759  25.537  27.831  1.00  0.00     0.031 C 
ATOM     49  C   UNL A   1      42.903  28.157  29.289  1.00  0.00     0.029 A 
ATOM     50  N   UNL A   1      41.450  29.588  30.239  1.00  0.00    -0.354 N 
ATOM     51  C   UNL A   1      41.733  24.442  28.296  1.00  0.00     0.074 A 
ATOM     52  C   UNL A   1      40.457  24.418  27.619  1.00  0.00     0.031 C 
ATOM     53  C   UNL A   1      43.595  28.906  30.161  1.00  0.00     0.029 A 
ATOM     54  C   UNL A   1      42.630  29.600  30.995  1.00  0.00     0.049 A 
ATOM     55  H   UNL A   1      40.730  30.258  30.272  1.00  0.00     0.167 HD
ATOM     56  C   UNL A   1      42.910  23.758  28.188  1.00  0.00     0.034 A 
ATOM     57  C   UNL A   1      42.588  29.545  32.359  1.00  0.00     0.034 A 
ATOM     58  C   UNL A   1      43.928  24.282  29.107  1.00  0.00     0.049 A 
ATOM     59  C   UNL A   1      43.287  28.337  32.940  1.00  0.00     0.074 A 
ATOM     60  C   UNL A   1      45.056  25.067  28.924  1.00  0.00     0.029 A 
ATOM     61  N   UNL A   1      43.715  24.228  30.483  1.00  0.00    -0.354 N 
ATOM     62  N   UNL A   1      43.621  27.280  32.249  1.00  0.00    -0.248 NA
ATOM     63  C   UNL A   1      43.650  28.217  34.347  1.00  0.00     0.031 C 
ATOM     64  C   UNL A   1      45.484  25.531  30.194  1.00  0.00     0.029 A 
ATOM     65  C   UNL A   1      44.634  25.010  31.155  1.00  0.00     0.049 A 
ATOM     66  H   UNL A   1      43.004  23.701  30.918  1.00  0.00     0.167 HD
ATOM     67  C   UNL A   1      44.201  26.351  33.076  1.00  0.00     0.074 A 
ATOM     68  C   UNL A   1      44.221  27.000  34.376  1.00  0.00     0.031 C 
ATOM     69  C   UNL A   1      44.601  25.127  32.610  1.00  0.00     0.034 A 
BRANCH  56  70
ATOM     70  C   UNL A   1      43.252  22.844  27.019  1.00  0.00     0.023 A 
ATOM     71  C   UNL A   1      42.748  21.523  27.007  1.00  0.00     0.031 A 
ATOM     72  C   UNL A   1      44.107  23.154  25.944  1.00  0.00     0.131 A 
ATOM     73  C   UNL A   1      43.186  20.568  26.069  1.00  0.00     0.055 A 
ATOM     74  C   UNL A   1      44.585  22.195  25.039  1.00  0.00     0.041 A 
ATOM     75  F   UNL A   1      44.476  24.411  25.672  1.00  0.00    -0.206 F 
ATOM     76  C   UNL A   1      44.139  20.887  25.108  1.00  0.00     0.022 A 
BRANCH  73  77
ATOM     77  S   UNL A   1      42.497  18.890  26.127  1.00  0.00     0.124 S 
ATOM     78  O   UNL A   1      43.369  18.167  25.207  1.00  0.00    -0.237 OA
ATOM     79  O   UNL A   1      42.624  18.552  27.540  1.00  0.00    -0.237 OA
ATOM     80  O   UNL A   1      41.123  19.072  25.660  1.00  0.00    -0.744 OA
ENDBRANCH  73  77
ENDBRANCH  56  70
BRANCH  57  81
ATOM     81  C   UNL A   1      41.386  30.215  32.934  1.00  0.00     0.023 A 
ATOM     82  C   UNL A   1      41.402  31.624  32.972  1.00  0.00     0.031 A 
ATOM     83  C   UNL A   1      40.146  29.571  33.043  1.00  0.00     0.131 A 
ATOM     84  C   UNL A   1      40.203  32.347  32.923  1.00  0.00     0.055 A 
ATOM     85  C   UNL A   1      38.950  30.301  33.085  1.00  0.00     0.041 A 
ATOM     86  F   UNL A   1      40.061  28.234  32.982  1.00  0.00    -0.206 F 
ATOM     87  C   UNL A   1      38.972  31.695  32.979  1.00  0.00     0.022 A 
BRANCH  84  88
ATOM     88  S   UNL A   1      40.302  34.110  32.493  1.00  0.00     0.124 S 
ATOM     89  O   UNL A   1      40.059  34.088  31.055  1.00  0.00    -0.237 OA
ATOM     90  O   UNL A   1      39.235  34.686  33.312  1.00  0.00    -0.237 OA
ATOM     91  O   UNL A   1      41.652  34.492  32.897  1.00  0.00    -0.744 OA
ENDBRANCH  84  88
ENDBRANCH  57  81
BRANCH  69  92
ATOM     92  C   UNL A   1      45.084  23.962  33.455  1.00  0.00     0.023 A 
ATOM     93  C   UNL A   1      46.404  23.821  33.908  1.00  0.00     0.031 A 
ATOM     94  C   UNL A   1      44.181  22.963  33.900  1.00  0.00     0.131 A 
ATOM     95  C   UNL A   1      46.803  22.706  34.671  1.00  0.00     0.055 A 
ATOM     96  C   UNL A   1      44.563  21.896  34.722  1.00  0.00     0.041 A 
ATOM     97  F   UNL A   1      42.883  22.981  33.565  1.00  0.00    -0.206 F 
ATOM     98  C   UNL A   1      45.887  21.751  35.099  1.00  0.00     0.022 A 
BRANCH  95  99
ATOM     99  S   UNL A   1      48.567  22.502  35.039  1.00  0.00     0.124 S 
ATOM    100  O   UNL A   1      49.154  23.637  34.330  1.00  0.00    -0.237 OA
ATOM    101  O   UNL A   1      48.594  22.582  36.495  1.00  0.00    -0.237 OA
ATOM    102  O   UNL A   1      48.888  21.190  34.480  1.00  0.00    -0.744 OA
ENDBRANCH  95  99
ENDBRANCH  69  92
ENDBRANCH  43  44
ENDBRANCH  35  38
ENDBRANCH  33  34
ENDBRANCH  32  33
ENDBRANCH  31  32
ENDBRANCH   1  31
TORSDOF 20
ENDMDL
MODEL 2
REMARK VINA RESULT:     -12.8      3.915     10.528
REMARK SMILES Cc1cccc(-c2ccccc2C(=O)N2CC[C@H](O)C[C@@H]2C(=O)NCCCCCCNC(=O)c2ccc(-c3c4nc(c(-c5cc(S(=O)(=O)[O-])ccc5F)c5ccc([nH]5)c(-c5cc(S(=O)(=O)[O-])ccc5F)c5nc(c(-c6cc(S(=O)(=O)[O-])ccc6F)c6ccc3[nH]6)C=C5)C=C4)cc2)c1
REMARK SMILES IDX 27 1 26 2 25 3 24 4 22 5 23 6 21 8 15 9 16 10 17 11 20 12
REMARK SMILES IDX 18 13 13 14 14 15 12 16 7 17 8 18 9 19 11 20 10 21 6 22 1 23
REMARK SMILES IDX 2 24 3 25 97 26 4 27 5 28 19 29 28 31 29 32 30 33 31 34
REMARK SMILES IDX 32 35 33 37 34 38 35 39 96 40 36 41 95 42 37 43 38 44 39 45
REMARK SMILES IDX 89 46 40 47 94 48 88 49 90 50 41 51 93 52 87 53 86 54 42 56
REMARK SMILES IDX 74 57 54 58 73 59 55 60 58 61 72 62 91 63 56 64 57 65 71 67
REMARK SMILES IDX 92 68 59 69 43 70 44 71 52 72 45 73 51 74 53 75 50 76 46 77
REMARK SMILES IDX 47 78 48 79 49 80 75 81 76 82 84 83 77 84 83 85 85 86 82 87
REMARK SMILES IDX 78 88 79 89 80 90 81 91 60 92 61 93 69 94 62 95 68 96 70 97
REMARK SMILES IDX 67 98 63 99 64 100 65 101 66 102
REMARK H PARENT 24 7 19 30 31 36 90 55 58 66
REMARK Flexibility Score: inf
ROOT
ATOM      1  C   UNL A   1      35.323  21.505  25.559  1.00  0.00     0.002 C 
ENDROOT
BRANCH   1   2
ATOM      2  C   UNL A   1      34.944  22.571  26.595  1.00  0.00     0.021 C 
BRANCH   2   3
ATOM      3  C   UNL A   1      33.580  23.238  26.407  1.00  0.00     0.116 C 
BRANCH   3   4
ATOM      4  N   UNL A   1      32.919  22.813  25.188  1.00  0.00    -0.354 N 
ATOM      5  C   UNL A   1      32.600  23.513  24.064  1.00  0.00     0.242 C 
ATOM      6  O   UNL A   1      32.078  22.887  23.137  1.00  0.00    -0.273 OA
ATOM      7  H   UNL A   1      32.658  21.864  25.168  1.00  0.00     0.163 HD
BRANCH   5   8
ATOM      8  C   UNL A   1      32.808  25.046  23.982  1.00  0.00     0.177 C 
ATOM      9  N   UNL A   1      31.507  25.726  23.873  1.00  0.00    -0.326 N 
ATOM     10  C   UNL A   1      30.804  25.578  22.598  1.00  0.00     0.123 C 
ATOM     11  C   UNL A   1      31.673  26.066  21.443  1.00  0.00     0.053 C 
ATOM     12  C   UNL A   1      33.731  25.444  22.818  1.00  0.00     0.067 C 
ATOM     13  C   UNL A   1      33.062  25.435  21.438  1.00  0.00     0.118 C 
BRANCH   9  14
ATOM     14  C   UNL A   1      31.059  26.469  24.970  1.00  0.00     0.255 C 
ATOM     15  O   UNL A   1      29.915  26.323  25.401  1.00  0.00    -0.269 OA
BRANCH  14  16
ATOM     16  C   UNL A   1      31.907  27.562  25.544  1.00  0.00     0.047 A 
ATOM     17  C   UNL A   1      31.925  28.861  24.984  1.00  0.00    -0.006 A 
ATOM     18  C   UNL A   1      32.908  29.768  25.440  1.00  0.00     0.009 A 
ATOM     19  C   UNL A   1      33.845  29.408  26.409  1.00  0.00     0.001 A 
ATOM     20  C   UNL A   1      32.861  27.215  26.521  1.00  0.00     0.014 A 
ATOM     21  C   UNL A   1      33.818  28.133  26.955  1.00  0.00     0.001 A 
BRANCH  17  22
ATOM     22  C   UNL A   1      30.990  29.331  23.946  1.00  0.00    -0.017 A 
ATOM     23  C   UNL A   1      27.727  31.300  23.664  1.00  0.00     0.044 C 
ATOM     24  C   UNL A   1      28.964  30.538  23.296  1.00  0.00    -0.051 A 
ATOM     25  C   UNL A   1      29.270  30.318  21.948  1.00  0.00     0.003 A 
ATOM     26  C   UNL A   1      29.826  30.041  24.286  1.00  0.00     0.012 A 
ATOM     27  C   UNL A   1      30.420  29.615  21.594  1.00  0.00     0.001 A 
ATOM     28  C   UNL A   1      31.272  29.128  22.585  1.00  0.00     0.009 A 
ENDBRANCH  17  22
ENDBRANCH  14  16
ENDBRANCH   9  14
BRANCH  13  29
ATOM     29  O   UNL A   1      33.008  24.135  20.858  1.00  0.00    -0.393 OA
ATOM     30  H   UNL A   1      32.083  23.861  20.765  1.00  0.00     0.210 HD
ENDBRANCH  13  29
ENDBRANCH   5   8
ENDBRANCH   3   4
ENDBRANCH   2   3
ENDBRANCH   1   2
BRANCH   1  31
ATOM     31  C   UNL A   1      36.564  21.785  24.699  1.00  0.00     0.002 C 
BRANCH  31  32
ATOM     32  C   UNL A   1      37.918  21.653  25.398  1.00  0.00     0.021 C 
BRANCH  32  33
ATOM     33  C   UNL A   1      38.500  22.972  25.897  1.00  0.00     0.116 C 
BRANCH  33  34
ATOM     34  N   UNL A   1      39.855  22.872  26.424  1.00  0.00    -0.352 N 
ATOM     35  C   UNL A   1      40.658  23.873  26.949  1.00  0.00     0.251 C 
ATOM     36  H   UNL A   1      40.254  21.973  26.405  1.00  0.00     0.163 HD
ATOM     37  O   UNL A   1      41.815  23.650  27.271  1.00  0.00    -0.269 OA
BRANCH  35  38
ATOM     38  C   UNL A   1      40.061  25.206  27.216  1.00  0.00     0.039 A 
ATOM     39  C   UNL A   1      40.512  26.286  26.448  1.00  0.00     0.014 A 
ATOM     40  C   UNL A   1      39.244  25.421  28.321  1.00  0.00     0.014 A 
ATOM     41  C   UNL A   1      40.332  27.585  26.921  1.00  0.00     0.010 A 
ATOM     42  C   UNL A   1      39.152  26.697  28.842  1.00  0.00     0.010 A 
ATOM     43  C   UNL A   1      39.751  27.772  28.175  1.00  0.00    -0.014 A 
BRANCH  43  44
ATOM     44  C   UNL A   1      39.882  29.007  28.943  1.00  0.00     0.031 A 
ATOM     45  C   UNL A   1      38.862  30.071  28.883  1.00  0.00     0.074 A 
ATOM     46  C   UNL A   1      40.908  29.126  29.815  1.00  0.00     0.049 A 
ATOM     47  N   UNL A   1      39.066  31.302  29.217  1.00  0.00    -0.248 NA
ATOM     48  C   UNL A   1      37.515  29.834  28.383  1.00  0.00     0.031 C 
ATOM     49  C   UNL A   1      41.049  30.096  30.896  1.00  0.00     0.029 A 
ATOM     50  N   UNL A   1      42.158  28.528  29.725  1.00  0.00    -0.354 N 
ATOM     51  C   UNL A   1      37.840  31.921  29.305  1.00  0.00     0.074 A 
ATOM     52  C   UNL A   1      36.927  30.998  28.672  1.00  0.00     0.031 C 
ATOM     53  C   UNL A   1      42.349  30.212  31.210  1.00  0.00     0.029 A 
ATOM     54  C   UNL A   1      43.098  29.434  30.238  1.00  0.00     0.049 A 
ATOM     55  H   UNL A   1      42.349  27.631  29.368  1.00  0.00     0.167 HD
ATOM     56  C   UNL A   1      37.719  33.057  30.053  1.00  0.00     0.034 A 
ATOM     57  C   UNL A   1      44.104  29.918  29.452  1.00  0.00     0.034 A 
ATOM     58  C   UNL A   1      39.024  33.540  30.520  1.00  0.00     0.049 A 
ATOM     59  C   UNL A   1      44.076  31.420  29.287  1.00  0.00     0.074 A 
ATOM     60  C   UNL A   1      39.661  33.511  31.751  1.00  0.00     0.029 A 
ATOM     61  N   UNL A   1      39.990  33.932  29.595  1.00  0.00    -0.354 N 
ATOM     62  N   UNL A   1      43.047  32.170  29.571  1.00  0.00    -0.248 NA
ATOM     63  C   UNL A   1      45.200  32.193  28.770  1.00  0.00     0.031 C 
ATOM     64  C   UNL A   1      41.028  33.831  31.551  1.00  0.00     0.029 A 
ATOM     65  C   UNL A   1      41.222  34.081  30.203  1.00  0.00     0.049 A 
ATOM     66  H   UNL A   1      39.817  34.084  28.637  1.00  0.00     0.167 HD
ATOM     67  C   UNL A   1      43.331  33.479  29.272  1.00  0.00     0.074 A 
ATOM     68  C   UNL A   1      44.704  33.442  28.800  1.00  0.00     0.031 C 
ATOM     69  C   UNL A   1      42.399  34.470  29.432  1.00  0.00     0.034 A 
BRANCH  56  70
ATOM     70  C   UNL A   1      36.403  33.540  30.649  1.00  0.00     0.023 A 
ATOM     71  C   UNL A   1      35.456  34.169  29.808  1.00  0.00     0.031 A 
ATOM     72  C   UNL A   1      36.041  33.498  32.008  1.00  0.00     0.131 A 
ATOM     73  C   UNL A   1      34.317  34.818  30.324  1.00  0.00     0.055 A 
ATOM     74  C   UNL A   1      34.936  34.184  32.533  1.00  0.00     0.041 A 
ATOM     75  F   UNL A   1      36.698  32.739  32.894  1.00  0.00    -0.206 F 
ATOM     76  C   UNL A   1      34.074  34.865  31.692  1.00  0.00     0.022 A 
BRANCH  73  77
ATOM     77  S   UNL A   1      33.154  35.609  29.177  1.00  0.00     0.124 S 
ATOM     78  O   UNL A   1      32.215  36.255  30.089  1.00  0.00    -0.237 OA
ATOM     79  O   UNL A   1      34.027  36.492  28.413  1.00  0.00    -0.237 OA
ATOM     80  O   UNL A   1      32.605  34.483  28.422  1.00  0.00    -0.744 OA
ENDBRANCH  73  77
ENDBRANCH  56  70
BRANCH  57  81
ATOM     81  C   UNL A   1      44.569  28.937  28.429  1.00  0.00     0.023 A 
ATOM     82  C   UNL A   1      45.371  27.872  28.889  1.00  0.00     0.031 A 
ATOM     83  C   UNL A   1      43.942  28.795  27.184  1.00  0.00     0.131 A 
ATOM     84  C   UNL A   1      45.376  26.646  28.212  1.00  0.00     0.055 A 
ATOM     85  C   UNL A   1      44.022  27.594  26.465  1.00  0.00     0.041 A 
ATOM     86  F   UNL A   1      43.141  29.758  26.706  1.00  0.00    -0.206 F 
ATOM     87  C   UNL A   1      44.704  26.497  26.998  1.00  0.00     0.022 A 
BRANCH  84  88
ATOM     88  S   UNL A   1      46.027  25.200  29.098  1.00  0.00     0.124 S 
ATOM     89  O   UNL A   1      44.813  24.440  29.376  1.00  0.00    -0.237 OA
ATOM     90  O   UNL A   1      46.932  24.615  28.107  1.00  0.00    -0.237 OA
ATOM     91  O   UNL A   1      46.691  25.774  30.263  1.00  0.00    -0.744 OA
ENDBRANCH  84  88
ENDBRANCH  57  81
BRANCH  69  92
ATOM     92  C   UNL A   1      42.536  35.910  28.970  1.00  0.00     0.023 A 
ATOM     93  C   UNL A   1      43.289  36.879  29.648  1.00  0.00     0.031 A 
ATOM     94  C   UNL A   1      41.945  36.342  27.756  1.00  0.00     0.131 A 
ATOM     95  C   UNL A   1      43.362  38.208  29.186  1.00  0.00     0.055 A 
ATOM     96  C   UNL A   1      42.081  37.643  27.258  1.00  0.00     0.041 A 
ATOM     97  F   UNL A   1      41.214  35.519  26.990  1.00  0.00    -0.206 F 
ATOM     98  C   UNL A   1      42.779  38.593  27.983  1.00  0.00     0.022 A 
BRANCH  95  99
ATOM     99  S   UNL A   1      44.189  39.437  30.231  1.00  0.00     0.124 S 
ATOM    100  O   UNL A   1      44.626  38.624  31.363  1.00  0.00    -0.237 OA
ATOM    101  O   UNL A   1      45.249  39.929  29.357  1.00  0.00    -0.237 OA
ATOM    102  O   UNL A   1      43.133  40.402  30.532  1.00  0.00    -0.744 OA
ENDBRANCH  95  99
ENDBRANCH  69  92
ENDBRANCH  43  44
ENDBRANCH  35  38
ENDBRANCH  33  34
ENDBRANCH  32  33
ENDBRANCH  31  32
ENDBRANCH   1  31
TORSDOF 20
ENDMDL
MODEL 3
REMARK VINA RESULT:     -12.4      1.199      2.570
REMARK SMILES Cc1cccc(-c2ccccc2C(=O)N2CC[C@H](O)C[C@@H]2C(=O)NCCCCCCNC(=O)c2ccc(-c3c4nc(c(-c5cc(S(=O)(=O)[O-])ccc5F)c5ccc([nH]5)c(-c5cc(S(=O)(=O)[O-])ccc5F)c5nc(c(-c6cc(S(=O)(=O)[O-])ccc6F)c6ccc3[nH]6)C=C5)C=C4)cc2)c1
REMARK SMILES IDX 27 1 26 2 25 3 24 4 22 5 23 6 21 8 15 9 16 10 17 11 20 12
REMARK SMILES IDX 18 13 13 14 14 15 12 16 7 17 8 18 9 19 11 20 10 21 6 22 1 23
REMARK SMILES IDX 2 24 3 25 97 26 4 27 5 28 19 29 28 31 29 32 30 33 31 34
REMARK SMILES IDX 32 35 33 37 34 38 35 39 96 40 36 41 95 42 37 43 38 44 39 45
REMARK SMILES IDX 89 46 40 47 94 48 88 49 90 50 41 51 93 52 87 53 86 54 42 56
REMARK SMILES IDX 74 57 54 58 73 59 55 60 58 61 72 62 91 63 56 64 57 65 71 67
REMARK SMILES IDX 92 68 59 69 43 70 44 71 52 72 45 73 51 74 53 75 50 76 46 77
REMARK SMILES IDX 47 78 48 79 49 80 75 81 76 82 84 83 77 84 83 85 85 86 82 87
REMARK SMILES IDX 78 88 79 89 80 90 81 91 60 92 61 93 69 94 62 95 68 96 70 97
REMARK SMILES IDX 67 98 63 99 64 100 65 101 66 102
REMARK H PARENT 24 7 19 30 31 36 90 55 58 66
REMARK Flexibility Score: inf
ROOT
ATOM      1  C   UNL A   1      31.751  29.098  25.282  1.00  0.00     0.002 C 
ENDROOT
BRANCH   1   2
ATOM      2  C   UNL A   1      31.304  28.071  26.331  1.00  0.00     0.021 C 
BRANCH   2   3
ATOM      3  C   UNL A   1      32.057  26.740  26.334  1.00  0.00     0.116 C 
BRANCH   3   4
ATOM      4  N   UNL A   1      31.223  25.632  26.756  1.00  0.00    -0.354 N 
ATOM      5  C   UNL A   1      31.421  24.288  26.659  1.00  0.00     0.242 C 
ATOM      6  O   UNL A   1      30.560  23.552  27.154  1.00  0.00    -0.273 OA
ATOM      7  H   UNL A   1      30.375  25.892  27.183  1.00  0.00     0.163 HD
BRANCH   5   8
ATOM      8  C   UNL A   1      32.631  23.704  25.889  1.00  0.00     0.177 C 
ATOM      9  N   UNL A   1      32.178  22.666  24.949  1.00  0.00    -0.326 N 
ATOM     10  C   UNL A   1      31.726  21.407  25.543  1.00  0.00     0.123 C 
ATOM     11  C   UNL A   1      32.824  20.794  26.405  1.00  0.00     0.053 C 
ATOM     12  C   UNL A   1      33.707  23.149  26.838  1.00  0.00     0.067 C 
ATOM     13  C   UNL A   1      33.388  21.772  27.432  1.00  0.00     0.118 C 
BRANCH   9  14
ATOM     14  C   UNL A   1      32.234  22.949  23.580  1.00  0.00     0.255 C 
ATOM     15  O   UNL A   1      32.191  22.041  22.750  1.00  0.00    -0.269 OA
BRANCH  14  16
ATOM     16  C   UNL A   1      32.499  24.344  23.104  1.00  0.00     0.047 A 
ATOM     17  C   UNL A   1      33.779  24.935  23.208  1.00  0.00    -0.006 A 
ATOM     18  C   UNL A   1      33.897  26.318  22.943  1.00  0.00     0.009 A 
ATOM     19  C   UNL A   1      32.792  27.094  22.594  1.00  0.00     0.001 A 
ATOM     20  C   UNL A   1      31.393  25.143  22.750  1.00  0.00     0.014 A 
ATOM     21  C   UNL A   1      31.540  26.506  22.491  1.00  0.00     0.001 A 
BRANCH  17  22
ATOM     22  C   UNL A   1      35.003  24.204  23.584  1.00  0.00    -0.017 A 
ATOM     23  C   UNL A   1      37.457  23.970  26.504  1.00  0.00     0.044 C 
ATOM     24  C   UNL A   1      36.779  23.711  25.193  1.00  0.00    -0.051 A 
ATOM     25  C   UNL A   1      37.277  22.724  24.335  1.00  0.00     0.003 A 
ATOM     26  C   UNL A   1      35.646  24.446  24.809  1.00  0.00     0.012 A 
ATOM     27  C   UNL A   1      36.651  22.472  23.115  1.00  0.00     0.001 A 
ATOM     28  C   UNL A   1      35.524  23.205  22.745  1.00  0.00     0.009 A 
ENDBRANCH  17  22
ENDBRANCH  14  16
ENDBRANCH   9  14
BRANCH  13  29
ATOM     29  O   UNL A   1      32.528  21.844  28.565  1.00  0.00    -0.393 OA
ATOM     30  H   UNL A   1      31.890  22.563  28.441  1.00  0.00     0.210 HD
ENDBRANCH  13  29
ENDBRANCH   5   8
ENDBRANCH   3   4
ENDBRANCH   2   3
ENDBRANCH   1   2
BRANCH   1  31
ATOM     31  C   UNL A   1      33.104  29.784  25.519  1.00  0.00     0.002 C 
BRANCH  31  32
ATOM     32  C   UNL A   1      33.289  30.471  26.872  1.00  0.00     0.021 C 
BRANCH  32  33
ATOM     33  C   UNL A   1      34.526  30.021  27.643  1.00  0.00     0.116 C 
BRANCH  33  34
ATOM     34  N   UNL A   1      35.296  31.107  28.236  1.00  0.00    -0.352 N 
ATOM     35  C   UNL A   1      36.565  31.068  28.794  1.00  0.00     0.251 C 
ATOM     36  H   UNL A   1      34.857  31.987  28.240  1.00  0.00     0.163 HD
ATOM     37  O   UNL A   1      37.047  32.050  29.337  1.00  0.00    -0.269 OA
BRANCH  35  38
ATOM     38  C   UNL A   1      37.382  29.839  28.632  1.00  0.00     0.039 A 
ATOM     39  C   UNL A   1      37.446  28.953  29.714  1.00  0.00     0.014 A 
ATOM     40  C   UNL A   1      38.221  29.670  27.535  1.00  0.00     0.014 A 
ATOM     41  C   UNL A   1      38.501  28.045  29.794  1.00  0.00     0.010 A 
ATOM     42  C   UNL A   1      39.321  28.844  27.658  1.00  0.00     0.010 A 
ATOM     43  C   UNL A   1      39.495  28.077  28.817  1.00  0.00    -0.014 A 
BRANCH  43  44
ATOM     44  C   UNL A   1      40.820  27.492  29.002  1.00  0.00     0.031 A 
ATOM     45  C   UNL A   1      41.123  26.110  28.583  1.00  0.00     0.074 A 
ATOM     46  C   UNL A   1      41.820  28.274  29.464  1.00  0.00     0.049 A 
ATOM     47  N   UNL A   1      42.113  25.409  29.029  1.00  0.00    -0.248 NA
ATOM     48  C   UNL A   1      40.286  25.377  27.644  1.00  0.00     0.031 C 
ATOM     49  C   UNL A   1      43.253  28.007  29.416  1.00  0.00     0.029 A 
ATOM     50  N   UNL A   1      41.703  29.373  30.305  1.00  0.00    -0.354 N 
ATOM     51  C   UNL A   1      42.245  24.307  28.215  1.00  0.00     0.074 A 
ATOM     52  C   UNL A   1      41.023  24.280  27.446  1.00  0.00     0.031 C 
ATOM     53  C   UNL A   1      43.864  28.739  30.362  1.00  0.00     0.029 A 
ATOM     54  C   UNL A   1      42.825  29.383  31.146  1.00  0.00     0.049 A 
ATOM     55  H   UNL A   1      40.967  30.027  30.308  1.00  0.00     0.167 HD
ATOM     56  C   UNL A   1      43.442  23.651  28.170  1.00  0.00     0.034 A 
ATOM     57  C   UNL A   1      42.684  29.278  32.500  1.00  0.00     0.034 A 
ATOM     58  C   UNL A   1      44.379  24.163  29.179  1.00  0.00     0.049 A 
ATOM     59  C   UNL A   1      43.368  28.065  33.089  1.00  0.00     0.074 A 
ATOM     60  C   UNL A   1      45.498  24.977  29.106  1.00  0.00     0.029 A 
ATOM     61  N   UNL A   1      44.067  24.056  30.533  1.00  0.00    -0.354 N 
ATOM     62  N   UNL A   1      43.775  27.041  32.390  1.00  0.00    -0.248 NA
ATOM     63  C   UNL A   1      43.630  27.903  34.515  1.00  0.00     0.031 C 
ATOM     64  C   UNL A   1      45.822  25.405  30.419  1.00  0.00     0.029 A 
ATOM     65  C   UNL A   1      44.917  24.832  31.297  1.00  0.00     0.049 A 
ATOM     66  H   UNL A   1      43.340  23.500  30.896  1.00  0.00     0.167 HD
ATOM     67  C   UNL A   1      44.315  26.095  33.225  1.00  0.00     0.074 A 
ATOM     68  C   UNL A   1      44.225  26.698  34.544  1.00  0.00     0.031 C 
ATOM     69  C   UNL A   1      44.776  24.897  32.749  1.00  0.00     0.034 A 
BRANCH  56  70
ATOM     70  C   UNL A   1      43.889  22.786  26.999  1.00  0.00     0.023 A 
ATOM     71  C   UNL A   1      43.310  21.508  26.826  1.00  0.00     0.031 A 
ATOM     72  C   UNL A   1      44.906  23.098  26.077  1.00  0.00     0.131 A 
ATOM     73  C   UNL A   1      43.817  20.582  25.894  1.00  0.00     0.055 A 
ATOM     74  C   UNL A   1      45.447  22.163  25.182  1.00  0.00     0.041 A 
ATOM     75  F   UNL A   1      45.389  24.339  25.946  1.00  0.00    -0.206 F 
ATOM     76  C   UNL A   1      44.914  20.888  25.098  1.00  0.00     0.022 A 
BRANCH  73  77
ATOM     77  S   UNL A   1      43.022  18.958  25.740  1.00  0.00     0.124 S 
ATOM     78  O   UNL A   1      43.211  18.395  27.073  1.00  0.00    -0.237 OA
ATOM     79  O   UNL A   1      41.655  19.316  25.376  1.00  0.00    -0.237 OA
ATOM     80  O   UNL A   1      43.789  18.305  24.680  1.00  0.00    -0.744 OA
ENDBRANCH  73  77
ENDBRANCH  56  70
BRANCH  57  81
ATOM     81  C   UNL A   1      41.429  29.903  33.008  1.00  0.00     0.023 A 
ATOM     82  C   UNL A   1      41.395  31.312  33.055  1.00  0.00     0.031 A 
ATOM     83  C   UNL A   1      40.208  29.216  33.041  1.00  0.00     0.131 A 
ATOM     84  C   UNL A   1      40.177  31.994  32.941  1.00  0.00     0.055 A 
ATOM     85  C   UNL A   1      38.987  29.906  33.016  1.00  0.00     0.041 A 
ATOM     86  F   UNL A   1      40.172  27.878  32.967  1.00  0.00    -0.206 F 
ATOM     87  C   UNL A   1      38.967  31.300  32.920  1.00  0.00     0.022 A 
BRANCH  84  88
ATOM     88  S   UNL A   1      40.240  33.763  32.528  1.00  0.00     0.124 S 
ATOM     89  O   UNL A   1      39.040  33.931  31.717  1.00  0.00    -0.237 OA
ATOM     90  O   UNL A   1      40.208  34.388  33.851  1.00  0.00    -0.237 OA
ATOM     91  O   UNL A   1      41.506  33.909  31.817  1.00  0.00    -0.744 OA
ENDBRANCH  84  88
ENDBRANCH  57  81
BRANCH  69  92
ATOM     92  C   UNL A   1      45.223  23.713  33.587  1.00  0.00     0.023 A 
ATOM     93  C   UNL A   1      46.517  23.571  34.108  1.00  0.00     0.031 A 
ATOM     94  C   UNL A   1      44.307  22.694  33.953  1.00  0.00     0.131 A 
ATOM     95  C   UNL A   1      46.885  22.439  34.862  1.00  0.00     0.055 A 
ATOM     96  C   UNL A   1      44.653  21.608  34.764  1.00  0.00     0.041 A 
ATOM     97  F   UNL A   1      43.030  22.710  33.545  1.00  0.00    -0.206 F 
ATOM     98  C   UNL A   1      45.955  21.463  35.211  1.00  0.00     0.022 A 
BRANCH  95  99
ATOM     99  S   UNL A   1      48.627  22.240  35.322  1.00  0.00     0.124 S 
ATOM    100  O   UNL A   1      49.115  21.347  34.274  1.00  0.00    -0.237 OA
ATOM    101  O   UNL A   1      49.123  23.611  35.268  1.00  0.00    -0.237 OA
ATOM    102  O   UNL A   1      48.567  21.652  36.659  1.00  0.00    -0.744 OA
ENDBRANCH  95  99
ENDBRANCH  69  92
ENDBRANCH  43  44
ENDBRANCH  35  38
ENDBRANCH  33  34
ENDBRANCH  32  33
ENDBRANCH  31  32
ENDBRANCH   1  31
TORSDOF 20
ENDMDL
