MODEL 1
REMARK VINA RESULT:     -11.5      0.000      0.000
REMARK SMILES CC[C@H](C(=O)NCCCCCCNC(=O)c1ccc(-c2c3nc(c(-c4cc(S(=O)(=O)[O-])ccc4F)c4ccc([nH]4)c(-c4cc(S(=O)(=O)[O-])ccc4F)c4nc(c(-c5cc(S(=O)(=O)[O-])ccc5F)c5ccc2[nH]5)C=C4)C=C3)cc1)N1C(=O)/C(=C\c2cccs2)SC1=S
REMARK SMILES IDX 10 1 9 2 8 3 7 4 6 5 4 6 5 7 3 9 2 10 1 11 79 12 80 13 90 14
REMARK SMILES IDX 81 15 82 16 89 17 91 18 83 19 84 20 85 21 88 22 86 23 87 24
REMARK SMILES IDX 11 25 12 26 13 27 14 28 15 30 16 31 17 32 78 33 18 34 77 35
REMARK SMILES IDX 19 36 20 37 21 38 71 39 22 40 76 41 70 42 72 43 23 44 75 45
REMARK SMILES IDX 69 46 68 47 24 49 56 50 36 51 55 52 37 53 40 54 54 55 73 56
REMARK SMILES IDX 38 57 39 58 53 60 74 61 41 62 25 63 26 64 34 65 27 66 33 67
REMARK SMILES IDX 35 68 32 69 28 70 29 71 30 72 31 73 57 74 58 75 66 76 59 77
REMARK SMILES IDX 65 78 67 79 64 80 60 81 61 82 62 83 63 84 42 85 43 86 51 87
REMARK SMILES IDX 44 88 50 89 52 90 49 91 45 92 46 93 47 94 48 95
REMARK H PARENT 6 8 13 29 72 48 40 59
REMARK Flexibility Score: inf
ROOT
ATOM      1  C   UNL A   1      37.045  21.054  25.056  1.00  0.00     0.002 C 
ENDROOT
BRANCH   1   2
ATOM      2  C   UNL A   1      37.389  22.402  25.700  1.00  0.00     0.002 C 
BRANCH   2   3
ATOM      3  C   UNL A   1      37.017  23.643  24.877  1.00  0.00     0.021 C 
BRANCH   3   4
ATOM      4  C   UNL A   1      35.517  23.922  24.785  1.00  0.00     0.116 C 
BRANCH   4   5
ATOM      5  N   UNL A   1      34.949  23.396  23.555  1.00  0.00    -0.354 N 
ATOM      6  C   UNL A   1      34.041  23.955  22.701  1.00  0.00     0.243 C 
ATOM      7  O   UNL A   1      33.668  23.289  21.730  1.00  0.00    -0.273 OA
ATOM      8  H   UNL A   1      35.267  22.501  23.298  1.00  0.00     0.163 HD
BRANCH   6   9
ATOM      9  C   UNL A   1      33.593  25.431  22.898  1.00  0.00     0.181 C 
BRANCH   9  10
ATOM     10  C   UNL A   1      33.001  25.847  21.533  1.00  0.00     0.032 C 
ATOM     11  C   UNL A   1      31.639  26.539  21.599  1.00  0.00     0.006 C 
ENDBRANCH   9  10
BRANCH   9  12
ATOM     12  N   UNL A   1      32.750  25.524  24.120  1.00  0.00    -0.280 N 
ATOM     13  C   UNL A   1      32.875  26.719  24.833  1.00  0.00     0.266 C 
ATOM     14  C   UNL A   1      31.634  24.800  24.469  1.00  0.00     0.149 C 
ATOM     15  O   UNL A   1      33.472  27.707  24.425  1.00  0.00    -0.268 OA
ATOM     16  C   UNL A   1      32.075  26.686  26.091  1.00  0.00     0.081 C 
ATOM     17  S   UNL A   1      31.100  25.265  26.083  1.00  0.00    -0.054 SA
ATOM     18  S   UNL A   1      30.735  23.689  23.609  1.00  0.00    -0.052 S 
ATOM     19  C   UNL A   1      32.043  27.546  27.118  1.00  0.00     0.040 C 
BRANCH  19  20
ATOM     20  C   UNL A   1      32.803  28.743  27.210  1.00  0.00     0.028 A 
ATOM     21  C   UNL A   1      34.143  28.935  27.502  1.00  0.00     0.020 A 
ATOM     22  S   UNL A   1      32.048  30.248  26.843  1.00  0.00    -0.144 S 
ATOM     23  C   UNL A   1      34.528  30.307  27.483  1.00  0.00     0.012 A 
ATOM     24  C   UNL A   1      33.478  31.129  27.147  1.00  0.00     0.065 A 
ENDBRANCH  19  20
ENDBRANCH   9  12
ENDBRANCH   6   9
ENDBRANCH   4   5
ENDBRANCH   3   4
ENDBRANCH   2   3
ENDBRANCH   1   2
BRANCH   1  25
ATOM     25  C   UNL A   1      38.190  20.041  24.991  1.00  0.00     0.021 C 
BRANCH  25  26
ATOM     26  C   UNL A   1      39.385  20.350  25.891  1.00  0.00     0.116 C 
BRANCH  26  27
ATOM     27  N   UNL A   1      40.342  19.257  25.940  1.00  0.00    -0.352 N 
ATOM     28  C   UNL A   1      41.708  19.299  26.105  1.00  0.00     0.251 C 
ATOM     29  H   UNL A   1      39.958  18.357  25.842  1.00  0.00     0.163 HD
ATOM     30  O   UNL A   1      42.371  18.281  25.955  1.00  0.00    -0.269 OA
BRANCH  28  31
ATOM     31  C   UNL A   1      42.373  20.583  26.430  1.00  0.00     0.039 A 
ATOM     32  C   UNL A   1      42.970  21.314  25.398  1.00  0.00     0.014 A 
ATOM     33  C   UNL A   1      42.407  21.065  27.741  1.00  0.00     0.014 A 
ATOM     34  C   UNL A   1      43.531  22.565  25.670  1.00  0.00     0.010 A 
ATOM     35  C   UNL A   1      42.913  22.337  27.999  1.00  0.00     0.010 A 
ATOM     36  C   UNL A   1      43.473  23.105  26.964  1.00  0.00    -0.014 A 
BRANCH  36  37
ATOM     37  C   UNL A   1      43.969  24.477  27.256  1.00  0.00     0.031 A 
ATOM     38  C   UNL A   1      43.020  25.536  27.746  1.00  0.00     0.074 A 
ATOM     39  C   UNL A   1      45.256  24.786  27.003  1.00  0.00     0.049 A 
ATOM     40  N   UNL A   1      43.235  26.810  27.951  1.00  0.00    -0.248 NA
ATOM     41  C   UNL A   1      41.639  25.108  28.013  1.00  0.00     0.031 C 
ATOM     42  C   UNL A   1      46.265  23.854  26.495  1.00  0.00     0.029 A 
ATOM     43  N   UNL A   1      45.935  25.974  27.123  1.00  0.00    -0.354 N 
ATOM     44  C   UNL A   1      42.017  27.341  28.359  1.00  0.00     0.074 A 
ATOM     45  C   UNL A   1      41.056  26.258  28.319  1.00  0.00     0.031 C 
ATOM     46  C   UNL A   1      47.434  24.501  26.359  1.00  0.00     0.029 A 
ATOM     47  C   UNL A   1      47.249  25.903  26.723  1.00  0.00     0.049 A 
ATOM     48  H   UNL A   1      45.519  26.799  27.463  1.00  0.00     0.167 HD
ATOM     49  C   UNL A   1      41.730  28.609  28.747  1.00  0.00     0.034 A 
ATOM     50  C   UNL A   1      48.195  26.860  26.639  1.00  0.00     0.034 A 
ATOM     51  C   UNL A   1      42.702  29.674  28.793  1.00  0.00     0.049 A 
ATOM     52  C   UNL A   1      47.844  28.269  27.043  1.00  0.00     0.074 A 
ATOM     53  C   UNL A   1      42.534  30.977  29.231  1.00  0.00     0.029 A 
ATOM     54  N   UNL A   1      44.023  29.566  28.376  1.00  0.00    -0.354 N 
ATOM     55  N   UNL A   1      46.698  28.745  27.472  1.00  0.00    -0.248 NA
ATOM     56  C   UNL A   1      48.917  29.269  26.957  1.00  0.00     0.031 C 
ATOM     57  C   UNL A   1      43.730  31.671  29.018  1.00  0.00     0.029 A 
ATOM     58  C   UNL A   1      44.668  30.786  28.513  1.00  0.00     0.049 A 
ATOM     59  H   UNL A   1      44.440  28.742  28.033  1.00  0.00     0.167 HD
ATOM     60  C   UNL A   1      46.920  30.094  27.730  1.00  0.00     0.074 A 
ATOM     61  C   UNL A   1      48.312  30.353  27.422  1.00  0.00     0.031 C 
ATOM     62  C   UNL A   1      46.053  31.034  28.187  1.00  0.00     0.034 A 
BRANCH  49  63
ATOM     63  C   UNL A   1      40.300  28.912  29.127  1.00  0.00     0.023 A 
ATOM     64  C   UNL A   1      39.881  28.936  30.468  1.00  0.00     0.031 A 
ATOM     65  C   UNL A   1      39.337  29.159  28.132  1.00  0.00     0.131 A 
ATOM     66  C   UNL A   1      38.526  29.124  30.777  1.00  0.00     0.055 A 
ATOM     67  C   UNL A   1      38.003  29.424  28.450  1.00  0.00     0.041 A 
ATOM     68  F   UNL A   1      39.673  29.131  26.834  1.00  0.00    -0.206 F 
ATOM     69  C   UNL A   1      37.588  29.393  29.778  1.00  0.00     0.022 A 
BRANCH  66  70
ATOM     70  S   UNL A   1      37.984  28.869  32.489  1.00  0.00     0.124 S 
ATOM     71  O   UNL A   1      38.948  29.682  33.226  1.00  0.00    -0.237 OA
ATOM     72  O   UNL A   1      36.614  29.367  32.463  1.00  0.00    -0.237 OA
ATOM     73  O   UNL A   1      38.121  27.426  32.680  1.00  0.00    -0.744 OA
ENDBRANCH  66  70
ENDBRANCH  49  63
BRANCH  50  74
ATOM     74  C   UNL A   1      49.557  26.533  26.131  1.00  0.00     0.023 A 
ATOM     75  C   UNL A   1      49.991  26.993  24.878  1.00  0.00     0.031 A 
ATOM     76  C   UNL A   1      50.432  25.720  26.875  1.00  0.00     0.131 A 
ATOM     77  C   UNL A   1      51.245  26.603  24.386  1.00  0.00     0.055 A 
ATOM     78  C   UNL A   1      51.699  25.375  26.402  1.00  0.00     0.041 A 
ATOM     79  F   UNL A   1      50.068  25.257  28.082  1.00  0.00    -0.206 F 
ATOM     80  C   UNL A   1      52.108  25.807  25.145  1.00  0.00     0.022 A 
BRANCH  77  81
ATOM     81  S   UNL A   1      51.705  27.087  22.700  1.00  0.00     0.124 S 
ATOM     82  O   UNL A   1      52.743  26.113  22.384  1.00  0.00    -0.237 OA
ATOM     83  O   UNL A   1      50.441  26.934  21.986  1.00  0.00    -0.237 OA
ATOM     84  O   UNL A   1      52.167  28.465  22.855  1.00  0.00    -0.744 OA
ENDBRANCH  77  81
ENDBRANCH  50  74
BRANCH  62  85
ATOM     85  C   UNL A   1      46.603  32.420  28.412  1.00  0.00     0.023 A 
ATOM     86  C   UNL A   1      46.687  33.360  27.370  1.00  0.00     0.031 A 
ATOM     87  C   UNL A   1      47.057  32.801  29.687  1.00  0.00     0.131 A 
ATOM     88  C   UNL A   1      47.255  34.620  27.611  1.00  0.00     0.055 A 
ATOM     89  C   UNL A   1      47.572  34.074  29.932  1.00  0.00     0.041 A 
ATOM     90  F   UNL A   1      47.003  31.941  30.716  1.00  0.00    -0.206 F 
ATOM     91  C   UNL A   1      47.684  34.988  28.889  1.00  0.00     0.022 A 
BRANCH  88  92
ATOM     92  S   UNL A   1      47.498  35.748  26.212  1.00  0.00     0.124 S 
ATOM     93  O   UNL A   1      48.576  36.605  26.695  1.00  0.00    -0.237 OA
ATOM     94  O   UNL A   1      47.847  34.834  25.128  1.00  0.00    -0.237 OA
ATOM     95  O   UNL A   1      46.199  36.405  26.072  1.00  0.00    -0.744 OA
ENDBRANCH  88  92
ENDBRANCH  62  85
ENDBRANCH  36  37
ENDBRANCH  28  31
ENDBRANCH  26  27
ENDBRANCH  25  26
ENDBRANCH   1  25
TORSDOF 19
ENDMDL
MODEL 2
REMARK VINA RESULT:     -11.5      2.271      8.629
REMARK SMILES CC[C@H](C(=O)NCCCCCCNC(=O)c1ccc(-c2c3nc(c(-c4cc(S(=O)(=O)[O-])ccc4F)c4ccc([nH]4)c(-c4cc(S(=O)(=O)[O-])ccc4F)c4nc(c(-c5cc(S(=O)(=O)[O-])ccc5F)c5ccc2[nH]5)C=C4)C=C3)cc1)N1C(=O)/C(=C\c2cccs2)SC1=S
REMARK SMILES IDX 10 1 9 2 8 3 7 4 6 5 4 6 5 7 3 9 2 10 1 11 79 12 80 13 90 14
REMARK SMILES IDX 81 15 82 16 89 17 91 18 83 19 84 20 85 21 88 22 86 23 87 24
REMARK SMILES IDX 11 25 12 26 13 27 14 28 15 30 16 31 17 32 78 33 18 34 77 35
REMARK SMILES IDX 19 36 20 37 21 38 71 39 22 40 76 41 70 42 72 43 23 44 75 45
REMARK SMILES IDX 69 46 68 47 24 49 56 50 36 51 55 52 37 53 40 54 54 55 73 56
REMARK SMILES IDX 38 57 39 58 53 60 74 61 41 62 25 63 26 64 34 65 27 66 33 67
REMARK SMILES IDX 35 68 32 69 28 70 29 71 30 72 31 73 57 74 58 75 66 76 59 77
REMARK SMILES IDX 65 78 67 79 64 80 60 81 61 82 62 83 63 84 42 85 43 86 51 87
REMARK SMILES IDX 44 88 50 89 52 90 49 91 45 92 46 93 47 94 48 95
REMARK H PARENT 6 8 13 29 72 48 40 59
REMARK Flexibility Score: inf
ROOT
ATOM      1  C   UNL A   1      40.725  22.235  27.738  1.00  0.00     0.002 C 
ENDROOT
BRANCH   1   2
ATOM      2  C   UNL A   1      40.287  23.047  26.515  1.00  0.00     0.002 C 
BRANCH   2   3
ATOM      3  C   UNL A   1      38.816  23.486  26.504  1.00  0.00     0.021 C 
BRANCH   3   4
ATOM      4  C   UNL A   1      37.853  22.473  25.885  1.00  0.00     0.116 C 
BRANCH   4   5
ATOM      5  N   UNL A   1      37.558  22.791  24.499  1.00  0.00    -0.354 N 
ATOM      6  C   UNL A   1      36.354  22.926  23.867  1.00  0.00     0.243 C 
ATOM      7  O   UNL A   1      36.355  23.157  22.654  1.00  0.00    -0.273 OA
ATOM      8  H   UNL A   1      38.347  22.929  23.926  1.00  0.00     0.163 HD
BRANCH   6   9
ATOM      9  C   UNL A   1      35.036  22.905  24.693  1.00  0.00     0.181 C 
BRANCH   9  10
ATOM     10  C   UNL A   1      34.823  24.372  25.129  1.00  0.00     0.032 C 
ATOM     11  C   UNL A   1      33.770  24.580  26.218  1.00  0.00     0.006 C 
ENDBRANCH   9  10
BRANCH   9  12
ATOM     12  N   UNL A   1      33.981  22.215  23.904  1.00  0.00    -0.280 N 
ATOM     13  C   UNL A   1      33.729  20.894  24.283  1.00  0.00     0.266 C 
ATOM     14  C   UNL A   1      32.988  22.751  23.117  1.00  0.00     0.149 C 
ATOM     15  O   UNL A   1      34.180  20.368  25.293  1.00  0.00    -0.268 OA
ATOM     16  C   UNL A   1      32.733  20.251  23.380  1.00  0.00     0.081 C 
ATOM     17  S   UNL A   1      32.082  21.456  22.334  1.00  0.00    -0.054 SA
ATOM     18  S   UNL A   1      32.505  24.331  22.885  1.00  0.00    -0.052 S 
ATOM     19  C   UNL A   1      32.339  18.973  23.297  1.00  0.00     0.040 C 
BRANCH  19  20
ATOM     20  C   UNL A   1      32.813  17.913  24.117  1.00  0.00     0.028 A 
ATOM     21  C   UNL A   1      32.334  17.427  25.322  1.00  0.00     0.020 A 
ATOM     22  S   UNL A   1      34.148  16.967  23.578  1.00  0.00    -0.144 S 
ATOM     23  C   UNL A   1      33.092  16.331  25.823  1.00  0.00     0.012 A 
ATOM     24  C   UNL A   1      34.116  15.985  24.973  1.00  0.00     0.065 A 
ENDBRANCH  19  20
ENDBRANCH   9  12
ENDBRANCH   6   9
ENDBRANCH   4   5
ENDBRANCH   3   4
ENDBRANCH   2   3
ENDBRANCH   1   2
BRANCH   1  25
ATOM     25  C   UNL A   1      41.034  20.759  27.476  1.00  0.00     0.021 C 
BRANCH  25  26
ATOM     26  C   UNL A   1      40.993  20.336  26.010  1.00  0.00     0.116 C 
BRANCH  26  27
ATOM     27  N   UNL A   1      42.178  19.594  25.611  1.00  0.00    -0.352 N 
ATOM     28  C   UNL A   1      43.455  20.049  25.376  1.00  0.00     0.251 C 
ATOM     29  H   UNL A   1      42.048  18.626  25.492  1.00  0.00     0.163 HD
ATOM     30  O   UNL A   1      44.289  19.297  24.885  1.00  0.00    -0.269 OA
BRANCH  28  31
ATOM     31  C   UNL A   1      43.807  21.455  25.685  1.00  0.00     0.039 A 
ATOM     32  C   UNL A   1      43.565  22.439  24.722  1.00  0.00     0.014 A 
ATOM     33  C   UNL A   1      44.369  21.803  26.916  1.00  0.00     0.014 A 
ATOM     34  C   UNL A   1      43.814  23.781  25.023  1.00  0.00     0.010 A 
ATOM     35  C   UNL A   1      44.561  23.145  27.236  1.00  0.00     0.010 A 
ATOM     36  C   UNL A   1      44.276  24.150  26.297  1.00  0.00    -0.014 A 
BRANCH  36  37
ATOM     37  C   UNL A   1      44.449  25.578  26.676  1.00  0.00     0.031 A 
ATOM     38  C   UNL A   1      45.808  26.219  26.610  1.00  0.00     0.074 A 
ATOM     39  C   UNL A   1      43.396  26.271  27.153  1.00  0.00     0.049 A 
ATOM     40  N   UNL A   1      46.180  27.411  26.998  1.00  0.00    -0.248 NA
ATOM     41  C   UNL A   1      46.895  25.398  26.059  1.00  0.00     0.031 C 
ATOM     42  C   UNL A   1      42.035  25.748  27.296  1.00  0.00     0.029 A 
ATOM     43  N   UNL A   1      43.306  27.558  27.623  1.00  0.00    -0.354 N 
ATOM     44  C   UNL A   1      47.547  27.481  26.752  1.00  0.00     0.074 A 
ATOM     45  C   UNL A   1      47.944  26.189  26.231  1.00  0.00     0.031 C 
ATOM     46  C   UNL A   1      41.246  26.709  27.805  1.00  0.00     0.029 A 
ATOM     47  C   UNL A   1      42.050  27.898  28.069  1.00  0.00     0.049 A 
ATOM     48  H   UNL A   1      44.070  28.180  27.638  1.00  0.00     0.167 HD
ATOM     49  C   UNL A   1      48.389  28.531  26.928  1.00  0.00     0.034 A 
ATOM     50  C   UNL A   1      41.600  29.031  28.646  1.00  0.00     0.034 A 
ATOM     51  C   UNL A   1      47.975  29.816  27.438  1.00  0.00     0.049 A 
ATOM     52  C   UNL A   1      42.561  30.171  28.863  1.00  0.00     0.074 A 
ATOM     53  C   UNL A   1      48.732  30.965  27.595  1.00  0.00     0.029 A 
ATOM     54  N   UNL A   1      46.696  30.121  27.885  1.00  0.00    -0.354 N 
ATOM     55  N   UNL A   1      43.841  30.237  28.581  1.00  0.00    -0.248 NA
ATOM     56  C   UNL A   1      42.014  31.391  29.472  1.00  0.00     0.031 C 
ATOM     57  C   UNL A   1      47.929  31.942  28.195  1.00  0.00     0.029 A 
ATOM     58  C   UNL A   1      46.652  31.428  28.349  1.00  0.00     0.049 A 
ATOM     59  H   UNL A   1      45.932  29.501  27.872  1.00  0.00     0.167 HD
ATOM     60  C   UNL A   1      44.246  31.515  28.956  1.00  0.00     0.074 A 
ATOM     61  C   UNL A   1      43.072  32.190  29.470  1.00  0.00     0.031 C 
ATOM     62  C   UNL A   1      45.477  32.083  28.875  1.00  0.00     0.034 A 
BRANCH  49  63
ATOM     63  C   UNL A   1      49.844  28.317  26.589  1.00  0.00     0.023 A 
ATOM     64  C   UNL A   1      50.352  28.586  25.307  1.00  0.00     0.031 A 
ATOM     65  C   UNL A   1      50.734  27.816  27.557  1.00  0.00     0.131 A 
ATOM     66  C   UNL A   1      51.687  28.282  25.002  1.00  0.00     0.055 A 
ATOM     67  C   UNL A   1      52.082  27.590  27.270  1.00  0.00     0.041 A 
ATOM     68  F   UNL A   1      50.304  27.522  28.793  1.00  0.00    -0.206 F 
ATOM     69  C   UNL A   1      52.563  27.809  25.982  1.00  0.00     0.022 A 
BRANCH  66  70
ATOM     70  S   UNL A   1      52.224  28.378  23.272  1.00  0.00     0.124 S 
ATOM     71  O   UNL A   1      53.625  28.763  23.420  1.00  0.00    -0.237 OA
ATOM     72  O   UNL A   1      51.979  27.023  22.791  1.00  0.00    -0.237 OA
ATOM     73  O   UNL A   1      51.359  29.409  22.702  1.00  0.00    -0.744 OA
ENDBRANCH  66  70
ENDBRANCH  49  63
BRANCH  50  74
ATOM     74  C   UNL A   1      40.179  29.141  29.083  1.00  0.00     0.023 A 
ATOM     75  C   UNL A   1      39.832  29.050  30.440  1.00  0.00     0.031 A 
ATOM     76  C   UNL A   1      39.142  29.299  28.145  1.00  0.00     0.131 A 
ATOM     77  C   UNL A   1      38.481  29.074  30.819  1.00  0.00     0.055 A 
ATOM     78  C   UNL A   1      37.803  29.372  28.532  1.00  0.00     0.041 A 
ATOM     79  F   UNL A   1      39.421  29.396  26.835  1.00  0.00    -0.206 F 
ATOM     80  C   UNL A   1      37.465  29.247  29.875  1.00  0.00     0.022 A 
BRANCH  77  81
ATOM     81  S   UNL A   1      38.063  28.796  32.562  1.00  0.00     0.124 S 
ATOM     82  O   UNL A   1      38.168  27.345  32.664  1.00  0.00    -0.237 OA
ATOM     83  O   UNL A   1      39.097  29.564  33.247  1.00  0.00    -0.237 OA
ATOM     84  O   UNL A   1      36.709  29.334  32.677  1.00  0.00    -0.744 OA
ENDBRANCH  77  81
ENDBRANCH  50  74
BRANCH  62  85
ATOM     85  C   UNL A   1      45.599  33.517  29.325  1.00  0.00     0.023 A 
ATOM     86  C   UNL A   1      45.334  34.589  28.455  1.00  0.00     0.031 A 
ATOM     87  C   UNL A   1      45.996  33.813  30.641  1.00  0.00     0.131 A 
ATOM     88  C   UNL A   1      45.513  35.908  28.899  1.00  0.00     0.055 A 
ATOM     89  C   UNL A   1      46.120  35.127  31.092  1.00  0.00     0.041 A 
ATOM     90  F   UNL A   1      46.265  32.826  31.511  1.00  0.00    -0.206 F 
ATOM     91  C   UNL A   1      45.890  36.184  30.216  1.00  0.00     0.022 A 
BRANCH  88  92
ATOM     92  S   UNL A   1      45.321  37.262  27.708  1.00  0.00     0.124 S 
ATOM     93  O   UNL A   1      45.895  38.390  28.434  1.00  0.00    -0.237 OA
ATOM     94  O   UNL A   1      46.088  36.783  26.562  1.00  0.00    -0.237 OA
ATOM     95  O   UNL A   1      43.875  37.330  27.498  1.00  0.00    -0.744 OA
ENDBRANCH  88  92
ENDBRANCH  62  85
ENDBRANCH  36  37
ENDBRANCH  28  31
ENDBRANCH  26  27
ENDBRANCH  25  26
ENDBRANCH   1  25
TORSDOF 19
ENDMDL
MODEL 3
REMARK VINA RESULT:     -11.5      5.910     10.067
REMARK SMILES CC[C@H](C(=O)NCCCCCCNC(=O)c1ccc(-c2c3nc(c(-c4cc(S(=O)(=O)[O-])ccc4F)c4ccc([nH]4)c(-c4cc(S(=O)(=O)[O-])ccc4F)c4nc(c(-c5cc(S(=O)(=O)[O-])ccc5F)c5ccc2[nH]5)C=C4)C=C3)cc1)N1C(=O)/C(=C\c2cccs2)SC1=S
REMARK SMILES IDX 10 1 9 2 8 3 7 4 6 5 4 6 5 7 3 9 2 10 1 11 79 12 80 13 90 14
REMARK SMILES IDX 81 15 82 16 89 17 91 18 83 19 84 20 85 21 88 22 86 23 87 24
REMARK SMILES IDX 11 25 12 26 13 27 14 28 15 30 16 31 17 32 78 33 18 34 77 35
REMARK SMILES IDX 19 36 20 37 21 38 71 39 22 40 76 41 70 42 72 43 23 44 75 45
REMARK SMILES IDX 69 46 68 47 24 49 56 50 36 51 55 52 37 53 40 54 54 55 73 56
REMARK SMILES IDX 38 57 39 58 53 60 74 61 41 62 25 63 26 64 34 65 27 66 33 67
REMARK SMILES IDX 35 68 32 69 28 70 29 71 30 72 31 73 57 74 58 75 66 76 59 77
REMARK SMILES IDX 65 78 67 79 64 80 60 81 61 82 62 83 63 84 42 85 43 86 51 87
REMARK SMILES IDX 44 88 50 89 52 90 49 91 45 92 46 93 47 94 48 95
REMARK H PARENT 6 8 13 29 72 48 40 59
REMARK Flexibility Score: inf
ROOT
ATOM      1  C   UNL A   1      34.998  31.722  27.961  1.00  0.00     0.002 C 
ENDROOT
BRANCH   1   2
ATOM      2  C   UNL A   1      34.765  30.285  27.483  1.00  0.00     0.002 C 
BRANCH   2   3
ATOM      3  C   UNL A   1      33.308  29.918  27.173  1.00  0.00     0.021 C 
BRANCH   3   4
ATOM      4  C   UNL A   1      33.094  29.244  25.817  1.00  0.00     0.116 C 
BRANCH   4   5
ATOM      5  N   UNL A   1      33.549  27.865  25.827  1.00  0.00    -0.354 N 
ATOM      6  C   UNL A   1      33.382  26.880  24.895  1.00  0.00     0.243 C 
ATOM      7  O   UNL A   1      33.825  25.756  25.148  1.00  0.00    -0.273 OA
ATOM      8  H   UNL A   1      34.055  27.598  26.628  1.00  0.00     0.163 HD
BRANCH   6   9
ATOM      9  C   UNL A   1      32.755  27.217  23.512  1.00  0.00     0.181 C 
BRANCH   9  10
ATOM     10  C   UNL A   1      33.530  26.336  22.505  1.00  0.00     0.032 C 
ATOM     11  C   UNL A   1      32.789  26.033  21.202  1.00  0.00     0.006 C 
ENDBRANCH   9  10
BRANCH   9  12
ATOM     12  N   UNL A   1      31.276  27.091  23.606  1.00  0.00    -0.280 N 
ATOM     13  C   UNL A   1      30.557  28.148  23.043  1.00  0.00     0.266 C 
ATOM     14  C   UNL A   1      30.506  25.973  23.832  1.00  0.00     0.149 C 
ATOM     15  O   UNL A   1      31.054  29.032  22.355  1.00  0.00    -0.268 OA
ATOM     16  C   UNL A   1      29.092  27.990  23.269  1.00  0.00     0.081 C 
ATOM     17  S   UNL A   1      28.807  26.430  23.945  1.00  0.00    -0.054 SA
ATOM     18  S   UNL A   1      30.917  24.359  23.922  1.00  0.00    -0.052 S 
ATOM     19  C   UNL A   1      28.084  28.842  23.037  1.00  0.00     0.040 C 
BRANCH  19  20
ATOM     20  C   UNL A   1      28.220  30.142  22.480  1.00  0.00     0.028 A 
ATOM     21  C   UNL A   1      28.045  30.583  21.179  1.00  0.00     0.020 A 
ATOM     22  S   UNL A   1      28.582  31.468  23.519  1.00  0.00    -0.144 S 
ATOM     23  C   UNL A   1      28.266  31.983  21.030  1.00  0.00     0.012 A 
ATOM     24  C   UNL A   1      28.575  32.583  22.227  1.00  0.00     0.065 A 
ENDBRANCH  19  20
ENDBRANCH   9  12
ENDBRANCH   6   9
ENDBRANCH   4   5
ENDBRANCH   3   4
ENDBRANCH   2   3
ENDBRANCH   1   2
BRANCH   1  25
ATOM     25  C   UNL A   1      33.756  32.617  27.995  1.00  0.00     0.021 C 
BRANCH  25  26
ATOM     26  C   UNL A   1      34.036  34.118  28.016  1.00  0.00     0.116 C 
BRANCH  26  27
ATOM     27  N   UNL A   1      33.290  34.808  29.056  1.00  0.00    -0.352 N 
ATOM     28  C   UNL A   1      33.468  34.784  30.420  1.00  0.00     0.251 C 
ATOM     29  H   UNL A   1      32.552  35.375  28.738  1.00  0.00     0.163 HD
ATOM     30  O   UNL A   1      32.635  35.304  31.152  1.00  0.00    -0.269 OA
BRANCH  28  31
ATOM     31  C   UNL A   1      34.649  34.102  30.999  1.00  0.00     0.039 A 
ATOM     32  C   UNL A   1      34.450  32.982  31.813  1.00  0.00     0.014 A 
ATOM     33  C   UNL A   1      35.944  34.559  30.741  1.00  0.00     0.014 A 
ATOM     34  C   UNL A   1      35.553  32.277  32.303  1.00  0.00     0.010 A 
ATOM     35  C   UNL A   1      37.041  33.820  31.180  1.00  0.00     0.010 A 
ATOM     36  C   UNL A   1      36.857  32.665  31.958  1.00  0.00    -0.014 A 
BRANCH  36  37
ATOM     37  C   UNL A   1      38.041  31.870  32.380  1.00  0.00     0.031 A 
ATOM     38  C   UNL A   1      38.756  32.199  33.661  1.00  0.00     0.074 A 
ATOM     39  C   UNL A   1      38.516  30.903  31.569  1.00  0.00     0.049 A 
ATOM     40  N   UNL A   1      39.863  31.697  34.144  1.00  0.00    -0.248 NA
ATOM     41  C   UNL A   1      38.159  33.253  34.494  1.00  0.00     0.031 C 
ATOM     42  C   UNL A   1      37.929  30.513  30.285  1.00  0.00     0.029 A 
ATOM     43  N   UNL A   1      39.610  30.083  31.693  1.00  0.00    -0.354 N 
ATOM     44  C   UNL A   1      40.105  32.380  35.331  1.00  0.00     0.074 A 
ATOM     45  C   UNL A   1      39.055  33.370  35.463  1.00  0.00     0.031 C 
ATOM     46  C   UNL A   1      38.661  29.524  29.748  1.00  0.00     0.029 A 
ATOM     47  C   UNL A   1      39.795  29.240  30.623  1.00  0.00     0.049 A 
ATOM     48  H   UNL A   1      40.207  30.098  32.477  1.00  0.00     0.167 HD
ATOM     49  C   UNL A   1      41.099  32.189  36.234  1.00  0.00     0.034 A 
ATOM     50  C   UNL A   1      40.776  28.352  30.363  1.00  0.00     0.034 A 
ATOM     51  C   UNL A   1      42.131  31.190  36.093  1.00  0.00     0.049 A 
ATOM     52  C   UNL A   1      41.889  28.181  31.365  1.00  0.00     0.074 A 
ATOM     53  C   UNL A   1      43.147  30.869  36.978  1.00  0.00     0.029 A 
ATOM     54  N   UNL A   1      42.289  30.357  34.992  1.00  0.00    -0.354 N 
ATOM     55  N   UNL A   1      42.077  28.803  32.505  1.00  0.00    -0.248 NA
ATOM     56  C   UNL A   1      42.919  27.183  31.045  1.00  0.00     0.031 C 
ATOM     57  C   UNL A   1      43.954  29.891  36.385  1.00  0.00     0.029 A 
ATOM     58  C   UNL A   1      43.403  29.549  35.161  1.00  0.00     0.049 A 
ATOM     59  H   UNL A   1      41.695  30.343  34.207  1.00  0.00     0.167 HD
ATOM     60  C   UNL A   1      43.234  28.253  33.050  1.00  0.00     0.074 A 
ATOM     61  C   UNL A   1      43.691  27.241  32.121  1.00  0.00     0.031 C 
ATOM     62  C   UNL A   1      43.858  28.554  34.218  1.00  0.00     0.034 A 
BRANCH  49  63
ATOM     63  C   UNL A   1      41.128  33.100  37.438  1.00  0.00     0.023 A 
ATOM     64  C   UNL A   1      40.429  32.787  38.617  1.00  0.00     0.031 A 
ATOM     65  C   UNL A   1      41.846  34.308  37.400  1.00  0.00     0.131 A 
ATOM     66  C   UNL A   1      40.398  33.703  39.678  1.00  0.00     0.055 A 
ATOM     67  C   UNL A   1      41.877  35.180  38.491  1.00  0.00     0.041 A 
ATOM     68  F   UNL A   1      42.518  34.669  36.296  1.00  0.00    -0.206 F 
ATOM     69  C   UNL A   1      41.138  34.887  39.633  1.00  0.00     0.022 A 
BRANCH  66  70
ATOM     70  S   UNL A   1      39.263  33.392  41.058  1.00  0.00     0.124 S 
ATOM     71  O   UNL A   1      39.020  31.959  40.922  1.00  0.00    -0.237 OA
ATOM     72  O   UNL A   1      40.054  33.800  42.214  1.00  0.00    -0.237 OA
ATOM     73  O   UNL A   1      38.114  34.244  40.756  1.00  0.00    -0.744 OA
ENDBRANCH  66  70
ENDBRANCH  49  63
BRANCH  50  74
ATOM     74  C   UNL A   1      40.770  27.572  29.094  1.00  0.00     0.023 A 
ATOM     75  C   UNL A   1      41.677  27.862  28.062  1.00  0.00     0.031 A 
ATOM     76  C   UNL A   1      39.829  26.548  28.876  1.00  0.00     0.131 A 
ATOM     77  C   UNL A   1      41.598  27.170  26.845  1.00  0.00     0.055 A 
ATOM     78  C   UNL A   1      39.787  25.827  27.681  1.00  0.00     0.041 A 
ATOM     79  F   UNL A   1      38.943  26.227  29.832  1.00  0.00    -0.206 F 
ATOM     80  C   UNL A   1      40.667  26.145  26.652  1.00  0.00     0.022 A 
BRANCH  77  81
ATOM     81  S   UNL A   1      42.681  27.680  25.483  1.00  0.00     0.124 S 
ATOM     82  O   UNL A   1      42.637  26.510  24.614  1.00  0.00    -0.237 OA
ATOM     83  O   UNL A   1      42.003  28.874  24.989  1.00  0.00    -0.237 OA
ATOM     84  O   UNL A   1      43.964  27.922  26.141  1.00  0.00    -0.744 OA
ENDBRANCH  77  81
ENDBRANCH  50  74
BRANCH  62  85
ATOM     85  C   UNL A   1      45.085  27.749  34.565  1.00  0.00     0.023 A 
ATOM     86  C   UNL A   1      45.000  26.553  35.299  1.00  0.00     0.031 A 
ATOM     87  C   UNL A   1      46.357  28.190  34.161  1.00  0.00     0.131 A 
ATOM     88  C   UNL A   1      46.172  25.863  35.647  1.00  0.00     0.055 A 
ATOM     89  C   UNL A   1      47.514  27.472  34.464  1.00  0.00     0.041 A 
ATOM     90  F   UNL A   1      46.494  29.328  33.461  1.00  0.00    -0.206 F 
ATOM     91  C   UNL A   1      47.426  26.307  35.221  1.00  0.00     0.022 A 
BRANCH  88  92
ATOM     92  S   UNL A   1      46.041  24.416  36.731  1.00  0.00     0.124 S 
ATOM     93  O   UNL A   1      46.221  23.314  35.791  1.00  0.00    -0.237 OA
ATOM     94  O   UNL A   1      47.132  24.632  37.677  1.00  0.00    -0.237 OA
ATOM     95  O   UNL A   1      44.698  24.533  37.299  1.00  0.00    -0.744 OA
ENDBRANCH  88  92
ENDBRANCH  62  85
ENDBRANCH  36  37
ENDBRANCH  28  31
ENDBRANCH  26  27
ENDBRANCH  25  26
ENDBRANCH   1  25
TORSDOF 19
ENDMDL
