MODEL 1
REMARK VINA RESULT:     -11.6      0.000      0.000
REMARK SMILES O=C(NCCCCCCNC(=O)c1ccc(-c2c3nc(c(-c4cc(S(=O)(=O)[O-])ccc4F)c4ccc([nH]4)c(-c4cc(S(=O)(=O)[O-])ccc4F)c4nc(c(-c5cc(S(=O)(=O)[O-])ccc5F)c5ccc2[nH]5)C=C4)C=C3)cc1)/C(=C/c1ccsc1)c1ccccc1
REMARK SMILES IDX 7 1 6 2 5 3 4 4 3 5 1 6 2 7 76 9 77 10 83 11 84 12 88 13
REMARK SMILES IDX 85 14 87 15 86 16 78 17 79 18 82 19 80 20 81 21 8 22 9 23
REMARK SMILES IDX 10 24 11 25 12 27 13 28 14 29 75 30 15 31 74 32 16 33 17 34
REMARK SMILES IDX 18 35 68 36 19 37 73 38 67 39 69 40 20 41 72 42 66 43 65 44
REMARK SMILES IDX 21 46 53 47 33 48 52 49 34 50 37 51 51 52 70 53 35 54 36 55
REMARK SMILES IDX 50 57 71 58 38 59 22 60 23 61 31 62 24 63 30 64 32 65 29 66
REMARK SMILES IDX 25 67 26 68 27 69 28 70 54 71 55 72 63 73 56 74 62 75 64 76
REMARK SMILES IDX 61 77 57 78 58 79 59 80 60 81 39 82 40 83 48 84 41 85 47 86
REMARK SMILES IDX 49 87 46 88 42 89 43 90 44 91 45 92
REMARK H PARENT 3 8 10 26 69 45 37 56
REMARK Flexibility Score: inf
ROOT
ATOM      1  C   UNL A   1      36.361  22.994  23.448  1.00  0.00     0.002 C 
ENDROOT
BRANCH   1   2
ATOM      2  C   UNL A   1      35.002  23.635  23.739  1.00  0.00     0.002 C 
BRANCH   2   3
ATOM      3  C   UNL A   1      33.796  22.699  23.725  1.00  0.00     0.021 C 
BRANCH   3   4
ATOM      4  C   UNL A   1      32.595  23.160  22.908  1.00  0.00     0.116 C 
BRANCH   4   5
ATOM      5  N   UNL A   1      32.928  24.074  21.831  1.00  0.00    -0.352 N 
ATOM      6  O   UNL A   1      33.267  25.945  20.698  1.00  0.00    -0.269 OA
ATOM      7  C   UNL A   1      32.897  25.437  21.760  1.00  0.00     0.251 C 
ATOM      8  H   UNL A   1      33.228  23.632  21.004  1.00  0.00     0.163 HD
BRANCH   7   9
ATOM      9  C   UNL A   1      32.414  26.305  22.902  1.00  0.00     0.047 C 
ATOM     10  C   UNL A   1      33.372  26.692  23.778  1.00  0.00     0.023 C 
BRANCH   9  11
ATOM     11  C   UNL A   1      31.013  26.734  23.064  1.00  0.00    -0.013 A 
ATOM     12  C   UNL A   1      30.097  25.919  23.753  1.00  0.00     0.009 A 
ATOM     13  C   UNL A   1      30.585  27.975  22.573  1.00  0.00     0.009 A 
ATOM     14  C   UNL A   1      28.787  26.346  23.965  1.00  0.00     0.001 A 
ATOM     15  C   UNL A   1      29.276  28.407  22.802  1.00  0.00     0.001 A 
ATOM     16  C   UNL A   1      28.382  27.594  23.499  1.00  0.00     0.000 A 
ENDBRANCH   9  11
BRANCH  10  17
ATOM     17  C   UNL A   1      33.211  27.539  24.928  1.00  0.00    -0.014 A 
ATOM     18  C   UNL A   1      32.832  27.131  26.244  1.00  0.00     0.020 A 
ATOM     19  C   UNL A   1      33.401  28.904  24.859  1.00  0.00     0.073 A 
ATOM     20  C   UNL A   1      32.649  28.201  27.092  1.00  0.00     0.065 A 
ATOM     21  S   UNL A   1      33.022  29.688  26.335  1.00  0.00    -0.152 S 
ENDBRANCH  10  17
ENDBRANCH   7   9
ENDBRANCH   4   5
ENDBRANCH   3   4
ENDBRANCH   2   3
ENDBRANCH   1   2
BRANCH   1  22
ATOM     22  C   UNL A   1      36.705  21.736  24.248  1.00  0.00     0.021 C 
BRANCH  22  23
ATOM     23  C   UNL A   1      37.254  21.969  25.653  1.00  0.00     0.116 C 
BRANCH  23  24
ATOM     24  N   UNL A   1      38.313  21.041  26.003  1.00  0.00    -0.352 N 
ATOM     25  C   UNL A   1      39.573  21.292  26.488  1.00  0.00     0.251 C 
ATOM     26  H   UNL A   1      38.096  20.089  25.873  1.00  0.00     0.163 HD
ATOM     27  O   UNL A   1      40.384  20.376  26.573  1.00  0.00    -0.269 OA
BRANCH  25  28
ATOM     28  C   UNL A   1      39.961  22.669  26.876  1.00  0.00     0.039 A 
ATOM     29  C   UNL A   1      40.827  22.842  27.960  1.00  0.00     0.014 A 
ATOM     30  C   UNL A   1      39.474  23.783  26.186  1.00  0.00     0.014 A 
ATOM     31  C   UNL A   1      41.253  24.127  28.309  1.00  0.00     0.010 A 
ATOM     32  C   UNL A   1      39.959  25.055  26.488  1.00  0.00     0.010 A 
ATOM     33  C   UNL A   1      40.853  25.242  27.554  1.00  0.00    -0.014 A 
BRANCH  33  34
ATOM     34  C   UNL A   1      41.363  26.605  27.866  1.00  0.00     0.031 A 
ATOM     35  C   UNL A   1      42.775  26.983  27.513  1.00  0.00     0.074 A 
ATOM     36  C   UNL A   1      40.568  27.483  28.510  1.00  0.00     0.049 A 
ATOM     37  N   UNL A   1      43.422  28.094  27.763  1.00  0.00    -0.248 NA
ATOM     38  C   UNL A   1      43.576  25.970  26.811  1.00  0.00     0.031 C 
ATOM     39  C   UNL A   1      39.189  27.223  28.931  1.00  0.00     0.029 A 
ATOM     40  N   UNL A   1      40.801  28.770  28.929  1.00  0.00    -0.354 N 
ATOM     41  C   UNL A   1      44.704  27.911  27.255  1.00  0.00     0.074 A 
ATOM     42  C   UNL A   1      44.760  26.559  26.741  1.00  0.00     0.031 C 
ATOM     43  C   UNL A   1      38.694  28.322  29.523  1.00  0.00     0.029 A 
ATOM     44  C   UNL A   1      39.731  29.347  29.574  1.00  0.00     0.049 A 
ATOM     45  H   UNL A   1      41.655  29.237  28.781  1.00  0.00     0.167 HD
ATOM     46  C   UNL A   1      45.731  28.796  27.200  1.00  0.00     0.034 A 
ATOM     47  C   UNL A   1      39.603  30.557  30.156  1.00  0.00     0.034 A 
ATOM     48  C   UNL A   1      45.656  30.144  27.711  1.00  0.00     0.049 A 
ATOM     49  C   UNL A   1      40.775  31.507  30.122  1.00  0.00     0.074 A 
ATOM     50  C   UNL A   1      46.621  31.136  27.668  1.00  0.00     0.029 A 
ATOM     51  N   UNL A   1      44.559  30.688  28.368  1.00  0.00    -0.354 N 
ATOM     52  N   UNL A   1      41.966  31.333  29.595  1.00  0.00    -0.248 NA
ATOM     53  C   UNL A   1      40.582  32.821  30.749  1.00  0.00     0.031 C 
ATOM     54  C   UNL A   1      46.139  32.248  28.365  1.00  0.00     0.029 A 
ATOM     55  C   UNL A   1      44.839  31.988  28.765  1.00  0.00     0.049 A 
ATOM     56  H   UNL A   1      43.708  30.220  28.529  1.00  0.00     0.167 HD
ATOM     57  C   UNL A   1      42.649  32.531  29.798  1.00  0.00     0.074 A 
ATOM     58  C   UNL A   1      41.731  33.421  30.477  1.00  0.00     0.031 C 
ATOM     59  C   UNL A   1      43.917  32.865  29.449  1.00  0.00     0.034 A 
BRANCH  46  60
ATOM     60  C   UNL A   1      47.028  28.325  26.588  1.00  0.00     0.023 A 
ATOM     61  C   UNL A   1      47.215  28.281  25.195  1.00  0.00     0.031 A 
ATOM     62  C   UNL A   1      48.091  27.904  27.405  1.00  0.00     0.131 A 
ATOM     63  C   UNL A   1      48.406  27.764  24.662  1.00  0.00     0.055 A 
ATOM     64  C   UNL A   1      49.306  27.469  26.871  1.00  0.00     0.041 A 
ATOM     65  F   UNL A   1      47.966  27.900  28.742  1.00  0.00    -0.206 F 
ATOM     66  C   UNL A   1      49.463  27.383  25.491  1.00  0.00     0.022 A 
BRANCH  63  67
ATOM     67  S   UNL A   1      48.496  27.461  22.876  1.00  0.00     0.124 S 
ATOM     68  O   UNL A   1      47.333  28.201  22.393  1.00  0.00    -0.237 OA
ATOM     69  O   UNL A   1      49.798  28.017  22.527  1.00  0.00    -0.237 OA
ATOM     70  O   UNL A   1      48.388  26.007  22.768  1.00  0.00    -0.744 OA
ENDBRANCH  63  67
ENDBRANCH  46  60
BRANCH  47  71
ATOM     71  C   UNL A   1      38.333  30.941  30.842  1.00  0.00     0.023 A 
ATOM     72  C   UNL A   1      37.290  31.565  30.139  1.00  0.00     0.031 A 
ATOM     73  C   UNL A   1      38.168  30.745  32.226  1.00  0.00     0.131 A 
ATOM     74  C   UNL A   1      36.157  32.024  30.829  1.00  0.00     0.055 A 
ATOM     75  C   UNL A   1      37.011  31.145  32.896  1.00  0.00     0.041 A 
ATOM     76  F   UNL A   1      39.133  30.153  32.948  1.00  0.00    -0.206 F 
ATOM     77  C   UNL A   1      36.003  31.804  32.200  1.00  0.00     0.022 A 
BRANCH  74  78
ATOM     78  S   UNL A   1      34.935  33.016  29.927  1.00  0.00     0.124 S 
ATOM     79  O   UNL A   1      35.775  34.050  29.333  1.00  0.00    -0.237 OA
ATOM     80  O   UNL A   1      34.372  32.036  29.004  1.00  0.00    -0.237 OA
ATOM     81  O   UNL A   1      34.028  33.474  30.978  1.00  0.00    -0.744 OA
ENDBRANCH  74  78
ENDBRANCH  47  71
BRANCH  59  82
ATOM     82  C   UNL A   1      44.367  34.275  29.752  1.00  0.00     0.023 A 
ATOM     83  C   UNL A   1      44.152  35.334  28.854  1.00  0.00     0.031 A 
ATOM     84  C   UNL A   1      45.032  34.559  30.960  1.00  0.00     0.131 A 
ATOM     85  C   UNL A   1      44.647  36.613  29.147  1.00  0.00     0.055 A 
ATOM     86  C   UNL A   1      45.462  35.848  31.278  1.00  0.00     0.041 A 
ATOM     87  F   UNL A   1      45.269  33.587  31.854  1.00  0.00    -0.206 F 
ATOM     88  C   UNL A   1      45.283  36.881  30.362  1.00  0.00     0.022 A 
BRANCH  85  89
ATOM     89  S   UNL A   1      44.542  37.903  27.876  1.00  0.00     0.124 S 
ATOM     90  O   UNL A   1      43.658  37.286  26.892  1.00  0.00    -0.237 OA
ATOM     91  O   UNL A   1      43.982  39.027  28.619  1.00  0.00    -0.237 OA
ATOM     92  O   UNL A   1      45.928  38.074  27.444  1.00  0.00    -0.744 OA
ENDBRANCH  85  89
ENDBRANCH  59  82
ENDBRANCH  33  34
ENDBRANCH  25  28
ENDBRANCH  23  24
ENDBRANCH  22  23
ENDBRANCH   1  22
TORSDOF 18
ENDMDL
MODEL 2
REMARK VINA RESULT:     -11.2      1.560      2.388
REMARK SMILES O=C(NCCCCCCNC(=O)c1ccc(-c2c3nc(c(-c4cc(S(=O)(=O)[O-])ccc4F)c4ccc([nH]4)c(-c4cc(S(=O)(=O)[O-])ccc4F)c4nc(c(-c5cc(S(=O)(=O)[O-])ccc5F)c5ccc2[nH]5)C=C4)C=C3)cc1)/C(=C/c1ccsc1)c1ccccc1
REMARK SMILES IDX 7 1 6 2 5 3 4 4 3 5 1 6 2 7 76 9 77 10 83 11 84 12 88 13
REMARK SMILES IDX 85 14 87 15 86 16 78 17 79 18 82 19 80 20 81 21 8 22 9 23
REMARK SMILES IDX 10 24 11 25 12 27 13 28 14 29 75 30 15 31 74 32 16 33 17 34
REMARK SMILES IDX 18 35 68 36 19 37 73 38 67 39 69 40 20 41 72 42 66 43 65 44
REMARK SMILES IDX 21 46 53 47 33 48 52 49 34 50 37 51 51 52 70 53 35 54 36 55
REMARK SMILES IDX 50 57 71 58 38 59 22 60 23 61 31 62 24 63 30 64 32 65 29 66
REMARK SMILES IDX 25 67 26 68 27 69 28 70 54 71 55 72 63 73 56 74 62 75 64 76
REMARK SMILES IDX 61 77 57 78 58 79 59 80 60 81 39 82 40 83 48 84 41 85 47 86
REMARK SMILES IDX 49 87 46 88 42 89 43 90 44 91 45 92
REMARK H PARENT 3 8 10 26 69 45 37 56
REMARK Flexibility Score: inf
ROOT
ATOM      1  C   UNL A   1      34.658  20.941  25.388  1.00  0.00     0.002 C 
ENDROOT
BRANCH   1   2
ATOM      2  C   UNL A   1      33.437  20.767  24.483  1.00  0.00     0.002 C 
BRANCH   2   3
ATOM      3  C   UNL A   1      32.072  20.886  25.158  1.00  0.00     0.021 C 
BRANCH   3   4
ATOM      4  C   UNL A   1      31.214  22.073  24.736  1.00  0.00     0.116 C 
BRANCH   4   5
ATOM      5  N   UNL A   1      30.394  22.619  25.802  1.00  0.00    -0.352 N 
ATOM      6  O   UNL A   1      29.521  24.042  27.256  1.00  0.00    -0.269 OA
ATOM      7  C   UNL A   1      30.357  23.862  26.366  1.00  0.00     0.251 C 
ATOM      8  H   UNL A   1      29.752  21.981  26.186  1.00  0.00     0.163 HD
BRANCH   7   9
ATOM      9  C   UNL A   1      31.300  24.973  25.960  1.00  0.00     0.047 C 
ATOM     10  C   UNL A   1      30.848  26.229  26.197  1.00  0.00     0.023 C 
BRANCH   9  11
ATOM     11  C   UNL A   1      32.630  24.741  25.368  1.00  0.00    -0.013 A 
ATOM     12  C   UNL A   1      32.793  24.738  23.970  1.00  0.00     0.009 A 
ATOM     13  C   UNL A   1      33.754  24.562  26.186  1.00  0.00     0.009 A 
ATOM     14  C   UNL A   1      34.057  24.581  23.405  1.00  0.00     0.001 A 
ATOM     15  C   UNL A   1      35.021  24.422  25.615  1.00  0.00     0.001 A 
ATOM     16  C   UNL A   1      35.171  24.435  24.228  1.00  0.00     0.000 A 
ENDBRANCH   9  11
BRANCH  10  17
ATOM     17  C   UNL A   1      31.536  27.466  25.947  1.00  0.00    -0.014 A 
ATOM     18  C   UNL A   1      31.617  28.162  24.702  1.00  0.00     0.020 A 
ATOM     19  C   UNL A   1      32.237  28.121  26.938  1.00  0.00     0.073 A 
ATOM     20  C   UNL A   1      32.453  29.255  24.767  1.00  0.00     0.065 A 
ATOM     21  S   UNL A   1      33.067  29.498  26.344  1.00  0.00    -0.152 S 
ENDBRANCH  10  17
ENDBRANCH   7   9
ENDBRANCH   4   5
ENDBRANCH   3   4
ENDBRANCH   2   3
ENDBRANCH   1   2
BRANCH   1  22
ATOM     22  C   UNL A   1      36.026  20.740  24.730  1.00  0.00     0.021 C 
BRANCH  22  23
ATOM     23  C   UNL A   1      37.210  21.382  25.446  1.00  0.00     0.116 C 
BRANCH  23  24
ATOM     24  N   UNL A   1      38.269  20.435  25.740  1.00  0.00    -0.352 N 
ATOM     25  C   UNL A   1      39.550  20.662  26.183  1.00  0.00     0.251 C 
ATOM     26  H   UNL A   1      38.035  19.489  25.603  1.00  0.00     0.163 HD
ATOM     27  O   UNL A   1      40.350  19.735  26.222  1.00  0.00    -0.269 OA
BRANCH  25  28
ATOM     28  C   UNL A   1      39.969  22.027  26.580  1.00  0.00     0.039 A 
ATOM     29  C   UNL A   1      40.927  22.167  27.588  1.00  0.00     0.014 A 
ATOM     30  C   UNL A   1      39.423  23.160  25.973  1.00  0.00     0.014 A 
ATOM     31  C   UNL A   1      41.382  23.441  27.941  1.00  0.00     0.010 A 
ATOM     32  C   UNL A   1      39.933  24.424  26.272  1.00  0.00     0.010 A 
ATOM     33  C   UNL A   1      40.917  24.579  27.260  1.00  0.00    -0.014 A 
BRANCH  33  34
ATOM     34  C   UNL A   1      41.452  25.932  27.570  1.00  0.00     0.031 A 
ATOM     35  C   UNL A   1      42.833  26.322  27.119  1.00  0.00     0.074 A 
ATOM     36  C   UNL A   1      40.712  26.792  28.300  1.00  0.00     0.049 A 
ATOM     37  N   UNL A   1      43.499  27.425  27.349  1.00  0.00    -0.248 NA
ATOM     38  C   UNL A   1      43.574  25.330  26.326  1.00  0.00     0.031 C 
ATOM     39  C   UNL A   1      39.370  26.518  28.820  1.00  0.00     0.029 A 
ATOM     40  N   UNL A   1      40.979  28.066  28.736  1.00  0.00    -0.354 N 
ATOM     41  C   UNL A   1      44.737  27.258  26.736  1.00  0.00     0.074 A 
ATOM     42  C   UNL A   1      44.751  25.922  26.181  1.00  0.00     0.031 C 
ATOM     43  C   UNL A   1      38.924  27.599  29.481  1.00  0.00     0.029 A 
ATOM     44  C   UNL A   1      39.964  28.623  29.480  1.00  0.00     0.049 A 
ATOM     45  H   UNL A   1      41.820  28.537  28.535  1.00  0.00     0.167 HD
ATOM     46  C   UNL A   1      45.758  28.145  26.627  1.00  0.00     0.034 A 
ATOM     47  C   UNL A   1      39.884  29.815  30.105  1.00  0.00     0.034 A 
ATOM     48  C   UNL A   1      45.725  29.477  27.181  1.00  0.00     0.049 A 
ATOM     49  C   UNL A   1      41.051  30.767  30.006  1.00  0.00     0.074 A 
ATOM     50  C   UNL A   1      46.686  30.471  27.091  1.00  0.00     0.029 A 
ATOM     51  N   UNL A   1      44.685  30.002  27.937  1.00  0.00    -0.354 N 
ATOM     52  N   UNL A   1      42.197  30.609  29.382  1.00  0.00    -0.248 NA
ATOM     53  C   UNL A   1      40.910  32.063  30.684  1.00  0.00     0.031 C 
ATOM     54  C   UNL A   1      46.262  31.562  27.855  1.00  0.00     0.029 A 
ATOM     55  C   UNL A   1      44.996  31.290  28.348  1.00  0.00     0.049 A 
ATOM     56  H   UNL A   1      43.848  29.529  28.151  1.00  0.00     0.167 HD
ATOM     57  C   UNL A   1      42.895  31.801  29.565  1.00  0.00     0.074 A 
ATOM     58  C   UNL A   1      42.035  32.671  30.340  1.00  0.00     0.031 C 
ATOM     59  C   UNL A   1      44.133  32.147  29.128  1.00  0.00     0.034 A 
BRANCH  46  60
ATOM     60  C   UNL A   1      47.002  27.692  25.901  1.00  0.00     0.023 A 
ATOM     61  C   UNL A   1      47.214  27.986  24.542  1.00  0.00     0.031 A 
ATOM     62  C   UNL A   1      47.989  26.949  26.572  1.00  0.00     0.131 A 
ATOM     63  C   UNL A   1      48.344  27.481  23.882  1.00  0.00     0.055 A 
ATOM     64  C   UNL A   1      49.154  26.521  25.932  1.00  0.00     0.041 A 
ATOM     65  F   UNL A   1      47.834  26.617  27.864  1.00  0.00    -0.206 F 
ATOM     66  C   UNL A   1      49.330  26.774  24.575  1.00  0.00     0.022 A 
BRANCH  63  67
ATOM     67  S   UNL A   1      48.437  27.639  22.078  1.00  0.00     0.124 S 
ATOM     68  O   UNL A   1      49.567  28.551  21.920  1.00  0.00    -0.237 OA
ATOM     69  O   UNL A   1      48.660  26.263  21.651  1.00  0.00    -0.237 OA
ATOM     70  O   UNL A   1      47.137  28.203  21.716  1.00  0.00    -0.744 OA
ENDBRANCH  63  67
ENDBRANCH  46  60
BRANCH  47  71
ATOM     71  C   UNL A   1      38.673  30.179  30.899  1.00  0.00     0.023 A 
ATOM     72  C   UNL A   1      37.623  30.914  30.325  1.00  0.00     0.031 A 
ATOM     73  C   UNL A   1      38.574  29.849  32.263  1.00  0.00     0.131 A 
ATOM     74  C   UNL A   1      36.552  31.345  31.123  1.00  0.00     0.055 A 
ATOM     75  C   UNL A   1      37.475  30.226  33.037  1.00  0.00     0.041 A 
ATOM     76  F   UNL A   1      39.548  29.147  32.864  1.00  0.00    -0.206 F 
ATOM     77  C   UNL A   1      36.463  30.993  32.471  1.00  0.00     0.022 A 
BRANCH  74  78
ATOM     78  S   UNL A   1      35.330  32.475  30.398  1.00  0.00     0.124 S 
ATOM     79  O   UNL A   1      34.351  32.581  31.474  1.00  0.00    -0.237 OA
ATOM     80  O   UNL A   1      36.135  33.665  30.141  1.00  0.00    -0.237 OA
ATOM     81  O   UNL A   1      34.876  31.762  29.206  1.00  0.00    -0.744 OA
ENDBRANCH  74  78
ENDBRANCH  47  71
BRANCH  59  82
ATOM     82  C   UNL A   1      44.607  33.547  29.435  1.00  0.00     0.023 A 
ATOM     83  C   UNL A   1      44.191  34.657  28.679  1.00  0.00     0.031 A 
ATOM     84  C   UNL A   1      45.500  33.772  30.500  1.00  0.00     0.131 A 
ATOM     85  C   UNL A   1      44.711  35.929  28.958  1.00  0.00     0.055 A 
ATOM     86  C   UNL A   1      45.961  35.050  30.816  1.00  0.00     0.041 A 
ATOM     87  F   UNL A   1      45.936  32.750  31.253  1.00  0.00    -0.206 F 
ATOM     88  C   UNL A   1      45.578  36.136  30.034  1.00  0.00     0.022 A 
BRANCH  85  89
ATOM     89  S   UNL A   1      44.321  37.297  27.832  1.00  0.00     0.124 S 
ATOM     90  O   UNL A   1      43.523  38.172  28.684  1.00  0.00    -0.237 OA
ATOM     91  O   UNL A   1      45.646  37.793  27.474  1.00  0.00    -0.237 OA
ATOM     92  O   UNL A   1      43.587  36.649  26.746  1.00  0.00    -0.744 OA
ENDBRANCH  85  89
ENDBRANCH  59  82
ENDBRANCH  33  34
ENDBRANCH  25  28
ENDBRANCH  23  24
ENDBRANCH  22  23
ENDBRANCH   1  22
TORSDOF 18
ENDMDL
MODEL 3
REMARK VINA RESULT:     -11.1      2.015      2.360
REMARK SMILES O=C(NCCCCCCNC(=O)c1ccc(-c2c3nc(c(-c4cc(S(=O)(=O)[O-])ccc4F)c4ccc([nH]4)c(-c4cc(S(=O)(=O)[O-])ccc4F)c4nc(c(-c5cc(S(=O)(=O)[O-])ccc5F)c5ccc2[nH]5)C=C4)C=C3)cc1)/C(=C/c1ccsc1)c1ccccc1
REMARK SMILES IDX 7 1 6 2 5 3 4 4 3 5 1 6 2 7 76 9 77 10 83 11 84 12 88 13
REMARK SMILES IDX 85 14 87 15 86 16 78 17 79 18 82 19 80 20 81 21 8 22 9 23
REMARK SMILES IDX 10 24 11 25 12 27 13 28 14 29 75 30 15 31 74 32 16 33 17 34
REMARK SMILES IDX 18 35 68 36 19 37 73 38 67 39 69 40 20 41 72 42 66 43 65 44
REMARK SMILES IDX 21 46 53 47 33 48 52 49 34 50 37 51 51 52 70 53 35 54 36 55
REMARK SMILES IDX 50 57 71 58 38 59 22 60 23 61 31 62 24 63 30 64 32 65 29 66
REMARK SMILES IDX 25 67 26 68 27 69 28 70 54 71 55 72 63 73 56 74 62 75 64 76
REMARK SMILES IDX 61 77 57 78 58 79 59 80 60 81 39 82 40 83 48 84 41 85 47 86
REMARK SMILES IDX 49 87 46 88 42 89 43 90 44 91 45 92
REMARK H PARENT 3 8 10 26 69 45 37 56
REMARK Flexibility Score: inf
ROOT
ATOM      1  C   UNL A   1      36.350  22.585  23.514  1.00  0.00     0.002 C 
ENDROOT
BRANCH   1   2
ATOM      2  C   UNL A   1      35.115  23.379  23.080  1.00  0.00     0.002 C 
BRANCH   2   3
ATOM      3  C   UNL A   1      33.771  22.881  23.607  1.00  0.00     0.021 C 
BRANCH   3   4
ATOM      4  C   UNL A   1      32.549  23.228  22.767  1.00  0.00     0.116 C 
BRANCH   4   5
ATOM      5  N   UNL A   1      32.828  24.118  21.655  1.00  0.00    -0.352 N 
ATOM      6  O   UNL A   1      33.141  25.964  20.474  1.00  0.00    -0.269 OA
ATOM      7  C   UNL A   1      32.838  25.480  21.569  1.00  0.00     0.251 C 
ATOM      8  H   UNL A   1      33.048  23.657  20.814  1.00  0.00     0.163 HD
BRANCH   7   9
ATOM      9  C   UNL A   1      32.474  26.377  22.732  1.00  0.00     0.047 C 
ATOM     10  C   UNL A   1      33.501  26.701  23.554  1.00  0.00     0.023 C 
BRANCH   9  11
ATOM     11  C   UNL A   1      31.114  26.896  22.969  1.00  0.00    -0.013 A 
ATOM     12  C   UNL A   1      30.714  28.120  22.403  1.00  0.00     0.009 A 
ATOM     13  C   UNL A   1      30.192  26.160  23.725  1.00  0.00     0.009 A 
ATOM     14  C   UNL A   1      29.411  28.586  22.572  1.00  0.00     0.001 A 
ATOM     15  C   UNL A   1      28.882  26.623  23.877  1.00  0.00     0.001 A 
ATOM     16  C   UNL A   1      28.494  27.831  23.299  1.00  0.00     0.000 A 
ENDBRANCH   9  11
BRANCH  10  17
ATOM     17  C   UNL A   1      33.457  27.556  24.709  1.00  0.00    -0.014 A 
ATOM     18  C   UNL A   1      33.445  27.144  26.078  1.00  0.00     0.020 A 
ATOM     19  C   UNL A   1      33.402  28.930  24.596  1.00  0.00     0.073 A 
ATOM     20  C   UNL A   1      33.278  28.204  26.941  1.00  0.00     0.065 A 
ATOM     21  S   UNL A   1      33.229  29.701  26.116  1.00  0.00    -0.152 S 
ENDBRANCH  10  17
ENDBRANCH   7   9
ENDBRANCH   4   5
ENDBRANCH   3   4
ENDBRANCH   2   3
ENDBRANCH   1   2
BRANCH   1  22
ATOM     22  C   UNL A   1      36.098  21.378  24.420  1.00  0.00     0.021 C 
BRANCH  22  23
ATOM     23  C   UNL A   1      36.813  21.395  25.768  1.00  0.00     0.116 C 
BRANCH  23  24
ATOM     24  N   UNL A   1      37.898  20.434  25.840  1.00  0.00    -0.352 N 
ATOM     25  C   UNL A   1      39.233  20.636  26.095  1.00  0.00     0.251 C 
ATOM     26  H   UNL A   1      37.639  19.497  25.683  1.00  0.00     0.163 HD
ATOM     27  O   UNL A   1      40.023  19.710  25.956  1.00  0.00    -0.269 OA
BRANCH  25  28
ATOM     28  C   UNL A   1      39.717  21.976  26.504  1.00  0.00     0.039 A 
ATOM     29  C   UNL A   1      40.744  22.058  27.450  1.00  0.00     0.014 A 
ATOM     30  C   UNL A   1      39.166  23.143  25.970  1.00  0.00     0.014 A 
ATOM     31  C   UNL A   1      41.259  23.306  27.809  1.00  0.00     0.010 A 
ATOM     32  C   UNL A   1      39.731  24.382  26.272  1.00  0.00     0.010 A 
ATOM     33  C   UNL A   1      40.783  24.478  27.197  1.00  0.00    -0.014 A 
BRANCH  33  34
ATOM     34  C   UNL A   1      41.377  25.806  27.511  1.00  0.00     0.031 A 
ATOM     35  C   UNL A   1      42.792  26.116  27.109  1.00  0.00     0.074 A 
ATOM     36  C   UNL A   1      40.656  26.712  28.202  1.00  0.00     0.049 A 
ATOM     37  N   UNL A   1      43.507  27.185  27.351  1.00  0.00    -0.248 NA
ATOM     38  C   UNL A   1      43.509  25.075  26.357  1.00  0.00     0.031 C 
ATOM     39  C   UNL A   1      39.283  26.517  28.674  1.00  0.00     0.029 A 
ATOM     40  N   UNL A   1      40.974  27.977  28.633  1.00  0.00    -0.354 N 
ATOM     41  C   UNL A   1      44.756  26.945  26.789  1.00  0.00     0.074 A 
ATOM     42  C   UNL A   1      44.720  25.602  26.250  1.00  0.00     0.031 C 
ATOM     43  C   UNL A   1      38.871  27.629  29.304  1.00  0.00     0.029 A 
ATOM     44  C   UNL A   1      39.962  28.597  29.331  1.00  0.00     0.049 A 
ATOM     45  H   UNL A   1      41.845  28.400  28.459  1.00  0.00     0.167 HD
ATOM     46  C   UNL A   1      45.826  27.776  26.708  1.00  0.00     0.034 A 
ATOM     47  C   UNL A   1      39.922  29.800  29.938  1.00  0.00     0.034 A 
ATOM     48  C   UNL A   1      45.844  29.115  27.245  1.00  0.00     0.049 A 
ATOM     49  C   UNL A   1      41.141  30.688  29.873  1.00  0.00     0.074 A 
ATOM     50  C   UNL A   1      46.858  30.055  27.180  1.00  0.00     0.029 A 
ATOM     51  N   UNL A   1      44.804  29.704  27.955  1.00  0.00    -0.354 N 
ATOM     52  N   UNL A   1      42.299  30.461  29.296  1.00  0.00    -0.248 NA
ATOM     53  C   UNL A   1      41.044  31.998  30.530  1.00  0.00     0.031 C 
ATOM     54  C   UNL A   1      46.464  31.178  27.915  1.00  0.00     0.029 A 
ATOM     55  C   UNL A   1      45.168  30.979  28.362  1.00  0.00     0.049 A 
ATOM     56  H   UNL A   1      43.936  29.279  28.142  1.00  0.00     0.167 HD
ATOM     57  C   UNL A   1      43.053  31.617  29.492  1.00  0.00     0.074 A 
ATOM     58  C   UNL A   1      42.211  32.541  30.223  1.00  0.00     0.031 C 
ATOM     59  C   UNL A   1      44.323  31.891  29.098  1.00  0.00     0.034 A 
BRANCH  46  60
ATOM     60  C   UNL A   1      47.072  27.248  26.036  1.00  0.00     0.023 A 
ATOM     61  C   UNL A   1      48.038  26.511  26.744  1.00  0.00     0.031 A 
ATOM     62  C   UNL A   1      47.303  27.493  24.671  1.00  0.00     0.131 A 
ATOM     63  C   UNL A   1      49.219  26.106  26.103  1.00  0.00     0.055 A 
ATOM     64  C   UNL A   1      48.441  27.014  24.018  1.00  0.00     0.041 A 
ATOM     65  F   UNL A   1      46.429  28.211  23.947  1.00  0.00    -0.206 F 
ATOM     66  C   UNL A   1      49.415  26.328  24.739  1.00  0.00     0.022 A 
BRANCH  63  67
ATOM     67  S   UNL A   1      50.556  25.411  27.112  1.00  0.00     0.124 S 
ATOM     68  O   UNL A   1      51.050  26.598  27.805  1.00  0.00    -0.237 OA
ATOM     69  O   UNL A   1      49.855  24.435  27.937  1.00  0.00    -0.237 OA
ATOM     70  O   UNL A   1      51.475  24.849  26.124  1.00  0.00    -0.744 OA
ENDBRANCH  63  67
ENDBRANCH  46  60
BRANCH  47  71
ATOM     71  C   UNL A   1      38.703  30.237  30.681  1.00  0.00     0.023 A 
ATOM     72  C   UNL A   1      37.663  30.918  30.029  1.00  0.00     0.031 A 
ATOM     73  C   UNL A   1      38.587  30.034  32.068  1.00  0.00     0.131 A 
ATOM     74  C   UNL A   1      36.583  31.424  30.771  1.00  0.00     0.055 A 
ATOM     75  C   UNL A   1      37.480  30.483  32.791  1.00  0.00     0.041 A 
ATOM     76  F   UNL A   1      39.552  29.389  32.743  1.00  0.00    -0.206 F 
ATOM     77  C   UNL A   1      36.477  31.197  32.145  1.00  0.00     0.022 A 
BRANCH  74  78
ATOM     78  S   UNL A   1      35.374  32.484  29.930  1.00  0.00     0.124 S 
ATOM     79  O   UNL A   1      34.939  31.626  28.835  1.00  0.00    -0.237 OA
ATOM     80  O   UNL A   1      34.396  32.723  30.987  1.00  0.00    -0.237 OA
ATOM     81  O   UNL A   1      36.162  33.650  29.537  1.00  0.00    -0.744 OA
ENDBRANCH  74  78
ENDBRANCH  47  71
BRANCH  59  82
ATOM     82  C   UNL A   1      44.859  33.269  29.407  1.00  0.00     0.023 A 
ATOM     83  C   UNL A   1      45.571  33.543  30.587  1.00  0.00     0.031 A 
ATOM     84  C   UNL A   1      44.642  34.328  28.506  1.00  0.00     0.131 A 
ATOM     85  C   UNL A   1      45.990  34.853  30.864  1.00  0.00     0.055 A 
ATOM     86  C   UNL A   1      45.121  35.615  28.754  1.00  0.00     0.041 A 
ATOM     87  F   UNL A   1      43.964  34.126  27.365  1.00  0.00    -0.206 F 
ATOM     88  C   UNL A   1      45.787  35.886  29.946  1.00  0.00     0.022 A 
BRANCH  85  89
ATOM     89  S   UNL A   1      46.714  35.213  32.488  1.00  0.00     0.124 S 
ATOM     90  O   UNL A   1      46.173  36.537  32.774  1.00  0.00    -0.237 OA
ATOM     91  O   UNL A   1      46.196  34.122  33.308  1.00  0.00    -0.237 OA
ATOM     92  O   UNL A   1      48.154  35.170  32.238  1.00  0.00    -0.744 OA
ENDBRANCH  85  89
ENDBRANCH  59  82
ENDBRANCH  33  34
ENDBRANCH  25  28
ENDBRANCH  23  24
ENDBRANCH  22  23
ENDBRANCH   1  22
TORSDOF 18
ENDMDL
