MODEL 1
REMARK VINA RESULT:     -10.9      0.000      0.000
REMARK SMILES CCC[NH2+][C@]1(C(=O)NCCCCCCNC(=O)c2ccc(-c3c4nc(c(-c5cc(S(=O)(=O)[O-])ccc5F)c5ccc([nH]5)c(-c5cc(S(=O)(=O)[O-])ccc5F)c5nc(c(-c6cc(S(=O)(=O)[O-])ccc6F)c6ccc3[nH]6)C=C5)C=C4)cc2)CCC[C@H](n2ccc(C)n2)C1
REMARK SMILES IDX 11 1 10 2 9 3 8 4 6 5 7 6 5 8 81 9 91 10 82 11 84 12 83 13
REMARK SMILES IDX 4 14 3 17 2 18 1 19 85 20 86 21 90 22 87 23 88 24 89 25
REMARK SMILES IDX 12 26 13 27 14 28 15 29 16 30 17 32 18 33 19 34 80 35 20 36
REMARK SMILES IDX 79 37 21 38 22 39 23 40 73 41 24 42 78 43 72 44 74 45 25 46
REMARK SMILES IDX 77 47 71 48 70 49 26 51 58 52 38 53 57 54 39 55 42 56 56 57
REMARK SMILES IDX 75 58 40 59 41 60 55 62 76 63 43 64 27 65 28 66 36 67 29 68
REMARK SMILES IDX 35 69 37 70 34 71 30 72 31 73 32 74 33 75 59 76 60 77 68 78
REMARK SMILES IDX 61 79 67 80 69 81 66 82 62 83 63 84 64 85 65 86 44 87 45 88
REMARK SMILES IDX 53 89 46 90 52 91 54 92 51 93 47 94 48 95 49 96 50 97
REMARK H PARENT 8 7 4 15 4 16 15 31 74 50 42 61
REMARK Flexibility Score: inf
ROOT
ATOM      1  C   UNL A   1      31.043  28.725  24.392  1.00  0.00     0.002 C 
ENDROOT
BRANCH   1   2
ATOM      2  C   UNL A   1      31.528  28.962  22.957  1.00  0.00     0.021 C 
BRANCH   2   3
ATOM      3  C   UNL A   1      32.984  28.558  22.743  1.00  0.00     0.116 C 
BRANCH   3   4
ATOM      4  N   UNL A   1      33.078  27.516  21.740  1.00  0.00    -0.351 N 
ATOM      5  C   UNL A   1      33.252  26.169  21.829  1.00  0.00     0.281 C 
ATOM      6  O   UNL A   1      33.286  25.573  20.745  1.00  0.00    -0.268 OA
ATOM      7  H   UNL A   1      33.000  27.847  20.816  1.00  0.00     0.163 HD
BRANCH   5   8
ATOM      8  C   UNL A   1      33.276  25.418  23.207  1.00  0.00     0.177 C 
ATOM      9  C   UNL A   1      33.979  26.170  24.358  1.00  0.00     0.079 C 
ATOM     10  C   UNL A   1      31.774  25.130  23.537  1.00  0.00     0.106 C 
ATOM     11  C   UNL A   1      33.716  25.533  25.724  1.00  0.00     0.009 C 
ATOM     12  C   UNL A   1      31.497  24.543  24.935  1.00  0.00     0.114 C 
ATOM     13  C   UNL A   1      32.218  25.402  25.992  1.00  0.00     0.028 C 
BRANCH   8  14
ATOM     14  N   UNL A   1      33.942  24.100  23.061  1.00  0.00    -0.334 N 
ATOM     15  H   UNL A   1      33.416  23.435  23.630  1.00  0.00     0.347 HD
ATOM     16  H   UNL A   1      33.944  23.937  22.054  1.00  0.00     0.347 HD
BRANCH  14  17
ATOM     17  C   UNL A   1      35.341  23.970  23.439  1.00  0.00     0.261 C 
BRANCH  17  18
ATOM     18  C   UNL A   1      35.606  22.566  23.998  1.00  0.00     0.058 C 
ATOM     19  C   UNL A   1      35.731  22.526  25.516  1.00  0.00     0.010 C 
ENDBRANCH  17  18
ENDBRANCH  14  17
ENDBRANCH   8  14
BRANCH  12  20
ATOM     20  N   UNL A   1      31.755  23.109  25.061  1.00  0.00    -0.269 N 
ATOM     21  C   UNL A   1      31.956  22.410  26.222  1.00  0.00     0.109 A 
ATOM     22  N   UNL A   1      31.708  22.296  23.984  1.00  0.00    -0.178 NA
ATOM     23  C   UNL A   1      32.307  21.137  25.841  1.00  0.00     0.045 A 
ATOM     24  C   UNL A   1      32.192  21.133  24.435  1.00  0.00     0.059 A 
ATOM     25  C   UNL A   1      32.541  20.046  23.493  1.00  0.00     0.069 C 
ENDBRANCH  12  20
ENDBRANCH   5   8
ENDBRANCH   3   4
ENDBRANCH   2   3
ENDBRANCH   1   2
BRANCH   1  26
ATOM     26  C   UNL A   1      31.681  29.644  25.439  1.00  0.00     0.002 C 
BRANCH  26  27
ATOM     27  C   UNL A   1      32.456  28.915  26.540  1.00  0.00     0.021 C 
BRANCH  27  28
ATOM     28  C   UNL A   1      33.847  29.480  26.800  1.00  0.00     0.116 C 
BRANCH  28  29
ATOM     29  N   UNL A   1      33.811  30.922  26.979  1.00  0.00    -0.352 N 
ATOM     30  C   UNL A   1      34.585  31.707  27.794  1.00  0.00     0.251 C 
ATOM     31  H   UNL A   1      33.139  31.401  26.443  1.00  0.00     0.163 HD
ATOM     32  O   UNL A   1      34.258  32.872  28.012  1.00  0.00    -0.269 OA
BRANCH  30  33
ATOM     33  C   UNL A   1      35.796  31.136  28.417  1.00  0.00     0.039 A 
ATOM     34  C   UNL A   1      35.687  29.958  29.158  1.00  0.00     0.014 A 
ATOM     35  C   UNL A   1      37.038  31.760  28.263  1.00  0.00     0.014 A 
ATOM     36  C   UNL A   1      36.834  29.377  29.701  1.00  0.00     0.010 A 
ATOM     37  C   UNL A   1      38.189  31.138  28.735  1.00  0.00     0.010 A 
ATOM     38  C   UNL A   1      38.099  29.942  29.465  1.00  0.00    -0.014 A 
BRANCH  38  39
ATOM     39  C   UNL A   1      39.336  29.302  29.983  1.00  0.00     0.031 A 
ATOM     40  C   UNL A   1      40.007  29.848  31.215  1.00  0.00     0.074 A 
ATOM     41  C   UNL A   1      39.879  28.265  29.315  1.00  0.00     0.049 A 
ATOM     42  N   UNL A   1      41.121  29.469  31.785  1.00  0.00    -0.248 NA
ATOM     43  C   UNL A   1      39.353  30.989  31.872  1.00  0.00     0.031 C 
ATOM     44  C   UNL A   1      39.336  27.672  28.091  1.00  0.00     0.029 A 
ATOM     45  N   UNL A   1      41.009  27.528  29.567  1.00  0.00    -0.354 N 
ATOM     46  C   UNL A   1      41.306  30.329  32.863  1.00  0.00     0.074 A 
ATOM     47  C   UNL A   1      40.226  31.290  32.821  1.00  0.00     0.031 C 
ATOM     48  C   UNL A   1      40.113  26.642  27.720  1.00  0.00     0.029 A 
ATOM     49  C   UNL A   1      41.239  26.534  28.643  1.00  0.00     0.049 A 
ATOM     50  H   UNL A   1      41.599  27.693  30.338  1.00  0.00     0.167 HD
ATOM     51  C   UNL A   1      42.274  30.302  33.814  1.00  0.00     0.034 A 
ATOM     52  C   UNL A   1      42.248  25.647  28.542  1.00  0.00     0.034 A 
ATOM     53  C   UNL A   1      43.342  29.332  33.841  1.00  0.00     0.049 A 
ATOM     54  C   UNL A   1      43.339  25.667  29.584  1.00  0.00     0.074 A 
ATOM     55  C   UNL A   1      44.346  29.182  34.782  1.00  0.00     0.029 A 
ATOM     56  N   UNL A   1      43.554  28.353  32.878  1.00  0.00    -0.354 N 
ATOM     57  N   UNL A   1      43.472  26.455  30.627  1.00  0.00    -0.248 NA
ATOM     58  C   UNL A   1      44.409  24.673  29.442  1.00  0.00     0.031 C 
ATOM     59  C   UNL A   1      45.208  28.171  34.346  1.00  0.00     0.029 A 
ATOM     60  C   UNL A   1      44.693  27.623  33.182  1.00  0.00     0.049 A 
ATOM     61  H   UNL A   1      42.979  28.200  32.093  1.00  0.00     0.167 HD
ATOM     62  C   UNL A   1      44.622  26.025  31.283  1.00  0.00     0.074 A 
ATOM     63  C   UNL A   1      45.134  24.901  30.527  1.00  0.00     0.031 C 
ATOM     64  C   UNL A   1      45.200  26.511  32.412  1.00  0.00     0.034 A 
BRANCH  51  65
ATOM     65  C   UNL A   1      42.232  31.373  34.879  1.00  0.00     0.023 A 
ATOM     66  C   UNL A   1      41.201  31.426  35.835  1.00  0.00     0.031 A 
ATOM     67  C   UNL A   1      43.219  32.373  34.926  1.00  0.00     0.131 A 
ATOM     68  C   UNL A   1      41.135  32.498  36.737  1.00  0.00     0.055 A 
ATOM     69  C   UNL A   1      43.198  33.386  35.887  1.00  0.00     0.041 A 
ATOM     70  F   UNL A   1      44.217  32.392  34.028  1.00  0.00    -0.206 F 
ATOM     71  C   UNL A   1      42.142  33.464  36.789  1.00  0.00     0.022 A 
BRANCH  68  72
ATOM     72  S   UNL A   1      39.631  32.700  37.732  1.00  0.00     0.124 S 
ATOM     73  O   UNL A   1      40.158  32.578  39.089  1.00  0.00    -0.237 OA
ATOM     74  O   UNL A   1      39.169  34.027  37.342  1.00  0.00    -0.237 OA
ATOM     75  O   UNL A   1      38.783  31.591  37.300  1.00  0.00    -0.744 OA
ENDBRANCH  68  72
ENDBRANCH  51  65
BRANCH  52  76
ATOM     76  C   UNL A   1      42.290  24.672  27.414  1.00  0.00     0.023 A 
ATOM     77  C   UNL A   1      41.511  23.505  27.439  1.00  0.00     0.031 A 
ATOM     78  C   UNL A   1      43.147  24.867  26.317  1.00  0.00     0.131 A 
ATOM     79  C   UNL A   1      41.642  22.552  26.416  1.00  0.00     0.055 A 
ATOM     80  C   UNL A   1      43.228  23.946  25.270  1.00  0.00     0.041 A 
ATOM     81  F   UNL A   1      43.915  25.966  26.240  1.00  0.00    -0.206 F 
ATOM     82  C   UNL A   1      42.484  22.773  25.324  1.00  0.00     0.022 A 
BRANCH  79  83
ATOM     83  S   UNL A   1      40.770  20.972  26.585  1.00  0.00     0.124 S 
ATOM     84  O   UNL A   1      40.818  20.760  28.028  1.00  0.00    -0.237 OA
ATOM     85  O   UNL A   1      39.460  21.286  26.025  1.00  0.00    -0.237 OA
ATOM     86  O   UNL A   1      41.580  20.050  25.792  1.00  0.00    -0.744 OA
ENDBRANCH  79  83
ENDBRANCH  52  76
BRANCH  64  87
ATOM     87  C   UNL A   1      46.427  25.790  32.922  1.00  0.00     0.023 A 
ATOM     88  C   UNL A   1      47.709  26.047  32.405  1.00  0.00     0.031 A 
ATOM     89  C   UNL A   1      46.306  24.823  33.936  1.00  0.00     0.131 A 
ATOM     90  C   UNL A   1      48.808  25.305  32.861  1.00  0.00     0.055 A 
ATOM     91  C   UNL A   1      47.413  24.137  34.434  1.00  0.00     0.041 A 
ATOM     92  F   UNL A   1      45.106  24.532  34.464  1.00  0.00    -0.206 F 
ATOM     93  C   UNL A   1      48.671  24.365  33.886  1.00  0.00     0.022 A 
BRANCH  90  94
ATOM     94  S   UNL A   1      50.404  25.507  32.023  1.00  0.00     0.124 S 
ATOM     95  O   UNL A   1      50.641  24.166  31.497  1.00  0.00    -0.237 OA
ATOM     96  O   UNL A   1      50.107  26.537  31.032  1.00  0.00    -0.237 OA
ATOM     97  O   UNL A   1      51.306  25.920  33.097  1.00  0.00    -0.744 OA
ENDBRANCH  90  94
ENDBRANCH  64  87
ENDBRANCH  38  39
ENDBRANCH  30  33
ENDBRANCH  28  29
ENDBRANCH  27  28
ENDBRANCH  26  27
ENDBRANCH   1  26
TORSDOF 20
ENDMDL
MODEL 2
REMARK VINA RESULT:     -10.8      1.811      2.762
REMARK SMILES CCC[NH2+][C@]1(C(=O)NCCCCCCNC(=O)c2ccc(-c3c4nc(c(-c5cc(S(=O)(=O)[O-])ccc5F)c5ccc([nH]5)c(-c5cc(S(=O)(=O)[O-])ccc5F)c5nc(c(-c6cc(S(=O)(=O)[O-])ccc6F)c6ccc3[nH]6)C=C5)C=C4)cc2)CCC[C@H](n2ccc(C)n2)C1
REMARK SMILES IDX 11 1 10 2 9 3 8 4 6 5 7 6 5 8 81 9 91 10 82 11 84 12 83 13
REMARK SMILES IDX 4 14 3 17 2 18 1 19 85 20 86 21 90 22 87 23 88 24 89 25
REMARK SMILES IDX 12 26 13 27 14 28 15 29 16 30 17 32 18 33 19 34 80 35 20 36
REMARK SMILES IDX 79 37 21 38 22 39 23 40 73 41 24 42 78 43 72 44 74 45 25 46
REMARK SMILES IDX 77 47 71 48 70 49 26 51 58 52 38 53 57 54 39 55 42 56 56 57
REMARK SMILES IDX 75 58 40 59 41 60 55 62 76 63 43 64 27 65 28 66 36 67 29 68
REMARK SMILES IDX 35 69 37 70 34 71 30 72 31 73 32 74 33 75 59 76 60 77 68 78
REMARK SMILES IDX 61 79 67 80 69 81 66 82 62 83 63 84 64 85 65 86 44 87 45 88
REMARK SMILES IDX 53 89 46 90 52 91 54 92 51 93 47 94 48 95 49 96 50 97
REMARK H PARENT 8 7 4 15 4 16 15 31 74 50 42 61
REMARK Flexibility Score: inf
ROOT
ATOM      1  C   UNL A   1      30.764  28.104  24.706  1.00  0.00     0.002 C 
ENDROOT
BRANCH   1   2
ATOM      2  C   UNL A   1      30.925  27.105  25.858  1.00  0.00     0.021 C 
BRANCH   2   3
ATOM      3  C   UNL A   1      29.995  25.901  25.740  1.00  0.00     0.116 C 
BRANCH   3   4
ATOM      4  N   UNL A   1      30.421  24.844  26.635  1.00  0.00    -0.351 N 
ATOM      5  C   UNL A   1      31.366  23.871  26.524  1.00  0.00     0.281 C 
ATOM      6  O   UNL A   1      31.463  23.121  27.503  1.00  0.00    -0.268 OA
ATOM      7  H   UNL A   1      29.931  24.826  27.489  1.00  0.00     0.163 HD
BRANCH   5   8
ATOM      8  C   UNL A   1      32.344  23.792  25.299  1.00  0.00     0.177 C 
ATOM      9  C   UNL A   1      31.696  24.029  23.918  1.00  0.00     0.079 C 
ATOM     10  C   UNL A   1      33.459  24.846  25.603  1.00  0.00     0.106 C 
ATOM     11  C   UNL A   1      32.730  24.231  22.808  1.00  0.00     0.009 C 
ATOM     12  C   UNL A   1      34.470  25.097  24.467  1.00  0.00     0.114 C 
ATOM     13  C   UNL A   1      33.700  25.359  23.158  1.00  0.00     0.028 C 
BRANCH   8  14
ATOM     14  N   UNL A   1      33.009  22.466  25.258  1.00  0.00    -0.334 N 
ATOM     15  H   UNL A   1      33.830  22.562  24.658  1.00  0.00     0.347 HD
ATOM     16  H   UNL A   1      33.186  22.250  26.240  1.00  0.00     0.347 HD
BRANCH  14  17
ATOM     17  C   UNL A   1      32.261  21.315  24.776  1.00  0.00     0.261 C 
BRANCH  17  18
ATOM     18  C   UNL A   1      33.226  20.240  24.258  1.00  0.00     0.058 C 
ATOM     19  C   UNL A   1      34.517  20.140  25.061  1.00  0.00     0.010 C 
ENDBRANCH  17  18
ENDBRANCH  14  17
ENDBRANCH   8  14
BRANCH  12  20
ATOM     20  N   UNL A   1      35.520  24.086  24.343  1.00  0.00    -0.269 N 
ATOM     21  C   UNL A   1      35.770  23.290  23.257  1.00  0.00     0.109 A 
ATOM     22  N   UNL A   1      36.447  23.923  25.312  1.00  0.00    -0.178 NA
ATOM     23  C   UNL A   1      36.741  22.402  23.654  1.00  0.00     0.045 A 
ATOM     24  C   UNL A   1      37.088  22.804  24.961  1.00  0.00     0.059 A 
ATOM     25  C   UNL A   1      38.019  22.142  25.902  1.00  0.00     0.069 C 
ENDBRANCH  12  20
ENDBRANCH   5   8
ENDBRANCH   3   4
ENDBRANCH   2   3
ENDBRANCH   1   2
BRANCH   1  26
ATOM     26  C   UNL A   1      31.773  29.258  24.719  1.00  0.00     0.002 C 
BRANCH  26  27
ATOM     27  C   UNL A   1      33.240  28.823  24.682  1.00  0.00     0.021 C 
BRANCH  27  28
ATOM     28  C   UNL A   1      33.960  28.953  26.019  1.00  0.00     0.116 C 
BRANCH  28  29
ATOM     29  N   UNL A   1      33.835  30.294  26.564  1.00  0.00    -0.352 N 
ATOM     30  C   UNL A   1      34.557  30.886  27.568  1.00  0.00     0.251 C 
ATOM     31  H   UNL A   1      33.136  30.855  26.157  1.00  0.00     0.163 HD
ATOM     32  O   UNL A   1      34.158  31.934  28.073  1.00  0.00    -0.269 OA
BRANCH  30  33
ATOM     33  C   UNL A   1      35.799  30.246  28.045  1.00  0.00     0.039 A 
ATOM     34  C   UNL A   1      36.951  30.333  27.263  1.00  0.00     0.014 A 
ATOM     35  C   UNL A   1      35.826  29.567  29.268  1.00  0.00     0.014 A 
ATOM     36  C   UNL A   1      38.146  29.784  27.732  1.00  0.00     0.010 A 
ATOM     37  C   UNL A   1      37.033  29.092  29.769  1.00  0.00     0.010 A 
ATOM     38  C   UNL A   1      38.206  29.189  29.004  1.00  0.00    -0.014 A 
BRANCH  38  39
ATOM     39  C   UNL A   1      39.483  28.656  29.544  1.00  0.00     0.031 A 
ATOM     40  C   UNL A   1      40.161  29.348  30.695  1.00  0.00     0.074 A 
ATOM     41  C   UNL A   1      40.053  27.581  28.964  1.00  0.00     0.049 A 
ATOM     42  N   UNL A   1      41.306  29.074  31.265  1.00  0.00    -0.248 NA
ATOM     43  C   UNL A   1      39.474  30.520  31.258  1.00  0.00     0.031 C 
ATOM     44  C   UNL A   1      39.505  26.848  27.821  1.00  0.00     0.029 A 
ATOM     45  N   UNL A   1      41.221  26.919  29.252  1.00  0.00    -0.354 N 
ATOM     46  C   UNL A   1      41.480  30.043  32.248  1.00  0.00     0.074 A 
ATOM     47  C   UNL A   1      40.358  30.950  32.146  1.00  0.00     0.031 C 
ATOM     48  C   UNL A   1      40.317  25.819  27.529  1.00  0.00     0.029 A 
ATOM     49  C   UNL A   1      41.470  25.850  28.423  1.00  0.00     0.049 A 
ATOM     50  H   UNL A   1      41.823  27.184  29.985  1.00  0.00     0.167 HD
ATOM     51  C   UNL A   1      42.473  30.151  33.167  1.00  0.00     0.034 A 
ATOM     52  C   UNL A   1      42.515  25.000  28.379  1.00  0.00     0.034 A 
ATOM     53  C   UNL A   1      43.583  29.233  33.256  1.00  0.00     0.049 A 
ATOM     54  C   UNL A   1      43.631  25.168  29.380  1.00  0.00     0.074 A 
ATOM     55  C   UNL A   1      44.617  29.219  34.176  1.00  0.00     0.029 A 
ATOM     56  N   UNL A   1      43.813  28.173  32.387  1.00  0.00    -0.354 N 
ATOM     57  N   UNL A   1      43.756  26.060  30.336  1.00  0.00    -0.248 NA
ATOM     58  C   UNL A   1      44.739  24.210  29.303  1.00  0.00     0.031 C 
ATOM     59  C   UNL A   1      45.512  28.206  33.815  1.00  0.00     0.029 A 
ATOM     60  C   UNL A   1      44.991  27.525  32.726  1.00  0.00     0.049 A 
ATOM     61  H   UNL A   1      43.225  27.919  31.639  1.00  0.00     0.167 HD
ATOM     62  C   UNL A   1      44.941  25.745  30.996  1.00  0.00     0.074 A 
ATOM     63  C   UNL A   1      45.482  24.574  30.338  1.00  0.00     0.031 C 
ATOM     64  C   UNL A   1      45.526  26.364  32.054  1.00  0.00     0.034 A 
BRANCH  51  65
ATOM     65  C   UNL A   1      42.412  31.319  34.124  1.00  0.00     0.023 A 
ATOM     66  C   UNL A   1      41.520  31.338  35.212  1.00  0.00     0.031 A 
ATOM     67  C   UNL A   1      43.234  32.443  33.932  1.00  0.00     0.131 A 
ATOM     68  C   UNL A   1      41.413  32.487  36.011  1.00  0.00     0.055 A 
ATOM     69  C   UNL A   1      43.189  33.546  34.788  1.00  0.00     0.041 A 
ATOM     70  F   UNL A   1      44.091  32.496  32.899  1.00  0.00    -0.206 F 
ATOM     71  C   UNL A   1      42.261  33.580  35.825  1.00  0.00     0.022 A 
BRANCH  68  72
ATOM     72  S   UNL A   1      40.041  32.593  37.193  1.00  0.00     0.124 S 
ATOM     73  O   UNL A   1      39.478  33.903  36.873  1.00  0.00    -0.237 OA
ATOM     74  O   UNL A   1      39.223  31.440  36.832  1.00  0.00    -0.237 OA
ATOM     75  O   UNL A   1      40.702  32.508  38.494  1.00  0.00    -0.744 OA
ENDBRANCH  68  72
ENDBRANCH  51  65
BRANCH  52  76
ATOM     76  C   UNL A   1      42.570  23.920  27.350  1.00  0.00     0.023 A 
ATOM     77  C   UNL A   1      41.939  22.685  27.565  1.00  0.00     0.031 A 
ATOM     78  C   UNL A   1      43.297  24.089  26.159  1.00  0.00     0.131 A 
ATOM     79  C   UNL A   1      42.090  21.649  26.630  1.00  0.00     0.055 A 
ATOM     80  C   UNL A   1      43.392  23.076  25.202  1.00  0.00     0.041 A 
ATOM     81  F   UNL A   1      43.920  25.250  25.900  1.00  0.00    -0.206 F 
ATOM     82  C   UNL A   1      42.799  21.841  25.442  1.00  0.00     0.022 A 
BRANCH  79  83
ATOM     83  S   UNL A   1      41.429  20.010  27.038  1.00  0.00     0.124 S 
ATOM     84  O   UNL A   1      42.645  19.206  27.095  1.00  0.00    -0.237 OA
ATOM     85  O   UNL A   1      40.763  20.260  28.311  1.00  0.00    -0.237 OA
ATOM     86  O   UNL A   1      40.538  19.715  25.917  1.00  0.00    -0.744 OA
ENDBRANCH  79  83
ENDBRANCH  52  76
BRANCH  64  87
ATOM     87  C   UNL A   1      46.797  25.749  32.594  1.00  0.00     0.023 A 
ATOM     88  C   UNL A   1      46.783  24.811  33.642  1.00  0.00     0.031 A 
ATOM     89  C   UNL A   1      48.043  26.117  32.054  1.00  0.00     0.131 A 
ATOM     90  C   UNL A   1      47.992  24.319  34.156  1.00  0.00     0.055 A 
ATOM     91  C   UNL A   1      49.238  25.572  32.524  1.00  0.00     0.041 A 
ATOM     92  F   UNL A   1      48.118  27.011  31.056  1.00  0.00    -0.206 F 
ATOM     93  C   UNL A   1      49.218  24.679  33.591  1.00  0.00     0.022 A 
BRANCH  90  94
ATOM     94  S   UNL A   1      47.948  23.284  35.644  1.00  0.00     0.124 S 
ATOM     95  O   UNL A   1      46.520  23.240  35.941  1.00  0.00    -0.237 OA
ATOM     96  O   UNL A   1      48.539  22.035  35.173  1.00  0.00    -0.237 OA
ATOM     97  O   UNL A   1      48.759  24.029  36.606  1.00  0.00    -0.744 OA
ENDBRANCH  90  94
ENDBRANCH  64  87
ENDBRANCH  38  39
ENDBRANCH  30  33
ENDBRANCH  28  29
ENDBRANCH  27  28
ENDBRANCH  26  27
ENDBRANCH   1  26
TORSDOF 20
ENDMDL
MODEL 3
REMARK VINA RESULT:     -10.6      1.992      2.348
REMARK SMILES CCC[NH2+][C@]1(C(=O)NCCCCCCNC(=O)c2ccc(-c3c4nc(c(-c5cc(S(=O)(=O)[O-])ccc5F)c5ccc([nH]5)c(-c5cc(S(=O)(=O)[O-])ccc5F)c5nc(c(-c6cc(S(=O)(=O)[O-])ccc6F)c6ccc3[nH]6)C=C5)C=C4)cc2)CCC[C@H](n2ccc(C)n2)C1
REMARK SMILES IDX 11 1 10 2 9 3 8 4 6 5 7 6 5 8 81 9 91 10 82 11 84 12 83 13
REMARK SMILES IDX 4 14 3 17 2 18 1 19 85 20 86 21 90 22 87 23 88 24 89 25
REMARK SMILES IDX 12 26 13 27 14 28 15 29 16 30 17 32 18 33 19 34 80 35 20 36
REMARK SMILES IDX 79 37 21 38 22 39 23 40 73 41 24 42 78 43 72 44 74 45 25 46
REMARK SMILES IDX 77 47 71 48 70 49 26 51 58 52 38 53 57 54 39 55 42 56 56 57
REMARK SMILES IDX 75 58 40 59 41 60 55 62 76 63 43 64 27 65 28 66 36 67 29 68
REMARK SMILES IDX 35 69 37 70 34 71 30 72 31 73 32 74 33 75 59 76 60 77 68 78
REMARK SMILES IDX 61 79 67 80 69 81 66 82 62 83 63 84 64 85 65 86 44 87 45 88
REMARK SMILES IDX 53 89 46 90 52 91 54 92 51 93 47 94 48 95 49 96 50 97
REMARK H PARENT 8 7 4 15 4 16 15 31 74 50 42 61
REMARK Flexibility Score: inf
ROOT
ATOM      1  C   UNL A   1      31.028  27.197  25.805  1.00  0.00     0.002 C 
ENDROOT
BRANCH   1   2
ATOM      2  C   UNL A   1      31.156  27.491  24.306  1.00  0.00     0.021 C 
BRANCH   2   3
ATOM      3  C   UNL A   1      30.610  26.370  23.427  1.00  0.00     0.116 C 
BRANCH   3   4
ATOM      4  N   UNL A   1      31.582  25.999  22.418  1.00  0.00    -0.351 N 
ATOM      5  C   UNL A   1      32.662  25.171  22.444  1.00  0.00     0.281 C 
ATOM      6  O   UNL A   1      33.283  25.087  21.377  1.00  0.00    -0.268 OA
ATOM      7  H   UNL A   1      31.431  26.428  21.545  1.00  0.00     0.163 HD
BRANCH   5   8
ATOM      8  C   UNL A   1      33.013  24.293  23.697  1.00  0.00     0.177 C 
ATOM      9  C   UNL A   1      33.760  25.027  24.832  1.00  0.00     0.079 C 
ATOM     10  C   UNL A   1      31.642  23.719  24.185  1.00  0.00     0.106 C 
ATOM     11  C   UNL A   1      33.811  24.213  26.126  1.00  0.00     0.009 C 
ATOM     12  C   UNL A   1      31.676  22.947  25.519  1.00  0.00     0.114 C 
ATOM     13  C   UNL A   1      32.410  23.800  26.573  1.00  0.00     0.028 C 
BRANCH   8  14
ATOM     14  N   UNL A   1      33.843  23.131  23.293  1.00  0.00    -0.334 N 
ATOM     15  H   UNL A   1      33.508  22.326  23.823  1.00  0.00     0.347 HD
ATOM     16  H   UNL A   1      33.730  23.090  22.280  1.00  0.00     0.347 HD
BRANCH  14  17
ATOM     17  C   UNL A   1      35.285  23.194  23.481  1.00  0.00     0.261 C 
BRANCH  17  18
ATOM     18  C   UNL A   1      35.769  21.958  24.251  1.00  0.00     0.058 C 
ATOM     19  C   UNL A   1      37.278  21.921  24.461  1.00  0.00     0.010 C 
ENDBRANCH  17  18
ENDBRANCH  14  17
ENDBRANCH   8  14
BRANCH  12  20
ATOM     20  N   UNL A   1      32.169  21.574  25.422  1.00  0.00    -0.269 N 
ATOM     21  C   UNL A   1      32.951  20.915  26.334  1.00  0.00     0.109 A 
ATOM     22  N   UNL A   1      31.778  20.764  24.414  1.00  0.00    -0.178 NA
ATOM     23  C   UNL A   1      33.283  19.716  25.751  1.00  0.00     0.045 A 
ATOM     24  C   UNL A   1      32.572  19.694  24.533  1.00  0.00     0.059 A 
ATOM     25  C   UNL A   1      32.631  18.678  23.459  1.00  0.00     0.069 C 
ENDBRANCH  12  20
ENDBRANCH   5   8
ENDBRANCH   3   4
ENDBRANCH   2   3
ENDBRANCH   1   2
BRANCH   1  26
ATOM     26  C   UNL A   1      31.665  28.251  26.717  1.00  0.00     0.002 C 
BRANCH  26  27
ATOM     27  C   UNL A   1      33.178  28.111  26.894  1.00  0.00     0.021 C 
BRANCH  27  28
ATOM     28  C   UNL A   1      33.995  29.103  26.075  1.00  0.00     0.116 C 
BRANCH  28  29
ATOM     29  N   UNL A   1      33.900  30.447  26.619  1.00  0.00    -0.352 N 
ATOM     30  C   UNL A   1      34.633  31.021  27.626  1.00  0.00     0.251 C 
ATOM     31  H   UNL A   1      33.217  31.025  26.209  1.00  0.00     0.163 HD
ATOM     32  O   UNL A   1      34.259  32.078  28.130  1.00  0.00    -0.269 OA
BRANCH  30  33
ATOM     33  C   UNL A   1      35.858  30.350  28.107  1.00  0.00     0.039 A 
ATOM     34  C   UNL A   1      37.029  30.454  27.356  1.00  0.00     0.014 A 
ATOM     35  C   UNL A   1      35.849  29.626  29.304  1.00  0.00     0.014 A 
ATOM     36  C   UNL A   1      38.206  29.875  27.831  1.00  0.00     0.010 A 
ATOM     37  C   UNL A   1      37.039  29.120  29.815  1.00  0.00     0.010 A 
ATOM     38  C   UNL A   1      38.231  29.233  29.081  1.00  0.00    -0.014 A 
BRANCH  38  39
ATOM     39  C   UNL A   1      39.489  28.666  29.630  1.00  0.00     0.031 A 
ATOM     40  C   UNL A   1      40.114  29.270  30.859  1.00  0.00     0.074 A 
ATOM     41  C   UNL A   1      40.092  27.643  28.993  1.00  0.00     0.049 A 
ATOM     42  N   UNL A   1      41.237  28.959  31.453  1.00  0.00    -0.248 NA
ATOM     43  C   UNL A   1      39.394  30.391  31.483  1.00  0.00     0.031 C 
ATOM     44  C   UNL A   1      39.597  26.998  27.775  1.00  0.00     0.029 A 
ATOM     45  N   UNL A   1      41.253  26.968  29.277  1.00  0.00    -0.354 N 
ATOM     46  C   UNL A   1      41.363  29.849  32.515  1.00  0.00     0.074 A 
ATOM     47  C   UNL A   1      40.237  30.755  32.437  1.00  0.00     0.031 C 
ATOM     48  C   UNL A   1      40.430  26.001  27.437  1.00  0.00     0.029 A 
ATOM     49  C   UNL A   1      41.546  25.968  28.377  1.00  0.00     0.049 A 
ATOM     50  H   UNL A   1      41.823  27.178  30.052  1.00  0.00     0.167 HD
ATOM     51  C   UNL A   1      42.316  29.890  33.479  1.00  0.00     0.034 A 
ATOM     52  C   UNL A   1      42.599  25.130  28.310  1.00  0.00     0.034 A 
ATOM     53  C   UNL A   1      43.430  28.975  33.543  1.00  0.00     0.049 A 
ATOM     54  C   UNL A   1      43.671  25.226  29.367  1.00  0.00     0.074 A 
ATOM     55  C   UNL A   1      44.426  28.895  34.500  1.00  0.00     0.029 A 
ATOM     56  N   UNL A   1      43.704  27.987  32.604  1.00  0.00    -0.354 N 
ATOM     57  N   UNL A   1      43.750  26.041  30.394  1.00  0.00    -0.248 NA
ATOM     58  C   UNL A   1      44.791  24.283  29.261  1.00  0.00     0.031 C 
ATOM     59  C   UNL A   1      45.343  27.918  34.099  1.00  0.00     0.029 A 
ATOM     60  C   UNL A   1      44.873  27.321  32.940  1.00  0.00     0.049 A 
ATOM     61  H   UNL A   1      43.149  27.789  31.815  1.00  0.00     0.167 HD
ATOM     62  C   UNL A   1      44.910  25.682  31.076  1.00  0.00     0.074 A 
ATOM     63  C   UNL A   1      45.488  24.569  30.351  1.00  0.00     0.031 C 
ATOM     64  C   UNL A   1      45.446  26.219  32.202  1.00  0.00     0.034 A 
BRANCH  51  65
ATOM     65  C   UNL A   1      42.206  30.980  34.521  1.00  0.00     0.023 A 
ATOM     66  C   UNL A   1      42.846  32.223  34.363  1.00  0.00     0.031 A 
ATOM     67  C   UNL A   1      41.475  30.766  35.703  1.00  0.00     0.131 A 
ATOM     68  C   UNL A   1      42.812  33.166  35.401  1.00  0.00     0.055 A 
ATOM     69  C   UNL A   1      41.368  31.746  36.692  1.00  0.00     0.041 A 
ATOM     70  F   UNL A   1      40.860  29.593  35.924  1.00  0.00    -0.206 F 
ATOM     71  C   UNL A   1      42.054  32.949  36.552  1.00  0.00     0.022 A 
BRANCH  68  72
ATOM     72  S   UNL A   1      43.904  34.611  35.291  1.00  0.00     0.124 S 
ATOM     73  O   UNL A   1      43.627  35.086  33.937  1.00  0.00    -0.237 OA
ATOM     74  O   UNL A   1      43.420  35.456  36.376  1.00  0.00    -0.237 OA
ATOM     75  O   UNL A   1      45.239  34.048  35.484  1.00  0.00    -0.744 OA
ENDBRANCH  68  72
ENDBRANCH  51  65
BRANCH  52  76
ATOM     76  C   UNL A   1      42.705  24.134  27.204  1.00  0.00     0.023 A 
ATOM     77  C   UNL A   1      42.030  22.905  27.271  1.00  0.00     0.031 A 
ATOM     78  C   UNL A   1      43.524  24.375  26.087  1.00  0.00     0.131 A 
ATOM     79  C   UNL A   1      42.226  21.943  26.267  1.00  0.00     0.055 A 
ATOM     80  C   UNL A   1      43.666  23.439  25.060  1.00  0.00     0.041 A 
ATOM     81  F   UNL A   1      44.193  25.534  25.970  1.00  0.00    -0.206 F 
ATOM     82  C   UNL A   1      43.027  22.208  25.155  1.00  0.00     0.022 A 
BRANCH  79  83
ATOM     83  S   UNL A   1      41.496  20.298  26.490  1.00  0.00     0.124 S 
ATOM     84  O   UNL A   1      40.071  20.591  26.395  1.00  0.00    -0.237 OA
ATOM     85  O   UNL A   1      42.075  19.556  25.376  1.00  0.00    -0.237 OA
ATOM     86  O   UNL A   1      41.964  19.895  27.815  1.00  0.00    -0.744 OA
ENDBRANCH  79  83
ENDBRANCH  52  76
BRANCH  64  87
ATOM     87  C   UNL A   1      46.699  25.571  32.744  1.00  0.00     0.023 A 
ATOM     88  C   UNL A   1      46.650  24.548  33.708  1.00  0.00     0.031 A 
ATOM     89  C   UNL A   1      47.963  25.993  32.293  1.00  0.00     0.131 A 
ATOM     90  C   UNL A   1      47.841  24.025  34.232  1.00  0.00     0.055 A 
ATOM     91  C   UNL A   1      49.142  25.420  32.768  1.00  0.00     0.041 A 
ATOM     92  F   UNL A   1      48.071  26.969  31.378  1.00  0.00    -0.206 F 
ATOM     93  C   UNL A   1      49.086  24.440  33.754  1.00  0.00     0.022 A 
BRANCH  90  94
ATOM     94  S   UNL A   1      47.745  22.867  35.625  1.00  0.00     0.124 S 
ATOM     95  O   UNL A   1      47.837  21.575  34.951  1.00  0.00    -0.237 OA
ATOM     96  O   UNL A   1      48.901  23.250  36.429  1.00  0.00    -0.237 OA
ATOM     97  O   UNL A   1      46.446  23.161  36.228  1.00  0.00    -0.744 OA
ENDBRANCH  90  94
ENDBRANCH  64  87
ENDBRANCH  38  39
ENDBRANCH  30  33
ENDBRANCH  28  29
ENDBRANCH  27  28
ENDBRANCH  26  27
ENDBRANCH   1  26
TORSDOF 20
ENDMDL
