MODEL 1
REMARK VINA RESULT:     -12.0      0.000      0.000
REMARK SMILES CC(=O)N1CC[NH2+]C[C@@H]1c1ccc(C(=O)NCCCCCCNC(=O)c2ccc(-c3c4nc(c(-c5cc(S(=O)(=O)[O-])ccc5F)c5ccc([nH]5)c(-c5cc(S(=O)(=O)[O-])ccc5F)c5nc(c(-c6cc(S(=O)(=O)[O-])ccc6F)c6ccc3[nH]6)C=C5)C=C4)cc2)cc1
REMARK SMILES IDX 20 1 19 2 18 3 17 4 16 5 14 6 15 7 13 9 10 10 11 11 90 12
REMARK SMILES IDX 12 13 89 14 9 15 4 16 5 17 6 18 8 19 7 20 2 23 1 24 3 25
REMARK SMILES IDX 21 26 22 27 23 28 24 29 25 31 26 32 27 33 88 34 28 35 87 36
REMARK SMILES IDX 29 37 30 38 31 39 81 40 32 41 86 42 80 43 82 44 33 45 85 46
REMARK SMILES IDX 79 47 78 48 34 50 66 51 46 52 65 53 47 54 50 55 64 56 83 57
REMARK SMILES IDX 48 58 49 59 63 61 84 62 51 63 35 64 36 65 44 66 37 67 43 68
REMARK SMILES IDX 45 69 42 70 38 71 39 72 40 73 41 74 67 75 68 76 76 77 69 78
REMARK SMILES IDX 75 79 77 80 74 81 70 82 71 83 72 84 73 85 52 86 53 87 61 88
REMARK SMILES IDX 54 89 60 90 62 91 59 92 55 93 56 94 57 95 58 96
REMARK H PARENT 16 8 7 21 7 22 23 30 82 49 50 60
REMARK Flexibility Score: inf
ROOT
ATOM      1  C   UNL A   1      34.724  21.911  24.384  1.00  0.00     0.002 C 
ENDROOT
BRANCH   1   2
ATOM      2  C   UNL A   1      34.288  20.873  25.428  1.00  0.00     0.002 C 
BRANCH   2   3
ATOM      3  C   UNL A   1      32.832  20.415  25.289  1.00  0.00     0.021 C 
BRANCH   3   4
ATOM      4  C   UNL A   1      31.878  21.569  24.964  1.00  0.00     0.116 C 
BRANCH   4   5
ATOM      5  N   UNL A   1      31.029  21.858  26.106  1.00  0.00    -0.352 N 
ATOM      6  C   UNL A   1      30.670  23.029  26.723  1.00  0.00     0.251 C 
ATOM      7  O   UNL A   1      29.892  22.956  27.675  1.00  0.00    -0.269 OA
ATOM      8  H   UNL A   1      30.634  21.056  26.518  1.00  0.00     0.163 HD
BRANCH   6   9
ATOM      9  C   UNL A   1      31.145  24.371  26.280  1.00  0.00     0.039 A 
ATOM     10  C   UNL A   1      32.193  26.862  25.382  1.00  0.00    -0.020 A 
ATOM     11  C   UNL A   1      33.042  25.778  25.663  1.00  0.00     0.007 A 
ATOM     12  C   UNL A   1      30.826  26.682  25.625  1.00  0.00     0.007 A 
ATOM     13  C   UNL A   1      32.524  24.555  26.114  1.00  0.00     0.014 A 
ATOM     14  C   UNL A   1      30.307  25.441  25.987  1.00  0.00     0.014 A 
BRANCH  10  15
ATOM     15  C   UNL A   1      32.746  28.152  24.758  1.00  0.00     0.170 C 
ATOM     16  N   UNL A   1      31.822  29.306  24.888  1.00  0.00    -0.325 N 
ATOM     17  C   UNL A   1      30.690  29.364  23.942  1.00  0.00     0.181 C 
ATOM     18  C   UNL A   1      31.056  28.961  22.503  1.00  0.00     0.282 C 
ATOM     19  C   UNL A   1      33.095  27.948  23.252  1.00  0.00     0.290 C 
ATOM     20  N   UNL A   1      31.905  27.760  22.396  1.00  0.00    -0.343 N 
ATOM     21  H   UNL A   1      32.196  27.631  21.427  1.00  0.00     0.346 HD
ATOM     22  H   UNL A   1      31.385  26.937  22.697  1.00  0.00     0.346 HD
BRANCH  16  23
ATOM     23  C   UNL A   1      31.833  30.202  25.946  1.00  0.00     0.220 C 
ATOM     24  C   UNL A   1      32.608  29.817  27.179  1.00  0.00     0.114 C 
ATOM     25  O   UNL A   1      31.275  31.297  25.885  1.00  0.00    -0.275 OA
ENDBRANCH  16  23
ENDBRANCH  10  15
ENDBRANCH   6   9
ENDBRANCH   4   5
ENDBRANCH   3   4
ENDBRANCH   2   3
ENDBRANCH   1   2
BRANCH   1  26
ATOM     26  C   UNL A   1      36.237  22.123  24.279  1.00  0.00     0.021 C 
BRANCH  26  27
ATOM     27  C   UNL A   1      36.914  22.435  25.609  1.00  0.00     0.116 C 
BRANCH  27  28
ATOM     28  N   UNL A   1      37.900  21.421  25.949  1.00  0.00    -0.352 N 
ATOM     29  C   UNL A   1      39.212  21.576  26.323  1.00  0.00     0.251 C 
ATOM     30  H   UNL A   1      37.581  20.491  25.905  1.00  0.00     0.163 HD
ATOM     31  O   UNL A   1      39.969  20.612  26.294  1.00  0.00    -0.269 OA
BRANCH  29  32
ATOM     32  C   UNL A   1      39.702  22.903  26.749  1.00  0.00     0.039 A 
ATOM     33  C   UNL A   1      40.676  22.980  27.746  1.00  0.00     0.014 A 
ATOM     34  C   UNL A   1      39.180  24.072  26.183  1.00  0.00     0.014 A 
ATOM     35  C   UNL A   1      41.162  24.227  28.143  1.00  0.00     0.010 A 
ATOM     36  C   UNL A   1      39.715  25.309  26.528  1.00  0.00     0.010 A 
ATOM     37  C   UNL A   1      40.705  25.400  27.520  1.00  0.00    -0.014 A 
BRANCH  37  38
ATOM     38  C   UNL A   1      41.239  26.732  27.903  1.00  0.00     0.031 A 
ATOM     39  C   UNL A   1      42.669  27.087  27.600  1.00  0.00     0.074 A 
ATOM     40  C   UNL A   1      40.449  27.597  28.570  1.00  0.00     0.049 A 
ATOM     41  N   UNL A   1      43.336  28.170  27.904  1.00  0.00    -0.248 NA
ATOM     42  C   UNL A   1      43.463  26.074  26.886  1.00  0.00     0.031 C 
ATOM     43  C   UNL A   1      39.058  27.346  28.954  1.00  0.00     0.029 A 
ATOM     44  N   UNL A   1      40.702  28.858  29.046  1.00  0.00    -0.354 N 
ATOM     45  C   UNL A   1      44.629  27.967  27.430  1.00  0.00     0.074 A 
ATOM     46  C   UNL A   1      44.664  26.630  26.876  1.00  0.00     0.031 C 
ATOM     47  C   UNL A   1      38.574  28.428  29.584  1.00  0.00     0.029 A 
ATOM     48  C   UNL A   1      39.629  29.432  29.688  1.00  0.00     0.049 A 
ATOM     49  H   UNL A   1      41.570  29.311  28.939  1.00  0.00     0.167 HD
ATOM     50  C   UNL A   1      45.678  28.825  27.433  1.00  0.00     0.034 A 
ATOM     51  C   UNL A   1      39.511  30.627  30.301  1.00  0.00     0.034 A 
ATOM     52  C   UNL A   1      45.619  30.158  27.982  1.00  0.00     0.049 A 
ATOM     53  C   UNL A   1      40.698  31.556  30.310  1.00  0.00     0.074 A 
ATOM     54  C   UNL A   1      46.605  31.131  27.995  1.00  0.00     0.029 A 
ATOM     55  N   UNL A   1      44.515  30.707  28.623  1.00  0.00    -0.354 N 
ATOM     56  N   UNL A   1      41.899  31.370  29.810  1.00  0.00    -0.248 NA
ATOM     57  C   UNL A   1      40.509  32.862  30.952  1.00  0.00     0.031 C 
ATOM     58  C   UNL A   1      46.121  32.238  28.703  1.00  0.00     0.029 A 
ATOM     59  C   UNL A   1      44.806  31.991  29.062  1.00  0.00     0.049 A 
ATOM     60  H   UNL A   1      43.652  30.252  28.749  1.00  0.00     0.167 HD
ATOM     61  C   UNL A   1      42.597  32.549  30.052  1.00  0.00     0.074 A 
ATOM     62  C   UNL A   1      41.677  33.444  30.724  1.00  0.00     0.031 C 
ATOM     63  C   UNL A   1      43.882  32.867  29.744  1.00  0.00     0.034 A 
BRANCH  50  64
ATOM     64  C   UNL A   1      46.982  28.331  26.848  1.00  0.00     0.023 A 
ATOM     65  C   UNL A   1      47.197  28.280  25.459  1.00  0.00     0.031 A 
ATOM     66  C   UNL A   1      48.014  27.878  27.689  1.00  0.00     0.131 A 
ATOM     67  C   UNL A   1      48.378  27.714  24.952  1.00  0.00     0.055 A 
ATOM     68  C   UNL A   1      49.222  27.396  27.179  1.00  0.00     0.041 A 
ATOM     69  F   UNL A   1      47.862  27.881  29.022  1.00  0.00    -0.206 F 
ATOM     70  C   UNL A   1      49.403  27.296  25.803  1.00  0.00     0.022 A 
BRANCH  67  71
ATOM     71  S   UNL A   1      48.488  27.395  23.170  1.00  0.00     0.124 S 
ATOM     72  O   UNL A   1      47.354  28.165  22.662  1.00  0.00    -0.237 OA
ATOM     73  O   UNL A   1      49.811  27.911  22.838  1.00  0.00    -0.237 OA
ATOM     74  O   UNL A   1      48.341  25.945  23.072  1.00  0.00    -0.744 OA
ENDBRANCH  67  71
ENDBRANCH  50  64
BRANCH  51  75
ATOM     75  C   UNL A   1      38.231  31.016  30.959  1.00  0.00     0.023 A 
ATOM     76  C   UNL A   1      37.238  31.713  30.255  1.00  0.00     0.031 A 
ATOM     77  C   UNL A   1      38.001  30.732  32.318  1.00  0.00     0.131 A 
ATOM     78  C   UNL A   1      36.081  32.147  30.922  1.00  0.00     0.055 A 
ATOM     79  C   UNL A   1      36.824  31.117  32.962  1.00  0.00     0.041 A 
ATOM     80  F   UNL A   1      38.915  30.062  33.036  1.00  0.00    -0.206 F 
ATOM     81  C   UNL A   1      35.862  31.843  32.266  1.00  0.00     0.022 A 
BRANCH  78  82
ATOM     82  S   UNL A   1      34.904  33.194  30.024  1.00  0.00     0.124 S 
ATOM     83  O   UNL A   1      35.793  34.144  29.364  1.00  0.00    -0.237 OA
ATOM     84  O   UNL A   1      34.239  32.227  29.157  1.00  0.00    -0.237 OA
ATOM     85  O   UNL A   1      34.069  33.754  31.084  1.00  0.00    -0.744 OA
ENDBRANCH  78  82
ENDBRANCH  51  75
BRANCH  63  86
ATOM     86  C   UNL A   1      44.343  34.262  30.095  1.00  0.00     0.023 A 
ATOM     87  C   UNL A   1      44.172  35.342  29.213  1.00  0.00     0.031 A 
ATOM     88  C   UNL A   1      44.983  34.505  31.324  1.00  0.00     0.131 A 
ATOM     89  C   UNL A   1      44.694  36.603  29.543  1.00  0.00     0.055 A 
ATOM     90  C   UNL A   1      45.441  35.776  31.675  1.00  0.00     0.041 A 
ATOM     91  F   UNL A   1      45.176  33.509  32.204  1.00  0.00    -0.206 F 
ATOM     92  C   UNL A   1      45.311  36.830  30.776  1.00  0.00     0.022 A 
BRANCH  89  93
ATOM     93  S   UNL A   1      44.648  37.917  28.294  1.00  0.00     0.124 S 
ATOM     94  O   UNL A   1      45.387  38.988  28.954  1.00  0.00    -0.237 OA
ATOM     95  O   UNL A   1      45.313  37.290  27.156  1.00  0.00    -0.237 OA
ATOM     96  O   UNL A   1      43.219  38.170  28.114  1.00  0.00    -0.744 OA
ENDBRANCH  89  93
ENDBRANCH  63  86
ENDBRANCH  37  38
ENDBRANCH  29  32
ENDBRANCH  27  28
ENDBRANCH  26  27
ENDBRANCH   1  26
TORSDOF 18
ENDMDL
MODEL 2
REMARK VINA RESULT:     -11.9      4.409      9.576
REMARK SMILES CC(=O)N1CC[NH2+]C[C@@H]1c1ccc(C(=O)NCCCCCCNC(=O)c2ccc(-c3c4nc(c(-c5cc(S(=O)(=O)[O-])ccc5F)c5ccc([nH]5)c(-c5cc(S(=O)(=O)[O-])ccc5F)c5nc(c(-c6cc(S(=O)(=O)[O-])ccc6F)c6ccc3[nH]6)C=C5)C=C4)cc2)cc1
REMARK SMILES IDX 20 1 19 2 18 3 17 4 16 5 14 6 15 7 13 9 10 10 11 11 90 12
REMARK SMILES IDX 12 13 89 14 9 15 4 16 5 17 6 18 8 19 7 20 2 23 1 24 3 25
REMARK SMILES IDX 21 26 22 27 23 28 24 29 25 31 26 32 27 33 88 34 28 35 87 36
REMARK SMILES IDX 29 37 30 38 31 39 81 40 32 41 86 42 80 43 82 44 33 45 85 46
REMARK SMILES IDX 79 47 78 48 34 50 66 51 46 52 65 53 47 54 50 55 64 56 83 57
REMARK SMILES IDX 48 58 49 59 63 61 84 62 51 63 35 64 36 65 44 66 37 67 43 68
REMARK SMILES IDX 45 69 42 70 38 71 39 72 40 73 41 74 67 75 68 76 76 77 69 78
REMARK SMILES IDX 75 79 77 80 74 81 70 82 71 83 72 84 73 85 52 86 53 87 61 88
REMARK SMILES IDX 54 89 60 90 62 91 59 92 55 93 56 94 57 95 58 96
REMARK H PARENT 16 8 7 21 7 22 23 30 82 49 50 60
REMARK Flexibility Score: inf
ROOT
ATOM      1  C   UNL A   1      33.513  27.954  24.587  1.00  0.00     0.002 C 
ENDROOT
BRANCH   1   2
ATOM      2  C   UNL A   1      33.387  28.564  23.184  1.00  0.00     0.002 C 
BRANCH   2   3
ATOM      3  C   UNL A   1      31.943  28.827  22.740  1.00  0.00     0.021 C 
BRANCH   3   4
ATOM      4  C   UNL A   1      30.978  28.964  23.922  1.00  0.00     0.116 C 
BRANCH   4   5
ATOM      5  N   UNL A   1      29.842  28.077  23.751  1.00  0.00    -0.352 N 
ATOM      6  C   UNL A   1      29.655  26.746  24.023  1.00  0.00     0.251 C 
ATOM      7  O   UNL A   1      28.543  26.268  23.791  1.00  0.00    -0.269 OA
ATOM      8  H   UNL A   1      29.051  28.517  23.364  1.00  0.00     0.163 HD
BRANCH   6   9
ATOM      9  C   UNL A   1      30.708  25.870  24.611  1.00  0.00     0.039 A 
ATOM     10  C   UNL A   1      32.791  24.188  25.581  1.00  0.00    -0.020 A 
ATOM     11  C   UNL A   1      32.466  24.223  24.215  1.00  0.00     0.007 A 
ATOM     12  C   UNL A   1      32.006  24.962  26.445  1.00  0.00     0.007 A 
ATOM     13  C   UNL A   1      31.434  25.046  23.740  1.00  0.00     0.014 A 
ATOM     14  C   UNL A   1      31.042  25.843  25.960  1.00  0.00     0.014 A 
BRANCH  10  15
ATOM     15  C   UNL A   1      34.008  23.394  26.079  1.00  0.00     0.170 C 
ATOM     16  N   UNL A   1      34.714  22.667  24.995  1.00  0.00    -0.325 N 
ATOM     17  C   UNL A   1      34.109  21.402  24.535  1.00  0.00     0.181 C 
ATOM     18  C   UNL A   1      33.550  20.527  25.672  1.00  0.00     0.282 C 
ATOM     19  C   UNL A   1      33.605  22.379  27.192  1.00  0.00     0.290 C 
ATOM     20  N   UNL A   1      32.779  21.260  26.692  1.00  0.00    -0.343 N 
ATOM     21  H   UNL A   1      32.546  20.633  27.462  1.00  0.00     0.346 HD
ATOM     22  H   UNL A   1      31.915  21.618  26.286  1.00  0.00     0.346 HD
BRANCH  16  23
ATOM     23  C   UNL A   1      35.767  23.189  24.261  1.00  0.00     0.220 C 
ATOM     24  C   UNL A   1      37.064  23.447  24.985  1.00  0.00     0.114 C 
ATOM     25  O   UNL A   1      35.685  23.398  23.051  1.00  0.00    -0.275 OA
ENDBRANCH  16  23
ENDBRANCH  10  15
ENDBRANCH   6   9
ENDBRANCH   4   5
ENDBRANCH   3   4
ENDBRANCH   2   3
ENDBRANCH   1   2
BRANCH   1  26
ATOM     26  C   UNL A   1      34.260  28.824  25.602  1.00  0.00     0.021 C 
BRANCH  26  27
ATOM     27  C   UNL A   1      33.453  29.150  26.855  1.00  0.00     0.116 C 
BRANCH  27  28
ATOM     28  N   UNL A   1      33.470  30.577  27.136  1.00  0.00    -0.352 N 
ATOM     29  C   UNL A   1      34.315  31.293  27.945  1.00  0.00     0.251 C 
ATOM     30  H   UNL A   1      32.774  31.104  26.680  1.00  0.00     0.163 HD
ATOM     31  O   UNL A   1      34.009  32.430  28.287  1.00  0.00    -0.269 OA
BRANCH  29  32
ATOM     32  C   UNL A   1      35.581  30.685  28.405  1.00  0.00     0.039 A 
ATOM     33  C   UNL A   1      36.757  30.952  27.701  1.00  0.00     0.014 A 
ATOM     34  C   UNL A   1      35.602  29.831  29.512  1.00  0.00     0.014 A 
ATOM     35  C   UNL A   1      37.963  30.400  28.137  1.00  0.00     0.010 A 
ATOM     36  C   UNL A   1      36.814  29.339  29.987  1.00  0.00     0.010 A 
ATOM     37  C   UNL A   1      38.006  29.610  29.297  1.00  0.00    -0.014 A 
BRANCH  37  38
ATOM     38  C   UNL A   1      39.287  29.047  29.796  1.00  0.00     0.031 A 
ATOM     39  C   UNL A   1      39.988  29.685  30.964  1.00  0.00     0.074 A 
ATOM     40  C   UNL A   1      39.840  27.994  29.163  1.00  0.00     0.049 A 
ATOM     41  N   UNL A   1      41.137  29.380  31.508  1.00  0.00    -0.248 NA
ATOM     42  C   UNL A   1      39.320  30.841  31.582  1.00  0.00     0.031 C 
ATOM     43  C   UNL A   1      39.272  27.318  27.994  1.00  0.00     0.029 A 
ATOM     44  N   UNL A   1      41.004  27.310  29.407  1.00  0.00    -0.354 N 
ATOM     45  C   UNL A   1      41.336  30.310  32.524  1.00  0.00     0.074 A 
ATOM     46  C   UNL A   1      40.218  31.227  32.475  1.00  0.00     0.031 C 
ATOM     47  C   UNL A   1      40.075  26.303  27.639  1.00  0.00     0.029 A 
ATOM     48  C   UNL A   1      41.236  26.280  28.525  1.00  0.00     0.049 A 
ATOM     49  H   UNL A   1      41.617  27.536  30.144  1.00  0.00     0.167 HD
ATOM     50  C   UNL A   1      42.344  30.375  33.429  1.00  0.00     0.034 A 
ATOM     51  C   UNL A   1      42.271  25.422  28.433  1.00  0.00     0.034 A 
ATOM     52  C   UNL A   1      43.446  29.444  33.467  1.00  0.00     0.049 A 
ATOM     53  C   UNL A   1      43.390  25.527  29.437  1.00  0.00     0.074 A 
ATOM     54  C   UNL A   1      44.496  29.385  34.368  1.00  0.00     0.029 A 
ATOM     55  N   UNL A   1      43.648  28.411  32.559  1.00  0.00    -0.354 N 
ATOM     56  N   UNL A   1      43.538  26.380  30.425  1.00  0.00    -0.248 NA
ATOM     57  C   UNL A   1      44.475  24.544  29.322  1.00  0.00     0.031 C 
ATOM     58  C   UNL A   1      45.365  28.364  33.966  1.00  0.00     0.029 A 
ATOM     59  C   UNL A   1      44.819  27.731  32.861  1.00  0.00     0.049 A 
ATOM     60  H   UNL A   1      43.047  28.194  31.810  1.00  0.00     0.167 HD
ATOM     61  C   UNL A   1      44.717  26.015  31.068  1.00  0.00     0.074 A 
ATOM     62  C   UNL A   1      45.228  24.854  30.366  1.00  0.00     0.031 C 
ATOM     63  C   UNL A   1      45.323  26.583  32.142  1.00  0.00     0.034 A 
BRANCH  50  64
ATOM     64  C   UNL A   1      42.309  31.509  34.429  1.00  0.00     0.023 A 
ATOM     65  C   UNL A   1      41.445  31.489  35.538  1.00  0.00     0.031 A 
ATOM     66  C   UNL A   1      43.128  32.639  34.255  1.00  0.00     0.131 A 
ATOM     67  C   UNL A   1      41.363  32.607  36.384  1.00  0.00     0.055 A 
ATOM     68  C   UNL A   1      43.103  33.712  35.150  1.00  0.00     0.041 A 
ATOM     69  F   UNL A   1      43.958  32.727  33.204  1.00  0.00    -0.206 F 
ATOM     70  C   UNL A   1      42.204  33.707  36.212  1.00  0.00     0.022 A 
BRANCH  67  71
ATOM     71  S   UNL A   1      40.034  32.662  37.618  1.00  0.00     0.124 S 
ATOM     72  O   UNL A   1      39.576  34.044  37.496  1.00  0.00    -0.237 OA
ATOM     73  O   UNL A   1      39.114  31.638  37.137  1.00  0.00    -0.237 OA
ATOM     74  O   UNL A   1      40.718  32.349  38.871  1.00  0.00    -0.744 OA
ENDBRANCH  67  71
ENDBRANCH  50  64
BRANCH  51  75
ATOM     75  C   UNL A   1      42.306  24.393  27.355  1.00  0.00     0.023 A 
ATOM     76  C   UNL A   1      41.578  23.198  27.471  1.00  0.00     0.031 A 
ATOM     77  C   UNL A   1      43.104  24.571  26.210  1.00  0.00     0.131 A 
ATOM     78  C   UNL A   1      41.699  22.206  26.484  1.00  0.00     0.055 A 
ATOM     79  C   UNL A   1      43.177  23.605  25.205  1.00  0.00     0.041 A 
ATOM     80  F   UNL A   1      43.815  25.697  26.046  1.00  0.00    -0.206 F 
ATOM     81  C   UNL A   1      42.483  22.407  25.346  1.00  0.00     0.022 A 
BRANCH  78  82
ATOM     82  S   UNL A   1      40.882  20.610  26.754  1.00  0.00     0.124 S 
ATOM     83  O   UNL A   1      39.617  20.800  26.054  1.00  0.00    -0.237 OA
ATOM     84  O   UNL A   1      41.824  19.681  26.140  1.00  0.00    -0.237 OA
ATOM     85  O   UNL A   1      40.783  20.521  28.209  1.00  0.00    -0.744 OA
ENDBRANCH  78  82
ENDBRANCH  51  75
BRANCH  63  86
ATOM     86  C   UNL A   1      46.584  25.921  32.646  1.00  0.00     0.023 A 
ATOM     87  C   UNL A   1      47.820  26.095  32.001  1.00  0.00     0.031 A 
ATOM     88  C   UNL A   1      46.539  25.084  33.775  1.00  0.00     0.131 A 
ATOM     89  C   UNL A   1      48.948  25.391  32.450  1.00  0.00     0.055 A 
ATOM     90  C   UNL A   1      47.678  24.439  34.258  1.00  0.00     0.041 A 
ATOM     91  F   UNL A   1      45.384  24.879  34.430  1.00  0.00    -0.206 F 
ATOM     92  C   UNL A   1      48.889  24.578  33.586  1.00  0.00     0.022 A 
BRANCH  89  93
ATOM     93  S   UNL A   1      50.471  25.469  31.468  1.00  0.00     0.124 S 
ATOM     94  O   UNL A   1      51.257  26.453  32.204  1.00  0.00    -0.237 OA
ATOM     95  O   UNL A   1      50.952  24.093  31.528  1.00  0.00    -0.237 OA
ATOM     96  O   UNL A   1      50.007  25.906  30.152  1.00  0.00    -0.744 OA
ENDBRANCH  89  93
ENDBRANCH  63  86
ENDBRANCH  37  38
ENDBRANCH  29  32
ENDBRANCH  27  28
ENDBRANCH  26  27
ENDBRANCH   1  26
TORSDOF 18
ENDMDL
MODEL 3
REMARK VINA RESULT:     -11.9      4.708      9.829
REMARK SMILES CC(=O)N1CC[NH2+]C[C@@H]1c1ccc(C(=O)NCCCCCCNC(=O)c2ccc(-c3c4nc(c(-c5cc(S(=O)(=O)[O-])ccc5F)c5ccc([nH]5)c(-c5cc(S(=O)(=O)[O-])ccc5F)c5nc(c(-c6cc(S(=O)(=O)[O-])ccc6F)c6ccc3[nH]6)C=C5)C=C4)cc2)cc1
REMARK SMILES IDX 20 1 19 2 18 3 17 4 16 5 14 6 15 7 13 9 10 10 11 11 90 12
REMARK SMILES IDX 12 13 89 14 9 15 4 16 5 17 6 18 8 19 7 20 2 23 1 24 3 25
REMARK SMILES IDX 21 26 22 27 23 28 24 29 25 31 26 32 27 33 88 34 28 35 87 36
REMARK SMILES IDX 29 37 30 38 31 39 81 40 32 41 86 42 80 43 82 44 33 45 85 46
REMARK SMILES IDX 79 47 78 48 34 50 66 51 46 52 65 53 47 54 50 55 64 56 83 57
REMARK SMILES IDX 48 58 49 59 63 61 84 62 51 63 35 64 36 65 44 66 37 67 43 68
REMARK SMILES IDX 45 69 42 70 38 71 39 72 40 73 41 74 67 75 68 76 76 77 69 78
REMARK SMILES IDX 75 79 77 80 74 81 70 82 71 83 72 84 73 85 52 86 53 87 61 88
REMARK SMILES IDX 54 89 60 90 62 91 59 92 55 93 56 94 57 95 58 96
REMARK H PARENT 16 8 7 21 7 22 23 30 82 49 50 60
REMARK Flexibility Score: inf
ROOT
ATOM      1  C   UNL A   1      32.781  27.797  25.142  1.00  0.00     0.002 C 
ENDROOT
BRANCH   1   2
ATOM      2  C   UNL A   1      31.441  28.400  24.697  1.00  0.00     0.002 C 
BRANCH   2   3
ATOM      3  C   UNL A   1      31.161  28.270  23.196  1.00  0.00     0.021 C 
BRANCH   3   4
ATOM      4  C   UNL A   1      30.936  26.819  22.761  1.00  0.00     0.116 C 
BRANCH   4   5
ATOM      5  N   UNL A   1      31.652  26.545  21.528  1.00  0.00    -0.352 N 
ATOM      6  C   UNL A   1      32.624  25.633  21.203  1.00  0.00     0.251 C 
ATOM      7  O   UNL A   1      33.026  25.621  20.039  1.00  0.00    -0.269 OA
ATOM      8  H   UNL A   1      31.389  27.126  20.780  1.00  0.00     0.163 HD
BRANCH   6   9
ATOM      9  C   UNL A   1      33.184  24.647  22.170  1.00  0.00     0.039 A 
ATOM     10  C   UNL A   1      34.199  22.640  23.917  1.00  0.00    -0.020 A 
ATOM     11  C   UNL A   1      33.182  22.347  22.993  1.00  0.00     0.007 A 
ATOM     12  C   UNL A   1      34.639  23.966  23.985  1.00  0.00     0.007 A 
ATOM     13  C   UNL A   1      32.677  23.340  22.139  1.00  0.00     0.014 A 
ATOM     14  C   UNL A   1      34.200  24.928  23.077  1.00  0.00     0.014 A 
BRANCH  10  15
ATOM     15  C   UNL A   1      34.845  21.524  24.752  1.00  0.00     0.170 C 
ATOM     16  N   UNL A   1      33.853  20.648  25.424  1.00  0.00    -0.325 N 
ATOM     17  C   UNL A   1      33.225  21.171  26.654  1.00  0.00     0.181 C 
ATOM     18  C   UNL A   1      34.200  21.913  27.586  1.00  0.00     0.282 C 
ATOM     19  C   UNL A   1      35.814  22.109  25.825  1.00  0.00     0.290 C 
ATOM     20  N   UNL A   1      35.118  22.842  26.904  1.00  0.00    -0.343 N 
ATOM     21  H   UNL A   1      35.802  23.201  27.571  1.00  0.00     0.346 HD
ATOM     22  H   UNL A   1      34.597  23.626  26.513  1.00  0.00     0.346 HD
BRANCH  16  23
ATOM     23  C   UNL A   1      33.335  19.486  24.873  1.00  0.00     0.220 C 
ATOM     24  C   UNL A   1      34.310  18.414  24.461  1.00  0.00     0.114 C 
ATOM     25  O   UNL A   1      32.124  19.296  24.759  1.00  0.00    -0.275 OA
ENDBRANCH  16  23
ENDBRANCH  10  15
ENDBRANCH   6   9
ENDBRANCH   4   5
ENDBRANCH   3   4
ENDBRANCH   2   3
ENDBRANCH   1   2
BRANCH   1  26
ATOM     26  C   UNL A   1      33.761  28.796  25.766  1.00  0.00     0.021 C 
BRANCH  26  27
ATOM     27  C   UNL A   1      33.398  29.218  27.186  1.00  0.00     0.116 C 
BRANCH  27  28
ATOM     28  N   UNL A   1      33.492  30.660  27.347  1.00  0.00    -0.352 N 
ATOM     29  C   UNL A   1      34.405  31.397  28.058  1.00  0.00     0.251 C 
ATOM     30  H   UNL A   1      32.800  31.182  26.880  1.00  0.00     0.163 HD
ATOM     31  O   UNL A   1      34.168  32.572  28.318  1.00  0.00    -0.269 OA
BRANCH  29  32
ATOM     32  C   UNL A   1      35.663  30.768  28.512  1.00  0.00     0.039 A 
ATOM     33  C   UNL A   1      36.859  31.104  27.875  1.00  0.00     0.014 A 
ATOM     34  C   UNL A   1      35.657  29.826  29.546  1.00  0.00     0.014 A 
ATOM     35  C   UNL A   1      38.057  30.530  28.307  1.00  0.00     0.010 A 
ATOM     36  C   UNL A   1      36.858  29.310  30.022  1.00  0.00     0.010 A 
ATOM     37  C   UNL A   1      38.070  29.649  29.400  1.00  0.00    -0.014 A 
BRANCH  37  38
ATOM     38  C   UNL A   1      39.340  29.061  29.897  1.00  0.00     0.031 A 
ATOM     39  C   UNL A   1      40.033  29.660  31.091  1.00  0.00     0.074 A 
ATOM     40  C   UNL A   1      39.891  28.021  29.241  1.00  0.00     0.049 A 
ATOM     41  N   UNL A   1      41.173  29.329  31.639  1.00  0.00    -0.248 NA
ATOM     42  C   UNL A   1      39.368  30.804  31.734  1.00  0.00     0.031 C 
ATOM     43  C   UNL A   1      39.331  27.383  28.047  1.00  0.00     0.029 A 
ATOM     44  N   UNL A   1      41.046  27.321  29.478  1.00  0.00    -0.354 N 
ATOM     45  C   UNL A   1      41.369  30.228  32.683  1.00  0.00     0.074 A 
ATOM     46  C   UNL A   1      40.259  31.156  32.646  1.00  0.00     0.031 C 
ATOM     47  C   UNL A   1      40.129  26.371  27.673  1.00  0.00     0.029 A 
ATOM     48  C   UNL A   1      41.280  26.314  28.570  1.00  0.00     0.049 A 
ATOM     49  H   UNL A   1      41.653  27.520  30.228  1.00  0.00     0.167 HD
ATOM     50  C   UNL A   1      42.367  30.259  33.600  1.00  0.00     0.034 A 
ATOM     51  C   UNL A   1      42.308  25.449  28.466  1.00  0.00     0.034 A 
ATOM     52  C   UNL A   1      43.461  29.318  33.624  1.00  0.00     0.049 A 
ATOM     53  C   UNL A   1      43.417  25.516  29.485  1.00  0.00     0.074 A 
ATOM     54  C   UNL A   1      44.499  29.224  34.535  1.00  0.00     0.029 A 
ATOM     55  N   UNL A   1      43.663  28.309  32.690  1.00  0.00    -0.354 N 
ATOM     56  N   UNL A   1      43.561  26.340  30.499  1.00  0.00    -0.248 NA
ATOM     57  C   UNL A   1      44.494  24.527  29.354  1.00  0.00     0.031 C 
ATOM     58  C   UNL A   1      45.364  28.207  34.114  1.00  0.00     0.029 A 
ATOM     59  C   UNL A   1      44.825  27.611  32.985  1.00  0.00     0.049 A 
ATOM     60  H   UNL A   1      43.070  28.118  31.928  1.00  0.00     0.167 HD
ATOM     61  C   UNL A   1      44.729  25.946  31.143  1.00  0.00     0.074 A 
ATOM     62  C   UNL A   1      45.238  24.801  30.415  1.00  0.00     0.031 C 
ATOM     63  C   UNL A   1      45.328  26.479  32.240  1.00  0.00     0.034 A 
BRANCH  50  64
ATOM     64  C   UNL A   1      42.330  31.364  34.631  1.00  0.00     0.023 A 
ATOM     65  C   UNL A   1      42.950  32.607  34.405  1.00  0.00     0.031 A 
ATOM     66  C   UNL A   1      41.693  31.164  35.869  1.00  0.00     0.131 A 
ATOM     67  C   UNL A   1      42.988  33.568  35.428  1.00  0.00     0.055 A 
ATOM     68  C   UNL A   1      41.661  32.159  36.850  1.00  0.00     0.041 A 
ATOM     69  F   UNL A   1      41.102  29.994  36.153  1.00  0.00    -0.206 F 
ATOM     70  C   UNL A   1      42.325  33.363  36.639  1.00  0.00     0.022 A 
BRANCH  67  71
ATOM     71  S   UNL A   1      44.044  35.026  35.205  1.00  0.00     0.124 S 
ATOM     72  O   UNL A   1      44.743  34.697  33.964  1.00  0.00    -0.237 OA
ATOM     73  O   UNL A   1      43.073  36.110  35.125  1.00  0.00    -0.237 OA
ATOM     74  O   UNL A   1      44.883  35.026  36.402  1.00  0.00    -0.744 OA
ENDBRANCH  67  71
ENDBRANCH  50  64
BRANCH  51  75
ATOM     75  C   UNL A   1      42.347  24.450  27.359  1.00  0.00     0.023 A 
ATOM     76  C   UNL A   1      41.643  23.239  27.453  1.00  0.00     0.031 A 
ATOM     77  C   UNL A   1      43.124  24.675  26.209  1.00  0.00     0.131 A 
ATOM     78  C   UNL A   1      41.769  22.277  26.438  1.00  0.00     0.055 A 
ATOM     79  C   UNL A   1      43.200  23.738  25.176  1.00  0.00     0.041 A 
ATOM     80  F   UNL A   1      43.811  25.819  26.065  1.00  0.00    -0.206 F 
ATOM     81  C   UNL A   1      42.532  22.524  25.295  1.00  0.00     0.022 A 
BRANCH  78  82
ATOM     82  S   UNL A   1      40.987  20.659  26.676  1.00  0.00     0.124 S 
ATOM     83  O   UNL A   1      39.786  20.784  25.857  1.00  0.00    -0.237 OA
ATOM     84  O   UNL A   1      42.013  19.750  26.177  1.00  0.00    -0.237 OA
ATOM     85  O   UNL A   1      40.755  20.602  28.118  1.00  0.00    -0.744 OA
ENDBRANCH  78  82
ENDBRANCH  51  75
BRANCH  63  86
ATOM     86  C   UNL A   1      46.577  25.791  32.739  1.00  0.00     0.023 A 
ATOM     87  C   UNL A   1      46.529  24.798  33.733  1.00  0.00     0.031 A 
ATOM     88  C   UNL A   1      47.835  26.153  32.226  1.00  0.00     0.131 A 
ATOM     89  C   UNL A   1      47.721  24.248  34.228  1.00  0.00     0.055 A 
ATOM     90  C   UNL A   1      49.013  25.554  32.675  1.00  0.00     0.041 A 
ATOM     91  F   UNL A   1      47.941  27.098  31.277  1.00  0.00    -0.206 F 
ATOM     92  C   UNL A   1      48.961  24.607  33.694  1.00  0.00     0.022 A 
BRANCH  89  93
ATOM     93  S   UNL A   1      47.636  23.133  35.657  1.00  0.00     0.124 S 
ATOM     94  O   UNL A   1      49.010  23.165  36.149  1.00  0.00    -0.237 OA
ATOM     95  O   UNL A   1      46.640  23.782  36.502  1.00  0.00    -0.237 OA
ATOM     96  O   UNL A   1      47.218  21.859  35.072  1.00  0.00    -0.744 OA
ENDBRANCH  89  93
ENDBRANCH  63  86
ENDBRANCH  37  38
ENDBRANCH  29  32
ENDBRANCH  27  28
ENDBRANCH  26  27
ENDBRANCH   1  26
TORSDOF 18
ENDMDL
