MODEL 1
REMARK VINA RESULT:     -11.8      0.000      0.000
REMARK SMILES Nc1nonc1C(=O)N1[C@@H]2CC[C@H]1C[C@H](CC(=O)NCCCCCCNC(=O)c1ccc(-c3c4nc(c(-c5cc(S(=O)(=O)[O-])ccc5F)c5ccc([nH]5)c(-c5cc(S(=O)(=O)[O-])ccc5F)c5nc(c(-c6cc(S(=O)(=O)[O-])ccc6F)c6ccc3[nH]6)C=C5)C=C4)cc1)C2
REMARK SMILES IDX 22 1 21 2 20 3 19 4 17 5 18 6 16 8 15 9 9 10 10 11 13 12
REMARK SMILES IDX 11 13 92 14 12 15 14 16 7 17 8 18 6 19 2 20 3 21 4 22 5 23
REMARK SMILES IDX 1 24 23 27 24 28 25 29 26 30 27 31 28 33 29 34 30 35 91 36
REMARK SMILES IDX 31 37 90 38 32 39 33 40 34 41 84 42 35 43 89 44 83 45 85 46
REMARK SMILES IDX 36 47 88 48 82 49 81 50 37 52 69 53 49 54 68 55 50 56 53 57
REMARK SMILES IDX 67 58 86 59 51 60 52 61 66 63 87 64 54 65 38 66 39 67 47 68
REMARK SMILES IDX 40 69 46 70 48 71 45 72 41 73 42 74 43 75 44 76 70 77 71 78
REMARK SMILES IDX 79 79 72 80 78 81 80 82 77 83 73 84 74 85 75 86 76 87 55 88
REMARK SMILES IDX 56 89 64 90 57 91 63 92 65 93 62 94 58 95 59 96 60 97 61 98
REMARK H PARENT 19 7 1 25 1 26 26 32 85 51 53 62
REMARK Flexibility Score: inf
ROOT
ATOM      1  C   UNL A   1      30.566  28.419  23.685  1.00  0.00     0.002 C 
ENDROOT
BRANCH   1   2
ATOM      2  C   UNL A   1      29.840  27.079  23.554  1.00  0.00     0.021 C 
BRANCH   2   3
ATOM      3  C   UNL A   1      30.739  25.850  23.743  1.00  0.00     0.116 C 
BRANCH   3   4
ATOM      4  N   UNL A   1      31.727  25.768  22.677  1.00  0.00    -0.356 N 
ATOM      5  C   UNL A   1      33.059  26.054  22.665  1.00  0.00     0.220 C 
ATOM      6  O   UNL A   1      33.656  26.011  21.587  1.00  0.00    -0.275 OA
ATOM      7  H   UNL A   1      31.372  25.451  21.815  1.00  0.00     0.163 HD
BRANCH   5   8
ATOM      8  C   UNL A   1      33.800  26.404  23.941  1.00  0.00     0.103 C 
BRANCH   8   9
ATOM      9  C   UNL A   1      34.169  25.186  24.818  1.00  0.00     0.002 C 
ATOM     10  N   UNL A   1      32.589  22.845  25.299  1.00  0.00    -0.331 N 
ATOM     11  C   UNL A   1      33.885  22.626  24.676  1.00  0.00     0.086 C 
ATOM     12  C   UNL A   1      32.889  23.626  26.482  1.00  0.00     0.086 C 
ATOM     13  C   UNL A   1      34.847  22.375  25.851  1.00  0.00     0.027 C 
ATOM     14  C   UNL A   1      34.225  23.917  23.925  1.00  0.00     0.029 C 
ATOM     15  C   UNL A   1      34.127  22.954  27.070  1.00  0.00     0.027 C 
ATOM     16  C   UNL A   1      33.198  25.053  26.015  1.00  0.00     0.029 C 
BRANCH  10  17
ATOM     17  C   UNL A   1      31.714  21.763  25.373  1.00  0.00     0.280 C 
ATOM     18  O   UNL A   1      30.693  21.823  26.056  1.00  0.00    -0.267 OA
BRANCH  17  19
ATOM     19  C   UNL A   1      32.172  20.540  24.712  1.00  0.00     0.216 A 
ATOM     20  C   UNL A   1      32.650  19.303  25.222  1.00  0.00     0.201 A 
ATOM     21  N   UNL A   1      32.864  18.458  24.216  1.00  0.00    -0.032 NA
ATOM     22  O   UNL A   1      32.584  19.178  23.068  1.00  0.00    -0.242 OA
ATOM     23  N   UNL A   1      32.150  20.458  23.373  1.00  0.00    -0.042 NA
BRANCH  20  24
ATOM     24  N   UNL A   1      32.905  18.972  26.501  1.00  0.00    -0.379 N 
ATOM     25  H   UNL A   1      33.543  19.505  27.030  1.00  0.00     0.158 HD
ATOM     26  H   UNL A   1      32.456  18.197  26.907  1.00  0.00     0.158 HD
ENDBRANCH  20  24
ENDBRANCH  17  19
ENDBRANCH  10  17
ENDBRANCH   8   9
ENDBRANCH   5   8
ENDBRANCH   3   4
ENDBRANCH   2   3
ENDBRANCH   1   2
BRANCH   1  27
ATOM     27  C   UNL A   1      31.110  28.717  25.085  1.00  0.00     0.002 C 
BRANCH  27  28
ATOM     28  C   UNL A   1      31.837  30.058  25.253  1.00  0.00     0.021 C 
BRANCH  28  29
ATOM     29  C   UNL A   1      32.016  30.543  26.692  1.00  0.00     0.116 C 
BRANCH  29  30
ATOM     30  N   UNL A   1      31.994  31.992  26.793  1.00  0.00    -0.352 N 
ATOM     31  C   UNL A   1      32.794  32.842  27.518  1.00  0.00     0.251 C 
ATOM     32  H   UNL A   1      31.297  32.434  26.257  1.00  0.00     0.163 HD
ATOM     33  O   UNL A   1      32.473  34.021  27.624  1.00  0.00    -0.269 OA
BRANCH  31  34
ATOM     34  C   UNL A   1      34.019  32.342  28.184  1.00  0.00     0.039 A 
ATOM     35  C   UNL A   1      34.989  33.264  28.588  1.00  0.00     0.014 A 
ATOM     36  C   UNL A   1      34.236  30.975  28.371  1.00  0.00     0.014 A 
ATOM     37  C   UNL A   1      36.148  32.821  29.232  1.00  0.00     0.010 A 
ATOM     38  C   UNL A   1      35.365  30.537  29.065  1.00  0.00     0.010 A 
ATOM     39  C   UNL A   1      36.333  31.455  29.500  1.00  0.00    -0.014 A 
BRANCH  39  40
ATOM     40  C   UNL A   1      37.537  30.967  30.223  1.00  0.00     0.031 A 
ATOM     41  C   UNL A   1      38.464  29.977  29.570  1.00  0.00     0.074 A 
ATOM     42  C   UNL A   1      37.763  31.366  31.489  1.00  0.00     0.049 A 
ATOM     43  N   UNL A   1      39.521  29.381  30.059  1.00  0.00    -0.248 NA
ATOM     44  C   UNL A   1      38.133  29.587  28.193  1.00  0.00     0.031 C 
ATOM     45  C   UNL A   1      36.922  32.297  32.245  1.00  0.00     0.029 A 
ATOM     46  N   UNL A   1      38.761  31.030  32.370  1.00  0.00    -0.354 N 
ATOM     47  C   UNL A   1      39.974  28.529  29.058  1.00  0.00     0.074 A 
ATOM     48  C   UNL A   1      39.037  28.649  27.958  1.00  0.00     0.031 C 
ATOM     49  C   UNL A   1      37.454  32.476  33.465  1.00  0.00     0.029 A 
ATOM     50  C   UNL A   1      38.647  31.646  33.594  1.00  0.00     0.049 A 
ATOM     51  H   UNL A   1      39.490  30.408  32.145  1.00  0.00     0.167 HD
ATOM     52  C   UNL A   1      41.077  27.739  29.046  1.00  0.00     0.034 A 
ATOM     53  C   UNL A   1      39.414  31.547  34.697  1.00  0.00     0.034 A 
ATOM     54  C   UNL A   1      42.006  27.640  30.147  1.00  0.00     0.049 A 
ATOM     55  C   UNL A   1      40.615  30.638  34.677  1.00  0.00     0.074 A 
ATOM     56  C   UNL A   1      43.192  26.929  30.217  1.00  0.00     0.029 A 
ATOM     57  N   UNL A   1      41.848  28.263  31.379  1.00  0.00    -0.354 N 
ATOM     58  N   UNL A   1      41.060  29.878  33.705  1.00  0.00    -0.248 NA
ATOM     59  C   UNL A   1      41.417  30.582  35.905  1.00  0.00     0.031 C 
ATOM     60  C   UNL A   1      43.717  27.072  31.508  1.00  0.00     0.029 A 
ATOM     61  C   UNL A   1      42.894  27.925  32.225  1.00  0.00     0.049 A 
ATOM     62  H   UNL A   1      41.100  28.858  31.616  1.00  0.00     0.167 HD
ATOM     63  C   UNL A   1      42.214  29.274  34.195  1.00  0.00     0.074 A 
ATOM     64  C   UNL A   1      42.397  29.765  35.547  1.00  0.00     0.031 C 
ATOM     65  C   UNL A   1      43.054  28.404  33.579  1.00  0.00     0.034 A 
BRANCH  52  66
ATOM     66  C   UNL A   1      41.306  26.896  27.811  1.00  0.00     0.023 A 
ATOM     67  C   UNL A   1      40.907  25.549  27.752  1.00  0.00     0.031 A 
ATOM     68  C   UNL A   1      41.991  27.425  26.703  1.00  0.00     0.131 A 
ATOM     69  C   UNL A   1      41.286  24.751  26.663  1.00  0.00     0.055 A 
ATOM     70  C   UNL A   1      42.285  26.648  25.579  1.00  0.00     0.041 A 
ATOM     71  F   UNL A   1      42.413  28.699  26.703  1.00  0.00    -0.206 F 
ATOM     72  C   UNL A   1      41.952  25.297  25.564  1.00  0.00     0.022 A 
BRANCH  69  73
ATOM     73  S   UNL A   1      41.061  22.955  26.789  1.00  0.00     0.124 S 
ATOM     74  O   UNL A   1      39.619  22.823  26.596  1.00  0.00    -0.237 OA
ATOM     75  O   UNL A   1      41.900  22.456  25.706  1.00  0.00    -0.237 OA
ATOM     76  O   UNL A   1      41.531  22.645  28.137  1.00  0.00    -0.744 OA
ENDBRANCH  69  73
ENDBRANCH  52  66
BRANCH  53  77
ATOM     77  C   UNL A   1      39.076  32.333  35.915  1.00  0.00     0.023 A 
ATOM     78  C   UNL A   1      38.284  31.775  36.929  1.00  0.00     0.031 A 
ATOM     79  C   UNL A   1      39.527  33.654  36.074  1.00  0.00     0.131 A 
ATOM     80  C   UNL A   1      37.939  32.546  38.049  1.00  0.00     0.055 A 
ATOM     81  C   UNL A   1      39.213  34.405  37.208  1.00  0.00     0.041 A 
ATOM     82  F   UNL A   1      40.298  34.226  35.136  1.00  0.00    -0.206 F 
ATOM     83  C   UNL A   1      38.407  33.855  38.200  1.00  0.00     0.022 A 
BRANCH  80  84
ATOM     84  S   UNL A   1      36.833  31.826  39.292  1.00  0.00     0.124 S 
ATOM     85  O   UNL A   1      37.377  32.374  40.529  1.00  0.00    -0.237 OA
ATOM     86  O   UNL A   1      35.533  32.346  38.877  1.00  0.00    -0.237 OA
ATOM     87  O   UNL A   1      37.010  30.387  39.113  1.00  0.00    -0.744 OA
ENDBRANCH  80  84
ENDBRANCH  53  77
BRANCH  65  88
ATOM     88  C   UNL A   1      44.267  27.963  34.359  1.00  0.00     0.023 A 
ATOM     89  C   UNL A   1      44.255  26.804  35.154  1.00  0.00     0.031 A 
ATOM     90  C   UNL A   1      45.443  28.732  34.325  1.00  0.00     0.131 A 
ATOM     91  C   UNL A   1      45.381  26.474  35.924  1.00  0.00     0.055 A 
ATOM     92  C   UNL A   1      46.578  28.371  35.052  1.00  0.00     0.041 A 
ATOM     93  F   UNL A   1      45.507  29.851  33.585  1.00  0.00    -0.206 F 
ATOM     94  C   UNL A   1      46.547  27.243  35.867  1.00  0.00     0.022 A 
BRANCH  91  95
ATOM     95  S   UNL A   1      45.277  25.072  37.069  1.00  0.00     0.124 S 
ATOM     96  O   UNL A   1      43.950  25.253  37.651  1.00  0.00    -0.237 OA
ATOM     97  O   UNL A   1      45.430  23.927  36.177  1.00  0.00    -0.237 OA
ATOM     98  O   UNL A   1      46.392  25.294  37.988  1.00  0.00    -0.744 OA
ENDBRANCH  91  95
ENDBRANCH  65  88
ENDBRANCH  39  40
ENDBRANCH  31  34
ENDBRANCH  29  30
ENDBRANCH  28  29
ENDBRANCH  27  28
ENDBRANCH   1  27
TORSDOF 20
ENDMDL
MODEL 2
REMARK VINA RESULT:     -11.7      5.676     10.892
REMARK SMILES Nc1nonc1C(=O)N1[C@@H]2CC[C@H]1C[C@H](CC(=O)NCCCCCCNC(=O)c1ccc(-c3c4nc(c(-c5cc(S(=O)(=O)[O-])ccc5F)c5ccc([nH]5)c(-c5cc(S(=O)(=O)[O-])ccc5F)c5nc(c(-c6cc(S(=O)(=O)[O-])ccc6F)c6ccc3[nH]6)C=C5)C=C4)cc1)C2
REMARK SMILES IDX 22 1 21 2 20 3 19 4 17 5 18 6 16 8 15 9 9 10 10 11 13 12
REMARK SMILES IDX 11 13 92 14 12 15 14 16 7 17 8 18 6 19 2 20 3 21 4 22 5 23
REMARK SMILES IDX 1 24 23 27 24 28 25 29 26 30 27 31 28 33 29 34 30 35 91 36
REMARK SMILES IDX 31 37 90 38 32 39 33 40 34 41 84 42 35 43 89 44 83 45 85 46
REMARK SMILES IDX 36 47 88 48 82 49 81 50 37 52 69 53 49 54 68 55 50 56 53 57
REMARK SMILES IDX 67 58 86 59 51 60 52 61 66 63 87 64 54 65 38 66 39 67 47 68
REMARK SMILES IDX 40 69 46 70 48 71 45 72 41 73 42 74 43 75 44 76 70 77 71 78
REMARK SMILES IDX 79 79 72 80 78 81 80 82 77 83 73 84 74 85 75 86 76 87 55 88
REMARK SMILES IDX 56 89 64 90 57 91 63 92 65 93 62 94 58 95 59 96 60 97 61 98
REMARK H PARENT 19 7 1 25 1 26 26 32 85 51 53 62
REMARK Flexibility Score: inf
ROOT
ATOM      1  C   UNL A   1      36.474  21.883  24.592  1.00  0.00     0.002 C 
ENDROOT
BRANCH   1   2
ATOM      2  C   UNL A   1      35.134  22.616  24.531  1.00  0.00     0.021 C 
BRANCH   2   3
ATOM      3  C   UNL A   1      33.911  21.723  24.782  1.00  0.00     0.116 C 
BRANCH   3   4
ATOM      4  N   UNL A   1      33.488  21.812  26.173  1.00  0.00    -0.356 N 
ATOM      5  C   UNL A   1      32.620  22.659  26.794  1.00  0.00     0.220 C 
ATOM      6  O   UNL A   1      32.523  22.598  28.021  1.00  0.00    -0.275 OA
ATOM      7  H   UNL A   1      33.900  21.144  26.767  1.00  0.00     0.163 HD
BRANCH   5   8
ATOM      8  C   UNL A   1      31.782  23.646  26.003  1.00  0.00     0.103 C 
BRANCH   8   9
ATOM      9  C   UNL A   1      31.983  25.122  26.414  1.00  0.00     0.002 C 
ATOM     10  N   UNL A   1      32.235  27.392  24.685  1.00  0.00    -0.331 N 
ATOM     11  C   UNL A   1      31.120  27.419  25.619  1.00  0.00     0.086 C 
ATOM     12  C   UNL A   1      33.392  27.135  25.518  1.00  0.00     0.086 C 
ATOM     13  C   UNL A   1      31.668  28.144  26.861  1.00  0.00     0.027 C 
ATOM     14  C   UNL A   1      30.773  25.957  25.916  1.00  0.00     0.029 C 
ATOM     15  C   UNL A   1      33.188  28.038  26.731  1.00  0.00     0.027 C 
ATOM     16  C   UNL A   1      33.346  25.654  25.911  1.00  0.00     0.029 C 
BRANCH  10  17
ATOM     17  C   UNL A   1      32.280  28.378  23.700  1.00  0.00     0.280 C 
ATOM     18  O   UNL A   1      33.345  28.908  23.388  1.00  0.00    -0.267 OA
BRANCH  17  19
ATOM     19  C   UNL A   1      30.980  28.820  23.194  1.00  0.00     0.216 A 
ATOM     20  C   UNL A   1      30.165  29.940  23.509  1.00  0.00     0.201 A 
ATOM     21  N   UNL A   1      29.100  29.956  22.711  1.00  0.00    -0.032 NA
ATOM     22  O   UNL A   1      29.207  28.814  21.937  1.00  0.00    -0.242 OA
ATOM     23  N   UNL A   1      30.367  28.117  22.228  1.00  0.00    -0.042 NA
BRANCH  20  24
ATOM     24  N   UNL A   1      30.353  30.864  24.469  1.00  0.00    -0.379 N 
ATOM     25  H   UNL A   1      29.722  31.615  24.559  1.00  0.00     0.158 HD
ATOM     26  H   UNL A   1      31.120  30.790  25.080  1.00  0.00     0.158 HD
ENDBRANCH  20  24
ENDBRANCH  17  19
ENDBRANCH  10  17
ENDBRANCH   8   9
ENDBRANCH   5   8
ENDBRANCH   3   4
ENDBRANCH   2   3
ENDBRANCH   1   2
BRANCH   1  27
ATOM     27  C   UNL A   1      36.374  20.392  24.928  1.00  0.00     0.002 C 
BRANCH  27  28
ATOM     28  C   UNL A   1      37.689  19.603  24.890  1.00  0.00     0.021 C 
BRANCH  28  29
ATOM     29  C   UNL A   1      38.844  20.193  25.702  1.00  0.00     0.116 C 
BRANCH  29  30
ATOM     30  N   UNL A   1      39.915  19.236  25.914  1.00  0.00    -0.352 N 
ATOM     31  C   UNL A   1      41.253  19.441  26.150  1.00  0.00     0.251 C 
ATOM     32  H   UNL A   1      39.639  18.291  25.883  1.00  0.00     0.163 HD
ATOM     33  O   UNL A   1      42.024  18.489  26.095  1.00  0.00    -0.269 OA
BRANCH  31  34
ATOM     34  C   UNL A   1      41.767  20.797  26.450  1.00  0.00     0.039 A 
ATOM     35  C   UNL A   1      41.923  21.706  25.399  1.00  0.00     0.014 A 
ATOM     36  C   UNL A   1      42.135  21.163  27.747  1.00  0.00     0.014 A 
ATOM     37  C   UNL A   1      42.392  22.998  25.656  1.00  0.00     0.010 A 
ATOM     38  C   UNL A   1      42.548  22.469  28.013  1.00  0.00     0.010 A 
ATOM     39  C   UNL A   1      42.683  23.399  26.970  1.00  0.00    -0.014 A 
BRANCH  39  40
ATOM     40  C   UNL A   1      43.141  24.781  27.271  1.00  0.00     0.031 A 
ATOM     41  C   UNL A   1      42.209  25.762  27.930  1.00  0.00     0.074 A 
ATOM     42  C   UNL A   1      44.372  25.173  26.893  1.00  0.00     0.049 A 
ATOM     43  N   UNL A   1      42.396  27.027  28.209  1.00  0.00    -0.248 NA
ATOM     44  C   UNL A   1      40.880  25.253  28.295  1.00  0.00     0.031 C 
ATOM     45  C   UNL A   1      45.358  24.327  26.217  1.00  0.00     0.029 A 
ATOM     46  N   UNL A   1      45.002  26.386  27.013  1.00  0.00    -0.354 N 
ATOM     47  C   UNL A   1      41.202  27.473  28.765  1.00  0.00     0.074 A 
ATOM     48  C   UNL A   1      40.283  26.352  28.728  1.00  0.00     0.031 C 
ATOM     49  C   UNL A   1      46.476  25.041  26.005  1.00  0.00     0.029 A 
ATOM     50  C   UNL A   1      46.275  26.401  26.493  1.00  0.00     0.049 A 
ATOM     51  H   UNL A   1      44.583  27.171  27.434  1.00  0.00     0.167 HD
ATOM     52  C   UNL A   1      40.905  28.694  29.279  1.00  0.00     0.034 A 
ATOM     53  C   UNL A   1      47.175  27.401  26.411  1.00  0.00     0.034 A 
ATOM     54  C   UNL A   1      41.836  29.796  29.320  1.00  0.00     0.049 A 
ATOM     55  C   UNL A   1      46.816  28.758  26.956  1.00  0.00     0.074 A 
ATOM     56  C   UNL A   1      41.668  31.051  29.880  1.00  0.00     0.029 A 
ATOM     57  N   UNL A   1      43.110  29.781  28.765  1.00  0.00    -0.354 N 
ATOM     58  N   UNL A   1      45.701  29.151  27.527  1.00  0.00    -0.248 NA
ATOM     59  C   UNL A   1      47.841  29.802  26.849  1.00  0.00     0.031 C 
ATOM     60  C   UNL A   1      42.814  31.812  29.611  1.00  0.00     0.029 A 
ATOM     61  C   UNL A   1      43.724  31.013  28.939  1.00  0.00     0.049 A 
ATOM     62  H   UNL A   1      43.518  29.007  28.313  1.00  0.00     0.167 HD
ATOM     63  C   UNL A   1      45.903  30.484  27.873  1.00  0.00     0.074 A 
ATOM     64  C   UNL A   1      47.249  30.822  27.453  1.00  0.00     0.031 C 
ATOM     65  C   UNL A   1      45.059  31.345  28.495  1.00  0.00     0.034 A 
BRANCH  52  66
ATOM     66  C   UNL A   1      39.501  28.896  29.804  1.00  0.00     0.023 A 
ATOM     67  C   UNL A   1      38.533  29.602  29.066  1.00  0.00     0.031 A 
ATOM     68  C   UNL A   1      39.143  28.437  31.083  1.00  0.00     0.131 A 
ATOM     69  C   UNL A   1      37.298  29.920  29.651  1.00  0.00     0.055 A 
ATOM     70  C   UNL A   1      37.877  28.678  31.624  1.00  0.00     0.041 A 
ATOM     71  F   UNL A   1      40.026  27.772  31.844  1.00  0.00    -0.206 F 
ATOM     72  C   UNL A   1      36.954  29.442  30.917  1.00  0.00     0.022 A 
BRANCH  69  73
ATOM     73  S   UNL A   1      36.229  31.120  28.810  1.00  0.00     0.124 S 
ATOM     74  O   UNL A   1      35.585  30.285  27.799  1.00  0.00    -0.237 OA
ATOM     75  O   UNL A   1      35.372  31.590  29.892  1.00  0.00    -0.237 OA
ATOM     76  O   UNL A   1      37.169  32.107  28.284  1.00  0.00    -0.744 OA
ENDBRANCH  69  73
ENDBRANCH  52  66
BRANCH  53  77
ATOM     77  C   UNL A   1      48.508  27.158  25.795  1.00  0.00     0.023 A 
ATOM     78  C   UNL A   1      49.571  26.664  26.566  1.00  0.00     0.031 A 
ATOM     79  C   UNL A   1      48.740  27.431  24.437  1.00  0.00     0.131 A 
ATOM     80  C   UNL A   1      50.833  26.484  25.979  1.00  0.00     0.055 A 
ATOM     81  C   UNL A   1      49.988  27.215  23.849  1.00  0.00     0.041 A 
ATOM     82  F   UNL A   1      47.750  27.894  23.658  1.00  0.00    -0.206 F 
ATOM     83  C   UNL A   1      51.045  26.747  24.623  1.00  0.00     0.022 A 
BRANCH  80  84
ATOM     84  S   UNL A   1      52.208  25.939  27.027  1.00  0.00     0.124 S 
ATOM     85  O   UNL A   1      52.992  25.135  26.096  1.00  0.00    -0.237 OA
ATOM     86  O   UNL A   1      52.800  27.209  27.434  1.00  0.00    -0.237 OA
ATOM     87  O   UNL A   1      51.547  25.193  28.095  1.00  0.00    -0.744 OA
ENDBRANCH  80  84
ENDBRANCH  53  77
BRANCH  65  88
ATOM     88  C   UNL A   1      45.591  32.725  28.790  1.00  0.00     0.023 A 
ATOM     89  C   UNL A   1      45.590  33.741  27.818  1.00  0.00     0.031 A 
ATOM     90  C   UNL A   1      46.132  33.016  30.054  1.00  0.00     0.131 A 
ATOM     91  C   UNL A   1      46.167  34.987  28.111  1.00  0.00     0.055 A 
ATOM     92  C   UNL A   1      46.656  34.274  30.356  1.00  0.00     0.041 A 
ATOM     93  F   UNL A   1      46.161  32.081  31.017  1.00  0.00    -0.206 F 
ATOM     94  C   UNL A   1      46.687  35.263  29.378  1.00  0.00     0.022 A 
BRANCH  91  95
ATOM     95  S   UNL A   1      46.306  36.219  26.787  1.00  0.00     0.124 S 
ATOM     96  O   UNL A   1      46.111  35.403  25.591  1.00  0.00    -0.237 OA
ATOM     97  O   UNL A   1      45.226  37.147  27.109  1.00  0.00    -0.237 OA
ATOM     98  O   UNL A   1      47.654  36.756  26.957  1.00  0.00    -0.744 OA
ENDBRANCH  91  95
ENDBRANCH  65  88
ENDBRANCH  39  40
ENDBRANCH  31  34
ENDBRANCH  29  30
ENDBRANCH  28  29
ENDBRANCH  27  28
ENDBRANCH   1  27
TORSDOF 20
ENDMDL
MODEL 3
REMARK VINA RESULT:     -11.6      1.793      7.553
REMARK SMILES Nc1nonc1C(=O)N1[C@@H]2CC[C@H]1C[C@H](CC(=O)NCCCCCCNC(=O)c1ccc(-c3c4nc(c(-c5cc(S(=O)(=O)[O-])ccc5F)c5ccc([nH]5)c(-c5cc(S(=O)(=O)[O-])ccc5F)c5nc(c(-c6cc(S(=O)(=O)[O-])ccc6F)c6ccc3[nH]6)C=C5)C=C4)cc1)C2
REMARK SMILES IDX 22 1 21 2 20 3 19 4 17 5 18 6 16 8 15 9 9 10 10 11 13 12
REMARK SMILES IDX 11 13 92 14 12 15 14 16 7 17 8 18 6 19 2 20 3 21 4 22 5 23
REMARK SMILES IDX 1 24 23 27 24 28 25 29 26 30 27 31 28 33 29 34 30 35 91 36
REMARK SMILES IDX 31 37 90 38 32 39 33 40 34 41 84 42 35 43 89 44 83 45 85 46
REMARK SMILES IDX 36 47 88 48 82 49 81 50 37 52 69 53 49 54 68 55 50 56 53 57
REMARK SMILES IDX 67 58 86 59 51 60 52 61 66 63 87 64 54 65 38 66 39 67 47 68
REMARK SMILES IDX 40 69 46 70 48 71 45 72 41 73 42 74 43 75 44 76 70 77 71 78
REMARK SMILES IDX 79 79 72 80 78 81 80 82 77 83 73 84 74 85 75 86 76 87 55 88
REMARK SMILES IDX 56 89 64 90 57 91 63 92 65 93 62 94 58 95 59 96 60 97 61 98
REMARK H PARENT 19 7 1 25 1 26 26 32 85 51 53 62
REMARK Flexibility Score: inf
ROOT
ATOM      1  C   UNL A   1      30.089  27.138  24.098  1.00  0.00     0.002 C 
ENDROOT
BRANCH   1   2
ATOM      2  C   UNL A   1      29.852  25.631  24.188  1.00  0.00     0.021 C 
BRANCH   2   3
ATOM      3  C   UNL A   1      31.132  24.786  24.182  1.00  0.00     0.116 C 
BRANCH   3   4
ATOM      4  N   UNL A   1      31.619  24.601  22.821  1.00  0.00    -0.356 N 
ATOM      5  C   UNL A   1      32.743  25.057  22.201  1.00  0.00     0.220 C 
ATOM      6  O   UNL A   1      32.865  24.854  20.992  1.00  0.00    -0.275 OA
ATOM      7  H   UNL A   1      31.034  24.052  22.251  1.00  0.00     0.163 HD
BRANCH   5   8
ATOM      8  C   UNL A   1      33.826  25.786  22.973  1.00  0.00     0.103 C 
BRANCH   8   9
ATOM      9  C   UNL A   1      34.772  24.859  23.770  1.00  0.00     0.002 C 
ATOM     10  N   UNL A   1      34.059  22.555  25.313  1.00  0.00    -0.331 N 
ATOM     11  C   UNL A   1      34.977  22.326  24.208  1.00  0.00     0.086 C 
ATOM     12  C   UNL A   1      34.674  23.624  26.072  1.00  0.00     0.086 C 
ATOM     13  C   UNL A   1      36.378  22.466  24.828  1.00  0.00     0.027 C 
ATOM     14  C   UNL A   1      34.693  23.426  23.180  1.00  0.00     0.029 C 
ATOM     15  C   UNL A   1      36.152  23.244  26.124  1.00  0.00     0.027 C 
ATOM     16  C   UNL A   1      34.459  24.920  25.284  1.00  0.00     0.029 C 
BRANCH  10  17
ATOM     17  C   UNL A   1      33.538  21.437  25.965  1.00  0.00     0.280 C 
ATOM     18  O   UNL A   1      33.369  21.440  27.183  1.00  0.00    -0.267 OA
BRANCH  17  19
ATOM     19  C   UNL A   1      33.355  20.251  25.127  1.00  0.00     0.216 A 
ATOM     20  C   UNL A   1      34.240  19.206  24.749  1.00  0.00     0.201 A 
ATOM     21  N   UNL A   1      33.577  18.296  24.038  1.00  0.00    -0.032 NA
ATOM     22  O   UNL A   1      32.294  18.796  23.910  1.00  0.00    -0.242 OA
ATOM     23  N   UNL A   1      32.153  19.996  24.587  1.00  0.00    -0.042 NA
BRANCH  20  24
ATOM     24  N   UNL A   1      35.556  19.096  25.002  1.00  0.00    -0.379 N 
ATOM     25  H   UNL A   1      36.172  18.808  24.289  1.00  0.00     0.158 HD
ATOM     26  H   UNL A   1      35.905  19.305  25.898  1.00  0.00     0.158 HD
ENDBRANCH  20  24
ENDBRANCH  17  19
ENDBRANCH  10  17
ENDBRANCH   8   9
ENDBRANCH   5   8
ENDBRANCH   3   4
ENDBRANCH   2   3
ENDBRANCH   1   2
BRANCH   1  27
ATOM     27  C   UNL A   1      31.212  27.665  24.996  1.00  0.00     0.002 C 
BRANCH  27  28
ATOM     28  C   UNL A   1      32.244  28.576  24.319  1.00  0.00     0.021 C 
BRANCH  28  29
ATOM     29  C   UNL A   1      33.277  29.217  25.247  1.00  0.00     0.116 C 
BRANCH  29  30
ATOM     30  N   UNL A   1      32.831  30.497  25.769  1.00  0.00    -0.352 N 
ATOM     31  C   UNL A   1      33.249  31.198  26.874  1.00  0.00     0.251 C 
ATOM     32  H   UNL A   1      32.116  30.930  25.249  1.00  0.00     0.163 HD
ATOM     33  O   UNL A   1      32.596  32.164  27.253  1.00  0.00    -0.269 OA
BRANCH  31  34
ATOM     34  C   UNL A   1      34.464  30.785  27.615  1.00  0.00     0.039 A 
ATOM     35  C   UNL A   1      35.463  31.734  27.850  1.00  0.00     0.014 A 
ATOM     36  C   UNL A   1      34.642  29.466  28.037  1.00  0.00     0.014 A 
ATOM     37  C   UNL A   1      36.614  31.375  28.560  1.00  0.00     0.010 A 
ATOM     38  C   UNL A   1      35.762  29.122  28.795  1.00  0.00     0.010 A 
ATOM     39  C   UNL A   1      36.760  30.072  29.062  1.00  0.00    -0.014 A 
BRANCH  39  40
ATOM     40  C   UNL A   1      37.954  29.682  29.857  1.00  0.00     0.031 A 
ATOM     41  C   UNL A   1      38.183  30.271  31.222  1.00  0.00     0.074 A 
ATOM     42  C   UNL A   1      38.866  28.846  29.324  1.00  0.00     0.049 A 
ATOM     43  N   UNL A   1      39.194  30.113  32.037  1.00  0.00    -0.248 NA
ATOM     44  C   UNL A   1      37.144  31.185  31.719  1.00  0.00     0.031 C 
ATOM     45  C   UNL A   1      38.776  28.232  27.998  1.00  0.00     0.029 A 
ATOM     46  N   UNL A   1      40.053  28.377  29.828  1.00  0.00    -0.354 N 
ATOM     47  C   UNL A   1      38.926  30.922  33.137  1.00  0.00     0.074 A 
ATOM     48  C   UNL A   1      37.683  31.610  32.851  1.00  0.00     0.031 C 
ATOM     49  C   UNL A   1      39.850  27.448  27.804  1.00  0.00     0.029 A 
ATOM     50  C   UNL A   1      40.721  27.534  28.972  1.00  0.00     0.049 A 
ATOM     51  H   UNL A   1      40.393  28.619  30.719  1.00  0.00     0.167 HD
ATOM     52  C   UNL A   1      39.635  31.061  34.285  1.00  0.00     0.034 A 
ATOM     53  C   UNL A   1      41.906  26.907  29.109  1.00  0.00     0.034 A 
ATOM     54  C   UNL A   1      40.867  30.358  34.559  1.00  0.00     0.049 A 
ATOM     55  C   UNL A   1      42.696  27.100  30.377  1.00  0.00     0.074 A 
ATOM     56  C   UNL A   1      41.630  30.367  35.714  1.00  0.00     0.029 A 
ATOM     57  N   UNL A   1      41.524  29.528  33.660  1.00  0.00    -0.354 N 
ATOM     58  N   UNL A   1      42.404  27.827  31.430  1.00  0.00    -0.248 NA
ATOM     59  C   UNL A   1      43.972  26.381  30.472  1.00  0.00     0.031 C 
ATOM     60  C   UNL A   1      42.777  29.594  35.492  1.00  0.00     0.029 A 
ATOM     61  C   UNL A   1      42.699  29.048  34.220  1.00  0.00     0.049 A 
ATOM     62  H   UNL A   1      41.203  29.312  32.754  1.00  0.00     0.167 HD
ATOM     63  C   UNL A   1      43.450  27.629  32.326  1.00  0.00     0.074 A 
ATOM     64  C   UNL A   1      44.374  26.710  31.691  1.00  0.00     0.031 C 
ATOM     65  C   UNL A   1      43.624  28.149  33.568  1.00  0.00     0.034 A 
BRANCH  52  66
ATOM     66  C   UNL A   1      39.103  32.040  35.308  1.00  0.00     0.023 A 
ATOM     67  C   UNL A   1      39.525  33.381  35.335  1.00  0.00     0.031 A 
ATOM     68  C   UNL A   1      38.215  31.613  36.310  1.00  0.00     0.131 A 
ATOM     69  C   UNL A   1      39.146  34.216  36.396  1.00  0.00     0.055 A 
ATOM     70  C   UNL A   1      37.767  32.476  37.315  1.00  0.00     0.041 A 
ATOM     71  F   UNL A   1      37.787  30.341  36.351  1.00  0.00    -0.206 F 
ATOM     72  C   UNL A   1      38.250  33.780  37.374  1.00  0.00     0.022 A 
BRANCH  69  73
ATOM     73  S   UNL A   1      39.986  35.813  36.580  1.00  0.00     0.124 S 
ATOM     74  O   UNL A   1      39.650  36.472  35.320  1.00  0.00    -0.237 OA
ATOM     75  O   UNL A   1      39.360  36.363  37.776  1.00  0.00    -0.237 OA
ATOM     76  O   UNL A   1      41.393  35.446  36.724  1.00  0.00    -0.744 OA
ENDBRANCH  69  73
ENDBRANCH  52  66
BRANCH  53  77
ATOM     77  C   UNL A   1      42.419  26.030  28.021  1.00  0.00     0.023 A 
ATOM     78  C   UNL A   1      41.926  24.726  27.863  1.00  0.00     0.031 A 
ATOM     79  C   UNL A   1      43.414  26.477  27.137  1.00  0.00     0.131 A 
ATOM     80  C   UNL A   1      42.454  23.898  26.860  1.00  0.00     0.055 A 
ATOM     81  C   UNL A   1      43.909  25.662  26.117  1.00  0.00     0.041 A 
ATOM     82  F   UNL A   1      43.907  27.721  27.242  1.00  0.00    -0.206 F 
ATOM     83  C   UNL A   1      43.435  24.361  25.980  1.00  0.00     0.022 A 
BRANCH  80  84
ATOM     84  S   UNL A   1      41.865  22.187  26.748  1.00  0.00     0.124 S 
ATOM     85  O   UNL A   1      42.662  21.529  27.777  1.00  0.00    -0.237 OA
ATOM     86  O   UNL A   1      40.442  22.337  27.037  1.00  0.00    -0.237 OA
ATOM     87  O   UNL A   1      42.181  21.807  25.373  1.00  0.00    -0.744 OA
ENDBRANCH  80  84
ENDBRANCH  53  77
BRANCH  65  88
ATOM     88  C   UNL A   1      44.845  27.697  34.330  1.00  0.00     0.023 A 
ATOM     89  C   UNL A   1      44.820  26.564  35.161  1.00  0.00     0.031 A 
ATOM     90  C   UNL A   1      46.041  28.429  34.240  1.00  0.00     0.131 A 
ATOM     91  C   UNL A   1      45.957  26.224  35.912  1.00  0.00     0.055 A 
ATOM     92  C   UNL A   1      47.184  28.057  34.948  1.00  0.00     0.041 A 
ATOM     93  F   UNL A   1      46.117  29.522  33.464  1.00  0.00    -0.206 F 
ATOM     94  C   UNL A   1      47.143  26.956  35.799  1.00  0.00     0.022 A 
BRANCH  91  95
ATOM     95  S   UNL A   1      45.843  24.862  37.103  1.00  0.00     0.124 S 
ATOM     96  O   UNL A   1      45.896  23.691  36.232  1.00  0.00    -0.237 OA
ATOM     97  O   UNL A   1      47.015  25.084  37.945  1.00  0.00    -0.237 OA
ATOM     98  O   UNL A   1      44.558  25.087  37.761  1.00  0.00    -0.744 OA
ENDBRANCH  91  95
ENDBRANCH  65  88
ENDBRANCH  39  40
ENDBRANCH  31  34
ENDBRANCH  29  30
ENDBRANCH  28  29
ENDBRANCH  27  28
ENDBRANCH   1  27
TORSDOF 20
ENDMDL
