MODEL 1
REMARK VINA RESULT:     -13.2      0.000      0.000
REMARK SMILES CN(C(=O)C[C@H]1SC(=O)N(c2cccc(O)c2)C1=O)c1ccccc1C(=O)NCCCCCCNC(=O)c1ccc(-c2c3nc(c(-c4cc(S(=O)(=O)[O-])ccc4F)c4ccc([nH]4)c(-c4cc(S(=O)(=O)[O-])ccc4F)c4nc(c(-c5cc(S(=O)(=O)[O-])ccc5F)c5ccc2[nH]5)C=C4)C=C3)cc1
REMARK SMILES IDX 30 1 29 2 28 3 26 4 27 5 25 7 20 8 21 9 22 10 24 11 23 12
REMARK SMILES IDX 2 13 1 14 3 15 4 16 5 17 6 18 7 19 18 20 8 21 10 22 19 23
REMARK SMILES IDX 9 24 11 25 12 26 17 27 13 28 15 29 14 30 16 31 31 33 32 34
REMARK SMILES IDX 33 35 34 36 35 37 36 38 37 40 38 41 39 42 100 43 40 44 99 45
REMARK SMILES IDX 41 46 42 47 43 48 93 49 44 50 98 51 92 52 94 53 45 54 97 55
REMARK SMILES IDX 91 56 90 57 46 59 78 60 58 61 77 62 59 63 62 64 76 65 95 66
REMARK SMILES IDX 60 67 61 68 75 70 96 71 63 72 47 73 48 74 56 75 49 76 55 77
REMARK SMILES IDX 57 78 54 79 50 80 51 81 52 82 53 83 79 84 80 85 88 86 81 87
REMARK SMILES IDX 87 88 89 89 86 90 82 91 83 92 84 93 85 94 64 95 65 96 73 97
REMARK SMILES IDX 66 98 72 99 74 100 71 101 67 102 68 103 69 104 70 105
REMARK H PARENT 28 6 16 32 35 39 94 58 62 69
REMARK Flexibility Score: inf
ROOT
ATOM      1  C   UNL A   1      35.473  29.552  27.879  1.00  0.00     0.021 C 
ENDROOT
BRANCH   1   2
ATOM      2  C   UNL A   1      34.317  29.162  26.901  1.00  0.00     0.116 C 
BRANCH   2   3
ATOM      3  N   UNL A   1      33.130  28.681  27.562  1.00  0.00    -0.352 N 
ATOM      4  C   UNL A   1      32.041  27.997  27.079  1.00  0.00     0.253 C 
ATOM      5  O   UNL A   1      31.154  27.677  27.873  1.00  0.00    -0.269 OA
ATOM      6  H   UNL A   1      33.094  28.876  28.526  1.00  0.00     0.163 HD
BRANCH   4   7
ATOM      7  C   UNL A   1      31.809  27.741  25.636  1.00  0.00     0.063 A 
ATOM      8  C   UNL A   1      32.181  26.597  24.899  1.00  0.00     0.056 A 
ATOM      9  C   UNL A   1      31.797  26.502  23.549  1.00  0.00     0.027 A 
ATOM     10  C   UNL A   1      31.027  27.498  22.947  1.00  0.00     0.002 A 
ATOM     11  C   UNL A   1      31.021  28.731  25.014  1.00  0.00     0.016 A 
ATOM     12  C   UNL A   1      30.630  28.609  23.682  1.00  0.00     0.001 A 
BRANCH   8  13
ATOM     13  N   UNL A   1      32.795  25.445  25.482  1.00  0.00    -0.315 N 
ATOM     14  C   UNL A   1      34.234  25.609  25.728  1.00  0.00     0.153 C 
BRANCH  13  15
ATOM     15  C   UNL A   1      31.991  24.479  26.093  1.00  0.00     0.228 C 
ATOM     16  O   UNL A   1      31.654  24.540  27.280  1.00  0.00    -0.274 OA
BRANCH  15  17
ATOM     17  C   UNL A   1      31.319  23.426  25.205  1.00  0.00     0.125 C 
BRANCH  17  18
ATOM     18  C   UNL A   1      32.421  22.406  24.760  1.00  0.00     0.156 C 
ATOM     19  S   UNL A   1      33.217  23.041  22.552  1.00  0.00    -0.050 SA
ATOM     20  C   UNL A   1      34.088  21.815  25.769  1.00  0.00     0.248 C 
ATOM     21  C   UNL A   1      35.392  22.693  23.111  1.00  0.00     0.293 C 
ATOM     22  N   UNL A   1      35.548  22.179  24.750  1.00  0.00    -0.240 N 
ATOM     23  O   UNL A   1      34.100  21.108  26.772  1.00  0.00    -0.273 OA
ATOM     24  O   UNL A   1      36.239  22.961  22.274  1.00  0.00    -0.261 OA
BRANCH  22  25
ATOM     25  C   UNL A   1      36.855  22.444  25.297  1.00  0.00     0.056 A 
ATOM     26  C   UNL A   1      37.045  23.710  25.908  1.00  0.00     0.027 A 
ATOM     27  C   UNL A   1      37.883  21.516  25.380  1.00  0.00     0.073 A 
ATOM     28  C   UNL A   1      38.176  24.013  26.662  1.00  0.00     0.006 A 
ATOM     29  C   UNL A   1      39.025  21.846  26.128  1.00  0.00     0.117 A 
ATOM     30  C   UNL A   1      39.179  23.069  26.774  1.00  0.00     0.046 A 
BRANCH  29  31
ATOM     31  O   UNL A   1      39.975  20.891  26.354  1.00  0.00    -0.508 OA
ATOM     32  H   UNL A   1      40.115  20.564  27.221  1.00  0.00     0.293 HD
ENDBRANCH  29  31
ENDBRANCH  22  25
ENDBRANCH  17  18
ENDBRANCH  15  17
ENDBRANCH  13  15
ENDBRANCH   8  13
ENDBRANCH   4   7
ENDBRANCH   2   3
ENDBRANCH   1   2
BRANCH   1  33
ATOM     33  C   UNL A   1      36.389  31.046  27.835  1.00  0.00     0.002 C 
BRANCH  33  34
ATOM     34  C   UNL A   1      36.027  33.206  28.000  1.00  0.00     0.002 C 
BRANCH  34  35
ATOM     35  C   UNL A   1      34.792  34.252  28.722  1.00  0.00     0.021 C 
BRANCH  35  36
ATOM     36  C   UNL A   1      33.400  34.039  29.376  1.00  0.00     0.116 C 
BRANCH  36  37
ATOM     37  N   UNL A   1      32.893  35.112  30.226  1.00  0.00    -0.352 N 
ATOM     38  C   UNL A   1      33.213  35.458  31.514  1.00  0.00     0.251 C 
ATOM     39  H   UNL A   1      32.211  35.683  29.804  1.00  0.00     0.163 HD
ATOM     40  O   UNL A   1      32.700  36.402  32.106  1.00  0.00    -0.269 OA
BRANCH  38  41
ATOM     41  C   UNL A   1      34.288  34.708  32.130  1.00  0.00     0.039 A 
ATOM     42  C   UNL A   1      34.086  33.393  32.533  1.00  0.00     0.014 A 
ATOM     43  C   UNL A   1      35.532  35.340  32.172  1.00  0.00     0.014 A 
ATOM     44  C   UNL A   1      35.191  32.665  32.941  1.00  0.00     0.010 A 
ATOM     45  C   UNL A   1      36.636  34.589  32.494  1.00  0.00     0.010 A 
ATOM     46  C   UNL A   1      36.465  33.255  32.888  1.00  0.00    -0.014 A 
BRANCH  46  47
ATOM     47  C   UNL A   1      37.661  32.508  33.295  1.00  0.00     0.031 A 
ATOM     48  C   UNL A   1      38.316  32.878  34.589  1.00  0.00     0.074 A 
ATOM     49  C   UNL A   1      38.168  31.592  32.452  1.00  0.00     0.049 A 
ATOM     50  N   UNL A   1      39.436  32.449  35.098  1.00  0.00    -0.248 NA
ATOM     51  C   UNL A   1      37.642  33.912  35.393  1.00  0.00     0.031 C 
ATOM     52  C   UNL A   1      37.600  31.235  31.148  1.00  0.00     0.029 A 
ATOM     53  N   UNL A   1      39.276  30.802  32.561  1.00  0.00    -0.354 N 
ATOM     54  C   UNL A   1      39.607  33.168  36.275  1.00  0.00     0.074 A 
ATOM     55  C   UNL A   1      38.524  34.123  36.354  1.00  0.00     0.031 C 
ATOM     56  C   UNL A   1      38.351  30.270  30.594  1.00  0.00     0.029 A 
ATOM     57  C   UNL A   1      39.468  29.974  31.481  1.00  0.00     0.049 A 
ATOM     58  H   UNL A   1      39.879  30.823  33.339  1.00  0.00     0.167 HD
ATOM     59  C   UNL A   1      40.564  33.008  37.218  1.00  0.00     0.034 A 
ATOM     60  C   UNL A   1      40.446  29.078  31.253  1.00  0.00     0.034 A 
ATOM     61  C   UNL A   1      41.613  32.031  37.095  1.00  0.00     0.049 A 
ATOM     62  C   UNL A   1      41.495  28.911  32.324  1.00  0.00     0.074 A 
ATOM     63  C   UNL A   1      42.638  31.740  37.974  1.00  0.00     0.029 A 
ATOM     64  N   UNL A   1      41.760  31.172  36.008  1.00  0.00    -0.354 N 
ATOM     65  N   UNL A   1      41.626  29.564  33.459  1.00  0.00    -0.248 NA
ATOM     66  C   UNL A   1      42.510  27.879  32.099  1.00  0.00     0.031 C 
ATOM     67  C   UNL A   1      43.430  30.739  37.399  1.00  0.00     0.029 A 
ATOM     68  C   UNL A   1      42.863  30.358  36.190  1.00  0.00     0.049 A 
ATOM     69  H   UNL A   1      41.164  31.148  35.225  1.00  0.00     0.167 HD
ATOM     70  C   UNL A   1      42.725  28.998  34.097  1.00  0.00     0.074 A 
ATOM     71  C   UNL A   1      43.201  27.939  33.227  1.00  0.00     0.031 C 
ATOM     72  C   UNL A   1      43.296  29.317  35.288  1.00  0.00     0.034 A 
BRANCH  59  73
ATOM     73  C   UNL A   1      40.502  33.920  38.419  1.00  0.00     0.023 A 
ATOM     74  C   UNL A   1      39.775  33.565  39.571  1.00  0.00     0.031 A 
ATOM     75  C   UNL A   1      41.106  35.188  38.391  1.00  0.00     0.131 A 
ATOM     76  C   UNL A   1      39.587  34.499  40.600  1.00  0.00     0.055 A 
ATOM     77  C   UNL A   1      40.991  36.081  39.459  1.00  0.00     0.041 A 
ATOM     78  F   UNL A   1      41.789  35.596  37.310  1.00  0.00    -0.206 F 
ATOM     79  C   UNL A   1      40.213  35.747  40.564  1.00  0.00     0.022 A 
BRANCH  76  80
ATOM     80  S   UNL A   1      38.383  34.121  41.903  1.00  0.00     0.124 S 
ATOM     81  O   UNL A   1      37.551  35.323  41.889  1.00  0.00    -0.237 OA
ATOM     82  O   UNL A   1      37.752  32.903  41.406  1.00  0.00    -0.237 OA
ATOM     83  O   UNL A   1      39.209  33.956  43.096  1.00  0.00    -0.744 OA
ENDBRANCH  76  80
ENDBRANCH  59  73
BRANCH  60  84
ATOM     84  C   UNL A   1      40.469  28.274  30.000  1.00  0.00     0.023 A 
ATOM     85  C   UNL A   1      41.431  28.517  29.007  1.00  0.00     0.031 A 
ATOM     86  C   UNL A   1      39.515  27.270  29.759  1.00  0.00     0.131 A 
ATOM     87  C   UNL A   1      41.384  27.806  27.797  1.00  0.00     0.055 A 
ATOM     88  C   UNL A   1      39.503  26.529  28.575  1.00  0.00     0.041 A 
ATOM     89  F   UNL A   1      38.582  26.983  30.681  1.00  0.00    -0.206 F 
ATOM     90  C   UNL A   1      40.433  26.808  27.578  1.00  0.00     0.022 A 
BRANCH  87  91
ATOM     91  S   UNL A   1      42.530  28.277  26.472  1.00  0.00     0.124 S 
ATOM     92  O   UNL A   1      42.256  29.703  26.333  1.00  0.00    -0.237 OA
ATOM     93  O   UNL A   1      43.821  27.924  27.053  1.00  0.00    -0.237 OA
ATOM     94  O   UNL A   1      42.106  27.447  25.346  1.00  0.00    -0.744 OA
ENDBRANCH  87  91
ENDBRANCH  60  84
BRANCH  72  95
ATOM     95  C   UNL A   1      44.467  28.473  35.713  1.00  0.00     0.023 A 
ATOM     96  C   UNL A   1      44.292  27.314  36.486  1.00  0.00     0.031 A 
ATOM     97  C   UNL A   1      45.773  28.841  35.345  1.00  0.00     0.131 A 
ATOM     98  C   UNL A   1      45.412  26.594  36.919  1.00  0.00     0.055 A 
ATOM     99  C   UNL A   1      46.879  28.084  35.725  1.00  0.00     0.041 A 
ATOM    100  F   UNL A   1      45.989  29.941  34.606  1.00  0.00    -0.206 F 
ATOM    101  C   UNL A   1      46.703  26.961  36.529  1.00  0.00     0.022 A 
BRANCH  98 102
ATOM    102  S   UNL A   1      45.163  25.223  38.077  1.00  0.00     0.124 S 
ATOM    103  O   UNL A   1      44.167  24.415  37.381  1.00  0.00    -0.237 OA
ATOM    104  O   UNL A   1      46.500  24.645  38.170  1.00  0.00    -0.237 OA
ATOM    105  O   UNL A   1      44.688  25.884  39.292  1.00  0.00    -0.744 OA
ENDBRANCH  98 102
ENDBRANCH  72  95
ENDBRANCH  46  47
ENDBRANCH  38  41
ENDBRANCH  36  37
ENDBRANCH  35  36
ENDBRANCH  34  35
ENDBRANCH  33  34
ENDBRANCH   1  33
TORSDOF 22
ENDMDL
MODEL 2
REMARK VINA RESULT:     -11.8      6.070     11.611
REMARK SMILES CN(C(=O)C[C@H]1SC(=O)N(c2cccc(O)c2)C1=O)c1ccccc1C(=O)NCCCCCCNC(=O)c1ccc(-c2c3nc(c(-c4cc(S(=O)(=O)[O-])ccc4F)c4ccc([nH]4)c(-c4cc(S(=O)(=O)[O-])ccc4F)c4nc(c(-c5cc(S(=O)(=O)[O-])ccc5F)c5ccc2[nH]5)C=C4)C=C3)cc1
REMARK SMILES IDX 30 1 29 2 28 3 26 4 27 5 25 7 20 8 21 9 22 10 24 11 23 12
REMARK SMILES IDX 2 13 1 14 3 15 4 16 5 17 6 18 7 19 18 20 8 21 10 22 19 23
REMARK SMILES IDX 9 24 11 25 12 26 17 27 13 28 15 29 14 30 16 31 31 33 32 34
REMARK SMILES IDX 33 35 34 36 35 37 36 38 37 40 38 41 39 42 100 43 40 44 99 45
REMARK SMILES IDX 41 46 42 47 43 48 93 49 44 50 98 51 92 52 94 53 45 54 97 55
REMARK SMILES IDX 91 56 90 57 46 59 78 60 58 61 77 62 59 63 62 64 76 65 95 66
REMARK SMILES IDX 60 67 61 68 75 70 96 71 63 72 47 73 48 74 56 75 49 76 55 77
REMARK SMILES IDX 57 78 54 79 50 80 51 81 52 82 53 83 79 84 80 85 88 86 81 87
REMARK SMILES IDX 87 88 89 89 86 90 82 91 83 92 84 93 85 94 64 95 65 96 73 97
REMARK SMILES IDX 66 98 72 99 74 100 71 101 67 102 68 103 69 104 70 105
REMARK H PARENT 28 6 16 32 35 39 94 58 62 69
REMARK Flexibility Score: inf
ROOT
ATOM      1  C   UNL A   1      48.624  27.515  24.041  1.00  0.00     0.021 C 
ENDROOT
BRANCH   1   2
ATOM      2  C   UNL A   1      47.100  27.367  23.727  1.00  0.00     0.116 C 
BRANCH   2   3
ATOM      3  N   UNL A   1      46.261  28.284  24.457  1.00  0.00    -0.352 N 
ATOM      4  C   UNL A   1      45.865  28.295  25.773  1.00  0.00     0.253 C 
ATOM      5  O   UNL A   1      45.150  29.222  26.159  1.00  0.00    -0.269 OA
ATOM      6  H   UNL A   1      45.911  29.032  23.920  1.00  0.00     0.163 HD
BRANCH   4   7
ATOM      7  C   UNL A   1      46.137  27.185  26.719  1.00  0.00     0.063 A 
ATOM      8  C   UNL A   1      45.472  25.944  26.798  1.00  0.00     0.056 A 
ATOM      9  C   UNL A   1      45.933  24.981  27.713  1.00  0.00     0.027 A 
ATOM     10  C   UNL A   1      47.053  25.223  28.510  1.00  0.00     0.002 A 
ATOM     11  C   UNL A   1      47.274  27.406  27.523  1.00  0.00     0.016 A 
ATOM     12  C   UNL A   1      47.731  26.432  28.409  1.00  0.00     0.001 A 
BRANCH   8  13
ATOM     13  N   UNL A   1      44.447  25.537  25.888  1.00  0.00    -0.315 N 
ATOM     14  C   UNL A   1      44.766  24.301  25.161  1.00  0.00     0.153 C 
BRANCH  13  15
ATOM     15  C   UNL A   1      43.160  26.065  26.030  1.00  0.00     0.228 C 
ATOM     16  O   UNL A   1      42.372  26.172  25.086  1.00  0.00    -0.274 OA
BRANCH  15  17
ATOM     17  C   UNL A   1      42.629  26.312  27.446  1.00  0.00     0.125 C 
BRANCH  17  18
ATOM     18  C   UNL A   1      42.016  24.968  27.966  1.00  0.00     0.156 C 
ATOM     19  S   UNL A   1      39.908  24.585  26.817  1.00  0.00    -0.050 SA
ATOM     20  C   UNL A   1      42.891  23.133  28.083  1.00  0.00     0.248 C 
ATOM     21  C   UNL A   1      40.362  22.383  26.477  1.00  0.00     0.293 C 
ATOM     22  N   UNL A   1      41.904  21.951  27.117  1.00  0.00    -0.240 N 
ATOM     23  O   UNL A   1      43.779  22.817  28.868  1.00  0.00    -0.273 OA
ATOM     24  O   UNL A   1      39.554  21.734  25.832  1.00  0.00    -0.261 OA
BRANCH  22  25
ATOM     25  C   UNL A   1      42.455  20.772  26.498  1.00  0.00     0.056 A 
ATOM     26  C   UNL A   1      43.500  20.973  25.560  1.00  0.00     0.027 A 
ATOM     27  C   UNL A   1      42.129  19.468  26.844  1.00  0.00     0.073 A 
ATOM     28  C   UNL A   1      44.264  19.924  25.056  1.00  0.00     0.006 A 
ATOM     29  C   UNL A   1      42.896  18.421  26.311  1.00  0.00     0.117 A 
ATOM     30  C   UNL A   1      43.959  18.631  25.437  1.00  0.00     0.046 A 
BRANCH  29  31
ATOM     31  O   UNL A   1      42.694  17.147  26.761  1.00  0.00    -0.508 OA
ATOM     32  H   UNL A   1      43.290  16.464  26.520  1.00  0.00     0.293 HD
ENDBRANCH  29  31
ENDBRANCH  22  25
ENDBRANCH  17  18
ENDBRANCH  15  17
ENDBRANCH  13  15
ENDBRANCH   8  13
ENDBRANCH   4   7
ENDBRANCH   2   3
ENDBRANCH   1   2
BRANCH   1  33
ATOM     33  C   UNL A   1      49.614  26.338  24.881  1.00  0.00     0.002 C 
BRANCH  33  34
ATOM     34  C   UNL A   1      51.226  26.305  26.373  1.00  0.00     0.002 C 
BRANCH  34  35
ATOM     35  C   UNL A   1      52.395  27.464  27.029  1.00  0.00     0.021 C 
BRANCH  35  36
ATOM     36  C   UNL A   1      52.457  28.401  28.265  1.00  0.00     0.116 C 
BRANCH  36  37
ATOM     37  N   UNL A   1      52.926  29.765  28.043  1.00  0.00    -0.352 N 
ATOM     38  C   UNL A   1      52.275  30.966  28.170  1.00  0.00     0.251 C 
ATOM     39  H   UNL A   1      53.865  29.835  27.756  1.00  0.00     0.163 HD
ATOM     40  O   UNL A   1      52.806  32.048  27.949  1.00  0.00    -0.269 OA
BRANCH  38  41
ATOM     41  C   UNL A   1      50.924  30.909  28.692  1.00  0.00     0.039 A 
ATOM     42  C   UNL A   1      50.658  31.311  29.996  1.00  0.00     0.014 A 
ATOM     43  C   UNL A   1      49.928  30.553  27.781  1.00  0.00     0.014 A 
ATOM     44  C   UNL A   1      49.333  31.413  30.383  1.00  0.00     0.010 A 
ATOM     45  C   UNL A   1      48.616  30.740  28.141  1.00  0.00     0.010 A 
ATOM     46  C   UNL A   1      48.318  31.160  29.444  1.00  0.00    -0.014 A 
BRANCH  46  47
ATOM     47  C   UNL A   1      46.902  31.277  29.814  1.00  0.00     0.031 A 
ATOM     48  C   UNL A   1      46.253  30.112  30.492  1.00  0.00     0.074 A 
ATOM     49  C   UNL A   1      46.228  32.381  29.447  1.00  0.00     0.049 A 
ATOM     50  N   UNL A   1      45.000  29.933  30.804  1.00  0.00    -0.248 NA
ATOM     51  C   UNL A   1      47.126  28.970  30.814  1.00  0.00     0.031 C 
ATOM     52  C   UNL A   1      46.801  33.524  28.728  1.00  0.00     0.029 A 
ATOM     53  N   UNL A   1      44.917  32.720  29.620  1.00  0.00    -0.354 N 
ATOM     54  C   UNL A   1      44.934  28.656  31.348  1.00  0.00     0.074 A 
ATOM     55  C   UNL A   1      46.252  28.074  31.237  1.00  0.00     0.031 C 
ATOM     56  C   UNL A   1      45.848  34.452  28.553  1.00  0.00     0.029 A 
ATOM     57  C   UNL A   1      44.596  33.953  29.107  1.00  0.00     0.049 A 
ATOM     58  H   UNL A   1      44.264  32.136  30.070  1.00  0.00     0.167 HD
ATOM     59  C   UNL A   1      43.869  28.049  31.924  1.00  0.00     0.034 A 
ATOM     60  C   UNL A   1      43.413  34.594  29.096  1.00  0.00     0.034 A 
ATOM     61  C   UNL A   1      42.580  28.682  32.020  1.00  0.00     0.049 A 
ATOM     62  C   UNL A   1      42.245  33.902  29.753  1.00  0.00     0.074 A 
ATOM     63  C   UNL A   1      41.418  28.202  32.590  1.00  0.00     0.029 A 
ATOM     64  N   UNL A   1      42.292  29.953  31.529  1.00  0.00    -0.354 N 
ATOM     65  N   UNL A   1      42.199  32.710  30.308  1.00  0.00    -0.248 NA
ATOM     66  C   UNL A   1      40.982  34.642  29.804  1.00  0.00     0.031 C 
ATOM     67  C   UNL A   1      40.416  29.162  32.404  1.00  0.00     0.029 A 
ATOM     68  C   UNL A   1      40.969  30.270  31.775  1.00  0.00     0.049 A 
ATOM     69  H   UNL A   1      42.938  30.540  31.074  1.00  0.00     0.167 HD
ATOM     70  C   UNL A   1      40.906  32.571  30.801  1.00  0.00     0.074 A 
ATOM     71  C   UNL A   1      40.217  33.811  30.494  1.00  0.00     0.031 C 
ATOM     72  C   UNL A   1      40.330  31.522  31.446  1.00  0.00     0.034 A 
BRANCH  59  73
ATOM     73  C   UNL A   1      44.081  26.654  32.457  1.00  0.00     0.023 A 
ATOM     74  C   UNL A   1      44.209  26.408  33.837  1.00  0.00     0.031 A 
ATOM     75  C   UNL A   1      44.236  25.566  31.582  1.00  0.00     0.131 A 
ATOM     76  C   UNL A   1      44.579  25.135  34.294  1.00  0.00     0.055 A 
ATOM     77  C   UNL A   1      44.516  24.279  32.049  1.00  0.00     0.041 A 
ATOM     78  F   UNL A   1      44.153  25.740  30.253  1.00  0.00    -0.206 F 
ATOM     79  C   UNL A   1      44.708  24.061  33.411  1.00  0.00     0.022 A 
BRANCH  76  80
ATOM     80  S   UNL A   1      45.051  24.944  36.035  1.00  0.00     0.124 S 
ATOM     81  O   UNL A   1      44.060  25.787  36.701  1.00  0.00    -0.237 OA
ATOM     82  O   UNL A   1      44.911  23.507  36.244  1.00  0.00    -0.237 OA
ATOM     83  O   UNL A   1      46.420  25.451  36.077  1.00  0.00    -0.744 OA
ENDBRANCH  76  80
ENDBRANCH  59  73
BRANCH  60  84
ATOM     84  C   UNL A   1      43.280  35.942  28.478  1.00  0.00     0.023 A 
ATOM     85  C   UNL A   1      43.685  37.095  29.169  1.00  0.00     0.031 A 
ATOM     86  C   UNL A   1      42.719  36.107  27.198  1.00  0.00     0.131 A 
ATOM     87  C   UNL A   1      43.474  38.362  28.604  1.00  0.00     0.055 A 
ATOM     88  C   UNL A   1      42.558  37.367  26.618  1.00  0.00     0.041 A 
ATOM     89  F   UNL A   1      42.330  35.038  26.484  1.00  0.00    -0.206 F 
ATOM     90  C   UNL A   1      42.922  38.506  27.330  1.00  0.00     0.022 A 
BRANCH  87  91
ATOM     91  S   UNL A   1      43.843  39.829  29.605  1.00  0.00     0.124 S 
ATOM     92  O   UNL A   1      45.282  39.967  29.413  1.00  0.00    -0.237 OA
ATOM     93  O   UNL A   1      43.010  40.843  28.969  1.00  0.00    -0.237 OA
ATOM     94  O   UNL A   1      43.428  39.435  30.950  1.00  0.00    -0.744 OA
ENDBRANCH  87  91
ENDBRANCH  60  84
BRANCH  72  95
ATOM     95  C   UNL A   1      38.904  31.711  31.885  1.00  0.00     0.023 A 
ATOM     96  C   UNL A   1      38.582  32.474  33.020  1.00  0.00     0.031 A 
ATOM     97  C   UNL A   1      37.858  31.113  31.162  1.00  0.00     0.131 A 
ATOM     98  C   UNL A   1      37.248  32.569  33.435  1.00  0.00     0.055 A 
ATOM     99  C   UNL A   1      36.526  31.265  31.544  1.00  0.00     0.041 A 
ATOM    100  F   UNL A   1      38.116  30.376  30.069  1.00  0.00    -0.206 F 
ATOM    101  C   UNL A   1      36.216  31.984  32.695  1.00  0.00     0.022 A 
BRANCH  98 102
ATOM    102  S   UNL A   1      36.891  33.389  35.010  1.00  0.00     0.124 S 
ATOM    103  O   UNL A   1      37.743  34.572  34.936  1.00  0.00    -0.237 OA
ATOM    104  O   UNL A   1      35.455  33.632  34.918  1.00  0.00    -0.237 OA
ATOM    105  O   UNL A   1      37.288  32.399  36.010  1.00  0.00    -0.744 OA
ENDBRANCH  98 102
ENDBRANCH  72  95
ENDBRANCH  46  47
ENDBRANCH  38  41
ENDBRANCH  36  37
ENDBRANCH  35  36
ENDBRANCH  34  35
ENDBRANCH  33  34
ENDBRANCH   1  33
TORSDOF 22
ENDMDL
MODEL 3
REMARK VINA RESULT:     -11.8      2.913     10.009
REMARK SMILES CN(C(=O)C[C@H]1SC(=O)N(c2cccc(O)c2)C1=O)c1ccccc1C(=O)NCCCCCCNC(=O)c1ccc(-c2c3nc(c(-c4cc(S(=O)(=O)[O-])ccc4F)c4ccc([nH]4)c(-c4cc(S(=O)(=O)[O-])ccc4F)c4nc(c(-c5cc(S(=O)(=O)[O-])ccc5F)c5ccc2[nH]5)C=C4)C=C3)cc1
REMARK SMILES IDX 30 1 29 2 28 3 26 4 27 5 25 7 20 8 21 9 22 10 24 11 23 12
REMARK SMILES IDX 2 13 1 14 3 15 4 16 5 17 6 18 7 19 18 20 8 21 10 22 19 23
REMARK SMILES IDX 9 24 11 25 12 26 17 27 13 28 15 29 14 30 16 31 31 33 32 34
REMARK SMILES IDX 33 35 34 36 35 37 36 38 37 40 38 41 39 42 100 43 40 44 99 45
REMARK SMILES IDX 41 46 42 47 43 48 93 49 44 50 98 51 92 52 94 53 45 54 97 55
REMARK SMILES IDX 91 56 90 57 46 59 78 60 58 61 77 62 59 63 62 64 76 65 95 66
REMARK SMILES IDX 60 67 61 68 75 70 96 71 63 72 47 73 48 74 56 75 49 76 55 77
REMARK SMILES IDX 57 78 54 79 50 80 51 81 52 82 53 83 79 84 80 85 88 86 81 87
REMARK SMILES IDX 87 88 89 89 86 90 82 91 83 92 84 93 85 94 64 95 65 96 73 97
REMARK SMILES IDX 66 98 72 99 74 100 71 101 67 102 68 103 69 104 70 105
REMARK H PARENT 28 6 16 32 35 39 94 58 62 69
REMARK Flexibility Score: inf
ROOT
ATOM      1  C   UNL A   1      37.633  22.787  25.598  1.00  0.00     0.021 C 
ENDROOT
BRANCH   1   2
ATOM      2  C   UNL A   1      36.186  22.349  25.200  1.00  0.00     0.116 C 
BRANCH   2   3
ATOM      3  N   UNL A   1      35.306  22.149  26.324  1.00  0.00    -0.352 N 
ATOM      4  C   UNL A   1      33.949  21.943  26.385  1.00  0.00     0.253 C 
ATOM      5  O   UNL A   1      33.434  21.774  27.491  1.00  0.00    -0.269 OA
ATOM      6  H   UNL A   1      35.756  22.163  27.200  1.00  0.00     0.163 HD
BRANCH   4   7
ATOM      7  C   UNL A   1      33.052  22.044  25.207  1.00  0.00     0.063 A 
ATOM      8  C   UNL A   1      32.149  23.084  24.906  1.00  0.00     0.056 A 
ATOM      9  C   UNL A   1      31.441  23.042  23.692  1.00  0.00     0.027 A 
ATOM     10  C   UNL A   1      31.648  22.012  22.773  1.00  0.00     0.002 A 
ATOM     11  C   UNL A   1      33.257  21.019  24.262  1.00  0.00     0.016 A 
ATOM     12  C   UNL A   1      32.564  21.004  23.053  1.00  0.00     0.001 A 
BRANCH   8  13
ATOM     13  N   UNL A   1      32.020  24.273  25.691  1.00  0.00    -0.315 N 
ATOM     14  C   UNL A   1      31.201  24.092  26.897  1.00  0.00     0.153 C 
BRANCH  13  15
ATOM     15  C   UNL A   1      32.923  25.322  25.495  1.00  0.00     0.228 C 
ATOM     16  O   UNL A   1      34.113  25.139  25.224  1.00  0.00    -0.274 OA
BRANCH  15  17
ATOM     17  C   UNL A   1      32.368  26.747  25.390  1.00  0.00     0.125 C 
BRANCH  17  18
ATOM     18  C   UNL A   1      31.544  26.840  24.062  1.00  0.00     0.156 C 
ATOM     19  S   UNL A   1      29.226  26.291  24.552  1.00  0.00    -0.050 SA
ATOM     20  C   UNL A   1      31.449  28.376  22.729  1.00  0.00     0.248 C 
ATOM     21  C   UNL A   1      28.433  27.999  23.278  1.00  0.00     0.293 C 
ATOM     22  N   UNL A   1      29.717  28.905  22.568  1.00  0.00    -0.240 N 
ATOM     23  O   UNL A   1      32.353  28.720  21.974  1.00  0.00    -0.273 OA
ATOM     24  O   UNL A   1      27.226  28.177  23.263  1.00  0.00    -0.261 OA
BRANCH  22  25
ATOM     25  C   UNL A   1      29.323  30.244  22.209  1.00  0.00     0.056 A 
ATOM     26  C   UNL A   1      28.665  30.402  20.963  1.00  0.00     0.027 A 
ATOM     27  C   UNL A   1      29.427  31.351  23.039  1.00  0.00     0.073 A 
ATOM     28  C   UNL A   1      28.042  31.591  20.592  1.00  0.00     0.006 A 
ATOM     29  C   UNL A   1      28.810  32.548  22.641  1.00  0.00     0.117 A 
ATOM     30  C   UNL A   1      28.114  32.678  21.442  1.00  0.00     0.046 A 
BRANCH  29  31
ATOM     31  O   UNL A   1      28.764  33.599  23.512  1.00  0.00    -0.508 OA
ATOM     32  H   UNL A   1      29.231  33.556  24.324  1.00  0.00     0.293 HD
ENDBRANCH  29  31
ENDBRANCH  22  25
ENDBRANCH  17  18
ENDBRANCH  15  17
ENDBRANCH  13  15
ENDBRANCH   8  13
ENDBRANCH   4   7
ENDBRANCH   2   3
ENDBRANCH   1   2
BRANCH   1  33
ATOM     33  C   UNL A   1      38.993  21.711  25.850  1.00  0.00     0.002 C 
BRANCH  33  34
ATOM     34  C   UNL A   1      40.519  21.317  27.381  1.00  0.00     0.002 C 
BRANCH  34  35
ATOM     35  C   UNL A   1      42.257  21.609  27.570  1.00  0.00     0.021 C 
BRANCH  35  36
ATOM     36  C   UNL A   1      43.201  22.833  27.415  1.00  0.00     0.116 C 
BRANCH  36  37
ATOM     37  N   UNL A   1      43.258  23.466  26.101  1.00  0.00    -0.352 N 
ATOM     38  C   UNL A   1      42.791  24.684  25.675  1.00  0.00     0.251 C 
ATOM     39  H   UNL A   1      43.707  22.932  25.407  1.00  0.00     0.163 HD
ATOM     40  O   UNL A   1      42.917  25.089  24.526  1.00  0.00    -0.269 OA
BRANCH  38  41
ATOM     41  C   UNL A   1      42.220  25.541  26.694  1.00  0.00     0.039 A 
ATOM     42  C   UNL A   1      41.197  25.075  27.512  1.00  0.00     0.014 A 
ATOM     43  C   UNL A   1      42.836  26.782  26.868  1.00  0.00     0.014 A 
ATOM     44  C   UNL A   1      40.818  25.863  28.585  1.00  0.00     0.010 A 
ATOM     45  C   UNL A   1      42.517  27.519  27.982  1.00  0.00     0.010 A 
ATOM     46  C   UNL A   1      41.501  27.066  28.835  1.00  0.00    -0.014 A 
BRANCH  46  47
ATOM     47  C   UNL A   1      41.138  27.918  29.973  1.00  0.00     0.031 A 
ATOM     48  C   UNL A   1      39.959  28.827  29.824  1.00  0.00     0.074 A 
ATOM     49  C   UNL A   1      41.929  27.915  31.060  1.00  0.00     0.049 A 
ATOM     50  N   UNL A   1      39.521  29.748  30.635  1.00  0.00    -0.248 NA
ATOM     51  C   UNL A   1      39.203  28.720  28.564  1.00  0.00     0.031 C 
ATOM     52  C   UNL A   1      43.129  27.088  31.233  1.00  0.00     0.029 A 
ATOM     53  N   UNL A   1      41.849  28.631  32.219  1.00  0.00    -0.354 N 
ATOM     54  C   UNL A   1      38.446  30.337  29.980  1.00  0.00     0.074 A 
ATOM     55  C   UNL A   1      38.360  29.732  28.670  1.00  0.00     0.031 C 
ATOM     56  C   UNL A   1      43.652  27.325  32.446  1.00  0.00     0.029 A 
ATOM     57  C   UNL A   1      42.851  28.344  33.114  1.00  0.00     0.049 A 
ATOM     58  H   UNL A   1      41.140  29.291  32.398  1.00  0.00     0.167 HD
ATOM     59  C   UNL A   1      37.589  31.270  30.456  1.00  0.00     0.034 A 
ATOM     60  C   UNL A   1      43.081  28.857  34.336  1.00  0.00     0.034 A 
ATOM     61  C   UNL A   1      37.713  31.830  31.776  1.00  0.00     0.049 A 
ATOM     62  C   UNL A   1      42.106  29.888  34.848  1.00  0.00     0.074 A 
ATOM     63  C   UNL A   1      36.914  32.765  32.402  1.00  0.00     0.029 A 
ATOM     64  N   UNL A   1      38.716  31.488  32.681  1.00  0.00    -0.354 N 
ATOM     65  N   UNL A   1      41.062  30.409  34.240  1.00  0.00    -0.248 NA
ATOM     66  C   UNL A   1      42.322  30.383  36.210  1.00  0.00     0.031 C 
ATOM     67  C   UNL A   1      37.458  33.024  33.666  1.00  0.00     0.029 A 
ATOM     68  C   UNL A   1      38.560  32.201  33.856  1.00  0.00     0.049 A 
ATOM     69  H   UNL A   1      39.430  30.834  32.509  1.00  0.00     0.167 HD
ATOM     70  C   UNL A   1      40.479  31.273  35.161  1.00  0.00     0.074 A 
ATOM     71  C   UNL A   1      41.279  31.182  36.368  1.00  0.00     0.031 C 
ATOM     72  C   UNL A   1      39.389  32.073  35.031  1.00  0.00     0.034 A 
BRANCH  59  73
ATOM     73  C   UNL A   1      36.487  31.725  29.531  1.00  0.00     0.023 A 
ATOM     74  C   UNL A   1      35.511  30.828  29.058  1.00  0.00     0.031 A 
ATOM     75  C   UNL A   1      36.451  33.044  29.050  1.00  0.00     0.131 A 
ATOM     76  C   UNL A   1      34.606  31.231  28.066  1.00  0.00     0.055 A 
ATOM     77  C   UNL A   1      35.489  33.465  28.128  1.00  0.00     0.041 A 
ATOM     78  F   UNL A   1      37.371  33.940  29.441  1.00  0.00    -0.206 F 
ATOM     79  C   UNL A   1      34.571  32.553  27.616  1.00  0.00     0.022 A 
BRANCH  76  80
ATOM     80  S   UNL A   1      33.589  29.966  27.255  1.00  0.00     0.124 S 
ATOM     81  O   UNL A   1      34.360  29.706  26.041  1.00  0.00    -0.237 OA
ATOM     82  O   UNL A   1      33.573  28.893  28.243  1.00  0.00    -0.237 OA
ATOM     83  O   UNL A   1      32.310  30.639  27.042  1.00  0.00    -0.744 OA
ENDBRANCH  76  80
ENDBRANCH  59  73
BRANCH  60  84
ATOM     84  C   UNL A   1      44.241  28.402  35.150  1.00  0.00     0.023 A 
ATOM     85  C   UNL A   1      44.073  27.469  36.185  1.00  0.00     0.031 A 
ATOM     86  C   UNL A   1      45.534  28.912  34.930  1.00  0.00     0.131 A 
ATOM     87  C   UNL A   1      45.163  27.116  36.996  1.00  0.00     0.055 A 
ATOM     88  C   UNL A   1      46.626  28.519  35.706  1.00  0.00     0.041 A 
ATOM     89  F   UNL A   1      45.757  29.794  33.942  1.00  0.00    -0.206 F 
ATOM     90  C   UNL A   1      46.440  27.627  36.758  1.00  0.00     0.022 A 
BRANCH  87  91
ATOM     91  S   UNL A   1      44.864  26.050  38.432  1.00  0.00     0.124 S 
ATOM     92  O   UNL A   1      45.201  24.733  37.902  1.00  0.00    -0.237 OA
ATOM     93  O   UNL A   1      45.791  26.603  39.414  1.00  0.00    -0.237 OA
ATOM     94  O   UNL A   1      43.448  26.261  38.724  1.00  0.00    -0.744 OA
ENDBRANCH  87  91
ENDBRANCH  60  84
BRANCH  72  95
ATOM     95  C   UNL A   1      38.996  32.868  36.246  1.00  0.00     0.023 A 
ATOM     96  C   UNL A   1      39.542  34.137  36.500  1.00  0.00     0.031 A 
ATOM     97  C   UNL A   1      38.068  32.343  37.163  1.00  0.00     0.131 A 
ATOM     98  C   UNL A   1      39.202  34.815  37.677  1.00  0.00     0.055 A 
ATOM     99  C   UNL A   1      37.685  33.052  38.301  1.00  0.00     0.041 A 
ATOM    100  F   UNL A   1      37.518  31.135  36.962  1.00  0.00    -0.206 F 
ATOM    101  C   UNL A   1      38.264  34.289  38.570  1.00  0.00     0.022 A 
BRANCH  98 102
ATOM    102  S   UNL A   1      40.076  36.353  38.071  1.00  0.00     0.124 S 
ATOM    103  O   UNL A   1      40.588  36.753  36.764  1.00  0.00    -0.237 OA
ATOM    104  O   UNL A   1      39.011  37.185  38.620  1.00  0.00    -0.237 OA
ATOM    105  O   UNL A   1      41.092  35.932  39.034  1.00  0.00    -0.744 OA
ENDBRANCH  98 102
ENDBRANCH  72  95
ENDBRANCH  46  47
ENDBRANCH  38  41
ENDBRANCH  36  37
ENDBRANCH  35  36
ENDBRANCH  34  35
ENDBRANCH  33  34
ENDBRANCH   1  33
TORSDOF 22
ENDMDL
