MODEL 1
REMARK VINA RESULT:     -12.9      0.000      0.000
REMARK SMILES NS(=O)(=O)c1ccc(-c2cc(Cl)cc3c2O[C@H](C(F)(F)F)C(C(=O)NCCCCCCNC(=O)c2ccc(-c4c5nc(c(-c6cc(S(=O)(=O)[O-])ccc6F)c6ccc([nH]6)c(-c6cc(S(=O)(=O)[O-])ccc6F)c6nc(c(-c7cc(S(=O)(=O)[O-])ccc7F)c7ccc4[nH]7)C=C6)C=C5)cc2)=C3)cc1
REMARK SMILES IDX 28 1 27 2 26 3 25 4 23 5 24 6 22 8 9 9 10 10 15 11 11 12
REMARK SMILES IDX 14 13 16 14 12 15 13 16 98 17 17 18 8 19 5 20 6 21 100 22
REMARK SMILES IDX 7 23 99 24 2 25 3 26 4 27 1 28 18 31 19 32 20 33 21 34 29 35
REMARK SMILES IDX 30 36 31 37 32 38 33 39 34 41 35 42 36 43 97 44 37 45 96 46
REMARK SMILES IDX 38 47 39 48 40 49 90 50 41 51 95 52 89 53 91 54 42 55 94 56
REMARK SMILES IDX 88 57 87 58 43 60 75 61 55 62 74 63 56 64 59 65 73 66 92 67
REMARK SMILES IDX 57 68 58 69 72 71 93 72 60 73 44 74 45 75 53 76 46 77 52 78
REMARK SMILES IDX 54 79 51 80 47 81 48 82 49 83 50 84 76 85 77 86 85 87 78 88
REMARK SMILES IDX 84 89 86 90 83 91 79 92 80 93 81 94 82 95 61 96 62 97 70 98
REMARK SMILES IDX 63 99 69 100 71 101 68 102 64 103 65 104 66 105 67 106
REMARK H PARENT 25 7 1 29 1 30 32 40 91 59 59 70
REMARK Flexibility Score: inf
ROOT
ATOM      1  C   UNL A   1      30.653  29.839  24.712  1.00  0.00     0.002 C 
ENDROOT
BRANCH   1   2
ATOM      2  C   UNL A   1      30.794  29.423  23.237  1.00  0.00     0.021 C 
BRANCH   2   3
ATOM      3  C   UNL A   1      29.630  28.584  22.690  1.00  0.00     0.116 C 
BRANCH   3   4
ATOM      4  N   UNL A   1      29.373  27.470  23.581  1.00  0.00    -0.352 N 
ATOM      5  C   UNL A   1      29.977  26.257  23.529  1.00  0.00     0.251 C 
ATOM      6  O   UNL A   1      29.303  25.236  23.585  1.00  0.00    -0.270 OA
ATOM      7  H   UNL A   1      28.701  27.605  24.286  1.00  0.00     0.163 HD
BRANCH   5   8
ATOM      8  C   UNL A   1      31.467  26.256  23.592  1.00  0.00     0.067 C 
ATOM      9  C   UNL A   1      32.015  22.350  24.569  1.00  0.00     0.026 A 
ATOM     10  C   UNL A   1      31.093  22.071  25.615  1.00  0.00     0.033 A 
ATOM     11  C   UNL A   1      32.218  23.714  24.271  1.00  0.00     0.135 A 
ATOM     12  C   UNL A   1      30.537  23.062  26.420  1.00  0.00     0.042 A 
ATOM     13  C   UNL A   1      31.742  24.694  25.183  1.00  0.00     0.019 A 
ATOM     14  O   UNL A   1      32.802  24.168  23.092  1.00  0.00    -0.475 OA
ATOM     15  Cl  UNL A   1      29.392  22.638  27.630  1.00  0.00    -0.084 Cl
ATOM     16  C   UNL A   1      30.919  24.376  26.259  1.00  0.00     0.032 A 
ATOM     17  C   UNL A   1      31.947  26.118  24.843  1.00  0.00     0.025 C 
ATOM     18  C   UNL A   1      32.169  25.413  22.541  1.00  0.00     0.314 C 
BRANCH   9  19
ATOM     19  C   UNL A   1      32.779  21.158  24.094  1.00  0.00    -0.015 A 
ATOM     20  C   UNL A   1      33.566  18.429  23.997  1.00  0.00     0.082 A 
ATOM     21  C   UNL A   1      32.555  18.886  23.157  1.00  0.00     0.022 A 
ATOM     22  C   UNL A   1      34.251  19.335  24.814  1.00  0.00     0.022 A 
ATOM     23  C   UNL A   1      32.186  20.242  23.189  1.00  0.00     0.010 A 
ATOM     24  C   UNL A   1      33.869  20.689  24.849  1.00  0.00     0.010 A 
BRANCH  20  25
ATOM     25  S   UNL A   1      33.934  16.699  24.148  1.00  0.00     0.238 S 
ATOM     26  O   UNL A   1      34.962  16.527  25.147  1.00  0.00    -0.207 OA
ATOM     27  O   UNL A   1      34.032  16.130  22.823  1.00  0.00    -0.207 OA
BRANCH  25  28
ATOM     28  N   UNL A   1      32.559  16.006  24.836  1.00  0.00    -0.225 NA
ATOM     29  H   UNL A   1      32.807  15.567  25.722  1.00  0.00     0.137 HD
ATOM     30  H   UNL A   1      32.180  15.303  24.202  1.00  0.00     0.137 HD
ENDBRANCH  25  28
ENDBRANCH  20  25
ENDBRANCH   9  19
BRANCH  18  31
ATOM     31  C   UNL A   1      33.188  26.332  21.823  1.00  0.00     0.429 C 
ATOM     32  F   UNL A   1      34.460  26.106  22.218  1.00  0.00    -0.167 F 
ATOM     33  F   UNL A   1      33.135  26.171  20.480  1.00  0.00    -0.167 F 
ATOM     34  F   UNL A   1      32.944  27.652  22.053  1.00  0.00    -0.167 F 
ENDBRANCH  18  31
ENDBRANCH   5   8
ENDBRANCH   3   4
ENDBRANCH   2   3
ENDBRANCH   1   2
BRANCH   1  35
ATOM     35  C   UNL A   1      31.977  30.098  25.433  1.00  0.00     0.002 C 
BRANCH  35  36
ATOM     36  C   UNL A   1      31.835  30.826  26.769  1.00  0.00     0.021 C 
BRANCH  36  37
ATOM     37  C   UNL A   1      33.074  31.602  27.198  1.00  0.00     0.116 C 
BRANCH  37  38
ATOM     38  N   UNL A   1      32.805  33.023  27.355  1.00  0.00    -0.352 N 
ATOM     39  C   UNL A   1      33.358  33.910  28.248  1.00  0.00     0.251 C 
ATOM     40  H   UNL A   1      32.137  33.400  26.739  1.00  0.00     0.163 HD
ATOM     41  O   UNL A   1      32.877  35.031  28.374  1.00  0.00    -0.269 OA
BRANCH  39  42
ATOM     42  C   UNL A   1      34.510  33.486  29.070  1.00  0.00     0.039 A 
ATOM     43  C   UNL A   1      34.285  32.665  30.177  1.00  0.00     0.014 A 
ATOM     44  C   UNL A   1      35.809  33.877  28.733  1.00  0.00     0.014 A 
ATOM     45  C   UNL A   1      35.372  32.188  30.911  1.00  0.00     0.010 A 
ATOM     46  C   UNL A   1      36.892  33.331  29.413  1.00  0.00     0.010 A 
ATOM     47  C   UNL A   1      36.686  32.486  30.514  1.00  0.00    -0.014 A 
BRANCH  47  48
ATOM     48  C   UNL A   1      37.852  31.923  31.241  1.00  0.00     0.031 A 
ATOM     49  C   UNL A   1      38.676  30.830  30.620  1.00  0.00     0.074 A 
ATOM     50  C   UNL A   1      38.130  32.353  32.487  1.00  0.00     0.049 A 
ATOM     51  N   UNL A   1      39.695  30.176  31.116  1.00  0.00    -0.248 NA
ATOM     52  C   UNL A   1      38.275  30.391  29.276  1.00  0.00     0.031 C 
ATOM     53  C   UNL A   1      37.368  33.369  33.216  1.00  0.00     0.029 A 
ATOM     54  N   UNL A   1      39.119  31.986  33.366  1.00  0.00    -0.354 N 
ATOM     55  C   UNL A   1      40.048  29.237  30.151  1.00  0.00     0.074 A 
ATOM     56  C   UNL A   1      39.085  29.363  29.078  1.00  0.00     0.031 C 
ATOM     57  C   UNL A   1      37.930  33.560  34.419  1.00  0.00     0.029 A 
ATOM     58  C   UNL A   1      39.058  32.646  34.571  1.00  0.00     0.049 A 
ATOM     59  H   UNL A   1      39.805  31.314  33.153  1.00  0.00     0.167 HD
ATOM     60  C   UNL A   1      41.092  28.369  30.153  1.00  0.00     0.034 A 
ATOM     61  C   UNL A   1      39.810  32.517  35.681  1.00  0.00     0.034 A 
ATOM     62  C   UNL A   1      42.037  28.262  31.239  1.00  0.00     0.049 A 
ATOM     63  C   UNL A   1      40.950  31.534  35.678  1.00  0.00     0.074 A 
ATOM     64  C   UNL A   1      43.170  27.473  31.321  1.00  0.00     0.029 A 
ATOM     65  N   UNL A   1      41.946  28.947  32.446  1.00  0.00    -0.354 N 
ATOM     66  N   UNL A   1      41.322  30.705  34.728  1.00  0.00    -0.248 NA
ATOM     67  C   UNL A   1      41.778  31.476  36.887  1.00  0.00     0.031 C 
ATOM     68  C   UNL A   1      43.709  27.610  32.605  1.00  0.00     0.029 A 
ATOM     69  C   UNL A   1      42.973  28.560  33.296  1.00  0.00     0.049 A 
ATOM     70  H   UNL A   1      41.252  29.610  32.667  1.00  0.00     0.167 HD
ATOM     71  C   UNL A   1      42.443  30.042  35.219  1.00  0.00     0.074 A 
ATOM     72  C   UNL A   1      42.693  30.581  36.542  1.00  0.00     0.031 C 
ATOM     73  C   UNL A   1      43.200  29.083  34.626  1.00  0.00     0.034 A 
BRANCH  60  74
ATOM     74  C   UNL A   1      41.226  27.445  28.961  1.00  0.00     0.023 A 
ATOM     75  C   UNL A   1      42.233  27.622  27.995  1.00  0.00     0.031 A 
ATOM     76  C   UNL A   1      40.295  26.414  28.749  1.00  0.00     0.131 A 
ATOM     77  C   UNL A   1      42.217  26.861  26.815  1.00  0.00     0.055 A 
ATOM     78  C   UNL A   1      40.347  25.589  27.623  1.00  0.00     0.041 A 
ATOM     79  F   UNL A   1      39.295  26.204  29.621  1.00  0.00    -0.206 F 
ATOM     80  C   UNL A   1      41.298  25.826  26.636  1.00  0.00     0.022 A 
BRANCH  77  81
ATOM     81  S   UNL A   1      43.279  27.382  25.439  1.00  0.00     0.124 S 
ATOM     82  O   UNL A   1      44.215  28.280  26.112  1.00  0.00    -0.237 OA
ATOM     83  O   UNL A   1      43.830  26.116  24.970  1.00  0.00    -0.237 OA
ATOM     84  O   UNL A   1      42.351  28.040  24.521  1.00  0.00    -0.744 OA
ENDBRANCH  77  81
ENDBRANCH  60  74
BRANCH  61  85
ATOM     85  C   UNL A   1      39.486  33.326  36.891  1.00  0.00     0.023 A 
ATOM     86  C   UNL A   1      38.768  32.782  37.968  1.00  0.00     0.031 A 
ATOM     87  C   UNL A   1      39.908  34.665  36.989  1.00  0.00     0.131 A 
ATOM     88  C   UNL A   1      38.475  33.581  39.085  1.00  0.00     0.055 A 
ATOM     89  C   UNL A   1      39.657  35.439  38.122  1.00  0.00     0.041 A 
ATOM     90  F   UNL A   1      40.603  35.231  35.988  1.00  0.00    -0.206 F 
ATOM     91  C   UNL A   1      38.930  34.899  39.176  1.00  0.00     0.022 A 
BRANCH  88  92
ATOM     92  S   UNL A   1      37.442  32.888  40.406  1.00  0.00     0.124 S 
ATOM     93  O   UNL A   1      37.604  33.881  41.461  1.00  0.00    -0.237 OA
ATOM     94  O   UNL A   1      36.131  32.834  39.770  1.00  0.00    -0.237 OA
ATOM     95  O   UNL A   1      38.058  31.589  40.671  1.00  0.00    -0.744 OA
ENDBRANCH  88  92
ENDBRANCH  61  85
BRANCH  73  96
ATOM     96  C   UNL A   1      44.398  28.576  35.396  1.00  0.00     0.023 A 
ATOM     97  C   UNL A   1      44.290  27.548  36.350  1.00  0.00     0.031 A 
ATOM     98  C   UNL A   1      45.669  29.138  35.175  1.00  0.00     0.131 A 
ATOM     99  C   UNL A   1      45.418  27.154  37.085  1.00  0.00     0.055 A 
ATOM    100  C   UNL A   1      46.802  28.692  35.860  1.00  0.00     0.041 A 
ATOM    101  F   UNL A   1      45.834  30.128  34.283  1.00  0.00    -0.206 F 
ATOM    102  C   UNL A   1      46.677  27.704  36.831  1.00  0.00     0.022 A 
BRANCH  99 103
ATOM    103  S   UNL A   1      45.201  25.988  38.458  1.00  0.00     0.124 S 
ATOM    104  O   UNL A   1      44.410  24.932  37.834  1.00  0.00    -0.237 OA
ATOM    105  O   UNL A   1      46.576  25.642  38.796  1.00  0.00    -0.237 OA
ATOM    106  O   UNL A   1      44.494  26.775  39.467  1.00  0.00    -0.744 OA
ENDBRANCH  99 103
ENDBRANCH  73  96
ENDBRANCH  47  48
ENDBRANCH  39  42
ENDBRANCH  37  38
ENDBRANCH  36  37
ENDBRANCH  35  36
ENDBRANCH   1  35
TORSDOF 20
ENDMDL
MODEL 2
REMARK VINA RESULT:     -12.5      5.627      9.048
REMARK SMILES NS(=O)(=O)c1ccc(-c2cc(Cl)cc3c2O[C@H](C(F)(F)F)C(C(=O)NCCCCCCNC(=O)c2ccc(-c4c5nc(c(-c6cc(S(=O)(=O)[O-])ccc6F)c6ccc([nH]6)c(-c6cc(S(=O)(=O)[O-])ccc6F)c6nc(c(-c7cc(S(=O)(=O)[O-])ccc7F)c7ccc4[nH]7)C=C6)C=C5)cc2)=C3)cc1
REMARK SMILES IDX 28 1 27 2 26 3 25 4 23 5 24 6 22 8 9 9 10 10 15 11 11 12
REMARK SMILES IDX 14 13 16 14 12 15 13 16 98 17 17 18 8 19 5 20 6 21 100 22
REMARK SMILES IDX 7 23 99 24 2 25 3 26 4 27 1 28 18 31 19 32 20 33 21 34 29 35
REMARK SMILES IDX 30 36 31 37 32 38 33 39 34 41 35 42 36 43 97 44 37 45 96 46
REMARK SMILES IDX 38 47 39 48 40 49 90 50 41 51 95 52 89 53 91 54 42 55 94 56
REMARK SMILES IDX 88 57 87 58 43 60 75 61 55 62 74 63 56 64 59 65 73 66 92 67
REMARK SMILES IDX 57 68 58 69 72 71 93 72 60 73 44 74 45 75 53 76 46 77 52 78
REMARK SMILES IDX 54 79 51 80 47 81 48 82 49 83 50 84 76 85 77 86 85 87 78 88
REMARK SMILES IDX 84 89 86 90 83 91 79 92 80 93 81 94 82 95 61 96 62 97 70 98
REMARK SMILES IDX 63 99 69 100 71 101 68 102 64 103 65 104 66 105 67 106
REMARK H PARENT 25 7 1 29 1 30 32 40 91 59 59 70
REMARK Flexibility Score: inf
ROOT
ATOM      1  C   UNL A   1      34.898  19.386  25.311  1.00  0.00     0.002 C 
ENDROOT
BRANCH   1   2
ATOM      2  C   UNL A   1      33.905  18.842  24.269  1.00  0.00     0.021 C 
BRANCH   2   3
ATOM      3  C   UNL A   1      32.532  19.530  24.268  1.00  0.00     0.116 C 
BRANCH   3   4
ATOM      4  N   UNL A   1      32.485  20.522  23.213  1.00  0.00    -0.352 N 
ATOM      5  C   UNL A   1      31.966  21.770  23.319  1.00  0.00     0.251 C 
ATOM      6  O   UNL A   1      31.202  22.190  22.458  1.00  0.00    -0.270 OA
ATOM      7  H   UNL A   1      32.863  20.268  22.341  1.00  0.00     0.163 HD
BRANCH   5   8
ATOM      8  C   UNL A   1      32.519  22.627  24.408  1.00  0.00     0.067 C 
ATOM      9  C   UNL A   1      31.153  26.218  23.086  1.00  0.00     0.026 A 
ATOM     10  C   UNL A   1      31.448  26.266  21.696  1.00  0.00     0.033 A 
ATOM     11  C   UNL A   1      31.795  25.200  23.819  1.00  0.00     0.135 A 
ATOM     12  C   UNL A   1      32.431  25.478  21.102  1.00  0.00     0.042 A 
ATOM     13  C   UNL A   1      32.877  24.500  23.221  1.00  0.00     0.019 A 
ATOM     14  O   UNL A   1      31.388  24.785  25.085  1.00  0.00    -0.475 OA
ATOM     15  Cl  UNL A   1      32.688  25.567  19.405  1.00  0.00    -0.084 Cl
ATOM     16  C   UNL A   1      33.206  24.644  21.877  1.00  0.00     0.032 A 
ATOM     17  C   UNL A   1      33.525  23.423  23.999  1.00  0.00     0.025 C 
ATOM     18  C   UNL A   1      31.491  23.302  25.300  1.00  0.00     0.314 C 
BRANCH   9  19
ATOM     19  C   UNL A   1      30.368  27.387  23.584  1.00  0.00    -0.015 A 
ATOM     20  C   UNL A   1      29.243  29.996  23.521  1.00  0.00     0.082 A 
ATOM     21  C   UNL A   1      28.504  28.915  23.051  1.00  0.00     0.022 A 
ATOM     22  C   UNL A   1      30.495  29.779  24.107  1.00  0.00     0.022 A 
ATOM     23  C   UNL A   1      29.053  27.622  23.108  1.00  0.00     0.010 A 
ATOM     24  C   UNL A   1      31.043  28.483  24.150  1.00  0.00     0.010 A 
BRANCH  20  25
ATOM     25  S   UNL A   1      28.689  31.666  23.290  1.00  0.00     0.238 S 
ATOM     26  O   UNL A   1      29.473  32.538  24.132  1.00  0.00    -0.207 OA
ATOM     27  O   UNL A   1      27.244  31.678  23.288  1.00  0.00    -0.207 OA
BRANCH  25  28
ATOM     28  N   UNL A   1      29.146  32.078  21.720  1.00  0.00    -0.225 NA
ATOM     29  H   UNL A   1      29.943  31.508  21.438  1.00  0.00     0.137 HD
ATOM     30  H   UNL A   1      29.406  33.064  21.689  1.00  0.00     0.137 HD
ENDBRANCH  25  28
ENDBRANCH  20  25
ENDBRANCH   9  19
BRANCH  18  31
ATOM     31  C   UNL A   1      31.842  22.935  26.762  1.00  0.00     0.429 C 
ATOM     32  F   UNL A   1      30.746  22.736  27.526  1.00  0.00    -0.167 F 
ATOM     33  F   UNL A   1      32.599  21.814  26.821  1.00  0.00    -0.167 F 
ATOM     34  F   UNL A   1      32.568  23.909  27.379  1.00  0.00    -0.167 F 
ENDBRANCH  18  31
ENDBRANCH   5   8
ENDBRANCH   3   4
ENDBRANCH   2   3
ENDBRANCH   1   2
BRANCH   1  35
ATOM     35  C   UNL A   1      36.077  20.167  24.726  1.00  0.00     0.002 C 
BRANCH  35  36
ATOM     36  C   UNL A   1      36.026  21.672  24.983  1.00  0.00     0.021 C 
BRANCH  36  37
ATOM     37  C   UNL A   1      37.362  22.289  25.379  1.00  0.00     0.116 C 
BRANCH  37  38
ATOM     38  N   UNL A   1      38.334  21.283  25.779  1.00  0.00    -0.352 N 
ATOM     39  C   UNL A   1      39.574  21.462  26.343  1.00  0.00     0.251 C 
ATOM     40  H   UNL A   1      38.067  20.348  25.625  1.00  0.00     0.163 HD
ATOM     41  O   UNL A   1      40.345  20.513  26.440  1.00  0.00    -0.269 OA
BRANCH  39  42
ATOM     42  C   UNL A   1      39.975  22.810  26.798  1.00  0.00     0.039 A 
ATOM     43  C   UNL A   1      40.873  22.924  27.861  1.00  0.00     0.014 A 
ATOM     44  C   UNL A   1      39.485  23.953  26.161  1.00  0.00     0.014 A 
ATOM     45  C   UNL A   1      41.326  24.188  28.244  1.00  0.00     0.010 A 
ATOM     46  C   UNL A   1      40.003  25.201  26.488  1.00  0.00     0.010 A 
ATOM     47  C   UNL A   1      40.924  25.334  27.538  1.00  0.00    -0.014 A 
BRANCH  47  48
ATOM     48  C   UNL A   1      41.458  26.675  27.887  1.00  0.00     0.031 A 
ATOM     49  C   UNL A   1      42.879  27.035  27.556  1.00  0.00     0.074 A 
ATOM     50  C   UNL A   1      40.679  27.546  28.560  1.00  0.00     0.049 A 
ATOM     51  N   UNL A   1      43.541  28.131  27.825  1.00  0.00    -0.248 NA
ATOM     52  C   UNL A   1      43.669  26.009  26.861  1.00  0.00     0.031 C 
ATOM     53  C   UNL A   1      39.302  27.288  28.987  1.00  0.00     0.029 A 
ATOM     54  N   UNL A   1      40.935  28.816  29.013  1.00  0.00    -0.354 N 
ATOM     55  C   UNL A   1      44.831  27.921  27.346  1.00  0.00     0.074 A 
ATOM     56  C   UNL A   1      44.870  26.566  26.839  1.00  0.00     0.031 C 
ATOM     57  C   UNL A   1      38.828  28.373  29.617  1.00  0.00     0.029 A 
ATOM     58  C   UNL A   1      39.879  29.383  29.688  1.00  0.00     0.049 A 
ATOM     59  H   UNL A   1      41.792  29.277  28.869  1.00  0.00     0.167 HD
ATOM     60  C   UNL A   1      45.875  28.787  27.312  1.00  0.00     0.034 A 
ATOM     61  C   UNL A   1      39.774  30.573  30.313  1.00  0.00     0.034 A 
ATOM     62  C   UNL A   1      45.810  30.134  27.829  1.00  0.00     0.049 A 
ATOM     63  C   UNL A   1      40.949  31.514  30.288  1.00  0.00     0.074 A 
ATOM     64  C   UNL A   1      46.778  31.122  27.785  1.00  0.00     0.029 A 
ATOM     65  N   UNL A   1      44.724  30.677  28.507  1.00  0.00    -0.354 N 
ATOM     66  N   UNL A   1      42.140  31.334  29.763  1.00  0.00    -0.248 NA
ATOM     67  C   UNL A   1      40.763  32.821  30.927  1.00  0.00     0.031 C 
ATOM     68  C   UNL A   1      46.316  32.223  28.514  1.00  0.00     0.029 A 
ATOM     69  C   UNL A   1      45.018  31.966  28.929  1.00  0.00     0.049 A 
ATOM     70  H   UNL A   1      43.869  30.214  28.664  1.00  0.00     0.167 HD
ATOM     71  C   UNL A   1      42.839  32.516  29.990  1.00  0.00     0.074 A 
ATOM     72  C   UNL A   1      41.928  33.405  30.685  1.00  0.00     0.031 C 
ATOM     73  C   UNL A   1      44.113  32.837  29.647  1.00  0.00     0.034 A 
BRANCH  60  74
ATOM     74  C   UNL A   1      47.180  28.277  26.738  1.00  0.00     0.023 A 
ATOM     75  C   UNL A   1      47.400  28.199  25.350  1.00  0.00     0.031 A 
ATOM     76  C   UNL A   1      48.194  27.798  27.585  1.00  0.00     0.131 A 
ATOM     77  C   UNL A   1      48.545  27.556  24.855  1.00  0.00     0.055 A 
ATOM     78  C   UNL A   1      49.380  27.254  27.086  1.00  0.00     0.041 A 
ATOM     79  F   UNL A   1      48.040  27.822  28.919  1.00  0.00    -0.206 F 
ATOM     80  C   UNL A   1      49.550  27.108  25.714  1.00  0.00     0.022 A 
BRANCH  77  81
ATOM     81  S   UNL A   1      48.599  27.129  23.091  1.00  0.00     0.124 S 
ATOM     82  O   UNL A   1      48.176  25.730  23.114  1.00  0.00    -0.237 OA
ATOM     83  O   UNL A   1      47.654  28.074  22.510  1.00  0.00    -0.237 OA
ATOM     84  O   UNL A   1      50.000  27.342  22.731  1.00  0.00    -0.744 OA
ENDBRANCH  77  81
ENDBRANCH  60  74
BRANCH  61  85
ATOM     85  C   UNL A   1      38.515  30.919  31.032  1.00  0.00     0.023 A 
ATOM     86  C   UNL A   1      37.455  31.574  30.386  1.00  0.00     0.031 A 
ATOM     87  C   UNL A   1      38.353  30.582  32.389  1.00  0.00     0.131 A 
ATOM     88  C   UNL A   1      36.290  31.891  31.102  1.00  0.00     0.055 A 
ATOM     89  C   UNL A   1      37.174  30.855  33.083  1.00  0.00     0.041 A 
ATOM     90  F   UNL A   1      39.335  29.950  33.053  1.00  0.00    -0.206 F 
ATOM     91  C   UNL A   1      36.136  31.520  32.440  1.00  0.00     0.022 A 
BRANCH  88  92
ATOM     92  S   UNL A   1      34.988  32.844  30.273  1.00  0.00     0.124 S 
ATOM     93  O   UNL A   1      34.579  31.929  29.214  1.00  0.00    -0.237 OA
ATOM     94  O   UNL A   1      34.028  33.050  31.351  1.00  0.00    -0.237 OA
ATOM     95  O   UNL A   1      35.684  34.049  29.823  1.00  0.00    -0.744 OA
ENDBRANCH  88  92
ENDBRANCH  61  85
BRANCH  73  96
ATOM     96  C   UNL A   1      44.589  34.231  29.992  1.00  0.00     0.023 A 
ATOM     97  C   UNL A   1      44.358  35.328  29.143  1.00  0.00     0.031 A 
ATOM     98  C   UNL A   1      45.291  34.460  31.189  1.00  0.00     0.131 A 
ATOM     99  C   UNL A   1      44.874  36.590  29.477  1.00  0.00     0.055 A 
ATOM    100  C   UNL A   1      45.739  35.733  31.549  1.00  0.00     0.041 A 
ATOM    101  F   UNL A   1      45.549  33.451  32.037  1.00  0.00    -0.206 F 
ATOM    102  C   UNL A   1      45.543  36.804  30.683  1.00  0.00     0.022 A 
BRANCH  99 103
ATOM    103  S   UNL A   1      44.753  37.930  28.259  1.00  0.00     0.124 S 
ATOM    104  O   UNL A   1      43.611  38.689  28.758  1.00  0.00    -0.237 OA
ATOM    105  O   UNL A   1      46.053  38.580  28.378  1.00  0.00    -0.237 OA
ATOM    106  O   UNL A   1      44.524  37.227  26.998  1.00  0.00    -0.744 OA
ENDBRANCH  99 103
ENDBRANCH  73  96
ENDBRANCH  47  48
ENDBRANCH  39  42
ENDBRANCH  37  38
ENDBRANCH  36  37
ENDBRANCH  35  36
ENDBRANCH   1  35
TORSDOF 20
ENDMDL
MODEL 3
REMARK VINA RESULT:     -12.2      1.813      2.391
REMARK SMILES NS(=O)(=O)c1ccc(-c2cc(Cl)cc3c2O[C@H](C(F)(F)F)C(C(=O)NCCCCCCNC(=O)c2ccc(-c4c5nc(c(-c6cc(S(=O)(=O)[O-])ccc6F)c6ccc([nH]6)c(-c6cc(S(=O)(=O)[O-])ccc6F)c6nc(c(-c7cc(S(=O)(=O)[O-])ccc7F)c7ccc4[nH]7)C=C6)C=C5)cc2)=C3)cc1
REMARK SMILES IDX 28 1 27 2 26 3 25 4 23 5 24 6 22 8 9 9 10 10 15 11 11 12
REMARK SMILES IDX 14 13 16 14 12 15 13 16 98 17 17 18 8 19 5 20 6 21 100 22
REMARK SMILES IDX 7 23 99 24 2 25 3 26 4 27 1 28 18 31 19 32 20 33 21 34 29 35
REMARK SMILES IDX 30 36 31 37 32 38 33 39 34 41 35 42 36 43 97 44 37 45 96 46
REMARK SMILES IDX 38 47 39 48 40 49 90 50 41 51 95 52 89 53 91 54 42 55 94 56
REMARK SMILES IDX 88 57 87 58 43 60 75 61 55 62 74 63 56 64 59 65 73 66 92 67
REMARK SMILES IDX 57 68 58 69 72 71 93 72 60 73 44 74 45 75 53 76 46 77 52 78
REMARK SMILES IDX 54 79 51 80 47 81 48 82 49 83 50 84 76 85 77 86 85 87 78 88
REMARK SMILES IDX 84 89 86 90 83 91 79 92 80 93 81 94 82 95 61 96 62 97 70 98
REMARK SMILES IDX 63 99 69 100 71 101 68 102 64 103 65 104 66 105 67 106
REMARK H PARENT 25 7 1 29 1 30 32 40 91 59 59 70
REMARK Flexibility Score: inf
ROOT
ATOM      1  C   UNL A   1      34.127  29.684  26.961  1.00  0.00     0.002 C 
ENDROOT
BRANCH   1   2
ATOM      2  C   UNL A   1      32.925  29.805  26.008  1.00  0.00     0.021 C 
BRANCH   2   3
ATOM      3  C   UNL A   1      33.114  29.124  24.644  1.00  0.00     0.116 C 
BRANCH   3   4
ATOM      4  N   UNL A   1      33.837  27.881  24.817  1.00  0.00    -0.352 N 
ATOM      5  C   UNL A   1      33.301  26.699  25.212  1.00  0.00     0.251 C 
ATOM      6  O   UNL A   1      33.846  26.045  26.094  1.00  0.00    -0.270 OA
ATOM      7  H   UNL A   1      34.803  27.894  24.632  1.00  0.00     0.163 HD
BRANCH   5   8
ATOM      8  C   UNL A   1      32.162  26.184  24.400  1.00  0.00     0.067 C 
ATOM      9  C   UNL A   1      33.263  22.276  24.248  1.00  0.00     0.026 A 
ATOM     10  C   UNL A   1      34.647  22.267  23.922  1.00  0.00     0.033 A 
ATOM     11  C   UNL A   1      32.592  23.503  24.064  1.00  0.00     0.135 A 
ATOM     12  C   UNL A   1      35.287  23.338  23.303  1.00  0.00     0.042 A 
ATOM     13  C   UNL A   1      33.231  24.530  23.320  1.00  0.00     0.019 A 
ATOM     14  O   UNL A   1      31.355  23.799  24.631  1.00  0.00    -0.475 OA
ATOM     15  Cl  UNL A   1      36.975  23.260  22.990  1.00  0.00    -0.084 Cl
ATOM     16  C   UNL A   1      34.563  24.449  22.927  1.00  0.00     0.032 A 
ATOM     17  C   UNL A   1      32.520  25.815  23.155  1.00  0.00     0.025 C 
ATOM     18  C   UNL A   1      31.231  25.216  25.111  1.00  0.00     0.314 C 
BRANCH   9  19
ATOM     19  C   UNL A   1      32.695  20.925  24.535  1.00  0.00    -0.015 A 
ATOM     20  C   UNL A   1      32.720  18.110  24.930  1.00  0.00     0.082 A 
ATOM     21  C   UNL A   1      32.864  18.962  26.022  1.00  0.00     0.022 A 
ATOM     22  C   UNL A   1      32.470  18.645  23.662  1.00  0.00     0.022 A 
ATOM     23  C   UNL A   1      32.824  20.354  25.826  1.00  0.00     0.010 A 
ATOM     24  C   UNL A   1      32.443  20.040  23.472  1.00  0.00     0.010 A 
BRANCH  20  25
ATOM     25  S   UNL A   1      32.964  16.359  25.084  1.00  0.00     0.238 S 
ATOM     26  O   UNL A   1      33.431  15.842  23.820  1.00  0.00    -0.207 OA
ATOM     27  O   UNL A   1      31.834  15.795  25.787  1.00  0.00    -0.207 OA
BRANCH  25  28
ATOM     28  N   UNL A   1      34.279  16.178  26.124  1.00  0.00    -0.225 NA
ATOM     29  H   UNL A   1      34.728  17.083  26.264  1.00  0.00     0.137 HD
ATOM     30  H   UNL A   1      34.949  15.526  25.715  1.00  0.00     0.137 HD
ENDBRANCH  25  28
ENDBRANCH  20  25
ENDBRANCH   9  19
BRANCH  18  31
ATOM     31  C   UNL A   1      29.794  25.772  24.964  1.00  0.00     0.429 C 
ATOM     32  F   UNL A   1      29.761  27.121  24.900  1.00  0.00    -0.167 F 
ATOM     33  F   UNL A   1      29.190  25.288  23.853  1.00  0.00    -0.167 F 
ATOM     34  F   UNL A   1      28.994  25.418  26.008  1.00  0.00    -0.167 F 
ENDBRANCH  18  31
ENDBRANCH   5   8
ENDBRANCH   3   4
ENDBRANCH   2   3
ENDBRANCH   1   2
BRANCH   1  35
ATOM     35  C   UNL A   1      34.470  30.965  27.724  1.00  0.00     0.002 C 
BRANCH  35  36
ATOM     36  C   UNL A   1      33.359  32.013  27.730  1.00  0.00     0.021 C 
BRANCH  36  37
ATOM     37  C   UNL A   1      33.841  33.444  27.531  1.00  0.00     0.116 C 
BRANCH  37  38
ATOM     38  N   UNL A   1      33.128  34.387  28.379  1.00  0.00    -0.352 N 
ATOM     39  C   UNL A   1      33.343  34.687  29.702  1.00  0.00     0.251 C 
ATOM     40  H   UNL A   1      32.392  34.877  27.946  1.00  0.00     0.163 HD
ATOM     41  O   UNL A   1      32.526  35.365  30.318  1.00  0.00    -0.269 OA
BRANCH  39  42
ATOM     42  C   UNL A   1      34.547  34.159  30.377  1.00  0.00     0.039 A 
ATOM     43  C   UNL A   1      34.389  33.268  31.441  1.00  0.00     0.014 A 
ATOM     44  C   UNL A   1      35.825  34.524  29.945  1.00  0.00     0.014 A 
ATOM     45  C   UNL A   1      35.517  32.696  32.031  1.00  0.00     0.010 A 
ATOM     46  C   UNL A   1      36.942  33.888  30.477  1.00  0.00     0.010 A 
ATOM     47  C   UNL A   1      36.801  32.972  31.531  1.00  0.00    -0.014 A 
BRANCH  47  48
ATOM     48  C   UNL A   1      38.003  32.312  32.101  1.00  0.00     0.031 A 
ATOM     49  C   UNL A   1      38.696  31.214  31.342  1.00  0.00     0.074 A 
ATOM     50  C   UNL A   1      38.433  32.659  33.330  1.00  0.00     0.049 A 
ATOM     51  N   UNL A   1      39.722  30.483  31.694  1.00  0.00    -0.248 NA
ATOM     52  C   UNL A   1      38.133  30.870  30.029  1.00  0.00     0.031 C 
ATOM     53  C   UNL A   1      37.809  33.671  34.185  1.00  0.00     0.029 A 
ATOM     54  N   UNL A   1      39.486  32.195  34.078  1.00  0.00    -0.354 N 
ATOM     55  C   UNL A   1      39.920  29.582  30.652  1.00  0.00     0.074 A 
ATOM     56  C   UNL A   1      38.859  29.815  29.695  1.00  0.00     0.031 C 
ATOM     57  C   UNL A   1      38.503  33.767  35.329  1.00  0.00     0.029 A 
ATOM     58  C   UNL A   1      39.588  32.791  35.314  1.00  0.00     0.049 A 
ATOM     59  H   UNL A   1      40.108  31.502  33.761  1.00  0.00     0.167 HD
ATOM     60  C   UNL A   1      40.908  28.664  30.499  1.00  0.00     0.034 A 
ATOM     61  C   UNL A   1      40.444  32.564  36.330  1.00  0.00     0.034 A 
ATOM     62  C   UNL A   1      41.953  28.450  31.472  1.00  0.00     0.049 A 
ATOM     63  C   UNL A   1      41.520  31.526  36.156  1.00  0.00     0.074 A 
ATOM     64  C   UNL A   1      43.044  27.602  31.393  1.00  0.00     0.029 A 
ATOM     65  N   UNL A   1      42.027  29.072  32.714  1.00  0.00    -0.354 N 
ATOM     66  N   UNL A   1      41.744  30.732  35.133  1.00  0.00    -0.248 NA
ATOM     67  C   UNL A   1      42.465  31.360  37.266  1.00  0.00     0.031 C 
ATOM     68  C   UNL A   1      43.720  27.641  32.617  1.00  0.00     0.029 A 
ATOM     69  C   UNL A   1      43.114  28.588  33.428  1.00  0.00     0.049 A 
ATOM     70  H   UNL A   1      41.399  29.757  33.040  1.00  0.00     0.167 HD
ATOM     71  C   UNL A   1      42.872  29.988  35.468  1.00  0.00     0.074 A 
ATOM     72  C   UNL A   1      43.288  30.440  36.781  1.00  0.00     0.031 C 
ATOM     73  C   UNL A   1      43.508  29.025  34.750  1.00  0.00     0.034 A 
BRANCH  60  74
ATOM     74  C   UNL A   1      40.865  27.801  29.256  1.00  0.00     0.023 A 
ATOM     75  C   UNL A   1      41.756  27.998  28.185  1.00  0.00     0.031 A 
ATOM     76  C   UNL A   1      39.878  26.811  29.109  1.00  0.00     0.131 A 
ATOM     77  C   UNL A   1      41.572  27.301  26.981  1.00  0.00     0.055 A 
ATOM     78  C   UNL A   1      39.766  26.046  27.945  1.00  0.00     0.041 A 
ATOM     79  F   UNL A   1      38.983  26.586  30.083  1.00  0.00    -0.206 F 
ATOM     80  C   UNL A   1      40.600  26.305  26.863  1.00  0.00     0.022 A 
BRANCH  77  81
ATOM     81  S   UNL A   1      42.480  27.862  25.513  1.00  0.00     0.124 S 
ATOM     82  O   UNL A   1      42.350  26.707  24.627  1.00  0.00    -0.237 OA
ATOM     83  O   UNL A   1      41.740  29.056  25.122  1.00  0.00    -0.237 OA
ATOM     84  O   UNL A   1      43.831  28.100  26.017  1.00  0.00    -0.744 OA
ENDBRANCH  77  81
ENDBRANCH  60  74
BRANCH  61  85
ATOM     85  C   UNL A   1      40.293  33.321  37.605  1.00  0.00     0.023 A 
ATOM     86  C   UNL A   1      39.572  32.797  38.690  1.00  0.00     0.031 A 
ATOM     87  C   UNL A   1      40.887  34.587  37.758  1.00  0.00     0.131 A 
ATOM     88  C   UNL A   1      39.446  33.546  39.871  1.00  0.00     0.055 A 
ATOM     89  C   UNL A   1      40.801  35.305  38.951  1.00  0.00     0.041 A 
ATOM     90  F   UNL A   1      41.592  35.131  36.752  1.00  0.00    -0.206 F 
ATOM     91  C   UNL A   1      40.070  34.788  40.014  1.00  0.00     0.022 A 
BRANCH  88  92
ATOM     92  S   UNL A   1      38.408  32.896  41.209  1.00  0.00     0.124 S 
ATOM     93  O   UNL A   1      39.153  33.312  42.392  1.00  0.00    -0.237 OA
ATOM     94  O   UNL A   1      37.143  33.581  40.973  1.00  0.00    -0.237 OA
ATOM     95  O   UNL A   1      38.391  31.456  40.957  1.00  0.00    -0.744 OA
ENDBRANCH  88  92
ENDBRANCH  61  85
BRANCH  73  96
ATOM     96  C   UNL A   1      44.749  28.417  35.363  1.00  0.00     0.023 A 
ATOM     97  C   UNL A   1      44.683  27.357  36.284  1.00  0.00     0.031 A 
ATOM     98  C   UNL A   1      46.020  28.915  35.022  1.00  0.00     0.131 A 
ATOM     99  C   UNL A   1      45.859  26.867  36.873  1.00  0.00     0.055 A 
ATOM    100  C   UNL A   1      47.192  28.375  35.558  1.00  0.00     0.041 A 
ATOM    101  F   UNL A   1      46.148  29.932  34.154  1.00  0.00    -0.206 F 
ATOM    102  C   UNL A   1      47.113  27.355  36.500  1.00  0.00     0.022 A 
BRANCH  99 103
ATOM    103  S   UNL A   1      45.721  25.657  38.218  1.00  0.00     0.124 S 
ATOM    104  O   UNL A   1      46.916  24.844  38.015  1.00  0.00    -0.237 OA
ATOM    105  O   UNL A   1      45.719  26.505  39.404  1.00  0.00    -0.237 OA
ATOM    106  O   UNL A   1      44.457  24.977  37.939  1.00  0.00    -0.744 OA
ENDBRANCH  99 103
ENDBRANCH  73  96
ENDBRANCH  47  48
ENDBRANCH  39  42
ENDBRANCH  37  38
ENDBRANCH  36  37
ENDBRANCH  35  36
ENDBRANCH   1  35
TORSDOF 20
ENDMDL
