MODEL 1
REMARK VINA RESULT:     -11.1      0.000      0.000
REMARK SMILES CN(C)Nc1ncnc(Nc2ccc(C(=O)NCCCCCCNC(=O)c3ccc(-c4c5nc(c(-c6cc(S(=O)(=O)[O-])ccc6F)c6ccc([nH]6)c(-c6cc(S(=O)(=O)[O-])ccc6F)c6nc(c(-c7cc(S(=O)(=O)[O-])ccc7F)c7ccc4[nH]7)C=C6)C=C5)cc3)cc2)c1[N+](=O)[O-]
REMARK SMILES IDX 20 1 19 2 18 3 17 4 15 5 16 6 14 8 11 9 12 10 91 11 13 12
REMARK SMILES IDX 90 13 10 14 9 16 5 17 6 18 92 19 7 20 8 21 4 22 2 24 1 25
REMARK SMILES IDX 3 26 93 27 94 28 95 29 21 30 22 31 23 32 24 33 25 34 26 36
REMARK SMILES IDX 27 37 28 38 89 39 29 40 88 41 30 42 31 43 32 44 82 45 33 46
REMARK SMILES IDX 87 47 81 48 83 49 34 50 86 51 80 52 79 53 35 55 67 56 47 57
REMARK SMILES IDX 66 58 48 59 51 60 65 61 84 62 49 63 50 64 64 66 85 67 52 68
REMARK SMILES IDX 36 69 37 70 45 71 38 72 44 73 46 74 43 75 39 76 40 77 41 78
REMARK SMILES IDX 42 79 68 80 69 81 77 82 70 83 76 84 78 85 75 86 71 87 72 88
REMARK SMILES IDX 73 89 74 90 53 91 54 92 62 93 55 94 61 95 63 96 60 97 56 98
REMARK SMILES IDX 57 99 58 100 59 101
REMARK H PARENT 17 7 10 15 4 23 24 35 83 54 51 65
REMARK Flexibility Score: inf
ROOT
ATOM      1  C   UNL A   1      33.786  27.586  24.296  1.00  0.00     0.002 C 
ENDROOT
BRANCH   1   2
ATOM      2  C   UNL A   1      33.331  28.999  23.902  1.00  0.00     0.021 C 
BRANCH   2   3
ATOM      3  C   UNL A   1      33.042  29.134  22.405  1.00  0.00     0.116 C 
BRANCH   3   4
ATOM      4  N   UNL A   1      31.627  29.387  22.209  1.00  0.00    -0.352 N 
ATOM      5  C   UNL A   1      30.515  28.594  22.308  1.00  0.00     0.251 C 
ATOM      6  O   UNL A   1      29.430  29.094  22.005  1.00  0.00    -0.269 OA
ATOM      7  H   UNL A   1      31.425  30.317  21.956  1.00  0.00     0.163 HD
BRANCH   5   8
ATOM      8  C   UNL A   1      30.545  27.204  22.842  1.00  0.00     0.039 A 
ATOM      9  C   UNL A   1      30.725  24.712  24.150  1.00  0.00     0.040 A 
ATOM     10  C   UNL A   1      30.023  25.763  24.736  1.00  0.00     0.027 A 
ATOM     11  C   UNL A   1      31.217  24.877  22.849  1.00  0.00     0.027 A 
ATOM     12  C   UNL A   1      29.956  27.005  24.100  1.00  0.00     0.016 A 
ATOM     13  C   UNL A   1      31.104  26.106  22.188  1.00  0.00     0.016 A 
BRANCH   9  14
ATOM     14  N   UNL A   1      30.822  23.478  24.820  1.00  0.00    -0.334 N 
ATOM     15  H   UNL A   1      30.081  22.840  24.707  1.00  0.00     0.168 HD
BRANCH  14  16
ATOM     16  C   UNL A   1      31.900  23.085  25.641  1.00  0.00     0.215 A 
ATOM     17  C   UNL A   1      34.140  22.390  26.022  1.00  0.00     0.225 A 
ATOM     18  N   UNL A   1      33.906  22.336  27.350  1.00  0.00    -0.212 NA
ATOM     19  C   UNL A   1      33.120  22.667  25.134  1.00  0.00     0.354 A 
ATOM     20  C   UNL A   1      32.685  22.672  27.766  1.00  0.00     0.227 A 
ATOM     21  N   UNL A   1      31.687  23.075  26.977  1.00  0.00    -0.212 NA
BRANCH  17  22
ATOM     22  N   UNL A   1      35.500  22.268  25.723  1.00  0.00    -0.298 N 
ATOM     23  H   UNL A   1      36.011  23.099  25.598  1.00  0.00     0.184 HD
BRANCH  22  24
ATOM     24  N   UNL A   1      36.207  21.040  25.587  1.00  0.00    -0.228 NA
ATOM     25  C   UNL A   1      35.384  19.984  24.967  1.00  0.00     0.130 C 
ATOM     26  C   UNL A   1      37.338  21.306  24.671  1.00  0.00     0.130 C 
ENDBRANCH  22  24
ENDBRANCH  17  22
BRANCH  19  27
ATOM     27  N   UNL A   1      33.292  22.483  23.724  1.00  0.00     0.070 N 
ATOM     28  O   UNL A   1      32.550  21.655  23.168  1.00  0.00    -0.258 OA
ATOM     29  O   UNL A   1      34.240  23.064  23.177  1.00  0.00    -0.258 OA
ENDBRANCH  19  27
ENDBRANCH  14  16
ENDBRANCH   9  14
ENDBRANCH   5   8
ENDBRANCH   3   4
ENDBRANCH   2   3
ENDBRANCH   1   2
BRANCH   1  30
ATOM     30  C   UNL A   1      33.833  27.331  25.809  1.00  0.00     0.002 C 
BRANCH  30  31
ATOM     31  C   UNL A   1      32.597  27.807  26.575  1.00  0.00     0.021 C 
BRANCH  31  32
ATOM     32  C   UNL A   1      32.916  28.645  27.809  1.00  0.00     0.116 C 
BRANCH  32  33
ATOM     33  N   UNL A   1      33.116  30.042  27.463  1.00  0.00    -0.352 N 
ATOM     34  C   UNL A   1      34.185  30.857  27.741  1.00  0.00     0.251 C 
ATOM     35  H   UNL A   1      32.384  30.463  26.958  1.00  0.00     0.163 HD
ATOM     36  O   UNL A   1      34.077  32.071  27.612  1.00  0.00    -0.269 OA
BRANCH  34  37
ATOM     37  C   UNL A   1      35.456  30.261  28.208  1.00  0.00     0.039 A 
ATOM     38  C   UNL A   1      36.534  30.181  27.324  1.00  0.00     0.014 A 
ATOM     39  C   UNL A   1      35.578  29.778  29.514  1.00  0.00     0.014 A 
ATOM     40  C   UNL A   1      37.752  29.662  27.768  1.00  0.00     0.010 A 
ATOM     41  C   UNL A   1      36.813  29.332  29.976  1.00  0.00     0.010 A 
ATOM     42  C   UNL A   1      37.912  29.264  29.105  1.00  0.00    -0.014 A 
BRANCH  42  43
ATOM     43  C   UNL A   1      39.217  28.763  29.610  1.00  0.00     0.031 A 
ATOM     44  C   UNL A   1      39.918  29.484  30.728  1.00  0.00     0.074 A 
ATOM     45  C   UNL A   1      39.792  27.694  29.025  1.00  0.00     0.049 A 
ATOM     46  N   UNL A   1      41.093  29.251  31.256  1.00  0.00    -0.248 NA
ATOM     47  C   UNL A   1      39.219  30.639  31.311  1.00  0.00     0.031 C 
ATOM     48  C   UNL A   1      39.222  26.935  27.909  1.00  0.00     0.029 A 
ATOM     49  N   UNL A   1      40.984  27.062  29.278  1.00  0.00    -0.354 N 
ATOM     50  C   UNL A   1      41.276  30.231  32.226  1.00  0.00     0.074 A 
ATOM     51  C   UNL A   1      40.120  31.100  32.164  1.00  0.00     0.031 C 
ATOM     52  C   UNL A   1      40.052  25.927  27.592  1.00  0.00     0.029 A 
ATOM     53  C   UNL A   1      41.235  25.997  28.443  1.00  0.00     0.049 A 
ATOM     54  H   UNL A   1      41.602  27.345  29.990  1.00  0.00     0.167 HD
ATOM     55  C   UNL A   1      42.301  30.377  33.101  1.00  0.00     0.034 A 
ATOM     56  C   UNL A   1      42.304  25.181  28.362  1.00  0.00     0.034 A 
ATOM     57  C   UNL A   1      43.441  29.495  33.153  1.00  0.00     0.049 A 
ATOM     58  C   UNL A   1      43.449  25.385  29.324  1.00  0.00     0.074 A 
ATOM     59  C   UNL A   1      44.514  29.524  34.027  1.00  0.00     0.029 A 
ATOM     60  N   UNL A   1      43.664  28.429  32.290  1.00  0.00    -0.354 N 
ATOM     61  N   UNL A   1      43.585  26.291  30.265  1.00  0.00    -0.248 NA
ATOM     62  C   UNL A   1      44.577  24.452  29.220  1.00  0.00     0.031 C 
ATOM     63  C   UNL A   1      45.417  28.525  33.647  1.00  0.00     0.029 A 
ATOM     64  C   UNL A   1      44.870  27.816  32.590  1.00  0.00     0.049 A 
ATOM     65  H   UNL A   1      43.052  28.150  31.569  1.00  0.00     0.167 HD
ATOM     66  C   UNL A   1      44.799  26.011  30.887  1.00  0.00     0.074 A 
ATOM     67  C   UNL A   1      45.344  24.845  30.225  1.00  0.00     0.031 C 
ATOM     68  C   UNL A   1      45.406  26.657  31.916  1.00  0.00     0.034 A 
BRANCH  55  69
ATOM     69  C   UNL A   1      42.240  31.546  34.057  1.00  0.00     0.023 A 
ATOM     70  C   UNL A   1      41.441  31.514  35.214  1.00  0.00     0.031 A 
ATOM     71  C   UNL A   1      42.978  32.716  33.801  1.00  0.00     0.131 A 
ATOM     72  C   UNL A   1      41.343  32.652  36.029  1.00  0.00     0.055 A 
ATOM     73  C   UNL A   1      42.941  33.814  34.663  1.00  0.00     0.041 A 
ATOM     74  F   UNL A   1      43.741  32.816  32.702  1.00  0.00    -0.206 F 
ATOM     75  C   UNL A   1      42.108  33.792  35.778  1.00  0.00     0.022 A 
BRANCH  72  76
ATOM     76  S   UNL A   1      40.090  32.669  37.341  1.00  0.00     0.124 S 
ATOM     77  O   UNL A   1      39.509  33.998  37.176  1.00  0.00    -0.237 OA
ATOM     78  O   UNL A   1      39.235  31.547  36.976  1.00  0.00    -0.237 OA
ATOM     79  O   UNL A   1      40.872  32.487  38.563  1.00  0.00    -0.744 OA
ENDBRANCH  72  76
ENDBRANCH  55  69
BRANCH  56  80
ATOM     80  C   UNL A   1      42.361  24.105  27.328  1.00  0.00     0.023 A 
ATOM     81  C   UNL A   1      41.754  22.858  27.545  1.00  0.00     0.031 A 
ATOM     82  C   UNL A   1      43.070  24.291  26.128  1.00  0.00     0.131 A 
ATOM     83  C   UNL A   1      41.916  21.827  26.606  1.00  0.00     0.055 A 
ATOM     84  C   UNL A   1      43.174  23.283  25.166  1.00  0.00     0.041 A 
ATOM     85  F   UNL A   1      43.668  25.464  25.865  1.00  0.00    -0.206 F 
ATOM     86  C   UNL A   1      42.608  22.037  25.412  1.00  0.00     0.022 A 
BRANCH  83  87
ATOM     87  S   UNL A   1      41.295  20.173  27.017  1.00  0.00     0.124 S 
ATOM     88  O   UNL A   1      40.868  20.354  28.401  1.00  0.00    -0.237 OA
ATOM     89  O   UNL A   1      40.231  19.997  26.034  1.00  0.00    -0.237 OA
ATOM     90  O   UNL A   1      42.463  19.317  26.830  1.00  0.00    -0.744 OA
ENDBRANCH  83  87
ENDBRANCH  56  80
BRANCH  68  91
ATOM     91  C   UNL A   1      46.709  26.080  32.416  1.00  0.00     0.023 A 
ATOM     92  C   UNL A   1      47.942  26.412  31.830  1.00  0.00     0.031 A 
ATOM     93  C   UNL A   1      46.712  25.175  33.492  1.00  0.00     0.131 A 
ATOM     94  C   UNL A   1      49.120  25.799  32.283  1.00  0.00     0.055 A 
ATOM     95  C   UNL A   1      47.893  24.618  33.983  1.00  0.00     0.041 A 
ATOM     96  F   UNL A   1      45.563  24.818  34.089  1.00  0.00    -0.206 F 
ATOM     97  C   UNL A   1      49.106  24.919  33.368  1.00  0.00     0.022 A 
BRANCH  94  98
ATOM     98  S   UNL A   1      50.660  26.091  31.371  1.00  0.00     0.124 S 
ATOM     99  O   UNL A   1      50.362  27.331  30.662  1.00  0.00    -0.237 OA
ATOM    100  O   UNL A   1      51.644  26.191  32.443  1.00  0.00    -0.237 OA
ATOM    101  O   UNL A   1      50.786  24.907  30.523  1.00  0.00    -0.744 OA
ENDBRANCH  94  98
ENDBRANCH  68  91
ENDBRANCH  42  43
ENDBRANCH  34  37
ENDBRANCH  32  33
ENDBRANCH  31  32
ENDBRANCH  30  31
ENDBRANCH   1  30
TORSDOF 21
ENDMDL
MODEL 2
REMARK VINA RESULT:     -11.0      2.499      3.138
REMARK SMILES CN(C)Nc1ncnc(Nc2ccc(C(=O)NCCCCCCNC(=O)c3ccc(-c4c5nc(c(-c6cc(S(=O)(=O)[O-])ccc6F)c6ccc([nH]6)c(-c6cc(S(=O)(=O)[O-])ccc6F)c6nc(c(-c7cc(S(=O)(=O)[O-])ccc7F)c7ccc4[nH]7)C=C6)C=C5)cc3)cc2)c1[N+](=O)[O-]
REMARK SMILES IDX 20 1 19 2 18 3 17 4 15 5 16 6 14 8 11 9 12 10 91 11 13 12
REMARK SMILES IDX 90 13 10 14 9 16 5 17 6 18 92 19 7 20 8 21 4 22 2 24 1 25
REMARK SMILES IDX 3 26 93 27 94 28 95 29 21 30 22 31 23 32 24 33 25 34 26 36
REMARK SMILES IDX 27 37 28 38 89 39 29 40 88 41 30 42 31 43 32 44 82 45 33 46
REMARK SMILES IDX 87 47 81 48 83 49 34 50 86 51 80 52 79 53 35 55 67 56 47 57
REMARK SMILES IDX 66 58 48 59 51 60 65 61 84 62 49 63 50 64 64 66 85 67 52 68
REMARK SMILES IDX 36 69 37 70 45 71 38 72 44 73 46 74 43 75 39 76 40 77 41 78
REMARK SMILES IDX 42 79 68 80 69 81 77 82 70 83 76 84 78 85 75 86 71 87 72 88
REMARK SMILES IDX 73 89 74 90 53 91 54 92 62 93 55 94 61 95 63 96 60 97 56 98
REMARK SMILES IDX 57 99 58 100 59 101
REMARK H PARENT 17 7 10 15 4 23 24 35 83 54 51 65
REMARK Flexibility Score: inf
ROOT
ATOM      1  C   UNL A   1      33.728  27.578  24.662  1.00  0.00     0.002 C 
ENDROOT
BRANCH   1   2
ATOM      2  C   UNL A   1      33.614  28.850  23.809  1.00  0.00     0.021 C 
BRANCH   2   3
ATOM      3  C   UNL A   1      33.161  28.566  22.376  1.00  0.00     0.116 C 
BRANCH   3   4
ATOM      4  N   UNL A   1      31.751  28.885  22.245  1.00  0.00    -0.352 N 
ATOM      5  C   UNL A   1      30.608  28.153  22.429  1.00  0.00     0.251 C 
ATOM      6  O   UNL A   1      29.535  28.699  22.166  1.00  0.00    -0.269 OA
ATOM      7  H   UNL A   1      31.582  29.815  21.971  1.00  0.00     0.163 HD
BRANCH   5   8
ATOM      8  C   UNL A   1      30.598  26.782  23.008  1.00  0.00     0.039 A 
ATOM      9  C   UNL A   1      30.653  24.337  24.413  1.00  0.00     0.040 A 
ATOM     10  C   UNL A   1      29.843  25.381  24.854  1.00  0.00     0.027 A 
ATOM     11  C   UNL A   1      31.327  24.479  23.193  1.00  0.00     0.027 A 
ATOM     12  C   UNL A   1      29.836  26.601  24.173  1.00  0.00     0.016 A 
ATOM     13  C   UNL A   1      31.277  25.684  22.481  1.00  0.00     0.016 A 
BRANCH   9  14
ATOM     14  N   UNL A   1      30.685  23.126  25.131  1.00  0.00    -0.334 N 
ATOM     15  H   UNL A   1      29.888  22.550  25.085  1.00  0.00     0.168 HD
BRANCH  14  16
ATOM     16  C   UNL A   1      31.770  22.678  25.913  1.00  0.00     0.215 A 
ATOM     17  C   UNL A   1      33.738  21.401  26.284  1.00  0.00     0.225 A 
ATOM     18  N   UNL A   1      33.827  21.887  27.540  1.00  0.00    -0.212 NA
ATOM     19  C   UNL A   1      32.658  21.705  25.482  1.00  0.00     0.354 A 
ATOM     20  C   UNL A   1      32.893  22.758  27.922  1.00  0.00     0.227 A 
ATOM     21  N   UNL A   1      31.893  23.198  27.156  1.00  0.00    -0.212 NA
BRANCH  17  22
ATOM     22  N   UNL A   1      34.892  20.706  25.908  1.00  0.00    -0.298 N 
ATOM     23  H   UNL A   1      35.144  19.924  26.449  1.00  0.00     0.184 HD
BRANCH  22  24
ATOM     24  N   UNL A   1      35.730  21.036  24.805  1.00  0.00    -0.228 NA
ATOM     25  C   UNL A   1      36.074  22.469  24.772  1.00  0.00     0.130 C 
ATOM     26  C   UNL A   1      36.991  20.288  24.998  1.00  0.00     0.130 C 
ENDBRANCH  22  24
ENDBRANCH  17  22
BRANCH  19  27
ATOM     27  N   UNL A   1      32.423  21.005  24.254  1.00  0.00     0.070 N 
ATOM     28  O   UNL A   1      32.160  19.793  24.338  1.00  0.00    -0.258 OA
ATOM     29  O   UNL A   1      32.615  21.617  23.194  1.00  0.00    -0.258 OA
ENDBRANCH  19  27
ENDBRANCH  14  16
ENDBRANCH   9  14
ENDBRANCH   5   8
ENDBRANCH   3   4
ENDBRANCH   2   3
ENDBRANCH   1   2
BRANCH   1  30
ATOM     30  C   UNL A   1      32.790  27.538  25.876  1.00  0.00     0.002 C 
BRANCH  30  31
ATOM     31  C   UNL A   1      31.836  28.730  25.984  1.00  0.00     0.021 C 
BRANCH  31  32
ATOM     32  C   UNL A   1      32.056  29.591  27.223  1.00  0.00     0.116 C 
BRANCH  32  33
ATOM     33  N   UNL A   1      32.168  30.998  26.878  1.00  0.00    -0.352 N 
ATOM     34  C   UNL A   1      33.117  31.911  27.267  1.00  0.00     0.251 C 
ATOM     35  H   UNL A   1      31.466  31.346  26.281  1.00  0.00     0.163 HD
ATOM     36  O   UNL A   1      32.915  33.109  27.103  1.00  0.00    -0.269 OA
BRANCH  34  37
ATOM     37  C   UNL A   1      34.371  31.439  27.893  1.00  0.00     0.039 A 
ATOM     38  C   UNL A   1      35.433  32.333  28.047  1.00  0.00     0.014 A 
ATOM     39  C   UNL A   1      34.497  30.114  28.321  1.00  0.00     0.014 A 
ATOM     40  C   UNL A   1      36.604  31.910  28.678  1.00  0.00     0.010 A 
ATOM     41  C   UNL A   1      35.635  29.716  29.016  1.00  0.00     0.010 A 
ATOM     42  C   UNL A   1      36.704  30.609  29.197  1.00  0.00    -0.014 A 
BRANCH  42  43
ATOM     43  C   UNL A   1      37.920  30.160  29.923  1.00  0.00     0.031 A 
ATOM     44  C   UNL A   1      38.186  30.646  31.321  1.00  0.00     0.074 A 
ATOM     45  C   UNL A   1      38.808  29.358  29.302  1.00  0.00     0.049 A 
ATOM     46  N   UNL A   1      39.223  30.431  32.090  1.00  0.00    -0.248 NA
ATOM     47  C   UNL A   1      37.164  31.515  31.923  1.00  0.00     0.031 C 
ATOM     48  C   UNL A   1      38.674  28.850  27.934  1.00  0.00     0.029 A 
ATOM     49  N   UNL A   1      40.002  28.835  29.732  1.00  0.00    -0.354 N 
ATOM     50  C   UNL A   1      38.981  31.140  33.262  1.00  0.00     0.074 A 
ATOM     51  C   UNL A   1      37.732  31.847  33.073  1.00  0.00     0.031 C 
ATOM     52  C   UNL A   1      39.729  28.070  27.649  1.00  0.00     0.029 A 
ATOM     53  C   UNL A   1      40.640  28.062  28.788  1.00  0.00     0.049 A 
ATOM     54  H   UNL A   1      40.368  28.997  30.631  1.00  0.00     0.167 HD
ATOM     55  C   UNL A   1      39.722  31.180  34.397  1.00  0.00     0.034 A 
ATOM     56  C   UNL A   1      41.831  27.433  28.831  1.00  0.00     0.034 A 
ATOM     57  C   UNL A   1      40.961  30.463  34.570  1.00  0.00     0.049 A 
ATOM     58  C   UNL A   1      42.654  27.521  30.094  1.00  0.00     0.074 A 
ATOM     59  C   UNL A   1      41.769  30.396  35.691  1.00  0.00     0.029 A 
ATOM     60  N   UNL A   1      41.579  29.693  33.592  1.00  0.00    -0.354 N 
ATOM     61  N   UNL A   1      42.389  28.160  31.209  1.00  0.00    -0.248 NA
ATOM     62  C   UNL A   1      43.928  26.793  30.106  1.00  0.00     0.031 C 
ATOM     63  C   UNL A   1      42.907  29.649  35.370  1.00  0.00     0.029 A 
ATOM     64  C   UNL A   1      42.772  29.176  34.074  1.00  0.00     0.049 A 
ATOM     65  H   UNL A   1      41.221  29.537  32.687  1.00  0.00     0.167 HD
ATOM     66  C   UNL A   1      43.449  27.881  32.067  1.00  0.00     0.074 A 
ATOM     67  C   UNL A   1      44.345  27.003  31.346  1.00  0.00     0.031 C 
ATOM     68  C   UNL A   1      43.661  28.307  33.339  1.00  0.00     0.034 A 
BRANCH  55  69
ATOM     69  C   UNL A   1      39.216  32.044  35.529  1.00  0.00     0.023 A 
ATOM     70  C   UNL A   1      39.599  33.390  35.659  1.00  0.00     0.031 A 
ATOM     71  C   UNL A   1      38.350  31.512  36.501  1.00  0.00     0.131 A 
ATOM     72  C   UNL A   1      39.178  34.135  36.771  1.00  0.00     0.055 A 
ATOM     73  C   UNL A   1      37.866  32.283  37.559  1.00  0.00     0.041 A 
ATOM     74  F   UNL A   1      37.966  30.227  36.444  1.00  0.00    -0.206 F 
ATOM     75  C   UNL A   1      38.293  33.600  37.708  1.00  0.00     0.022 A 
BRANCH  72  76
ATOM     76  S   UNL A   1      39.921  35.766  37.051  1.00  0.00     0.124 S 
ATOM     77  O   UNL A   1      41.315  35.414  37.308  1.00  0.00    -0.237 OA
ATOM     78  O   UNL A   1      39.658  36.453  35.793  1.00  0.00    -0.237 OA
ATOM     79  O   UNL A   1      39.193  36.280  38.209  1.00  0.00    -0.744 OA
ENDBRANCH  72  76
ENDBRANCH  55  69
BRANCH  56  80
ATOM     80  C   UNL A   1      42.334  26.678  27.646  1.00  0.00     0.023 A 
ATOM     81  C   UNL A   1      42.096  25.302  27.508  1.00  0.00     0.031 A 
ATOM     82  C   UNL A   1      43.108  27.314  26.657  1.00  0.00     0.131 A 
ATOM     83  C   UNL A   1      42.673  24.594  26.442  1.00  0.00     0.055 A 
ATOM     84  C   UNL A   1      43.626  26.618  25.563  1.00  0.00     0.041 A 
ATOM     85  F   UNL A   1      43.364  28.629  26.736  1.00  0.00    -0.206 F 
ATOM     86  C   UNL A   1      43.422  25.245  25.461  1.00  0.00     0.022 A 
BRANCH  83  87
ATOM     87  S   UNL A   1      42.516  22.787  26.414  1.00  0.00     0.124 S 
ATOM     88  O   UNL A   1      42.597  22.507  24.984  1.00  0.00    -0.237 OA
ATOM     89  O   UNL A   1      43.661  22.371  27.216  1.00  0.00    -0.237 OA
ATOM     90  O   UNL A   1      41.210  22.551  27.024  1.00  0.00    -0.744 OA
ENDBRANCH  83  87
ENDBRANCH  56  80
BRANCH  68  91
ATOM     91  C   UNL A   1      44.891  27.785  34.044  1.00  0.00     0.023 A 
ATOM     92  C   UNL A   1      44.829  26.711  34.947  1.00  0.00     0.031 A 
ATOM     93  C   UNL A   1      46.143  28.382  33.812  1.00  0.00     0.131 A 
ATOM     94  C   UNL A   1      45.985  26.304  35.631  1.00  0.00     0.055 A 
ATOM     95  C   UNL A   1      47.301  27.931  34.444  1.00  0.00     0.041 A 
ATOM     96  F   UNL A   1      46.261  29.415  32.962  1.00  0.00    -0.206 F 
ATOM     97  C   UNL A   1      47.224  26.895  35.371  1.00  0.00     0.022 A 
BRANCH  94  98
ATOM     98  S   UNL A   1      45.829  25.058  36.939  1.00  0.00     0.124 S 
ATOM     99  O   UNL A   1      44.812  24.168  36.391  1.00  0.00    -0.237 OA
ATOM    100  O   UNL A   1      47.181  24.513  37.013  1.00  0.00    -0.237 OA
ATOM    101  O   UNL A   1      45.411  25.835  38.105  1.00  0.00    -0.744 OA
ENDBRANCH  94  98
ENDBRANCH  68  91
ENDBRANCH  42  43
ENDBRANCH  34  37
ENDBRANCH  32  33
ENDBRANCH  31  32
ENDBRANCH  30  31
ENDBRANCH   1  30
TORSDOF 21
ENDMDL
MODEL 3
REMARK VINA RESULT:     -10.5      4.025      8.742
REMARK SMILES CN(C)Nc1ncnc(Nc2ccc(C(=O)NCCCCCCNC(=O)c3ccc(-c4c5nc(c(-c6cc(S(=O)(=O)[O-])ccc6F)c6ccc([nH]6)c(-c6cc(S(=O)(=O)[O-])ccc6F)c6nc(c(-c7cc(S(=O)(=O)[O-])ccc7F)c7ccc4[nH]7)C=C6)C=C5)cc3)cc2)c1[N+](=O)[O-]
REMARK SMILES IDX 20 1 19 2 18 3 17 4 15 5 16 6 14 8 11 9 12 10 91 11 13 12
REMARK SMILES IDX 90 13 10 14 9 16 5 17 6 18 92 19 7 20 8 21 4 22 2 24 1 25
REMARK SMILES IDX 3 26 93 27 94 28 95 29 21 30 22 31 23 32 24 33 25 34 26 36
REMARK SMILES IDX 27 37 28 38 89 39 29 40 88 41 30 42 31 43 32 44 82 45 33 46
REMARK SMILES IDX 87 47 81 48 83 49 34 50 86 51 80 52 79 53 35 55 67 56 47 57
REMARK SMILES IDX 66 58 48 59 51 60 65 61 84 62 49 63 50 64 64 66 85 67 52 68
REMARK SMILES IDX 36 69 37 70 45 71 38 72 44 73 46 74 43 75 39 76 40 77 41 78
REMARK SMILES IDX 42 79 68 80 69 81 77 82 70 83 76 84 78 85 75 86 71 87 72 88
REMARK SMILES IDX 73 89 74 90 53 91 54 92 62 93 55 94 61 95 63 96 60 97 56 98
REMARK SMILES IDX 57 99 58 100 59 101
REMARK H PARENT 17 7 10 15 4 23 24 35 83 54 51 65
REMARK Flexibility Score: inf
ROOT
ATOM      1  C   UNL A   1      33.606  25.083  25.962  1.00  0.00     0.002 C 
ENDROOT
BRANCH   1   2
ATOM      2  C   UNL A   1      33.214  26.551  26.191  1.00  0.00     0.021 C 
BRANCH   2   3
ATOM      3  C   UNL A   1      33.605  27.459  25.023  1.00  0.00     0.116 C 
BRANCH   3   4
ATOM      4  N   UNL A   1      32.410  27.854  24.300  1.00  0.00    -0.352 N 
ATOM      5  C   UNL A   1      31.626  27.216  23.375  1.00  0.00     0.251 C 
ATOM      6  O   UNL A   1      30.696  27.856  22.881  1.00  0.00    -0.269 OA
ATOM      7  H   UNL A   1      32.101  28.762  24.519  1.00  0.00     0.163 HD
BRANCH   5   8
ATOM      8  C   UNL A   1      31.789  25.781  23.014  1.00  0.00     0.039 A 
ATOM      9  C   UNL A   1      32.055  22.994  22.671  1.00  0.00     0.040 A 
ATOM     10  C   UNL A   1      30.945  23.517  23.330  1.00  0.00     0.027 A 
ATOM     11  C   UNL A   1      32.957  23.881  22.069  1.00  0.00     0.027 A 
ATOM     12  C   UNL A   1      30.826  24.895  23.523  1.00  0.00     0.016 A 
ATOM     13  C   UNL A   1      32.810  25.266  22.216  1.00  0.00     0.016 A 
BRANCH   9  14
ATOM     14  N   UNL A   1      32.186  21.601  22.520  1.00  0.00    -0.334 N 
ATOM     15  H   UNL A   1      32.060  21.228  21.617  1.00  0.00     0.168 HD
BRANCH  14  16
ATOM     16  C   UNL A   1      32.483  20.698  23.562  1.00  0.00     0.215 A 
ATOM     17  C   UNL A   1      32.929  18.536  24.440  1.00  0.00     0.225 A 
ATOM     18  N   UNL A   1      33.056  19.056  25.679  1.00  0.00    -0.212 NA
ATOM     19  C   UNL A   1      32.543  19.326  23.377  1.00  0.00     0.354 A 
ATOM     20  C   UNL A   1      32.905  20.375  25.803  1.00  0.00     0.227 A 
ATOM     21  N   UNL A   1      32.659  21.218  24.799  1.00  0.00    -0.212 NA
BRANCH  17  22
ATOM     22  N   UNL A   1      33.352  17.205  24.384  1.00  0.00    -0.298 N 
ATOM     23  H   UNL A   1      33.440  16.797  23.493  1.00  0.00     0.184 HD
BRANCH  22  24
ATOM     24  N   UNL A   1      33.668  16.392  25.509  1.00  0.00    -0.228 NA
ATOM     25  C   UNL A   1      32.790  15.211  25.611  1.00  0.00     0.130 C 
ATOM     26  C   UNL A   1      35.044  15.896  25.296  1.00  0.00     0.130 C 
ENDBRANCH  22  24
ENDBRANCH  17  22
BRANCH  19  27
ATOM     27  N   UNL A   1      32.163  18.749  22.122  1.00  0.00     0.070 N 
ATOM     28  O   UNL A   1      32.122  17.508  22.061  1.00  0.00    -0.258 OA
ATOM     29  O   UNL A   1      32.020  19.511  21.155  1.00  0.00    -0.258 OA
ENDBRANCH  19  27
ENDBRANCH  14  16
ENDBRANCH   9  14
ENDBRANCH   5   8
ENDBRANCH   3   4
ENDBRANCH   2   3
ENDBRANCH   1   2
BRANCH   1  30
ATOM     30  C   UNL A   1      34.949  24.887  25.247  1.00  0.00     0.002 C 
BRANCH  30  31
ATOM     31  C   UNL A   1      35.758  23.679  25.728  1.00  0.00     0.021 C 
BRANCH  31  32
ATOM     32  C   UNL A   1      37.049  23.448  24.950  1.00  0.00     0.116 C 
BRANCH  32  33
ATOM     33  N   UNL A   1      37.896  22.467  25.609  1.00  0.00    -0.352 N 
ATOM     34  C   UNL A   1      39.044  22.665  26.335  1.00  0.00     0.251 C 
ATOM     35  H   UNL A   1      37.606  21.530  25.522  1.00  0.00     0.163 HD
ATOM     36  O   UNL A   1      39.775  21.715  26.592  1.00  0.00    -0.269 OA
BRANCH  34  37
ATOM     37  C   UNL A   1      39.394  24.027  26.792  1.00  0.00     0.039 A 
ATOM     38  C   UNL A   1      39.207  24.364  28.134  1.00  0.00     0.014 A 
ATOM     39  C   UNL A   1      39.902  24.970  25.893  1.00  0.00     0.014 A 
ATOM     40  C   UNL A   1      39.577  25.633  28.584  1.00  0.00     0.010 A 
ATOM     41  C   UNL A   1      40.339  26.206  26.358  1.00  0.00     0.010 A 
ATOM     42  C   UNL A   1      40.177  26.553  27.709  1.00  0.00    -0.014 A 
BRANCH  42  43
ATOM     43  C   UNL A   1      40.630  27.886  28.183  1.00  0.00     0.031 A 
ATOM     44  C   UNL A   1      42.095  28.224  28.192  1.00  0.00     0.074 A 
ATOM     45  C   UNL A   1      39.726  28.768  28.655  1.00  0.00     0.049 A 
ATOM     46  N   UNL A   1      42.695  29.299  28.636  1.00  0.00    -0.248 NA
ATOM     47  C   UNL A   1      43.011  27.205  27.657  1.00  0.00     0.031 C 
ATOM     48  C   UNL A   1      38.281  28.538  28.727  1.00  0.00     0.029 A 
ATOM     49  N   UNL A   1      39.885  30.031  29.168  1.00  0.00    -0.354 N 
ATOM     50  C   UNL A   1      44.055  29.085  28.441  1.00  0.00     0.074 A 
ATOM     51  C   UNL A   1      44.194  27.749  27.902  1.00  0.00     0.031 C 
ATOM     52  C   UNL A   1      37.686  29.632  29.231  1.00  0.00     0.029 A 
ATOM     53  C   UNL A   1      38.705  30.620  29.566  1.00  0.00     0.049 A 
ATOM     54  H   UNL A   1      40.760  30.474  29.246  1.00  0.00     0.167 HD
ATOM     55  C   UNL A   1      45.089  29.932  28.669  1.00  0.00     0.034 A 
ATOM     56  C   UNL A   1      38.475  31.813  30.148  1.00  0.00     0.034 A 
ATOM     57  C   UNL A   1      44.930  31.264  29.199  1.00  0.00     0.049 A 
ATOM     58  C   UNL A   1      39.646  32.724  30.424  1.00  0.00     0.074 A 
ATOM     59  C   UNL A   1      45.902  32.222  29.428  1.00  0.00     0.029 A 
ATOM     60  N   UNL A   1      43.722  31.825  29.594  1.00  0.00    -0.354 N 
ATOM     61  N   UNL A   1      40.922  32.523  30.192  1.00  0.00    -0.248 NA
ATOM     62  C   UNL A   1      39.343  34.027  31.029  1.00  0.00     0.031 C 
ATOM     63  C   UNL A   1      45.294  33.331  30.027  1.00  0.00     0.029 A 
ATOM     64  C   UNL A   1      43.929  33.102  30.093  1.00  0.00     0.049 A 
ATOM     65  H   UNL A   1      42.845  31.381  29.527  1.00  0.00     0.167 HD
ATOM     66  C   UNL A   1      41.569  33.690  30.591  1.00  0.00     0.074 A 
ATOM     67  C   UNL A   1      40.540  34.593  31.061  1.00  0.00     0.031 C 
ATOM     68  C   UNL A   1      42.893  33.989  30.567  1.00  0.00     0.034 A 
BRANCH  55  69
ATOM     69  C   UNL A   1      46.481  29.431  28.362  1.00  0.00     0.023 A 
ATOM     70  C   UNL A   1      47.282  28.825  29.346  1.00  0.00     0.031 A 
ATOM     71  C   UNL A   1      47.023  29.574  27.072  1.00  0.00     0.131 A 
ATOM     72  C   UNL A   1      48.601  28.452  29.045  1.00  0.00     0.055 A 
ATOM     73  C   UNL A   1      48.307  29.123  26.758  1.00  0.00     0.041 A 
ATOM     74  F   UNL A   1      46.317  30.165  26.096  1.00  0.00    -0.206 F 
ATOM     75  C   UNL A   1      49.110  28.572  27.751  1.00  0.00     0.022 A 
BRANCH  72  76
ATOM     76  S   UNL A   1      49.686  27.942  30.406  1.00  0.00     0.124 S 
ATOM     77  O   UNL A   1      49.883  26.525  30.110  1.00  0.00    -0.237 OA
ATOM     78  O   UNL A   1      50.849  28.801  30.222  1.00  0.00    -0.237 OA
ATOM     79  O   UNL A   1      48.890  28.215  31.600  1.00  0.00    -0.744 OA
ENDBRANCH  72  76
ENDBRANCH  55  69
BRANCH  56  80
ATOM     80  C   UNL A   1      37.089  32.217  30.528  1.00  0.00     0.023 A 
ATOM     81  C   UNL A   1      36.208  32.761  29.581  1.00  0.00     0.031 A 
ATOM     82  C   UNL A   1      36.644  32.114  31.858  1.00  0.00     0.131 A 
ATOM     83  C   UNL A   1      34.950  33.235  29.986  1.00  0.00     0.055 A 
ATOM     84  C   UNL A   1      35.367  32.527  32.244  1.00  0.00     0.041 A 
ATOM     85  F   UNL A   1      37.444  31.599  32.806  1.00  0.00    -0.206 F 
ATOM     86  C   UNL A   1      34.518  33.107  31.307  1.00  0.00     0.022 A 
BRANCH  83  87
ATOM     87  S   UNL A   1      33.924  34.117  28.777  1.00  0.00     0.124 S 
ATOM     88  O   UNL A   1      32.903  34.709  29.634  1.00  0.00    -0.237 OA
ATOM     89  O   UNL A   1      34.884  35.044  28.186  1.00  0.00    -0.237 OA
ATOM     90  O   UNL A   1      33.458  33.056  27.890  1.00  0.00    -0.744 OA
ENDBRANCH  83  87
ENDBRANCH  56  80
BRANCH  68  91
ATOM     91  C   UNL A   1      43.293  35.374  31.020  1.00  0.00     0.023 A 
ATOM     92  C   UNL A   1      43.385  36.451  30.123  1.00  0.00     0.031 A 
ATOM     93  C   UNL A   1      43.597  35.613  32.372  1.00  0.00     0.131 A 
ATOM     94  C   UNL A   1      43.827  37.703  30.576  1.00  0.00     0.055 A 
ATOM     95  C   UNL A   1      43.971  36.876  32.830  1.00  0.00     0.041 A 
ATOM     96  F   UNL A   1      43.530  34.620  33.274  1.00  0.00    -0.206 F 
ATOM     97  C   UNL A   1      44.103  37.927  31.927  1.00  0.00     0.022 A 
BRANCH  94  98
ATOM     98  S   UNL A   1      44.133  39.012  29.358  1.00  0.00     0.124 S 
ATOM     99  O   UNL A   1      45.404  39.562  29.817  1.00  0.00    -0.237 OA
ATOM    100  O   UNL A   1      44.178  38.267  28.104  1.00  0.00    -0.237 OA
ATOM    101  O   UNL A   1      42.982  39.898  29.511  1.00  0.00    -0.744 OA
ENDBRANCH  94  98
ENDBRANCH  68  91
ENDBRANCH  42  43
ENDBRANCH  34  37
ENDBRANCH  32  33
ENDBRANCH  31  32
ENDBRANCH  30  31
ENDBRANCH   1  30
TORSDOF 21
ENDMDL
