MODEL 1
REMARK VINA RESULT:     -11.7      0.000      0.000
REMARK SMILES Cc1ccc(N)c(SCCOc2ccccc2C(=O)NCCCCCCNC(=O)c2ccc(-c3c4nc(c(-c5cc(S(=O)(=O)[O-])ccc5F)c5ccc([nH]5)c(-c5cc(S(=O)(=O)[O-])ccc5F)c5nc(c(-c6cc(S(=O)(=O)[O-])ccc6F)c6ccc3[nH]6)C=C5)C=C4)cc2)c1
REMARK SMILES IDX 22 1 21 2 20 3 18 4 19 5 17 7 12 8 13 9 14 10 16 11 15 12
REMARK SMILES IDX 11 13 10 14 9 15 8 16 7 17 1 18 2 19 3 20 93 21 4 22 5 23
REMARK SMILES IDX 6 24 23 27 24 28 25 29 26 30 27 31 28 32 29 34 30 35 31 36
REMARK SMILES IDX 92 37 32 38 91 39 33 40 34 41 35 42 85 43 36 44 90 45 84 46
REMARK SMILES IDX 86 47 37 48 89 49 83 50 82 51 38 53 70 54 50 55 69 56 51 57
REMARK SMILES IDX 54 58 68 59 87 60 52 61 53 62 67 64 88 65 55 66 39 67 40 68
REMARK SMILES IDX 48 69 41 70 47 71 49 72 46 73 42 74 43 75 44 76 45 77 71 78
REMARK SMILES IDX 72 79 80 80 73 81 79 82 81 83 78 84 74 85 75 86 76 87 77 88
REMARK SMILES IDX 56 89 57 90 65 91 58 92 64 93 66 94 63 95 59 96 60 97 61 98
REMARK SMILES IDX 62 99
REMARK H PARENT 20 6 6 25 6 26 27 33 86 52 54 63
REMARK Flexibility Score: inf
ROOT
ATOM      1  C   UNL A   1      33.641  27.363  25.741  1.00  0.00     0.021 C 
ENDROOT
BRANCH   1   2
ATOM      2  C   UNL A   1      34.060  28.136  24.494  1.00  0.00     0.116 C 
BRANCH   2   3
ATOM      3  N   UNL A   1      33.839  27.295  23.363  1.00  0.00    -0.352 N 
ATOM      4  C   UNL A   1      32.783  27.147  22.539  1.00  0.00     0.255 C 
ATOM      5  O   UNL A   1      33.120  26.611  21.497  1.00  0.00    -0.269 OA
ATOM      6  H   UNL A   1      34.601  26.712  23.142  1.00  0.00     0.163 HD
BRANCH   4   7
ATOM      7  C   UNL A   1      31.431  27.682  22.832  1.00  0.00     0.081 A 
ATOM      8  C   UNL A   1      30.560  26.833  23.460  1.00  0.00     0.132 A 
ATOM      9  C   UNL A   1      29.187  27.106  23.475  1.00  0.00     0.047 A 
ATOM     10  C   UNL A   1      28.759  28.412  23.239  1.00  0.00     0.004 A 
ATOM     11  C   UNL A   1      31.045  29.012  22.913  1.00  0.00     0.018 A 
ATOM     12  C   UNL A   1      29.720  29.398  23.118  1.00  0.00     0.001 A 
BRANCH   8  13
ATOM     13  O   UNL A   1      31.132  26.021  24.424  1.00  0.00    -0.492 OA
BRANCH  13  14
ATOM     14  C   UNL A   1      30.096  25.643  25.415  1.00  0.00     0.241 C 
BRANCH  14  15
ATOM     15  C   UNL A   1      30.338  24.380  26.335  1.00  0.00     0.116 C 
BRANCH  15  16
ATOM     16  S   UNL A   1      31.899  23.132  26.447  1.00  0.00    -0.120 SA
BRANCH  16  17
ATOM     17  C   UNL A   1      33.395  23.452  25.413  1.00  0.00     0.031 A 
ATOM     18  C   UNL A   1      37.177  23.375  25.651  1.00  0.00     0.044 C 
ATOM     19  C   UNL A   1      35.824  23.632  25.019  1.00  0.00    -0.050 A 
ATOM     20  C   UNL A   1      35.643  23.323  23.675  1.00  0.00     0.005 A 
ATOM     21  C   UNL A   1      34.678  23.874  25.821  1.00  0.00     0.020 A 
ATOM     22  C   UNL A   1      34.348  23.256  23.166  1.00  0.00     0.027 A 
ATOM     23  C   UNL A   1      33.226  23.349  24.012  1.00  0.00     0.045 A 
BRANCH  23  24
ATOM     24  N   UNL A   1      31.954  23.198  23.443  1.00  0.00    -0.398 N 
ATOM     25  H   UNL A   1      31.830  23.327  22.475  1.00  0.00     0.156 HD
ATOM     26  H   UNL A   1      31.186  22.963  24.012  1.00  0.00     0.156 HD
ENDBRANCH  23  24
ENDBRANCH  16  17
ENDBRANCH  15  16
ENDBRANCH  14  15
ENDBRANCH  13  14
ENDBRANCH   8  13
ENDBRANCH   4   7
ENDBRANCH   2   3
ENDBRANCH   1   2
BRANCH   1  27
ATOM     27  C   UNL A   1      33.128  28.217  26.921  1.00  0.00     0.002 C 
BRANCH  27  28
ATOM     28  C   UNL A   1      31.780  28.930  26.761  1.00  0.00     0.002 C 
BRANCH  28  29
ATOM     29  C   UNL A   1      31.826  30.411  26.394  1.00  0.00     0.021 C 
BRANCH  29  30
ATOM     30  C   UNL A   1      32.903  31.228  27.083  1.00  0.00     0.116 C 
BRANCH  30  31
ATOM     31  N   UNL A   1      32.567  32.625  27.276  1.00  0.00    -0.352 N 
ATOM     32  C   UNL A   1      33.264  33.528  28.044  1.00  0.00     0.251 C 
ATOM     33  H   UNL A   1      31.764  32.959  26.814  1.00  0.00     0.163 HD
ATOM     34  O   UNL A   1      32.853  34.679  28.192  1.00  0.00    -0.269 OA
BRANCH  32  35
ATOM     35  C   UNL A   1      34.485  33.065  28.735  1.00  0.00     0.039 A 
ATOM     36  C   UNL A   1      34.364  32.495  30.003  1.00  0.00     0.014 A 
ATOM     37  C   UNL A   1      35.726  33.100  28.088  1.00  0.00     0.014 A 
ATOM     38  C   UNL A   1      35.480  31.907  30.601  1.00  0.00     0.010 A 
ATOM     39  C   UNL A   1      36.816  32.444  28.652  1.00  0.00     0.010 A 
ATOM     40  C   UNL A   1      36.706  31.845  29.917  1.00  0.00    -0.014 A 
BRANCH  40  41
ATOM     41  C   UNL A   1      37.886  31.179  30.526  1.00  0.00     0.031 A 
ATOM     42  C   UNL A   1      38.269  31.491  31.947  1.00  0.00     0.074 A 
ATOM     43  C   UNL A   1      38.632  30.329  29.790  1.00  0.00     0.049 A 
ATOM     44  N   UNL A   1      39.282  31.051  32.647  1.00  0.00    -0.248 NA
ATOM     45  C   UNL A   1      37.415  32.451  32.663  1.00  0.00     0.031 C 
ATOM     46  C   UNL A   1      38.384  29.982  28.390  1.00  0.00     0.029 A 
ATOM     47  N   UNL A   1      39.751  29.605  30.116  1.00  0.00    -0.354 N 
ATOM     48  C   UNL A   1      39.191  31.685  33.883  1.00  0.00     0.074 A 
ATOM     49  C   UNL A   1      38.067  32.593  33.806  1.00  0.00     0.031 C 
ATOM     50  C   UNL A   1      39.302  29.090  27.987  1.00  0.00     0.029 A 
ATOM     51  C   UNL A   1      40.231  28.831  29.083  1.00  0.00     0.049 A 
ATOM     52  H   UNL A   1      40.171  29.634  31.006  1.00  0.00     0.167 HD
ATOM     53  C   UNL A   1      39.958  31.506  34.987  1.00  0.00     0.034 A 
ATOM     54  C   UNL A   1      41.302  28.015  29.026  1.00  0.00     0.034 A 
ATOM     55  C   UNL A   1      41.067  30.585  35.048  1.00  0.00     0.049 A 
ATOM     56  C   UNL A   1      42.154  27.847  30.259  1.00  0.00     0.074 A 
ATOM     57  C   UNL A   1      41.879  30.285  36.127  1.00  0.00     0.029 A 
ATOM     58  N   UNL A   1      41.526  29.823  33.981  1.00  0.00    -0.354 N 
ATOM     59  N   UNL A   1      42.023  28.414  31.437  1.00  0.00    -0.248 NA
ATOM     60  C   UNL A   1      43.290  26.922  30.160  1.00  0.00     0.031 C 
ATOM     61  C   UNL A   1      42.869  29.396  35.696  1.00  0.00     0.029 A 
ATOM     62  C   UNL A   1      42.630  29.077  34.368  1.00  0.00     0.049 A 
ATOM     63  H   UNL A   1      41.127  29.813  33.082  1.00  0.00     0.167 HD
ATOM     64  C   UNL A   1      43.041  27.888  32.227  1.00  0.00     0.074 A 
ATOM     65  C   UNL A   1      43.766  26.949  31.396  1.00  0.00     0.031 C 
ATOM     66  C   UNL A   1      43.348  28.152  33.523  1.00  0.00     0.034 A 
BRANCH  53  67
ATOM     67  C   UNL A   1      39.630  32.341  36.202  1.00  0.00     0.023 A 
ATOM     68  C   UNL A   1      38.870  31.828  37.269  1.00  0.00     0.031 A 
ATOM     69  C   UNL A   1      40.052  33.681  36.282  1.00  0.00     0.131 A 
ATOM     70  C   UNL A   1      38.487  32.668  38.326  1.00  0.00     0.055 A 
ATOM     71  C   UNL A   1      39.740  34.487  37.378  1.00  0.00     0.041 A 
ATOM     72  F   UNL A   1      40.761  34.234  35.286  1.00  0.00    -0.206 F 
ATOM     73  C   UNL A   1      38.940  33.987  38.401  1.00  0.00     0.022 A 
BRANCH  70  74
ATOM     74  S   UNL A   1      37.266  32.055  39.519  1.00  0.00     0.124 S 
ATOM     75  O   UNL A   1      38.121  31.384  40.496  1.00  0.00    -0.237 OA
ATOM     76  O   UNL A   1      36.622  33.283  39.970  1.00  0.00    -0.237 OA
ATOM     77  O   UNL A   1      36.425  31.165  38.721  1.00  0.00    -0.744 OA
ENDBRANCH  70  74
ENDBRANCH  53  67
BRANCH  54  78
ATOM     78  C   UNL A   1      41.640  27.296  27.762  1.00  0.00     0.023 A 
ATOM     79  C   UNL A   1      41.522  25.899  27.668  1.00  0.00     0.031 A 
ATOM     80  C   UNL A   1      42.130  27.992  26.642  1.00  0.00     0.131 A 
ATOM     81  C   UNL A   1      41.934  25.239  26.499  1.00  0.00     0.055 A 
ATOM     82  C   UNL A   1      42.486  27.335  25.462  1.00  0.00     0.041 A 
ATOM     83  F   UNL A   1      42.260  29.327  26.676  1.00  0.00    -0.206 F 
ATOM     84  C   UNL A   1      42.403  25.948  25.392  1.00  0.00     0.022 A 
BRANCH  81  85
ATOM     85  S   UNL A   1      41.930  23.425  26.480  1.00  0.00     0.124 S 
ATOM     86  O   UNL A   1      42.631  23.140  25.233  1.00  0.00    -0.237 OA
ATOM     87  O   UNL A   1      42.648  23.107  27.708  1.00  0.00    -0.237 OA
ATOM     88  O   UNL A   1      40.507  23.089  26.488  1.00  0.00    -0.744 OA
ENDBRANCH  81  85
ENDBRANCH  54  78
BRANCH  66  89
ATOM     89  C   UNL A   1      44.493  27.377  34.128  1.00  0.00     0.023 A 
ATOM     90  C   UNL A   1      44.295  26.143  34.771  1.00  0.00     0.031 A 
ATOM     91  C   UNL A   1      45.802  27.889  34.066  1.00  0.00     0.131 A 
ATOM     92  C   UNL A   1      45.380  25.489  35.375  1.00  0.00     0.055 A 
ATOM     93  C   UNL A   1      46.886  27.203  34.614  1.00  0.00     0.041 A 
ATOM     94  F   UNL A   1      46.049  29.065  33.465  1.00  0.00    -0.206 F 
ATOM     95  C   UNL A   1      46.676  26.002  35.284  1.00  0.00     0.022 A 
BRANCH  92  96
ATOM     96  S   UNL A   1      45.057  24.001  36.361  1.00  0.00     0.124 S 
ATOM     97  O   UNL A   1      44.550  24.566  37.606  1.00  0.00    -0.237 OA
ATOM     98  O   UNL A   1      44.084  23.287  35.541  1.00  0.00    -0.237 OA
ATOM     99  O   UNL A   1      46.370  23.363  36.458  1.00  0.00    -0.744 OA
ENDBRANCH  92  96
ENDBRANCH  66  89
ENDBRANCH  40  41
ENDBRANCH  32  35
ENDBRANCH  30  31
ENDBRANCH  29  30
ENDBRANCH  28  29
ENDBRANCH  27  28
ENDBRANCH   1  27
TORSDOF 22
ENDMDL
MODEL 2
REMARK VINA RESULT:     -11.5      1.789      7.676
REMARK SMILES Cc1ccc(N)c(SCCOc2ccccc2C(=O)NCCCCCCNC(=O)c2ccc(-c3c4nc(c(-c5cc(S(=O)(=O)[O-])ccc5F)c5ccc([nH]5)c(-c5cc(S(=O)(=O)[O-])ccc5F)c5nc(c(-c6cc(S(=O)(=O)[O-])ccc6F)c6ccc3[nH]6)C=C5)C=C4)cc2)c1
REMARK SMILES IDX 22 1 21 2 20 3 18 4 19 5 17 7 12 8 13 9 14 10 16 11 15 12
REMARK SMILES IDX 11 13 10 14 9 15 8 16 7 17 1 18 2 19 3 20 93 21 4 22 5 23
REMARK SMILES IDX 6 24 23 27 24 28 25 29 26 30 27 31 28 32 29 34 30 35 31 36
REMARK SMILES IDX 92 37 32 38 91 39 33 40 34 41 35 42 85 43 36 44 90 45 84 46
REMARK SMILES IDX 86 47 37 48 89 49 83 50 82 51 38 53 70 54 50 55 69 56 51 57
REMARK SMILES IDX 54 58 68 59 87 60 52 61 53 62 67 64 88 65 55 66 39 67 40 68
REMARK SMILES IDX 48 69 41 70 47 71 49 72 46 73 42 74 43 75 44 76 45 77 71 78
REMARK SMILES IDX 72 79 80 80 73 81 79 82 81 83 78 84 74 85 75 86 76 87 77 88
REMARK SMILES IDX 56 89 57 90 65 91 58 92 64 93 66 94 63 95 59 96 60 97 61 98
REMARK SMILES IDX 62 99
REMARK H PARENT 20 6 6 25 6 26 27 33 86 52 54 63
REMARK Flexibility Score: inf
ROOT
ATOM      1  C   UNL A   1      33.915  27.836  26.006  1.00  0.00     0.021 C 
ENDROOT
BRANCH   1   2
ATOM      2  C   UNL A   1      34.014  28.506  24.639  1.00  0.00     0.116 C 
BRANCH   2   3
ATOM      3  N   UNL A   1      33.702  27.527  23.648  1.00  0.00    -0.352 N 
ATOM      4  C   UNL A   1      32.624  27.351  22.860  1.00  0.00     0.255 C 
ATOM      5  O   UNL A   1      32.895  26.637  21.910  1.00  0.00    -0.269 OA
ATOM      6  H   UNL A   1      34.408  26.853  23.516  1.00  0.00     0.163 HD
BRANCH   4   7
ATOM      7  C   UNL A   1      31.328  28.041  23.073  1.00  0.00     0.081 A 
ATOM      8  C   UNL A   1      30.213  27.248  23.114  1.00  0.00     0.132 A 
ATOM      9  C   UNL A   1      28.938  27.807  22.968  1.00  0.00     0.047 A 
ATOM     10  C   UNL A   1      28.770  29.171  23.207  1.00  0.00     0.004 A 
ATOM     11  C   UNL A   1      31.117  29.301  23.613  1.00  0.00     0.018 A 
ATOM     12  C   UNL A   1      29.851  29.882  23.693  1.00  0.00     0.001 A 
BRANCH   8  13
ATOM     13  O   UNL A   1      30.385  26.032  23.753  1.00  0.00    -0.492 OA
BRANCH  13  14
ATOM     14  C   UNL A   1      30.578  26.271  25.203  1.00  0.00     0.241 C 
BRANCH  14  15
ATOM     15  C   UNL A   1      31.233  25.135  26.087  1.00  0.00     0.116 C 
BRANCH  15  16
ATOM     16  S   UNL A   1      32.945  24.126  25.849  1.00  0.00    -0.120 SA
BRANCH  16  17
ATOM     17  C   UNL A   1      32.948  22.561  24.871  1.00  0.00     0.031 A 
ATOM     18  C   UNL A   1      32.815  18.805  25.373  1.00  0.00     0.044 C 
ATOM     19  C   UNL A   1      32.947  20.107  24.608  1.00  0.00    -0.050 A 
ATOM     20  C   UNL A   1      32.316  20.225  23.373  1.00  0.00     0.005 A 
ATOM     21  C   UNL A   1      33.418  21.285  25.245  1.00  0.00     0.020 A 
ATOM     22  C   UNL A   1      32.164  21.491  22.812  1.00  0.00     0.027 A 
ATOM     23  C   UNL A   1      32.501  22.654  23.531  1.00  0.00     0.045 A 
BRANCH  23  24
ATOM     24  N   UNL A   1      32.252  23.897  22.934  1.00  0.00    -0.398 N 
ATOM     25  H   UNL A   1      32.911  24.624  23.019  1.00  0.00     0.156 HD
ATOM     26  H   UNL A   1      31.419  24.043  22.432  1.00  0.00     0.156 HD
ENDBRANCH  23  24
ENDBRANCH  16  17
ENDBRANCH  15  16
ENDBRANCH  14  15
ENDBRANCH  13  14
ENDBRANCH   8  13
ENDBRANCH   4   7
ENDBRANCH   2   3
ENDBRANCH   1   2
BRANCH   1  27
ATOM     27  C   UNL A   1      33.592  28.771  27.191  1.00  0.00     0.002 C 
BRANCH  27  28
ATOM     28  C   UNL A   1      32.211  29.435  27.230  1.00  0.00     0.002 C 
BRANCH  28  29
ATOM     29  C   UNL A   1      32.142  30.903  26.815  1.00  0.00     0.021 C 
BRANCH  29  30
ATOM     30  C   UNL A   1      33.187  31.812  27.435  1.00  0.00     0.116 C 
BRANCH  30  31
ATOM     31  N   UNL A   1      32.780  33.198  27.560  1.00  0.00    -0.352 N 
ATOM     32  C   UNL A   1      33.334  34.134  28.401  1.00  0.00     0.251 C 
ATOM     33  H   UNL A   1      32.036  33.498  26.989  1.00  0.00     0.163 HD
ATOM     34  O   UNL A   1      32.868  35.271  28.475  1.00  0.00    -0.269 OA
BRANCH  32  35
ATOM     35  C   UNL A   1      34.465  33.722  29.259  1.00  0.00     0.039 A 
ATOM     36  C   UNL A   1      34.226  32.826  30.301  1.00  0.00     0.014 A 
ATOM     37  C   UNL A   1      35.769  34.140  28.966  1.00  0.00     0.014 A 
ATOM     38  C   UNL A   1      35.304  32.302  31.017  1.00  0.00     0.010 A 
ATOM     39  C   UNL A   1      36.845  33.556  29.629  1.00  0.00     0.010 A 
ATOM     40  C   UNL A   1      36.623  32.636  30.666  1.00  0.00    -0.014 A 
BRANCH  40  41
ATOM     41  C   UNL A   1      37.778  32.046  31.391  1.00  0.00     0.031 A 
ATOM     42  C   UNL A   1      38.584  30.951  30.747  1.00  0.00     0.074 A 
ATOM     43  C   UNL A   1      38.075  32.467  32.637  1.00  0.00     0.049 A 
ATOM     44  N   UNL A   1      39.599  30.278  31.225  1.00  0.00    -0.248 NA
ATOM     45  C   UNL A   1      38.170  30.537  29.397  1.00  0.00     0.031 C 
ATOM     46  C   UNL A   1      37.340  33.492  33.381  1.00  0.00     0.029 A 
ATOM     47  N   UNL A   1      39.070  32.084  33.501  1.00  0.00    -0.354 N 
ATOM     48  C   UNL A   1      39.940  29.358  30.239  1.00  0.00     0.074 A 
ATOM     49  C   UNL A   1      38.977  29.512  29.170  1.00  0.00     0.031 C 
ATOM     50  C   UNL A   1      37.927  33.678  34.573  1.00  0.00     0.029 A 
ATOM     51  C   UNL A   1      39.053  32.758  34.701  1.00  0.00     0.049 A 
ATOM     52  H   UNL A   1      39.736  31.392  33.282  1.00  0.00     0.167 HD
ATOM     53  C   UNL A   1      40.977  28.484  30.216  1.00  0.00     0.034 A 
ATOM     54  C   UNL A   1      39.851  32.642  35.782  1.00  0.00     0.034 A 
ATOM     55  C   UNL A   1      41.936  28.354  31.287  1.00  0.00     0.049 A 
ATOM     56  C   UNL A   1      40.985  31.649  35.743  1.00  0.00     0.074 A 
ATOM     57  C   UNL A   1      43.053  27.541  31.349  1.00  0.00     0.029 A 
ATOM     58  N   UNL A   1      41.884  29.051  32.488  1.00  0.00    -0.354 N 
ATOM     59  N   UNL A   1      41.327  30.822  34.781  1.00  0.00    -0.248 NA
ATOM     60  C   UNL A   1      41.848  31.580  36.929  1.00  0.00     0.031 C 
ATOM     61  C   UNL A   1      43.637  27.695  32.611  1.00  0.00     0.029 A 
ATOM     62  C   UNL A   1      42.932  28.663  33.310  1.00  0.00     0.049 A 
ATOM     63  H   UNL A   1      41.204  29.722  32.722  1.00  0.00     0.167 HD
ATOM     64  C   UNL A   1      42.464  30.159  35.236  1.00  0.00     0.074 A 
ATOM     65  C   UNL A   1      42.755  30.694  36.550  1.00  0.00     0.031 C 
ATOM     66  C   UNL A   1      43.203  29.199  34.623  1.00  0.00     0.034 A 
BRANCH  53  67
ATOM     67  C   UNL A   1      41.106  27.591  29.004  1.00  0.00     0.023 A 
ATOM     68  C   UNL A   1      42.113  27.791  28.042  1.00  0.00     0.031 A 
ATOM     69  C   UNL A   1      40.189  26.547  28.787  1.00  0.00     0.131 A 
ATOM     70  C   UNL A   1      42.129  27.016  26.872  1.00  0.00     0.055 A 
ATOM     71  C   UNL A   1      40.265  25.723  27.663  1.00  0.00     0.041 A 
ATOM     72  F   UNL A   1      39.193  26.320  29.658  1.00  0.00    -0.206 F 
ATOM     73  C   UNL A   1      41.228  25.965  26.689  1.00  0.00     0.022 A 
BRANCH  70  74
ATOM     74  S   UNL A   1      43.248  27.501  25.529  1.00  0.00     0.124 S 
ATOM     75  O   UNL A   1      42.317  28.089  24.569  1.00  0.00    -0.237 OA
ATOM     76  O   UNL A   1      44.153  28.432  26.193  1.00  0.00    -0.237 OA
ATOM     77  O   UNL A   1      43.849  26.236  25.111  1.00  0.00    -0.744 OA
ENDBRANCH  70  74
ENDBRANCH  53  67
BRANCH  54  78
ATOM     78  C   UNL A   1      39.610  33.477  36.995  1.00  0.00     0.023 A 
ATOM     79  C   UNL A   1      38.916  32.963  38.103  1.00  0.00     0.031 A 
ATOM     80  C   UNL A   1      40.031  34.817  37.047  1.00  0.00     0.131 A 
ATOM     81  C   UNL A   1      38.623  33.797  39.194  1.00  0.00     0.055 A 
ATOM     82  C   UNL A   1      39.785  35.627  38.158  1.00  0.00     0.041 A 
ATOM     83  F   UNL A   1      40.701  35.359  36.017  1.00  0.00    -0.206 F 
ATOM     84  C   UNL A   1      39.063  35.121  39.234  1.00  0.00     0.022 A 
BRANCH  81  85
ATOM     85  S   UNL A   1      37.577  33.148  40.527  1.00  0.00     0.124 S 
ATOM     86  O   UNL A   1      36.470  32.563  39.777  1.00  0.00    -0.237 OA
ATOM     87  O   UNL A   1      38.475  32.206  41.185  1.00  0.00    -0.237 OA
ATOM     88  O   UNL A   1      37.244  34.338  41.307  1.00  0.00    -0.744 OA
ENDBRANCH  81  85
ENDBRANCH  54  78
BRANCH  66  89
ATOM     89  C   UNL A   1      44.425  28.702  35.356  1.00  0.00     0.023 A 
ATOM     90  C   UNL A   1      44.341  27.714  36.352  1.00  0.00     0.031 A 
ATOM     91  C   UNL A   1      45.692  29.233  35.055  1.00  0.00     0.131 A 
ATOM     92  C   UNL A   1      45.494  27.328  37.051  1.00  0.00     0.055 A 
ATOM     93  C   UNL A   1      46.845  28.799  35.710  1.00  0.00     0.041 A 
ATOM     94  F   UNL A   1      45.831  30.180  34.113  1.00  0.00    -0.206 F 
ATOM     95  C   UNL A   1      46.748  27.851  36.724  1.00  0.00     0.022 A 
BRANCH  92  96
ATOM     96  S   UNL A   1      45.320  26.197  38.459  1.00  0.00     0.124 S 
ATOM     97  O   UNL A   1      44.565  25.095  37.872  1.00  0.00    -0.237 OA
ATOM     98  O   UNL A   1      46.709  25.908  38.801  1.00  0.00    -0.237 OA
ATOM     99  O   UNL A   1      44.592  26.991  39.448  1.00  0.00    -0.744 OA
ENDBRANCH  92  96
ENDBRANCH  66  89
ENDBRANCH  40  41
ENDBRANCH  32  35
ENDBRANCH  30  31
ENDBRANCH  29  30
ENDBRANCH  28  29
ENDBRANCH  27  28
ENDBRANCH   1  27
TORSDOF 22
ENDMDL
MODEL 3
REMARK VINA RESULT:     -11.2      1.703      7.566
REMARK SMILES Cc1ccc(N)c(SCCOc2ccccc2C(=O)NCCCCCCNC(=O)c2ccc(-c3c4nc(c(-c5cc(S(=O)(=O)[O-])ccc5F)c5ccc([nH]5)c(-c5cc(S(=O)(=O)[O-])ccc5F)c5nc(c(-c6cc(S(=O)(=O)[O-])ccc6F)c6ccc3[nH]6)C=C5)C=C4)cc2)c1
REMARK SMILES IDX 22 1 21 2 20 3 18 4 19 5 17 7 12 8 13 9 14 10 16 11 15 12
REMARK SMILES IDX 11 13 10 14 9 15 8 16 7 17 1 18 2 19 3 20 93 21 4 22 5 23
REMARK SMILES IDX 6 24 23 27 24 28 25 29 26 30 27 31 28 32 29 34 30 35 31 36
REMARK SMILES IDX 92 37 32 38 91 39 33 40 34 41 35 42 85 43 36 44 90 45 84 46
REMARK SMILES IDX 86 47 37 48 89 49 83 50 82 51 38 53 70 54 50 55 69 56 51 57
REMARK SMILES IDX 54 58 68 59 87 60 52 61 53 62 67 64 88 65 55 66 39 67 40 68
REMARK SMILES IDX 48 69 41 70 47 71 49 72 46 73 42 74 43 75 44 76 45 77 71 78
REMARK SMILES IDX 72 79 80 80 73 81 79 82 81 83 78 84 74 85 75 86 76 87 77 88
REMARK SMILES IDX 56 89 57 90 65 91 58 92 64 93 66 94 63 95 59 96 60 97 61 98
REMARK SMILES IDX 62 99
REMARK H PARENT 20 6 6 25 6 26 27 33 86 52 54 63
REMARK Flexibility Score: inf
ROOT
ATOM      1  C   UNL A   1      33.849  27.866  25.384  1.00  0.00     0.021 C 
ENDROOT
BRANCH   1   2
ATOM      2  C   UNL A   1      33.793  28.460  23.980  1.00  0.00     0.116 C 
BRANCH   2   3
ATOM      3  N   UNL A   1      33.545  27.394  23.064  1.00  0.00    -0.352 N 
ATOM      4  C   UNL A   1      32.444  27.031  22.377  1.00  0.00     0.255 C 
ATOM      5  O   UNL A   1      32.738  26.307  21.441  1.00  0.00    -0.269 OA
ATOM      6  H   UNL A   1      34.325  26.814  22.904  1.00  0.00     0.163 HD
BRANCH   4   7
ATOM      7  C   UNL A   1      31.086  27.551  22.666  1.00  0.00     0.081 A 
ATOM      8  C   UNL A   1      30.312  26.804  23.513  1.00  0.00     0.132 A 
ATOM      9  C   UNL A   1      28.930  27.012  23.583  1.00  0.00     0.047 A 
ATOM     10  C   UNL A   1      28.409  28.226  23.134  1.00  0.00     0.004 A 
ATOM     11  C   UNL A   1      30.627  28.853  22.520  1.00  0.00     0.018 A 
ATOM     12  C   UNL A   1      29.299  29.211  22.750  1.00  0.00     0.001 A 
BRANCH   8  13
ATOM     13  O   UNL A   1      30.996  26.224  24.568  1.00  0.00    -0.492 OA
BRANCH  13  14
ATOM     14  C   UNL A   1      30.656  24.783  24.631  1.00  0.00     0.241 C 
BRANCH  14  15
ATOM     15  C   UNL A   1      30.853  23.891  23.340  1.00  0.00     0.116 C 
BRANCH  15  16
ATOM     16  S   UNL A   1      31.984  22.267  23.041  1.00  0.00    -0.120 SA
BRANCH  16  17
ATOM     17  C   UNL A   1      33.485  22.000  24.082  1.00  0.00     0.031 A 
ATOM     18  C   UNL A   1      36.757  23.695  24.974  1.00  0.00     0.044 C 
ATOM     19  C   UNL A   1      35.715  22.594  24.956  1.00  0.00    -0.050 A 
ATOM     20  C   UNL A   1      35.455  21.898  26.132  1.00  0.00     0.005 A 
ATOM     21  C   UNL A   1      34.798  22.474  23.878  1.00  0.00     0.020 A 
ATOM     22  C   UNL A   1      34.305  21.116  26.214  1.00  0.00     0.027 A 
ATOM     23  C   UNL A   1      33.336  21.134  25.191  1.00  0.00     0.045 A 
BRANCH  23  24
ATOM     24  N   UNL A   1      32.168  20.382  25.373  1.00  0.00    -0.398 N 
ATOM     25  H   UNL A   1      32.014  19.575  24.830  1.00  0.00     0.156 HD
ATOM     26  H   UNL A   1      31.503  20.660  26.042  1.00  0.00     0.156 HD
ENDBRANCH  23  24
ENDBRANCH  16  17
ENDBRANCH  15  16
ENDBRANCH  14  15
ENDBRANCH  13  14
ENDBRANCH   8  13
ENDBRANCH   4   7
ENDBRANCH   2   3
ENDBRANCH   1   2
BRANCH   1  27
ATOM     27  C   UNL A   1      32.928  28.530  26.431  1.00  0.00     0.002 C 
BRANCH  27  28
ATOM     28  C   UNL A   1      31.704  29.304  25.927  1.00  0.00     0.002 C 
BRANCH  28  29
ATOM     29  C   UNL A   1      31.791  30.828  25.965  1.00  0.00     0.021 C 
BRANCH  29  30
ATOM     30  C   UNL A   1      32.331  31.425  27.252  1.00  0.00     0.116 C 
BRANCH  30  31
ATOM     31  N   UNL A   1      32.400  32.874  27.259  1.00  0.00    -0.352 N 
ATOM     32  C   UNL A   1      33.438  33.633  27.745  1.00  0.00     0.251 C 
ATOM     33  H   UNL A   1      31.631  33.358  26.881  1.00  0.00     0.163 HD
ATOM     34  O   UNL A   1      33.365  34.862  27.762  1.00  0.00    -0.269 OA
BRANCH  32  35
ATOM     35  C   UNL A   1      34.616  32.936  28.301  1.00  0.00     0.039 A 
ATOM     36  C   UNL A   1      35.866  33.548  28.205  1.00  0.00     0.014 A 
ATOM     37  C   UNL A   1      34.466  31.735  29.004  1.00  0.00     0.014 A 
ATOM     38  C   UNL A   1      36.960  32.984  28.864  1.00  0.00     0.010 A 
ATOM     39  C   UNL A   1      35.539  31.219  29.724  1.00  0.00     0.010 A 
ATOM     40  C   UNL A   1      36.799  31.835  29.657  1.00  0.00    -0.014 A 
BRANCH  40  41
ATOM     41  C   UNL A   1      37.947  31.255  30.401  1.00  0.00     0.031 A 
ATOM     42  C   UNL A   1      38.805  30.205  29.749  1.00  0.00     0.074 A 
ATOM     43  C   UNL A   1      38.191  31.641  31.670  1.00  0.00     0.049 A 
ATOM     44  N   UNL A   1      39.824  29.547  30.238  1.00  0.00    -0.248 NA
ATOM     45  C   UNL A   1      38.449  29.825  28.373  1.00  0.00     0.031 C 
ATOM     46  C   UNL A   1      37.401  32.619  32.421  1.00  0.00     0.029 A 
ATOM     47  N   UNL A   1      39.168  31.259  32.553  1.00  0.00    -0.354 N 
ATOM     48  C   UNL A   1      40.225  28.670  29.234  1.00  0.00     0.074 A 
ATOM     49  C   UNL A   1      39.292  28.833  28.140  1.00  0.00     0.031 C 
ATOM     50  C   UNL A   1      37.944  32.782  33.638  1.00  0.00     0.029 A 
ATOM     51  C   UNL A   1      39.092  31.891  33.773  1.00  0.00     0.049 A 
ATOM     52  H   UNL A   1      39.861  30.594  32.334  1.00  0.00     0.167 HD
ATOM     53  C   UNL A   1      41.288  27.828  29.217  1.00  0.00     0.034 A 
ATOM     54  C   UNL A   1      39.857  31.761  34.876  1.00  0.00     0.034 A 
ATOM     55  C   UNL A   1      42.214  27.690  30.315  1.00  0.00     0.049 A 
ATOM     56  C   UNL A   1      41.021  30.803  34.843  1.00  0.00     0.074 A 
ATOM     57  C   UNL A   1      43.353  26.907  30.388  1.00  0.00     0.029 A 
ATOM     58  N   UNL A   1      42.102  28.344  31.536  1.00  0.00    -0.354 N 
ATOM     59  N   UNL A   1      41.419  30.019  33.866  1.00  0.00    -0.248 NA
ATOM     60  C   UNL A   1      41.846  30.719  36.054  1.00  0.00     0.031 C 
ATOM     61  C   UNL A   1      43.890  27.035  31.673  1.00  0.00     0.029 A 
ATOM     62  C   UNL A   1      43.134  27.958  32.379  1.00  0.00     0.049 A 
ATOM     63  H   UNL A   1      41.395  28.987  31.769  1.00  0.00     0.167 HD
ATOM     64  C   UNL A   1      42.559  29.375  34.337  1.00  0.00     0.074 A 
ATOM     65  C   UNL A   1      42.792  29.873  35.677  1.00  0.00     0.031 C 
ATOM     66  C   UNL A   1      43.346  28.457  33.718  1.00  0.00     0.034 A 
BRANCH  53  67
ATOM     67  C   UNL A   1      41.482  26.981  27.982  1.00  0.00     0.023 A 
ATOM     68  C   UNL A   1      41.081  25.633  27.939  1.00  0.00     0.031 A 
ATOM     69  C   UNL A   1      42.108  27.516  26.842  1.00  0.00     0.131 A 
ATOM     70  C   UNL A   1      41.383  24.847  26.816  1.00  0.00     0.055 A 
ATOM     71  C   UNL A   1      42.328  26.750  25.695  1.00  0.00     0.041 A 
ATOM     72  F   UNL A   1      42.533  28.789  26.830  1.00  0.00    -0.206 F 
ATOM     73  C   UNL A   1      41.979  25.403  25.683  1.00  0.00     0.022 A 
BRANCH  70  74
ATOM     74  S   UNL A   1      41.121  23.055  26.921  1.00  0.00     0.124 S 
ATOM     75  O   UNL A   1      41.679  22.753  28.237  1.00  0.00    -0.237 OA
ATOM     76  O   UNL A   1      39.673  22.939  26.798  1.00  0.00    -0.237 OA
ATOM     77  O   UNL A   1      41.888  22.531  25.791  1.00  0.00    -0.744 OA
ENDBRANCH  70  74
ENDBRANCH  53  67
BRANCH  54  78
ATOM     78  C   UNL A   1      39.552  32.547  36.107  1.00  0.00     0.023 A 
ATOM     79  C   UNL A   1      38.658  32.061  37.075  1.00  0.00     0.031 A 
ATOM     80  C   UNL A   1      40.117  33.819  36.313  1.00  0.00     0.131 A 
ATOM     81  C   UNL A   1      38.318  32.860  38.179  1.00  0.00     0.055 A 
ATOM     82  C   UNL A   1      39.817  34.587  37.440  1.00  0.00     0.041 A 
ATOM     83  F   UNL A   1      40.980  34.331  35.421  1.00  0.00    -0.206 F 
ATOM     84  C   UNL A   1      38.901  34.113  38.374  1.00  0.00     0.022 A 
BRANCH  81  85
ATOM     85  S   UNL A   1      37.031  32.271  39.313  1.00  0.00     0.124 S 
ATOM     86  O   UNL A   1      37.266  30.832  39.308  1.00  0.00    -0.237 OA
ATOM     87  O   UNL A   1      37.369  32.973  40.546  1.00  0.00    -0.237 OA
ATOM     88  O   UNL A   1      35.790  32.704  38.673  1.00  0.00    -0.744 OA
ENDBRANCH  81  85
ENDBRANCH  54  78
BRANCH  66  89
ATOM     89  C   UNL A   1      44.558  27.971  34.474  1.00  0.00     0.023 A 
ATOM     90  C   UNL A   1      45.789  28.646  34.415  1.00  0.00     0.031 A 
ATOM     91  C   UNL A   1      44.478  26.807  35.261  1.00  0.00     0.131 A 
ATOM     92  C   UNL A   1      46.905  28.122  35.084  1.00  0.00     0.055 A 
ATOM     93  C   UNL A   1      45.576  26.326  35.975  1.00  0.00     0.041 A 
ATOM     94  F   UNL A   1      43.327  26.121  35.353  1.00  0.00    -0.206 F 
ATOM     95  C   UNL A   1      46.802  26.977  35.878  1.00  0.00     0.022 A 
BRANCH  92  96
ATOM     96  S   UNL A   1      48.520  28.908  34.829  1.00  0.00     0.124 S 
ATOM     97  O   UNL A   1      48.339  29.561  33.537  1.00  0.00    -0.237 OA
ATOM     98  O   UNL A   1      48.622  29.795  35.983  1.00  0.00    -0.237 OA
ATOM     99  O   UNL A   1      49.453  27.782  34.830  1.00  0.00    -0.744 OA
ENDBRANCH  92  96
ENDBRANCH  66  89
ENDBRANCH  40  41
ENDBRANCH  32  35
ENDBRANCH  30  31
ENDBRANCH  29  30
ENDBRANCH  28  29
ENDBRANCH  27  28
ENDBRANCH   1  27
TORSDOF 22
ENDMDL
