MODEL 1
REMARK VINA RESULT:     -11.1      0.000      0.000
REMARK SMILES NC(=O)C[C@H](NC(=O)c1csc(Br)c1)C(=O)NCCCCCCNC(=O)c1ccc(-c2c3nc(c(-c4cc(S(=O)(=O)[O-])ccc4F)c4ccc([nH]4)c(-c4cc(S(=O)(=O)[O-])ccc4F)c4nc(c(-c5cc(S(=O)(=O)[O-])ccc5F)c5ccc2[nH]5)C=C4)C=C3)cc1
REMARK SMILES IDX 21 1 20 2 19 3 18 4 17 5 15 6 16 7 5 9 4 10 2 11 1 12 3 15
REMARK SMILES IDX 6 16 7 17 8 19 9 20 10 21 14 22 11 23 12 24 13 25 22 26
REMARK SMILES IDX 23 27 24 28 25 29 26 31 27 32 28 33 89 34 29 35 88 36 30 37
REMARK SMILES IDX 31 38 32 39 82 40 33 41 87 42 81 43 83 44 34 45 86 46 80 47
REMARK SMILES IDX 79 48 35 50 67 51 47 52 66 53 48 54 51 55 65 56 84 57 49 58
REMARK SMILES IDX 50 59 64 61 85 62 52 63 36 64 37 65 45 66 38 67 44 68 46 69
REMARK SMILES IDX 43 70 39 71 40 72 41 73 42 74 68 75 69 76 77 77 70 78 76 79
REMARK SMILES IDX 78 80 75 81 71 82 72 83 73 84 74 85 53 86 54 87 62 88 55 89
REMARK SMILES IDX 61 90 63 91 60 92 56 93 57 94 58 95 59 96
REMARK H PARENT 17 8 1 13 1 14 6 18 24 30 83 49 51 60
REMARK Flexibility Score: inf
ROOT
ATOM      1  C   UNL A   1      31.707  30.259  26.099  1.00  0.00     0.002 C 
ENDROOT
BRANCH   1   2
ATOM      2  C   UNL A   1      31.861  29.272  27.260  1.00  0.00     0.002 C 
BRANCH   2   3
ATOM      3  C   UNL A   1      32.966  28.222  27.118  1.00  0.00     0.021 C 
BRANCH   3   4
ATOM      4  C   UNL A   1      32.720  27.120  26.090  1.00  0.00     0.116 C 
BRANCH   4   5
ATOM      5  N   UNL A   1      33.736  26.089  26.119  1.00  0.00    -0.354 N 
ATOM      6  C   UNL A   1      33.765  24.854  25.540  1.00  0.00     0.243 C 
ATOM      7  O   UNL A   1      34.758  24.151  25.753  1.00  0.00    -0.273 OA
ATOM      8  H   UNL A   1      34.540  26.317  26.640  1.00  0.00     0.163 HD
BRANCH   6   9
ATOM      9  C   UNL A   1      32.544  24.285  24.785  1.00  0.00     0.180 C 
BRANCH   9  10
ATOM     10  C   UNL A   1      31.866  23.068  25.418  1.00  0.00     0.134 C 
BRANCH  10  11
ATOM     11  C   UNL A   1      30.672  23.437  26.260  1.00  0.00     0.220 C 
ATOM     12  N   UNL A   1      29.867  22.391  26.604  1.00  0.00    -0.370 N 
ATOM     13  H   UNL A   1      29.066  22.546  27.153  1.00  0.00     0.159 HD
ATOM     14  H   UNL A   1      30.088  21.480  26.302  1.00  0.00     0.159 HD
ATOM     15  O   UNL A   1      30.397  24.582  26.591  1.00  0.00    -0.275 OA
ENDBRANCH  10  11
ENDBRANCH   9  10
BRANCH   9  16
ATOM     16  N   UNL A   1      32.982  24.020  23.405  1.00  0.00    -0.340 N 
ATOM     17  C   UNL A   1      32.893  24.794  22.283  1.00  0.00     0.252 C 
ATOM     18  H   UNL A   1      33.408  23.144  23.269  1.00  0.00     0.164 HD
ATOM     19  O   UNL A   1      33.078  24.273  21.187  1.00  0.00    -0.269 OA
BRANCH  17  20
ATOM     20  C   UNL A   1      32.555  26.203  22.414  1.00  0.00     0.051 A 
ATOM     21  C   UNL A   1      33.529  27.182  22.538  1.00  0.00     0.079 A 
ATOM     22  C   UNL A   1      31.243  26.775  22.540  1.00  0.00     0.041 A 
ATOM     23  S   UNL A   1      32.869  28.751  22.722  1.00  0.00    -0.136 S 
ATOM     24  C   UNL A   1      31.293  28.136  22.706  1.00  0.00     0.071 A 
ATOM     25  Br  UNL A   1      29.772  29.208  22.919  1.00  0.00    -0.039 Br
ENDBRANCH  17  20
ENDBRANCH   9  16
ENDBRANCH   6   9
ENDBRANCH   4   5
ENDBRANCH   3   4
ENDBRANCH   2   3
ENDBRANCH   1   2
BRANCH   1  26
ATOM     26  C   UNL A   1      31.554  31.736  26.473  1.00  0.00     0.021 C 
BRANCH  26  27
ATOM     27  C   UNL A   1      32.748  32.386  27.171  1.00  0.00     0.116 C 
BRANCH  27  28
ATOM     28  N   UNL A   1      32.502  33.757  27.569  1.00  0.00    -0.352 N 
ATOM     29  C   UNL A   1      33.153  34.520  28.510  1.00  0.00     0.251 C 
ATOM     30  H   UNL A   1      31.763  34.207  27.099  1.00  0.00     0.163 HD
ATOM     31  O   UNL A   1      32.726  35.641  28.772  1.00  0.00    -0.269 OA
BRANCH  29  32
ATOM     32  C   UNL A   1      34.334  33.988  29.234  1.00  0.00     0.039 A 
ATOM     33  C   UNL A   1      34.119  33.081  30.278  1.00  0.00     0.014 A 
ATOM     34  C   UNL A   1      35.636  34.394  28.927  1.00  0.00     0.014 A 
ATOM     35  C   UNL A   1      35.205  32.538  30.971  1.00  0.00     0.010 A 
ATOM     36  C   UNL A   1      36.722  33.824  29.593  1.00  0.00     0.010 A 
ATOM     37  C   UNL A   1      36.516  32.889  30.619  1.00  0.00    -0.014 A 
BRANCH  37  38
ATOM     38  C   UNL A   1      37.681  32.296  31.321  1.00  0.00     0.031 A 
ATOM     39  C   UNL A   1      38.446  31.166  30.689  1.00  0.00     0.074 A 
ATOM     40  C   UNL A   1      38.016  32.733  32.548  1.00  0.00     0.049 A 
ATOM     41  N   UNL A   1      39.425  30.452  31.183  1.00  0.00    -0.248 NA
ATOM     42  C   UNL A   1      38.038  30.778  29.333  1.00  0.00     0.031 C 
ATOM     43  C   UNL A   1      37.335  33.803  33.281  1.00  0.00     0.029 A 
ATOM     44  N   UNL A   1      39.004  32.319  33.405  1.00  0.00    -0.354 N 
ATOM     45  C   UNL A   1      39.741  29.515  30.206  1.00  0.00     0.074 A 
ATOM     46  C   UNL A   1      38.827  29.740  29.103  1.00  0.00     0.031 C 
ATOM     47  C   UNL A   1      37.928  33.961  34.477  1.00  0.00     0.029 A 
ATOM     48  C   UNL A   1      39.009  32.989  34.604  1.00  0.00     0.049 A 
ATOM     49  H   UNL A   1      39.648  31.609  33.181  1.00  0.00     0.167 HD
ATOM     50  C   UNL A   1      40.705  28.561  30.221  1.00  0.00     0.034 A 
ATOM     51  C   UNL A   1      39.790  32.829  35.690  1.00  0.00     0.034 A 
ATOM     52  C   UNL A   1      41.622  28.351  31.314  1.00  0.00     0.049 A 
ATOM     53  C   UNL A   1      40.866  31.780  35.679  1.00  0.00     0.074 A 
ATOM     54  C   UNL A   1      42.653  27.432  31.418  1.00  0.00     0.029 A 
ATOM     55  N   UNL A   1      41.617  29.074  32.500  1.00  0.00    -0.354 N 
ATOM     56  N   UNL A   1      41.150  30.902  34.747  1.00  0.00    -0.248 NA
ATOM     57  C   UNL A   1      41.727  31.706  36.866  1.00  0.00     0.031 C 
ATOM     58  C   UNL A   1      43.251  27.578  32.677  1.00  0.00     0.029 A 
ATOM     59  C   UNL A   1      42.618  28.615  33.343  1.00  0.00     0.049 A 
ATOM     60  H   UNL A   1      40.994  29.806  32.711  1.00  0.00     0.167 HD
ATOM     61  C   UNL A   1      42.234  30.179  35.229  1.00  0.00     0.074 A 
ATOM     62  C   UNL A   1      42.554  30.723  36.534  1.00  0.00     0.031 C 
ATOM     63  C   UNL A   1      42.910  29.159  34.645  1.00  0.00     0.034 A 
BRANCH  50  64
ATOM     64  C   UNL A   1      40.779  27.652  29.023  1.00  0.00     0.023 A 
ATOM     65  C   UNL A   1      41.712  27.868  27.995  1.00  0.00     0.031 A 
ATOM     66  C   UNL A   1      39.869  26.592  28.882  1.00  0.00     0.131 A 
ATOM     67  C   UNL A   1      41.667  27.079  26.836  1.00  0.00     0.055 A 
ATOM     68  C   UNL A   1      39.871  25.768  27.756  1.00  0.00     0.041 A 
ATOM     69  F   UNL A   1      38.943  26.355  29.826  1.00  0.00    -0.206 F 
ATOM     70  C   UNL A   1      40.765  26.018  26.718  1.00  0.00     0.022 A 
BRANCH  67  71
ATOM     71  S   UNL A   1      42.718  27.539  25.432  1.00  0.00     0.124 S 
ATOM     72  O   UNL A   1      43.979  27.853  26.101  1.00  0.00    -0.237 OA
ATOM     73  O   UNL A   1      42.709  26.328  24.620  1.00  0.00    -0.237 OA
ATOM     74  O   UNL A   1      42.027  28.686  24.848  1.00  0.00    -0.744 OA
ENDBRANCH  67  71
ENDBRANCH  50  64
BRANCH  51  75
ATOM     75  C   UNL A   1      39.566  33.666  36.895  1.00  0.00     0.023 A 
ATOM     76  C   UNL A   1      38.969  33.130  38.046  1.00  0.00     0.031 A 
ATOM     77  C   UNL A   1      39.934  35.021  36.901  1.00  0.00     0.131 A 
ATOM     78  C   UNL A   1      38.732  33.956  39.153  1.00  0.00     0.055 A 
ATOM     79  C   UNL A   1      39.715  35.835  38.013  1.00  0.00     0.041 A 
ATOM     80  F   UNL A   1      40.520  35.569  35.825  1.00  0.00    -0.206 F 
ATOM     81  C   UNL A   1      39.104  35.304  39.146  1.00  0.00     0.022 A 
BRANCH  78  82
ATOM     82  S   UNL A   1      37.894  33.252  40.598  1.00  0.00     0.124 S 
ATOM     83  O   UNL A   1      38.593  31.982  40.763  1.00  0.00    -0.237 OA
ATOM     84  O   UNL A   1      38.150  34.264  41.617  1.00  0.00    -0.237 OA
ATOM     85  O   UNL A   1      36.501  33.146  40.166  1.00  0.00    -0.744 OA
ENDBRANCH  78  82
ENDBRANCH  51  75
BRANCH  63  86
ATOM     86  C   UNL A   1      44.077  28.603  35.409  1.00  0.00     0.023 A 
ATOM     87  C   UNL A   1      43.916  27.555  36.330  1.00  0.00     0.031 A 
ATOM     88  C   UNL A   1      45.359  29.151  35.233  1.00  0.00     0.131 A 
ATOM     89  C   UNL A   1      45.018  27.109  37.074  1.00  0.00     0.055 A 
ATOM     90  C   UNL A   1      46.458  28.682  35.953  1.00  0.00     0.041 A 
ATOM     91  F   UNL A   1      45.558  30.156  34.367  1.00  0.00    -0.206 F 
ATOM     92  C   UNL A   1      46.290  27.661  36.886  1.00  0.00     0.022 A 
BRANCH  89  93
ATOM     93  S   UNL A   1      44.761  25.830  38.335  1.00  0.00     0.124 S 
ATOM     94  O   UNL A   1      46.116  25.330  38.543  1.00  0.00    -0.237 OA
ATOM     95  O   UNL A   1      44.185  26.592  39.438  1.00  0.00    -0.237 OA
ATOM     96  O   UNL A   1      43.847  24.889  37.690  1.00  0.00    -0.744 OA
ENDBRANCH  89  93
ENDBRANCH  63  86
ENDBRANCH  37  38
ENDBRANCH  29  32
ENDBRANCH  27  28
ENDBRANCH  26  27
ENDBRANCH   1  26
TORSDOF 20
ENDMDL
MODEL 2
REMARK VINA RESULT:     -11.1      1.608      2.460
REMARK SMILES NC(=O)C[C@H](NC(=O)c1csc(Br)c1)C(=O)NCCCCCCNC(=O)c1ccc(-c2c3nc(c(-c4cc(S(=O)(=O)[O-])ccc4F)c4ccc([nH]4)c(-c4cc(S(=O)(=O)[O-])ccc4F)c4nc(c(-c5cc(S(=O)(=O)[O-])ccc5F)c5ccc2[nH]5)C=C4)C=C3)cc1
REMARK SMILES IDX 21 1 20 2 19 3 18 4 17 5 15 6 16 7 5 9 4 10 2 11 1 12 3 15
REMARK SMILES IDX 6 16 7 17 8 19 9 20 10 21 14 22 11 23 12 24 13 25 22 26
REMARK SMILES IDX 23 27 24 28 25 29 26 31 27 32 28 33 89 34 29 35 88 36 30 37
REMARK SMILES IDX 31 38 32 39 82 40 33 41 87 42 81 43 83 44 34 45 86 46 80 47
REMARK SMILES IDX 79 48 35 50 67 51 47 52 66 53 48 54 51 55 65 56 84 57 49 58
REMARK SMILES IDX 50 59 64 61 85 62 52 63 36 64 37 65 45 66 38 67 44 68 46 69
REMARK SMILES IDX 43 70 39 71 40 72 41 73 42 74 68 75 69 76 77 77 70 78 76 79
REMARK SMILES IDX 78 80 75 81 71 82 72 83 73 84 74 85 53 86 54 87 62 88 55 89
REMARK SMILES IDX 61 90 63 91 60 92 56 93 57 94 58 95 59 96
REMARK H PARENT 17 8 1 13 1 14 6 18 24 30 83 49 51 60
REMARK Flexibility Score: inf
ROOT
ATOM      1  C   UNL A   1      31.501  30.433  25.826  1.00  0.00     0.002 C 
ENDROOT
BRANCH   1   2
ATOM      2  C   UNL A   1      31.886  29.258  26.730  1.00  0.00     0.002 C 
BRANCH   2   3
ATOM      3  C   UNL A   1      32.488  28.034  26.036  1.00  0.00     0.021 C 
BRANCH   3   4
ATOM      4  C   UNL A   1      31.807  26.697  26.316  1.00  0.00     0.116 C 
BRANCH   4   5
ATOM      5  N   UNL A   1      30.541  26.556  25.627  1.00  0.00    -0.354 N 
ATOM      6  C   UNL A   1      30.253  26.056  24.391  1.00  0.00     0.243 C 
ATOM      7  O   UNL A   1      29.072  26.081  24.030  1.00  0.00    -0.273 OA
ATOM      8  H   UNL A   1      29.758  26.871  26.135  1.00  0.00     0.163 HD
BRANCH   6   9
ATOM      9  C   UNL A   1      31.367  25.627  23.412  1.00  0.00     0.180 C 
BRANCH   9  10
ATOM     10  C   UNL A   1      31.555  26.508  22.175  1.00  0.00     0.134 C 
BRANCH  10  11
ATOM     11  C   UNL A   1      32.522  25.920  21.180  1.00  0.00     0.220 C 
ATOM     12  N   UNL A   1      32.000  25.685  19.942  1.00  0.00    -0.370 N 
ATOM     13  H   UNL A   1      32.566  25.302  19.233  1.00  0.00     0.159 HD
ATOM     14  H   UNL A   1      31.057  25.898  19.757  1.00  0.00     0.159 HD
ATOM     15  O   UNL A   1      33.681  25.629  21.444  1.00  0.00    -0.275 OA
ENDBRANCH  10  11
ENDBRANCH   9  10
BRANCH   9  16
ATOM     16  N   UNL A   1      31.105  24.223  23.056  1.00  0.00    -0.340 N 
ATOM     17  C   UNL A   1      31.806  23.088  23.355  1.00  0.00     0.252 C 
ATOM     18  H   UNL A   1      30.295  24.078  22.518  1.00  0.00     0.164 HD
ATOM     19  O   UNL A   1      31.557  22.058  22.736  1.00  0.00    -0.269 OA
BRANCH  17  20
ATOM     20  C   UNL A   1      32.842  23.138  24.374  1.00  0.00     0.051 A 
ATOM     21  C   UNL A   1      32.548  23.033  25.725  1.00  0.00     0.079 A 
ATOM     22  C   UNL A   1      34.242  23.396  24.180  1.00  0.00     0.041 A 
ATOM     23  S   UNL A   1      33.938  23.166  26.716  1.00  0.00    -0.136 S 
ATOM     24  C   UNL A   1      34.926  23.429  25.369  1.00  0.00     0.071 A 
ATOM     25  Br  UNL A   1      36.765  23.757  25.495  1.00  0.00    -0.039 Br
ENDBRANCH  17  20
ENDBRANCH   9  16
ENDBRANCH   6   9
ENDBRANCH   4   5
ENDBRANCH   3   4
ENDBRANCH   2   3
ENDBRANCH   1   2
BRANCH   1  26
ATOM     26  C   UNL A   1      31.354  31.798  26.505  1.00  0.00     0.021 C 
BRANCH  26  27
ATOM     27  C   UNL A   1      32.624  32.394  27.109  1.00  0.00     0.116 C 
BRANCH  27  28
ATOM     28  N   UNL A   1      32.451  33.755  27.578  1.00  0.00    -0.352 N 
ATOM     29  C   UNL A   1      33.153  34.438  28.543  1.00  0.00     0.251 C 
ATOM     30  H   UNL A   1      31.728  34.261  27.144  1.00  0.00     0.163 HD
ATOM     31  O   UNL A   1      32.785  35.563  28.866  1.00  0.00    -0.269 OA
BRANCH  29  32
ATOM     32  C   UNL A   1      34.318  33.816  29.219  1.00  0.00     0.039 A 
ATOM     33  C   UNL A   1      35.601  34.242  28.857  1.00  0.00     0.014 A 
ATOM     34  C   UNL A   1      34.167  32.803  30.172  1.00  0.00     0.014 A 
ATOM     35  C   UNL A   1      36.725  33.699  29.488  1.00  0.00     0.010 A 
ATOM     36  C   UNL A   1      35.287  32.288  30.827  1.00  0.00     0.010 A 
ATOM     37  C   UNL A   1      36.575  32.733  30.493  1.00  0.00    -0.014 A 
BRANCH  37  38
ATOM     38  C   UNL A   1      37.755  32.172  31.196  1.00  0.00     0.031 A 
ATOM     39  C   UNL A   1      38.536  31.046  30.579  1.00  0.00     0.074 A 
ATOM     40  C   UNL A   1      38.090  32.636  32.414  1.00  0.00     0.049 A 
ATOM     41  N   UNL A   1      39.530  30.356  31.078  1.00  0.00    -0.248 NA
ATOM     42  C   UNL A   1      38.125  30.628  29.231  1.00  0.00     0.031 C 
ATOM     43  C   UNL A   1      37.396  33.706  33.133  1.00  0.00     0.029 A 
ATOM     44  N   UNL A   1      39.091  32.253  33.271  1.00  0.00    -0.354 N 
ATOM     45  C   UNL A   1      39.856  29.409  30.114  1.00  0.00     0.074 A 
ATOM     46  C   UNL A   1      38.930  29.599  29.014  1.00  0.00     0.031 C 
ATOM     47  C   UNL A   1      37.993  33.895  34.322  1.00  0.00     0.029 A 
ATOM     48  C   UNL A   1      39.092  32.944  34.459  1.00  0.00     0.049 A 
ATOM     49  H   UNL A   1      39.746  31.551  33.054  1.00  0.00     0.167 HD
ATOM     50  C   UNL A   1      40.837  28.472  30.139  1.00  0.00     0.034 A 
ATOM     51  C   UNL A   1      39.882  32.815  35.542  1.00  0.00     0.034 A 
ATOM     52  C   UNL A   1      41.763  28.296  31.229  1.00  0.00     0.049 A 
ATOM     53  C   UNL A   1      40.976  31.785  35.541  1.00  0.00     0.074 A 
ATOM     54  C   UNL A   1      42.811  27.397  31.341  1.00  0.00     0.029 A 
ATOM     55  N   UNL A   1      41.754  29.039  32.402  1.00  0.00    -0.354 N 
ATOM     56  N   UNL A   1      41.270  30.896  34.622  1.00  0.00    -0.248 NA
ATOM     57  C   UNL A   1      41.847  31.746  36.723  1.00  0.00     0.031 C 
ATOM     58  C   UNL A   1      43.414  27.575  32.593  1.00  0.00     0.029 A 
ATOM     59  C   UNL A   1      42.768  28.612  33.246  1.00  0.00     0.049 A 
ATOM     60  H   UNL A   1      41.120  29.764  32.605  1.00  0.00     0.167 HD
ATOM     61  C   UNL A   1      42.370  30.200  35.109  1.00  0.00     0.074 A 
ATOM     62  C   UNL A   1      42.688  30.772  36.402  1.00  0.00     0.031 C 
ATOM     63  C   UNL A   1      43.059  29.182  34.537  1.00  0.00     0.034 A 
BRANCH  50  64
ATOM     64  C   UNL A   1      40.918  27.544  28.956  1.00  0.00     0.023 A 
ATOM     65  C   UNL A   1      41.868  27.736  27.938  1.00  0.00     0.031 A 
ATOM     66  C   UNL A   1      39.999  26.491  28.818  1.00  0.00     0.131 A 
ATOM     67  C   UNL A   1      41.831  26.929  26.791  1.00  0.00     0.055 A 
ATOM     68  C   UNL A   1      40.010  25.650  27.704  1.00  0.00     0.041 A 
ATOM     69  F   UNL A   1      39.058  26.278  29.752  1.00  0.00    -0.206 F 
ATOM     70  C   UNL A   1      40.921  25.876  26.675  1.00  0.00     0.022 A 
BRANCH  67  71
ATOM     71  S   UNL A   1      42.907  27.357  25.395  1.00  0.00     0.124 S 
ATOM     72  O   UNL A   1      44.149  27.711  26.080  1.00  0.00    -0.237 OA
ATOM     73  O   UNL A   1      42.932  26.121  24.624  1.00  0.00    -0.237 OA
ATOM     74  O   UNL A   1      42.214  28.475  24.759  1.00  0.00    -0.744 OA
ENDBRANCH  67  71
ENDBRANCH  50  64
BRANCH  51  75
ATOM     75  C   UNL A   1      39.652  33.669  36.734  1.00  0.00     0.023 A 
ATOM     76  C   UNL A   1      39.020  33.156  37.877  1.00  0.00     0.031 A 
ATOM     77  C   UNL A   1      40.048  35.016  36.735  1.00  0.00     0.131 A 
ATOM     78  C   UNL A   1      38.778  33.998  38.971  1.00  0.00     0.055 A 
ATOM     79  C   UNL A   1      39.824  35.844  37.834  1.00  0.00     0.041 A 
ATOM     80  F   UNL A   1      40.669  35.540  35.666  1.00  0.00    -0.206 F 
ATOM     81  C   UNL A   1      39.179  35.337  38.959  1.00  0.00     0.022 A 
BRANCH  78  82
ATOM     82  S   UNL A   1      37.896  33.326  40.406  1.00  0.00     0.124 S 
ATOM     83  O   UNL A   1      38.746  32.203  40.784  1.00  0.00    -0.237 OA
ATOM     84  O   UNL A   1      37.893  34.465  41.317  1.00  0.00    -0.237 OA
ATOM     85  O   UNL A   1      36.589  32.963  39.861  1.00  0.00    -0.744 OA
ENDBRANCH  78  82
ENDBRANCH  51  75
BRANCH  63  86
ATOM     86  C   UNL A   1      44.241  28.660  35.302  1.00  0.00     0.023 A 
ATOM     87  C   UNL A   1      44.093  27.674  36.292  1.00  0.00     0.031 A 
ATOM     88  C   UNL A   1      45.523  29.178  35.057  1.00  0.00     0.131 A 
ATOM     89  C   UNL A   1      45.210  27.260  37.031  1.00  0.00     0.055 A 
ATOM     90  C   UNL A   1      46.637  28.740  35.775  1.00  0.00     0.041 A 
ATOM     91  F   UNL A   1      45.709  30.124  34.124  1.00  0.00    -0.206 F 
ATOM     92  C   UNL A   1      46.483  27.782  36.775  1.00  0.00     0.022 A 
BRANCH  89  93
ATOM     93  S   UNL A   1      44.974  26.066  38.377  1.00  0.00     0.124 S 
ATOM     94  O   UNL A   1      43.692  26.484  38.934  1.00  0.00    -0.237 OA
ATOM     95  O   UNL A   1      44.976  24.791  37.667  1.00  0.00    -0.237 OA
ATOM     96  O   UNL A   1      46.129  26.292  39.244  1.00  0.00    -0.744 OA
ENDBRANCH  89  93
ENDBRANCH  63  86
ENDBRANCH  37  38
ENDBRANCH  29  32
ENDBRANCH  27  28
ENDBRANCH  26  27
ENDBRANCH   1  26
TORSDOF 20
ENDMDL
MODEL 3
REMARK VINA RESULT:     -10.7      5.586      8.725
REMARK SMILES NC(=O)C[C@H](NC(=O)c1csc(Br)c1)C(=O)NCCCCCCNC(=O)c1ccc(-c2c3nc(c(-c4cc(S(=O)(=O)[O-])ccc4F)c4ccc([nH]4)c(-c4cc(S(=O)(=O)[O-])ccc4F)c4nc(c(-c5cc(S(=O)(=O)[O-])ccc5F)c5ccc2[nH]5)C=C4)C=C3)cc1
REMARK SMILES IDX 21 1 20 2 19 3 18 4 17 5 15 6 16 7 5 9 4 10 2 11 1 12 3 15
REMARK SMILES IDX 6 16 7 17 8 19 9 20 10 21 14 22 11 23 12 24 13 25 22 26
REMARK SMILES IDX 23 27 24 28 25 29 26 31 27 32 28 33 89 34 29 35 88 36 30 37
REMARK SMILES IDX 31 38 32 39 82 40 33 41 87 42 81 43 83 44 34 45 86 46 80 47
REMARK SMILES IDX 79 48 35 50 67 51 47 52 66 53 48 54 51 55 65 56 84 57 49 58
REMARK SMILES IDX 50 59 64 61 85 62 52 63 36 64 37 65 45 66 38 67 44 68 46 69
REMARK SMILES IDX 43 70 39 71 40 72 41 73 42 74 68 75 69 76 77 77 70 78 76 79
REMARK SMILES IDX 78 80 75 81 71 82 72 83 73 84 74 85 53 86 54 87 62 88 55 89
REMARK SMILES IDX 61 90 63 91 60 92 56 93 57 94 58 95 59 96
REMARK H PARENT 17 8 1 13 1 14 6 18 24 30 83 49 51 60
REMARK Flexibility Score: inf
ROOT
ATOM      1  C   UNL A   1      35.306  22.576  23.598  1.00  0.00     0.002 C 
ENDROOT
BRANCH   1   2
ATOM      2  C   UNL A   1      33.802  22.559  23.316  1.00  0.00     0.002 C 
BRANCH   2   3
ATOM      3  C   UNL A   1      33.307  23.487  22.203  1.00  0.00     0.021 C 
BRANCH   3   4
ATOM      4  C   UNL A   1      32.346  24.595  22.627  1.00  0.00     0.116 C 
BRANCH   4   5
ATOM      5  N   UNL A   1      32.867  25.921  22.366  1.00  0.00    -0.354 N 
ATOM      6  C   UNL A   1      32.392  27.148  22.722  1.00  0.00     0.243 C 
ATOM      7  O   UNL A   1      33.025  28.136  22.337  1.00  0.00    -0.273 OA
ATOM      8  H   UNL A   1      33.703  25.939  21.845  1.00  0.00     0.163 HD
BRANCH   6   9
ATOM      9  C   UNL A   1      31.034  27.314  23.438  1.00  0.00     0.180 C 
BRANCH   9  10
ATOM     10  C   UNL A   1      29.939  28.036  22.650  1.00  0.00     0.134 C 
BRANCH  10  11
ATOM     11  C   UNL A   1      30.071  29.537  22.707  1.00  0.00     0.220 C 
ATOM     12  N   UNL A   1      30.671  30.102  21.622  1.00  0.00    -0.370 N 
ATOM     13  H   UNL A   1      30.796  31.078  21.580  1.00  0.00     0.159 HD
ATOM     14  H   UNL A   1      30.981  29.535  20.879  1.00  0.00     0.159 HD
ATOM     15  O   UNL A   1      29.712  30.218  23.659  1.00  0.00    -0.275 OA
ENDBRANCH  10  11
ENDBRANCH   9  10
BRANCH   9  16
ATOM     16  N   UNL A   1      31.308  27.965  24.729  1.00  0.00    -0.340 N 
ATOM     17  C   UNL A   1      31.345  27.447  25.993  1.00  0.00     0.252 C 
ATOM     18  H   UNL A   1      31.495  28.929  24.673  1.00  0.00     0.164 HD
ATOM     19  O   UNL A   1      31.330  28.216  26.949  1.00  0.00    -0.269 OA
BRANCH  17  20
ATOM     20  C   UNL A   1      31.375  26.004  26.170  1.00  0.00     0.051 A 
ATOM     21  C   UNL A   1      30.226  25.232  26.096  1.00  0.00     0.079 A 
ATOM     22  C   UNL A   1      32.505  25.195  26.535  1.00  0.00     0.041 A 
ATOM     23  S   UNL A   1      30.525  23.571  26.385  1.00  0.00    -0.136 S 
ATOM     24  C   UNL A   1      32.164  23.873  26.673  1.00  0.00     0.071 A 
ATOM     25  Br  UNL A   1      33.383  22.537  27.158  1.00  0.00    -0.039 Br
ENDBRANCH  17  20
ENDBRANCH   9  16
ENDBRANCH   6   9
ENDBRANCH   4   5
ENDBRANCH   3   4
ENDBRANCH   2   3
ENDBRANCH   1   2
BRANCH   1  26
ATOM     26  C   UNL A   1      35.843  21.475  24.517  1.00  0.00     0.021 C 
BRANCH  26  27
ATOM     27  C   UNL A   1      36.862  21.908  25.570  1.00  0.00     0.116 C 
BRANCH  27  28
ATOM     28  N   UNL A   1      37.887  20.914  25.818  1.00  0.00    -0.352 N 
ATOM     29  C   UNL A   1      39.187  21.089  26.229  1.00  0.00     0.251 C 
ATOM     30  H   UNL A   1      37.613  19.980  25.670  1.00  0.00     0.163 HD
ATOM     31  O   UNL A   1      39.933  20.115  26.288  1.00  0.00    -0.269 OA
BRANCH  29  32
ATOM     32  C   UNL A   1      39.704  22.439  26.562  1.00  0.00     0.039 A 
ATOM     33  C   UNL A   1      40.845  22.533  27.366  1.00  0.00     0.014 A 
ATOM     34  C   UNL A   1      39.066  23.604  26.126  1.00  0.00     0.014 A 
ATOM     35  C   UNL A   1      41.379  23.785  27.684  1.00  0.00     0.010 A 
ATOM     36  C   UNL A   1      39.620  24.853  26.411  1.00  0.00     0.010 A 
ATOM     37  C   UNL A   1      40.782  24.954  27.191  1.00  0.00    -0.014 A 
BRANCH  37  38
ATOM     38  C   UNL A   1      41.356  26.290  27.489  1.00  0.00     0.031 A 
ATOM     39  C   UNL A   1      42.728  26.650  26.992  1.00  0.00     0.074 A 
ATOM     40  C   UNL A   1      40.668  27.158  28.254  1.00  0.00     0.049 A 
ATOM     41  N   UNL A   1      43.440  27.721  27.230  1.00  0.00    -0.248 NA
ATOM     42  C   UNL A   1      43.392  25.660  26.132  1.00  0.00     0.031 C 
ATOM     43  C   UNL A   1      39.339  26.917  28.821  1.00  0.00     0.029 A 
ATOM     44  N   UNL A   1      40.999  28.411  28.700  1.00  0.00    -0.354 N 
ATOM     45  C   UNL A   1      44.646  27.530  26.565  1.00  0.00     0.074 A 
ATOM     46  C   UNL A   1      44.574  26.225  25.938  1.00  0.00     0.031 C 
ATOM     47  C   UNL A   1      38.968  27.991  29.539  1.00  0.00     0.029 A 
ATOM     48  C   UNL A   1      40.041  28.980  29.505  1.00  0.00     0.049 A 
ATOM     49  H   UNL A   1      41.844  28.861  28.467  1.00  0.00     0.167 HD
ATOM     50  C   UNL A   1      45.712  28.365  26.478  1.00  0.00     0.034 A 
ATOM     51  C   UNL A   1      40.034  30.161  30.153  1.00  0.00     0.034 A 
ATOM     52  C   UNL A   1      45.774  29.668  27.092  1.00  0.00     0.049 A 
ATOM     53  C   UNL A   1      41.217  31.080  30.028  1.00  0.00     0.074 A 
ATOM     54  C   UNL A   1      46.795  30.604  27.041  1.00  0.00     0.029 A 
ATOM     55  N   UNL A   1      44.768  30.224  27.871  1.00  0.00    -0.354 N 
ATOM     56  N   UNL A   1      42.349  30.883  29.395  1.00  0.00    -0.248 NA
ATOM     57  C   UNL A   1      41.115  32.381  30.701  1.00  0.00     0.031 C 
ATOM     58  C   UNL A   1      46.419  31.710  27.815  1.00  0.00     0.029 A 
ATOM     59  C   UNL A   1      45.148  31.482  28.316  1.00  0.00     0.049 A 
ATOM     60  H   UNL A   1      43.910  29.788  28.078  1.00  0.00     0.167 HD
ATOM     61  C   UNL A   1      43.091  32.043  29.583  1.00  0.00     0.074 A 
ATOM     62  C   UNL A   1      42.278  32.935  30.386  1.00  0.00     0.031 C 
ATOM     63  C   UNL A   1      44.332  32.348  29.128  1.00  0.00     0.034 A 
BRANCH  50  64
ATOM     64  C   UNL A   1      46.910  27.859  25.718  1.00  0.00     0.023 A 
ATOM     65  C   UNL A   1      47.105  28.176  24.363  1.00  0.00     0.031 A 
ATOM     66  C   UNL A   1      47.835  27.006  26.342  1.00  0.00     0.131 A 
ATOM     67  C   UNL A   1      48.161  27.584  23.655  1.00  0.00     0.055 A 
ATOM     68  C   UNL A   1      48.922  26.472  25.649  1.00  0.00     0.041 A 
ATOM     69  F   UNL A   1      47.682  26.657  27.629  1.00  0.00    -0.206 F 
ATOM     70  C   UNL A   1      49.083  26.749  24.294  1.00  0.00     0.022 A 
BRANCH  67  71
ATOM     71  S   UNL A   1      48.241  27.818  21.859  1.00  0.00     0.124 S 
ATOM     72  O   UNL A   1      48.525  26.460  21.399  1.00  0.00    -0.237 OA
ATOM     73  O   UNL A   1      46.913  28.334  21.548  1.00  0.00    -0.237 OA
ATOM     74  O   UNL A   1      49.335  28.770  21.686  1.00  0.00    -0.744 OA
ENDBRANCH  67  71
ENDBRANCH  50  64
BRANCH  51  75
ATOM     75  C   UNL A   1      38.877  30.533  31.005  1.00  0.00     0.023 A 
ATOM     76  C   UNL A   1      37.785  31.232  30.471  1.00  0.00     0.031 A 
ATOM     77  C   UNL A   1      38.862  30.208  32.371  1.00  0.00     0.131 A 
ATOM     78  C   UNL A   1      36.726  31.608  31.310  1.00  0.00     0.055 A 
ATOM     79  C   UNL A   1      37.797  30.565  33.197  1.00  0.00     0.041 A 
ATOM     80  F   UNL A   1      39.883  29.528  32.917  1.00  0.00    -0.206 F 
ATOM     81  C   UNL A   1      36.723  31.276  32.668  1.00  0.00     0.022 A 
BRANCH  78  82
ATOM     82  S   UNL A   1      35.361  32.572  30.606  1.00  0.00     0.124 S 
ATOM     83  O   UNL A   1      34.312  32.381  31.602  1.00  0.00    -0.237 OA
ATOM     84  O   UNL A   1      35.943  33.907  30.534  1.00  0.00    -0.237 OA
ATOM     85  O   UNL A   1      35.121  31.929  29.315  1.00  0.00    -0.744 OA
ENDBRANCH  78  82
ENDBRANCH  51  75
BRANCH  63  86
ATOM     86  C   UNL A   1      44.853  33.715  29.467  1.00  0.00     0.023 A 
ATOM     87  C   UNL A   1      44.554  34.831  28.667  1.00  0.00     0.031 A 
ATOM     88  C   UNL A   1      45.682  33.894  30.586  1.00  0.00     0.131 A 
ATOM     89  C   UNL A   1      45.114  36.078  28.979  1.00  0.00     0.055 A 
ATOM     90  C   UNL A   1      46.212  35.144  30.909  1.00  0.00     0.041 A 
ATOM     91  F   UNL A   1      45.997  32.855  31.375  1.00  0.00    -0.206 F 
ATOM     92  C   UNL A   1      45.936  36.243  30.099  1.00  0.00     0.022 A 
BRANCH  89  93
ATOM     93  S   UNL A   1      44.801  37.478  27.869  1.00  0.00     0.124 S 
ATOM     94  O   UNL A   1      43.859  36.906  26.913  1.00  0.00    -0.237 OA
ATOM     95  O   UNL A   1      44.257  38.482  28.778  1.00  0.00    -0.237 OA
ATOM     96  O   UNL A   1      46.122  37.789  27.326  1.00  0.00    -0.744 OA
ENDBRANCH  89  93
ENDBRANCH  63  86
ENDBRANCH  37  38
ENDBRANCH  29  32
ENDBRANCH  27  28
ENDBRANCH  26  27
ENDBRANCH   1  26
TORSDOF 20
ENDMDL
