MODEL 1
REMARK VINA RESULT:     -13.0      0.000      0.000
REMARK SMILES O=C(NCCCCCCNC(=O)[C@H](c1c[nH]c2cc(F)ccc12)[NH+]1CCN(c2ccccc2)CC1)c1ccc(-c2c3nc(c(-c4cc(S(=O)(=O)[O-])ccc4F)c4ccc([nH]4)c(-c4cc(S(=O)(=O)[O-])ccc4F)c4nc(c(-c5cc(S(=O)(=O)[O-])ccc5F)c5ccc2[nH]5)C=C4)C=C3)cc1
REMARK SMILES IDX 6 1 5 2 4 3 3 4 1 5 2 6 36 8 37 9 98 10 38 11 97 12 39 13
REMARK SMILES IDX 40 14 41 15 91 16 42 17 96 18 90 19 92 20 43 21 95 22 89 23
REMARK SMILES IDX 88 24 44 26 76 27 56 28 75 29 57 30 60 31 74 32 93 33 58 34
REMARK SMILES IDX 59 35 73 37 94 38 61 39 45 40 46 41 54 42 47 43 53 44 55 45
REMARK SMILES IDX 52 46 48 47 49 48 50 49 51 50 77 51 78 52 86 53 79 54 85 55
REMARK SMILES IDX 87 56 84 57 80 58 81 59 82 60 83 61 62 62 63 63 71 64 64 65
REMARK SMILES IDX 70 66 72 67 69 68 65 69 66 70 67 71 68 72 7 73 8 74 9 75
REMARK SMILES IDX 10 76 11 77 12 79 13 80 24 81 25 82 35 83 26 85 34 86 27 87
REMARK SMILES IDX 28 88 29 89 33 90 30 91 32 92 31 93 14 94 15 95 23 96 16 97
REMARK SMILES IDX 17 98 22 99 18 101 21 102 19 103 20 104
REMARK H PARENT 3 7 92 25 60 36 10 78 24 84 16 100
REMARK Flexibility Score: inf
ROOT
ATOM      1  C   UNL A   1      31.509  30.692  26.110  1.00  0.00     0.002 C 
ENDROOT
BRANCH   1   2
ATOM      2  C   UNL A   1      31.480  32.079  26.757  1.00  0.00     0.021 C 
BRANCH   2   3
ATOM      3  C   UNL A   1      32.840  32.656  27.132  1.00  0.00     0.116 C 
BRANCH   3   4
ATOM      4  N   UNL A   1      32.753  34.021  27.622  1.00  0.00    -0.352 N 
ATOM      5  O   UNL A   1      33.129  35.753  29.012  1.00  0.00    -0.269 OA
ATOM      6  C   UNL A   1      33.444  34.624  28.645  1.00  0.00     0.251 C 
ATOM      7  H   UNL A   1      32.107  34.597  27.154  1.00  0.00     0.163 HD
BRANCH   6   8
ATOM      8  C   UNL A   1      34.551  33.907  29.315  1.00  0.00     0.039 A 
ATOM      9  C   UNL A   1      34.291  32.900  30.249  1.00  0.00     0.014 A 
ATOM     10  C   UNL A   1      35.871  34.239  28.994  1.00  0.00     0.014 A 
ATOM     11  C   UNL A   1      35.341  32.325  30.955  1.00  0.00     0.010 A 
ATOM     12  C   UNL A   1      36.928  33.599  29.648  1.00  0.00     0.010 A 
ATOM     13  C   UNL A   1      36.672  32.658  30.656  1.00  0.00    -0.014 A 
BRANCH  13  14
ATOM     14  C   UNL A   1      37.773  31.970  31.379  1.00  0.00     0.031 A 
ATOM     15  C   UNL A   1      38.585  30.893  30.714  1.00  0.00     0.074 A 
ATOM     16  C   UNL A   1      38.059  32.354  32.639  1.00  0.00     0.049 A 
ATOM     17  N   UNL A   1      39.604  30.218  31.183  1.00  0.00    -0.248 NA
ATOM     18  C   UNL A   1      38.195  30.516  29.347  1.00  0.00     0.031 C 
ATOM     19  C   UNL A   1      37.331  33.382  33.387  1.00  0.00     0.029 A 
ATOM     20  N   UNL A   1      39.043  31.950  33.503  1.00  0.00    -0.354 N 
ATOM     21  C   UNL A   1      39.968  29.324  30.181  1.00  0.00     0.074 A 
ATOM     22  C   UNL A   1      39.034  29.522  29.091  1.00  0.00     0.031 C 
ATOM     23  C   UNL A   1      37.929  33.570  34.572  1.00  0.00     0.029 A 
ATOM     24  C   UNL A   1      39.038  32.633  34.697  1.00  0.00     0.049 A 
ATOM     25  H   UNL A   1      39.692  31.241  33.290  1.00  0.00     0.167 HD
ATOM     26  C   UNL A   1      40.990  28.431  30.170  1.00  0.00     0.034 A 
ATOM     27  C   UNL A   1      39.831  32.512  35.778  1.00  0.00     0.034 A 
ATOM     28  C   UNL A   1      41.912  28.251  31.268  1.00  0.00     0.049 A 
ATOM     29  C   UNL A   1      40.936  31.491  35.753  1.00  0.00     0.074 A 
ATOM     30  C   UNL A   1      43.004  27.402  31.349  1.00  0.00     0.029 A 
ATOM     31  N   UNL A   1      41.846  28.923  32.484  1.00  0.00    -0.354 N 
ATOM     32  N   UNL A   1      41.280  30.671  34.787  1.00  0.00    -0.248 NA
ATOM     33  C   UNL A   1      41.757  31.382  36.964  1.00  0.00     0.031 C 
ATOM     34  C   UNL A   1      43.555  27.513  32.633  1.00  0.00     0.029 A 
ATOM     35  C   UNL A   1      42.855  28.484  33.330  1.00  0.00     0.049 A 
ATOM     36  H   UNL A   1      41.179  29.611  32.711  1.00  0.00     0.167 HD
ATOM     37  C   UNL A   1      42.375  29.961  35.269  1.00  0.00     0.074 A 
ATOM     38  C   UNL A   1      42.644  30.467  36.601  1.00  0.00     0.031 C 
ATOM     39  C   UNL A   1      43.096  28.982  34.665  1.00  0.00     0.034 A 
BRANCH  26  40
ATOM     40  C   UNL A   1      41.127  27.547  28.951  1.00  0.00     0.023 A 
ATOM     41  C   UNL A   1      42.119  27.770  27.978  1.00  0.00     0.031 A 
ATOM     42  C   UNL A   1      40.230  26.485  28.739  1.00  0.00     0.131 A 
ATOM     43  C   UNL A   1      42.142  26.997  26.807  1.00  0.00     0.055 A 
ATOM     44  C   UNL A   1      40.307  25.667  27.609  1.00  0.00     0.041 A 
ATOM     45  F   UNL A   1      39.250  26.232  29.620  1.00  0.00    -0.206 F 
ATOM     46  C   UNL A   1      41.257  25.931  26.627  1.00  0.00     0.022 A 
BRANCH  43  47
ATOM     47  S   UNL A   1      43.244  27.500  25.456  1.00  0.00     0.124 S 
ATOM     48  O   UNL A   1      44.218  28.332  26.159  1.00  0.00    -0.237 OA
ATOM     49  O   UNL A   1      43.740  26.222  24.959  1.00  0.00    -0.237 OA
ATOM     50  O   UNL A   1      42.362  28.225  24.544  1.00  0.00    -0.744 OA
ENDBRANCH  43  47
ENDBRANCH  26  40
BRANCH  27  51
ATOM     51  C   UNL A   1      39.600  33.365  36.977  1.00  0.00     0.023 A 
ATOM     52  C   UNL A   1      40.369  34.518  37.202  1.00  0.00     0.031 A 
ATOM     53  C   UNL A   1      38.617  33.030  37.925  1.00  0.00     0.131 A 
ATOM     54  C   UNL A   1      40.165  35.275  38.367  1.00  0.00     0.055 A 
ATOM     55  C   UNL A   1      38.385  33.813  39.055  1.00  0.00     0.041 A 
ATOM     56  F   UNL A   1      37.852  31.940  37.753  1.00  0.00    -0.206 F 
ATOM     57  C   UNL A   1      39.169  34.939  39.287  1.00  0.00     0.022 A 
BRANCH  54  58
ATOM     58  S   UNL A   1      41.272  36.674  38.696  1.00  0.00     0.124 S 
ATOM     59  O   UNL A   1      41.920  36.851  37.402  1.00  0.00    -0.237 OA
ATOM     60  O   UNL A   1      40.330  37.716  39.091  1.00  0.00    -0.237 OA
ATOM     61  O   UNL A   1      42.135  36.179  39.766  1.00  0.00    -0.744 OA
ENDBRANCH  54  58
ENDBRANCH  27  51
BRANCH  39  62
ATOM     62  C   UNL A   1      44.264  28.428  35.443  1.00  0.00     0.023 A 
ATOM     63  C   UNL A   1      44.102  27.393  36.381  1.00  0.00     0.031 A 
ATOM     64  C   UNL A   1      45.548  28.974  35.274  1.00  0.00     0.131 A 
ATOM     65  C   UNL A   1      45.191  26.982  37.162  1.00  0.00     0.055 A 
ATOM     66  C   UNL A   1      46.643  28.518  36.011  1.00  0.00     0.041 A 
ATOM     67  F   UNL A   1      45.759  29.965  34.395  1.00  0.00    -0.206 F 
ATOM     68  C   UNL A   1      46.464  27.527  36.973  1.00  0.00     0.022 A 
BRANCH  65  69
ATOM     69  S   UNL A   1      44.902  25.798  38.506  1.00  0.00     0.124 S 
ATOM     70  O   UNL A   1      44.034  26.559  39.399  1.00  0.00    -0.237 OA
ATOM     71  O   UNL A   1      44.275  24.680  37.808  1.00  0.00    -0.237 OA
ATOM     72  O   UNL A   1      46.243  25.532  39.024  1.00  0.00    -0.744 OA
ENDBRANCH  65  69
ENDBRANCH  39  62
ENDBRANCH  13  14
ENDBRANCH   6   8
ENDBRANCH   3   4
ENDBRANCH   2   3
ENDBRANCH   1   2
BRANCH   1  73
ATOM     73  C   UNL A   1      32.009  29.541  26.992  1.00  0.00     0.002 C 
BRANCH  73  74
ATOM     74  C   UNL A   1      33.166  28.715  26.427  1.00  0.00     0.021 C 
BRANCH  74  75
ATOM     75  C   UNL A   1      33.044  27.212  26.638  1.00  0.00     0.116 C 
BRANCH  75  76
ATOM     76  N   UNL A   1      31.697  26.779  26.926  1.00  0.00    -0.351 N 
ATOM     77  C   UNL A   1      30.882  25.959  26.192  1.00  0.00     0.283 C 
ATOM     78  H   UNL A   1      31.311  27.119  27.766  1.00  0.00     0.163 HD
ATOM     79  O   UNL A   1      29.804  25.643  26.717  1.00  0.00    -0.268 OA
BRANCH  77  80
ATOM     80  C   UNL A   1      31.247  25.436  24.770  1.00  0.00     0.307 C 
BRANCH  80  81
ATOM     81  N   UNL A   1      30.481  24.197  24.443  1.00  0.00    -0.318 N 
ATOM     82  C   UNL A   1      30.721  23.549  23.136  1.00  0.00     0.284 C 
ATOM     83  C   UNL A   1      30.619  23.161  25.500  1.00  0.00     0.284 C 
ATOM     84  H   UNL A   1      29.534  24.573  24.385  1.00  0.00     0.349 HD
ATOM     85  C   UNL A   1      32.033  22.758  22.990  1.00  0.00     0.178 C 
ATOM     86  C   UNL A   1      31.917  22.308  25.444  1.00  0.00     0.178 C 
ATOM     87  N   UNL A   1      32.153  21.807  24.091  1.00  0.00    -0.360 N 
BRANCH  87  88
ATOM     88  C   UNL A   1      32.632  20.547  23.815  1.00  0.00     0.037 A 
ATOM     89  C   UNL A   1      32.128  19.796  22.742  1.00  0.00     0.026 A 
ATOM     90  C   UNL A   1      33.546  19.925  24.673  1.00  0.00     0.026 A 
ATOM     91  C   UNL A   1      32.483  18.459  22.556  1.00  0.00     0.002 A 
ATOM     92  C   UNL A   1      33.894  18.582  24.503  1.00  0.00     0.002 A 
ATOM     93  C   UNL A   1      33.356  17.847  23.449  1.00  0.00     0.000 A 
ENDBRANCH  87  88
ENDBRANCH  80  81
BRANCH  80  94
ATOM     94  C   UNL A   1      31.278  26.527  23.716  1.00  0.00     0.044 A 
ATOM     95  C   UNL A   1      32.339  26.999  22.960  1.00  0.00     0.094 A 
ATOM     96  C   UNL A   1      30.140  27.329  23.329  1.00  0.00     0.009 A 
ATOM     97  N   UNL A   1      31.924  28.079  22.226  1.00  0.00    -0.361 N 
ATOM     98  C   UNL A   1      30.589  28.309  22.442  1.00  0.00     0.049 A 
ATOM     99  C   UNL A   1      28.774  27.337  23.695  1.00  0.00     0.014 A 
ATOM    100  H   UNL A   1      32.500  28.611  21.630  1.00  0.00     0.166 HD
ATOM    101  C   UNL A   1      29.758  29.313  21.931  1.00  0.00     0.065 A 
ATOM    102  C   UNL A   1      27.926  28.326  23.186  1.00  0.00     0.040 A 
ATOM    103  C   UNL A   1      28.422  29.295  22.327  1.00  0.00     0.125 A 
ATOM    104  F   UNL A   1      27.594  30.242  21.866  1.00  0.00    -0.207 F 
ENDBRANCH  80  94
ENDBRANCH  77  80
ENDBRANCH  75  76
ENDBRANCH  74  75
ENDBRANCH  73  74
ENDBRANCH   1  73
TORSDOF 19
ENDMDL
MODEL 2
REMARK VINA RESULT:     -12.9      1.238      7.313
REMARK SMILES O=C(NCCCCCCNC(=O)[C@H](c1c[nH]c2cc(F)ccc12)[NH+]1CCN(c2ccccc2)CC1)c1ccc(-c2c3nc(c(-c4cc(S(=O)(=O)[O-])ccc4F)c4ccc([nH]4)c(-c4cc(S(=O)(=O)[O-])ccc4F)c4nc(c(-c5cc(S(=O)(=O)[O-])ccc5F)c5ccc2[nH]5)C=C4)C=C3)cc1
REMARK SMILES IDX 6 1 5 2 4 3 3 4 1 5 2 6 36 8 37 9 98 10 38 11 97 12 39 13
REMARK SMILES IDX 40 14 41 15 91 16 42 17 96 18 90 19 92 20 43 21 95 22 89 23
REMARK SMILES IDX 88 24 44 26 76 27 56 28 75 29 57 30 60 31 74 32 93 33 58 34
REMARK SMILES IDX 59 35 73 37 94 38 61 39 45 40 46 41 54 42 47 43 53 44 55 45
REMARK SMILES IDX 52 46 48 47 49 48 50 49 51 50 77 51 78 52 86 53 79 54 85 55
REMARK SMILES IDX 87 56 84 57 80 58 81 59 82 60 83 61 62 62 63 63 71 64 64 65
REMARK SMILES IDX 70 66 72 67 69 68 65 69 66 70 67 71 68 72 7 73 8 74 9 75
REMARK SMILES IDX 10 76 11 77 12 79 13 80 24 81 25 82 35 83 26 85 34 86 27 87
REMARK SMILES IDX 28 88 29 89 33 90 30 91 32 92 31 93 14 94 15 95 23 96 16 97
REMARK SMILES IDX 17 98 22 99 18 101 21 102 19 103 20 104
REMARK H PARENT 3 7 92 25 60 36 10 78 24 84 16 100
REMARK Flexibility Score: inf
ROOT
ATOM      1  C   UNL A   1      31.651  30.536  26.025  1.00  0.00     0.002 C 
ENDROOT
BRANCH   1   2
ATOM      2  C   UNL A   1      31.503  31.940  26.618  1.00  0.00     0.021 C 
BRANCH   2   3
ATOM      3  C   UNL A   1      32.763  32.522  27.247  1.00  0.00     0.116 C 
BRANCH   3   4
ATOM      4  N   UNL A   1      32.593  33.901  27.670  1.00  0.00    -0.352 N 
ATOM      5  O   UNL A   1      32.877  35.725  28.962  1.00  0.00    -0.269 OA
ATOM      6  C   UNL A   1      33.262  34.602  28.644  1.00  0.00     0.251 C 
ATOM      7  H   UNL A   1      31.898  34.407  27.190  1.00  0.00     0.163 HD
BRANCH   6   8
ATOM      8  C   UNL A   1      34.430  33.997  29.322  1.00  0.00     0.039 A 
ATOM      9  C   UNL A   1      35.731  34.340  28.949  1.00  0.00     0.014 A 
ATOM     10  C   UNL A   1      34.217  33.081  30.357  1.00  0.00     0.014 A 
ATOM     11  C   UNL A   1      36.812  33.672  29.513  1.00  0.00     0.010 A 
ATOM     12  C   UNL A   1      35.309  32.471  30.980  1.00  0.00     0.010 A 
ATOM     13  C   UNL A   1      36.615  32.738  30.544  1.00  0.00    -0.014 A 
BRANCH  13  14
ATOM     14  C   UNL A   1      37.797  32.096  31.177  1.00  0.00     0.031 A 
ATOM     15  C   UNL A   1      38.273  32.518  32.540  1.00  0.00     0.074 A 
ATOM     16  C   UNL A   1      38.418  31.096  30.521  1.00  0.00     0.049 A 
ATOM     17  N   UNL A   1      39.259  32.039  33.255  1.00  0.00    -0.248 NA
ATOM     18  C   UNL A   1      37.555  33.631  33.178  1.00  0.00     0.031 C 
ATOM     19  C   UNL A   1      38.047  30.610  29.190  1.00  0.00     0.029 A 
ATOM     20  N   UNL A   1      39.468  30.294  30.885  1.00  0.00    -0.354 N 
ATOM     21  C   UNL A   1      39.296  32.800  34.419  1.00  0.00     0.074 A 
ATOM     22  C   UNL A   1      38.251  33.796  34.294  1.00  0.00     0.031 C 
ATOM     23  C   UNL A   1      38.817  29.558  28.875  1.00  0.00     0.029 A 
ATOM     24  C   UNL A   1      39.777  29.336  29.949  1.00  0.00     0.049 A 
ATOM     25  H   UNL A   1      39.954  30.394  31.737  1.00  0.00     0.167 HD
ATOM     26  C   UNL A   1      40.118  32.672  35.491  1.00  0.00     0.034 A 
ATOM     27  C   UNL A   1      40.736  28.390  29.948  1.00  0.00     0.034 A 
ATOM     28  C   UNL A   1      41.153  31.669  35.596  1.00  0.00     0.049 A 
ATOM     29  C   UNL A   1      41.655  28.291  31.135  1.00  0.00     0.074 A 
ATOM     30  C   UNL A   1      42.018  31.426  36.651  1.00  0.00     0.029 A 
ATOM     31  N   UNL A   1      41.473  30.746  34.606  1.00  0.00    -0.354 N 
ATOM     32  N   UNL A   1      41.659  29.004  32.237  1.00  0.00    -0.248 NA
ATOM     33  C   UNL A   1      42.695  27.259  31.075  1.00  0.00     0.031 C 
ATOM     34  C   UNL A   1      42.899  30.405  36.272  1.00  0.00     0.029 A 
ATOM     35  C   UNL A   1      42.541  29.959  35.011  1.00  0.00     0.049 A 
ATOM     36  H   UNL A   1      41.009  30.666  33.741  1.00  0.00     0.167 HD
ATOM     37  C   UNL A   1      42.693  28.490  33.013  1.00  0.00     0.074 A 
ATOM     38  C   UNL A   1      43.272  27.395  32.259  1.00  0.00     0.031 C 
ATOM     39  C   UNL A   1      43.124  28.885  34.238  1.00  0.00     0.034 A 
BRANCH  26  40
ATOM     40  C   UNL A   1      39.960  33.676  36.611  1.00  0.00     0.023 A 
ATOM     41  C   UNL A   1      40.874  34.729  36.801  1.00  0.00     0.031 A 
ATOM     42  C   UNL A   1      38.898  33.559  37.525  1.00  0.00     0.131 A 
ATOM     43  C   UNL A   1      40.754  35.571  37.917  1.00  0.00     0.055 A 
ATOM     44  C   UNL A   1      38.738  34.449  38.590  1.00  0.00     0.041 A 
ATOM     45  F   UNL A   1      38.004  32.564  37.410  1.00  0.00    -0.206 F 
ATOM     46  C   UNL A   1      39.678  35.454  38.800  1.00  0.00     0.022 A 
BRANCH  43  47
ATOM     47  S   UNL A   1      42.107  36.725  38.283  1.00  0.00     0.124 S 
ATOM     48  O   UNL A   1      43.027  35.877  39.038  1.00  0.00    -0.237 OA
ATOM     49  O   UNL A   1      42.553  37.121  36.953  1.00  0.00    -0.237 OA
ATOM     50  O   UNL A   1      41.460  37.777  39.064  1.00  0.00    -0.744 OA
ENDBRANCH  43  47
ENDBRANCH  26  40
BRANCH  27  51
ATOM     51  C   UNL A   1      40.884  27.475  28.781  1.00  0.00     0.023 A 
ATOM     52  C   UNL A   1      41.884  27.688  27.820  1.00  0.00     0.031 A 
ATOM     53  C   UNL A   1      40.015  26.384  28.602  1.00  0.00     0.131 A 
ATOM     54  C   UNL A   1      41.968  26.842  26.703  1.00  0.00     0.055 A 
ATOM     55  C   UNL A   1      40.135  25.516  27.517  1.00  0.00     0.041 A 
ATOM     56  F   UNL A   1      39.045  26.134  29.497  1.00  0.00    -0.206 F 
ATOM     57  C   UNL A   1      41.110  25.749  26.552  1.00  0.00     0.022 A 
BRANCH  54  58
ATOM     58  S   UNL A   1      43.178  27.232  25.409  1.00  0.00     0.124 S 
ATOM     59  O   UNL A   1      42.420  28.137  24.555  1.00  0.00    -0.237 OA
ATOM     60  O   UNL A   1      44.261  27.834  26.181  1.00  0.00    -0.237 OA
ATOM     61  O   UNL A   1      43.483  25.927  24.825  1.00  0.00    -0.744 OA
ENDBRANCH  54  58
ENDBRANCH  27  51
BRANCH  39  62
ATOM     62  C   UNL A   1      44.257  28.094  34.842  1.00  0.00     0.023 A 
ATOM     63  C   UNL A   1      44.023  26.957  35.635  1.00  0.00     0.031 A 
ATOM     64  C   UNL A   1      45.587  28.509  34.655  1.00  0.00     0.131 A 
ATOM     65  C   UNL A   1      45.096  26.313  36.269  1.00  0.00     0.055 A 
ATOM     66  C   UNL A   1      46.658  27.828  35.238  1.00  0.00     0.041 A 
ATOM     67  F   UNL A   1      45.868  29.589  33.910  1.00  0.00    -0.206 F 
ATOM     68  C   UNL A   1      46.413  26.732  36.063  1.00  0.00     0.022 A 
BRANCH  65  69
ATOM     69  S   UNL A   1      44.741  24.985  37.452  1.00  0.00     0.124 S 
ATOM     70  O   UNL A   1      43.292  25.088  37.597  1.00  0.00    -0.237 OA
ATOM     71  O   UNL A   1      45.227  23.803  36.748  1.00  0.00    -0.237 OA
ATOM     72  O   UNL A   1      45.512  25.364  38.635  1.00  0.00    -0.744 OA
ENDBRANCH  65  69
ENDBRANCH  39  62
ENDBRANCH  13  14
ENDBRANCH   6   8
ENDBRANCH   3   4
ENDBRANCH   2   3
ENDBRANCH   1   2
BRANCH   1  73
ATOM     73  C   UNL A   1      31.770  29.384  27.030  1.00  0.00     0.002 C 
BRANCH  73  74
ATOM     74  C   UNL A   1      33.024  28.516  26.911  1.00  0.00     0.021 C 
BRANCH  74  75
ATOM     75  C   UNL A   1      32.795  27.136  26.312  1.00  0.00     0.116 C 
BRANCH  75  76
ATOM     76  N   UNL A   1      31.577  26.507  26.764  1.00  0.00    -0.351 N 
ATOM     77  C   UNL A   1      30.562  25.965  26.021  1.00  0.00     0.283 C 
ATOM     78  H   UNL A   1      31.459  26.461  27.741  1.00  0.00     0.163 HD
ATOM     79  O   UNL A   1      29.672  25.376  26.654  1.00  0.00    -0.268 OA
BRANCH  77  80
ATOM     80  C   UNL A   1      30.486  26.067  24.468  1.00  0.00     0.307 C 
BRANCH  80  81
ATOM     81  N   UNL A   1      30.689  24.731  23.833  1.00  0.00    -0.318 N 
ATOM     82  C   UNL A   1      31.686  24.615  22.749  1.00  0.00     0.284 C 
ATOM     83  C   UNL A   1      30.980  23.675  24.839  1.00  0.00     0.284 C 
ATOM     84  H   UNL A   1      29.784  24.600  23.380  1.00  0.00     0.349 HD
ATOM     85  C   UNL A   1      33.166  24.623  23.170  1.00  0.00     0.178 C 
ATOM     86  C   UNL A   1      32.452  23.603  25.334  1.00  0.00     0.178 C 
ATOM     87  N   UNL A   1      33.383  23.619  24.207  1.00  0.00    -0.360 N 
BRANCH  87  88
ATOM     88  C   UNL A   1      34.528  22.859  24.150  1.00  0.00     0.037 A 
ATOM     89  C   UNL A   1      34.681  21.712  24.943  1.00  0.00     0.026 A 
ATOM     90  C   UNL A   1      35.627  23.279  23.393  1.00  0.00     0.026 A 
ATOM     91  C   UNL A   1      35.899  21.033  25.018  1.00  0.00     0.002 A 
ATOM     92  C   UNL A   1      36.855  22.614  23.475  1.00  0.00     0.002 A 
ATOM     93  C   UNL A   1      36.991  21.496  24.294  1.00  0.00     0.000 A 
ENDBRANCH  87  88
ENDBRANCH  80  81
BRANCH  80  94
ATOM     94  C   UNL A   1      29.314  26.895  23.975  1.00  0.00     0.044 A 
ATOM     95  C   UNL A   1      27.953  26.656  24.079  1.00  0.00     0.094 A 
ATOM     96  C   UNL A   1      29.433  28.131  23.238  1.00  0.00     0.009 A 
ATOM     97  N   UNL A   1      27.271  27.615  23.378  1.00  0.00    -0.361 N 
ATOM     98  C   UNL A   1      28.152  28.520  22.843  1.00  0.00     0.049 A 
ATOM     99  C   UNL A   1      30.527  28.929  22.828  1.00  0.00     0.014 A 
ATOM    100  H   UNL A   1      26.293  27.648  23.272  1.00  0.00     0.166 HD
ATOM    101  C   UNL A   1      27.909  29.638  22.037  1.00  0.00     0.065 A 
ATOM    102  C   UNL A   1      30.303  30.056  22.031  1.00  0.00     0.040 A 
ATOM    103  C   UNL A   1      29.014  30.390  21.642  1.00  0.00     0.125 A 
ATOM    104  F   UNL A   1      28.827  31.464  20.864  1.00  0.00    -0.207 F 
ENDBRANCH  80  94
ENDBRANCH  77  80
ENDBRANCH  75  76
ENDBRANCH  74  75
ENDBRANCH  73  74
ENDBRANCH   1  73
TORSDOF 19
ENDMDL
MODEL 3
REMARK VINA RESULT:     -12.8      1.893      7.447
REMARK SMILES O=C(NCCCCCCNC(=O)[C@H](c1c[nH]c2cc(F)ccc12)[NH+]1CCN(c2ccccc2)CC1)c1ccc(-c2c3nc(c(-c4cc(S(=O)(=O)[O-])ccc4F)c4ccc([nH]4)c(-c4cc(S(=O)(=O)[O-])ccc4F)c4nc(c(-c5cc(S(=O)(=O)[O-])ccc5F)c5ccc2[nH]5)C=C4)C=C3)cc1
REMARK SMILES IDX 6 1 5 2 4 3 3 4 1 5 2 6 36 8 37 9 98 10 38 11 97 12 39 13
REMARK SMILES IDX 40 14 41 15 91 16 42 17 96 18 90 19 92 20 43 21 95 22 89 23
REMARK SMILES IDX 88 24 44 26 76 27 56 28 75 29 57 30 60 31 74 32 93 33 58 34
REMARK SMILES IDX 59 35 73 37 94 38 61 39 45 40 46 41 54 42 47 43 53 44 55 45
REMARK SMILES IDX 52 46 48 47 49 48 50 49 51 50 77 51 78 52 86 53 79 54 85 55
REMARK SMILES IDX 87 56 84 57 80 58 81 59 82 60 83 61 62 62 63 63 71 64 64 65
REMARK SMILES IDX 70 66 72 67 69 68 65 69 66 70 67 71 68 72 7 73 8 74 9 75
REMARK SMILES IDX 10 76 11 77 12 79 13 80 24 81 25 82 35 83 26 85 34 86 27 87
REMARK SMILES IDX 28 88 29 89 33 90 30 91 32 92 31 93 14 94 15 95 23 96 16 97
REMARK SMILES IDX 17 98 22 99 18 101 21 102 19 103 20 104
REMARK H PARENT 3 7 92 25 60 36 10 78 24 84 16 100
REMARK Flexibility Score: inf
ROOT
ATOM      1  C   UNL A   1      31.396  30.255  25.663  1.00  0.00     0.002 C 
ENDROOT
BRANCH   1   2
ATOM      2  C   UNL A   1      31.330  31.678  26.227  1.00  0.00     0.021 C 
BRANCH   2   3
ATOM      3  C   UNL A   1      32.612  32.187  26.873  1.00  0.00     0.116 C 
BRANCH   3   4
ATOM      4  N   UNL A   1      32.486  33.544  27.376  1.00  0.00    -0.352 N 
ATOM      5  O   UNL A   1      32.866  35.294  28.743  1.00  0.00    -0.269 OA
ATOM      6  C   UNL A   1      33.216  34.184  28.347  1.00  0.00     0.251 C 
ATOM      7  H   UNL A   1      31.775  34.083  26.960  1.00  0.00     0.163 HD
BRANCH   6   8
ATOM      8  C   UNL A   1      34.409  33.531  28.929  1.00  0.00     0.039 A 
ATOM      9  C   UNL A   1      34.296  32.327  29.629  1.00  0.00     0.014 A 
ATOM     10  C   UNL A   1      35.662  34.127  28.761  1.00  0.00     0.014 A 
ATOM     11  C   UNL A   1      35.407  31.793  30.271  1.00  0.00     0.010 A 
ATOM     12  C   UNL A   1      36.793  33.543  29.340  1.00  0.00     0.010 A 
ATOM     13  C   UNL A   1      36.672  32.388  30.125  1.00  0.00    -0.014 A 
BRANCH  13  14
ATOM     14  C   UNL A   1      37.852  31.750  30.764  1.00  0.00     0.031 A 
ATOM     15  C   UNL A   1      38.208  32.035  32.197  1.00  0.00     0.074 A 
ATOM     16  C   UNL A   1      38.584  30.877  30.044  1.00  0.00     0.049 A 
ATOM     17  N   UNL A   1      39.178  31.537  32.922  1.00  0.00    -0.248 NA
ATOM     18  C   UNL A   1      37.374  33.016  32.905  1.00  0.00     0.031 C 
ATOM     19  C   UNL A   1      38.336  30.532  28.642  1.00  0.00     0.029 A 
ATOM     20  N   UNL A   1      39.663  30.106  30.389  1.00  0.00    -0.354 N 
ATOM     21  C   UNL A   1      39.085  32.154  34.165  1.00  0.00     0.074 A 
ATOM     22  C   UNL A   1      37.983  33.090  34.081  1.00  0.00     0.031 C 
ATOM     23  C   UNL A   1      39.197  29.575  28.265  1.00  0.00     0.029 A 
ATOM     24  C   UNL A   1      40.099  29.288  29.373  1.00  0.00     0.049 A 
ATOM     25  H   UNL A   1      40.084  30.133  31.279  1.00  0.00     0.167 HD
ATOM     26  C   UNL A   1      39.843  31.951  35.273  1.00  0.00     0.034 A 
ATOM     27  C   UNL A   1      41.121  28.410  29.332  1.00  0.00     0.034 A 
ATOM     28  C   UNL A   1      40.938  31.009  35.336  1.00  0.00     0.049 A 
ATOM     29  C   UNL A   1      41.966  28.228  30.564  1.00  0.00     0.074 A 
ATOM     30  C   UNL A   1      41.748  30.697  36.416  1.00  0.00     0.029 A 
ATOM     31  N   UNL A   1      41.386  30.234  34.272  1.00  0.00    -0.354 N 
ATOM     32  N   UNL A   1      41.848  28.803  31.738  1.00  0.00    -0.248 NA
ATOM     33  C   UNL A   1      43.079  27.278  30.461  1.00  0.00     0.031 C 
ATOM     34  C   UNL A   1      42.723  29.787  35.987  1.00  0.00     0.029 A 
ATOM     35  C   UNL A   1      42.479  29.472  34.660  1.00  0.00     0.049 A 
ATOM     36  H   UNL A   1      40.986  30.229  33.372  1.00  0.00     0.167 HD
ATOM     37  C   UNL A   1      42.864  28.266  32.522  1.00  0.00     0.074 A 
ATOM     38  C   UNL A   1      43.567  27.308  31.692  1.00  0.00     0.031 C 
ATOM     39  C   UNL A   1      43.185  28.538  33.813  1.00  0.00     0.034 A 
BRANCH  26  40
ATOM     40  C   UNL A   1      39.542  32.802  36.486  1.00  0.00     0.023 A 
ATOM     41  C   UNL A   1      38.732  32.337  37.538  1.00  0.00     0.031 A 
ATOM     42  C   UNL A   1      40.045  34.112  36.577  1.00  0.00     0.131 A 
ATOM     43  C   UNL A   1      38.387  33.197  38.592  1.00  0.00     0.055 A 
ATOM     44  C   UNL A   1      39.763  34.937  37.668  1.00  0.00     0.041 A 
ATOM     45  F   UNL A   1      40.808  34.621  35.597  1.00  0.00    -0.206 F 
ATOM     46  C   UNL A   1      38.916  34.486  38.676  1.00  0.00     0.022 A 
BRANCH  43  47
ATOM     47  S   UNL A   1      37.115  32.658  39.770  1.00  0.00     0.124 S 
ATOM     48  O   UNL A   1      37.305  33.603  40.868  1.00  0.00    -0.237 OA
ATOM     49  O   UNL A   1      35.886  32.812  39.002  1.00  0.00    -0.237 OA
ATOM     50  O   UNL A   1      37.491  31.280  40.076  1.00  0.00    -0.744 OA
ENDBRANCH  43  47
ENDBRANCH  26  40
BRANCH  27  51
ATOM     51  C   UNL A   1      41.409  27.653  28.082  1.00  0.00     0.023 A 
ATOM     52  C   UNL A   1      41.115  26.284  27.983  1.00  0.00     0.031 A 
ATOM     53  C   UNL A   1      42.000  28.285  26.974  1.00  0.00     0.131 A 
ATOM     54  C   UNL A   1      41.445  25.584  26.813  1.00  0.00     0.055 A 
ATOM     55  C   UNL A   1      42.280  27.595  25.795  1.00  0.00     0.041 A 
ATOM     56  F   UNL A   1      42.296  29.594  27.017  1.00  0.00    -0.206 F 
ATOM     57  C   UNL A   1      42.012  26.232  25.713  1.00  0.00     0.022 A 
BRANCH  54  58
ATOM     58  S   UNL A   1      41.183  23.789  26.774  1.00  0.00     0.124 S 
ATOM     59  O   UNL A   1      39.745  23.703  26.551  1.00  0.00    -0.237 OA
ATOM     60  O   UNL A   1      42.031  23.385  25.657  1.00  0.00    -0.237 OA
ATOM     61  O   UNL A   1      41.640  23.350  28.090  1.00  0.00    -0.744 OA
ENDBRANCH  54  58
ENDBRANCH  27  51
BRANCH  39  62
ATOM     62  C   UNL A   1      44.331  27.753  34.402  1.00  0.00     0.023 A 
ATOM     63  C   UNL A   1      44.147  26.463  34.931  1.00  0.00     0.031 A 
ATOM     64  C   UNL A   1      45.615  28.322  34.474  1.00  0.00     0.131 A 
ATOM     65  C   UNL A   1      45.212  25.811  35.569  1.00  0.00     0.055 A 
ATOM     66  C   UNL A   1      46.687  27.642  35.055  1.00  0.00     0.041 A 
ATOM     67  F   UNL A   1      45.846  29.551  33.988  1.00  0.00    -0.206 F 
ATOM     68  C   UNL A   1      46.485  26.386  35.621  1.00  0.00     0.022 A 
BRANCH  65  69
ATOM     69  S   UNL A   1      44.888  24.245  36.425  1.00  0.00     0.124 S 
ATOM     70  O   UNL A   1      44.374  24.704  37.712  1.00  0.00    -0.237 OA
ATOM     71  O   UNL A   1      43.918  23.603  35.544  1.00  0.00    -0.237 OA
ATOM     72  O   UNL A   1      46.201  23.603  36.474  1.00  0.00    -0.744 OA
ENDBRANCH  65  69
ENDBRANCH  39  62
ENDBRANCH  13  14
ENDBRANCH   6   8
ENDBRANCH   3   4
ENDBRANCH   2   3
ENDBRANCH   1   2
BRANCH   1  73
ATOM     73  C   UNL A   1      31.770  29.148  26.657  1.00  0.00     0.002 C 
BRANCH  73  74
ATOM     74  C   UNL A   1      33.135  28.491  26.448  1.00  0.00     0.021 C 
BRANCH  74  75
ATOM     75  C   UNL A   1      33.131  26.970  26.515  1.00  0.00     0.116 C 
BRANCH  75  76
ATOM     76  N   UNL A   1      31.844  26.412  26.854  1.00  0.00    -0.351 N 
ATOM     77  C   UNL A   1      31.101  25.487  26.170  1.00  0.00     0.283 C 
ATOM     78  H   UNL A   1      31.445  26.741  27.692  1.00  0.00     0.163 HD
ATOM     79  O   UNL A   1      30.073  25.082  26.735  1.00  0.00    -0.268 OA
BRANCH  77  80
ATOM     80  C   UNL A   1      31.483  24.954  24.757  1.00  0.00     0.307 C 
BRANCH  80  81
ATOM     81  N   UNL A   1      30.696  23.732  24.415  1.00  0.00    -0.318 N 
ATOM     82  C   UNL A   1      31.009  23.028  23.153  1.00  0.00     0.284 C 
ATOM     83  C   UNL A   1      30.714  22.732  25.515  1.00  0.00     0.284 C 
ATOM     84  H   UNL A   1      29.772  24.140  24.272  1.00  0.00     0.349 HD
ATOM     85  C   UNL A   1      32.296  22.185  23.136  1.00  0.00     0.178 C 
ATOM     86  C   UNL A   1      31.978  21.831  25.587  1.00  0.00     0.178 C 
ATOM     87  N   UNL A   1      32.295  21.271  24.275  1.00  0.00    -0.360 N 
BRANCH  87  88
ATOM     88  C   UNL A   1      32.744  19.985  24.079  1.00  0.00     0.037 A 
ATOM     89  C   UNL A   1      33.877  19.500  24.748  1.00  0.00     0.026 A 
ATOM     90  C   UNL A   1      32.158  19.164  23.109  1.00  0.00     0.026 A 
ATOM     91  C   UNL A   1      34.437  18.261  24.431  1.00  0.00     0.002 A 
ATOM     92  C   UNL A   1      32.722  17.929  22.775  1.00  0.00     0.002 A 
ATOM     93  C   UNL A   1      33.866  17.482  23.430  1.00  0.00     0.000 A 
ENDBRANCH  87  88
ENDBRANCH  80  81
BRANCH  80  94
ATOM     94  C   UNL A   1      31.562  26.042  23.703  1.00  0.00     0.044 A 
ATOM     95  C   UNL A   1      32.616  26.404  22.878  1.00  0.00     0.094 A 
ATOM     96  C   UNL A   1      30.494  26.963  23.390  1.00  0.00     0.009 A 
ATOM     97  N   UNL A   1      32.272  27.526  22.173  1.00  0.00    -0.361 N 
ATOM     98  C   UNL A   1      30.986  27.896  22.476  1.00  0.00     0.049 A 
ATOM     99  C   UNL A   1      29.163  27.114  23.845  1.00  0.00     0.014 A 
ATOM    100  H   UNL A   1      32.862  27.998  21.541  1.00  0.00     0.166 HD
ATOM    101  C   UNL A   1      30.235  28.985  22.020  1.00  0.00     0.065 A 
ATOM    102  C   UNL A   1      28.394  28.191  23.391  1.00  0.00     0.040 A 
ATOM    103  C   UNL A   1      28.934  29.108  22.502  1.00  0.00     0.125 A 
ATOM    104  F   UNL A   1      28.183  30.141  22.095  1.00  0.00    -0.207 F 
ENDBRANCH  80  94
ENDBRANCH  77  80
ENDBRANCH  75  76
ENDBRANCH  74  75
ENDBRANCH  73  74
ENDBRANCH   1  73
TORSDOF 19
ENDMDL
