MODEL 1
REMARK VINA RESULT:     -11.6      0.000      0.000
REMARK SMILES Cn1ncc(C(=O)NCCCCCCNC(=O)c2ccc(-c3c4nc(c(-c5cc(S(=O)(=O)[O-])ccc5F)c5ccc([nH]5)c(-c5cc(S(=O)(=O)[O-])ccc5F)c5nc(c(-c6cc(S(=O)(=O)[O-])ccc6F)c6ccc3[nH]6)C=C5)C=C4)cc2)c1C(=O)Nc1ccccn1
REMARK SMILES IDX 12 1 11 2 10 3 9 4 8 5 6 6 7 7 5 9 1 10 2 11 3 12 81 13 4 14
REMARK SMILES IDX 82 15 83 16 84 17 85 19 86 20 90 21 87 22 89 23 88 24 13 25
REMARK SMILES IDX 14 26 15 27 16 28 17 30 18 31 19 32 80 33 20 34 79 35 21 36
REMARK SMILES IDX 22 37 23 38 73 39 24 40 78 41 72 42 74 43 25 44 77 45 71 46
REMARK SMILES IDX 70 47 26 49 58 50 38 51 57 52 39 53 42 54 56 55 75 56 40 57
REMARK SMILES IDX 41 58 55 60 76 61 43 62 27 63 28 64 36 65 29 66 35 67 37 68
REMARK SMILES IDX 34 69 30 70 31 71 32 72 33 73 59 74 60 75 68 76 61 77 67 78
REMARK SMILES IDX 69 79 66 80 62 81 63 82 64 83 65 84 44 85 45 86 53 87 46 88
REMARK SMILES IDX 52 89 54 90 51 91 47 92 48 93 49 94 50 95
REMARK H PARENT 8 8 84 18 15 29 74 48 42 59
REMARK Flexibility Score: inf
ROOT
ATOM      1  C   UNL A   1      31.791  30.212  26.383  1.00  0.00     0.002 C 
ENDROOT
BRANCH   1   2
ATOM      2  C   UNL A   1      32.489  29.301  27.398  1.00  0.00     0.002 C 
BRANCH   2   3
ATOM      3  C   UNL A   1      33.766  28.602  26.929  1.00  0.00     0.021 C 
BRANCH   3   4
ATOM      4  C   UNL A   1      34.058  28.650  25.434  1.00  0.00     0.116 C 
BRANCH   4   5
ATOM      5  N   UNL A   1      34.224  27.352  24.833  1.00  0.00    -0.352 N 
ATOM      6  C   UNL A   1      33.313  26.411  24.436  1.00  0.00     0.255 C 
ATOM      7  O   UNL A   1      33.786  25.358  23.998  1.00  0.00    -0.269 OA
ATOM      8  H   UNL A   1      35.162  27.094  24.681  1.00  0.00     0.163 HD
BRANCH   6   9
ATOM      9  C   UNL A   1      31.864  26.552  24.564  1.00  0.00     0.090 A 
ATOM     10  C   UNL A   1      28.339  26.460  23.828  1.00  0.00     0.174 C 
ATOM     11  N   UNL A   1      29.672  26.622  24.362  1.00  0.00    -0.262 N 
ATOM     12  N   UNL A   1      29.860  26.230  25.634  1.00  0.00    -0.180 NA
ATOM     13  C   UNL A   1      30.836  26.976  23.710  1.00  0.00     0.139 A 
ATOM     14  C   UNL A   1      31.179  26.108  25.724  1.00  0.00     0.149 A 
BRANCH  13  15
ATOM     15  C   UNL A   1      30.933  27.425  22.342  1.00  0.00     0.275 C 
ATOM     16  O   UNL A   1      31.223  26.646  21.434  1.00  0.00    -0.267 OA
ATOM     17  N   UNL A   1      30.850  28.766  22.014  1.00  0.00    -0.305 N 
ATOM     18  H   UNL A   1      31.560  29.136  21.440  1.00  0.00     0.171 HD
BRANCH  17  19
ATOM     19  C   UNL A   1      29.845  29.633  22.430  1.00  0.00     0.132 A 
ATOM     20  C   UNL A   1      29.969  30.482  23.518  1.00  0.00     0.047 A 
ATOM     21  N   UNL A   1      28.732  29.557  21.675  1.00  0.00    -0.239 NA
ATOM     22  C   UNL A   1      28.852  31.239  23.882  1.00  0.00     0.005 A 
ATOM     23  C   UNL A   1      27.665  30.287  22.054  1.00  0.00     0.113 A 
ATOM     24  C   UNL A   1      27.671  31.123  23.153  1.00  0.00     0.020 A 
ENDBRANCH  17  19
ENDBRANCH  13  15
ENDBRANCH   6   9
ENDBRANCH   4   5
ENDBRANCH   3   4
ENDBRANCH   2   3
ENDBRANCH   1   2
BRANCH   1  25
ATOM     25  C   UNL A   1      31.585  31.669  26.804  1.00  0.00     0.021 C 
BRANCH  25  26
ATOM     26  C   UNL A   1      32.841  32.416  27.240  1.00  0.00     0.116 C 
BRANCH  26  27
ATOM     27  N   UNL A   1      32.573  33.798  27.598  1.00  0.00    -0.352 N 
ATOM     28  C   UNL A   1      33.132  34.567  28.587  1.00  0.00     0.251 C 
ATOM     29  H   UNL A   1      31.891  34.249  27.050  1.00  0.00     0.163 HD
ATOM     30  O   UNL A   1      32.645  35.667  28.847  1.00  0.00    -0.269 OA
BRANCH  28  31
ATOM     31  C   UNL A   1      34.295  34.068  29.352  1.00  0.00     0.039 A 
ATOM     32  C   UNL A   1      34.075  33.198  30.424  1.00  0.00     0.014 A 
ATOM     33  C   UNL A   1      35.597  34.461  29.028  1.00  0.00     0.014 A 
ATOM     34  C   UNL A   1      35.161  32.677  31.130  1.00  0.00     0.010 A 
ATOM     35  C   UNL A   1      36.682  33.881  29.683  1.00  0.00     0.010 A 
ATOM     36  C   UNL A   1      36.475  32.985  30.744  1.00  0.00    -0.014 A 
BRANCH  36  37
ATOM     37  C   UNL A   1      37.643  32.382  31.442  1.00  0.00     0.031 A 
ATOM     38  C   UNL A   1      38.391  31.238  30.813  1.00  0.00     0.074 A 
ATOM     39  C   UNL A   1      37.996  32.834  32.662  1.00  0.00     0.049 A 
ATOM     40  N   UNL A   1      39.389  30.540  31.291  1.00  0.00    -0.248 NA
ATOM     41  C   UNL A   1      37.938  30.804  29.484  1.00  0.00     0.031 C 
ATOM     42  C   UNL A   1      37.327  33.917  33.387  1.00  0.00     0.029 A 
ATOM     43  N   UNL A   1      38.999  32.439  33.512  1.00  0.00    -0.354 N 
ATOM     44  C   UNL A   1      39.677  29.579  30.327  1.00  0.00     0.074 A 
ATOM     45  C   UNL A   1      38.705  29.746  29.268  1.00  0.00     0.031 C 
ATOM     46  C   UNL A   1      37.955  34.118  34.555  1.00  0.00     0.029 A 
ATOM     47  C   UNL A   1      39.036  33.148  34.692  1.00  0.00     0.049 A 
ATOM     48  H   UNL A   1      39.633  31.717  33.298  1.00  0.00     0.167 HD
ATOM     49  C   UNL A   1      40.676  28.659  30.316  1.00  0.00     0.034 A 
ATOM     50  C   UNL A   1      39.840  33.021  35.767  1.00  0.00     0.034 A 
ATOM     51  C   UNL A   1      41.641  28.513  31.379  1.00  0.00     0.049 A 
ATOM     52  C   UNL A   1      40.914  31.962  35.749  1.00  0.00     0.074 A 
ATOM     53  C   UNL A   1      42.721  27.650  31.448  1.00  0.00     0.029 A 
ATOM     54  N   UNL A   1      41.639  29.238  32.564  1.00  0.00    -0.354 N 
ATOM     55  N   UNL A   1      41.204  31.093  34.808  1.00  0.00    -0.248 NA
ATOM     56  C   UNL A   1      41.777  31.874  36.935  1.00  0.00     0.031 C 
ATOM     57  C   UNL A   1      43.320  27.796  32.703  1.00  0.00     0.029 A 
ATOM     58  C   UNL A   1      42.674  28.814  33.384  1.00  0.00     0.049 A 
ATOM     59  H   UNL A   1      40.996  29.948  32.789  1.00  0.00     0.167 HD
ATOM     60  C   UNL A   1      42.305  30.380  35.275  1.00  0.00     0.074 A 
ATOM     61  C   UNL A   1      42.635  30.931  36.573  1.00  0.00     0.031 C 
ATOM     62  C   UNL A   1      42.986  29.365  34.684  1.00  0.00     0.034 A 
BRANCH  49  63
ATOM     63  C   UNL A   1      40.749  27.723  29.131  1.00  0.00     0.023 A 
ATOM     64  C   UNL A   1      41.685  27.908  28.098  1.00  0.00     0.031 A 
ATOM     65  C   UNL A   1      39.857  26.641  29.021  1.00  0.00     0.131 A 
ATOM     66  C   UNL A   1      41.657  27.076  26.969  1.00  0.00     0.055 A 
ATOM     67  C   UNL A   1      39.894  25.763  27.936  1.00  0.00     0.041 A 
ATOM     68  F   UNL A   1      38.925  26.425  29.963  1.00  0.00    -0.206 F 
ATOM     69  C   UNL A   1      40.787  25.987  26.894  1.00  0.00     0.022 A 
BRANCH  66  70
ATOM     70  S   UNL A   1      42.671  27.529  25.535  1.00  0.00     0.124 S 
ATOM     71  O   UNL A   1      43.930  27.906  26.172  1.00  0.00    -0.237 OA
ATOM     72  O   UNL A   1      42.691  26.295  24.758  1.00  0.00    -0.237 OA
ATOM     73  O   UNL A   1      41.933  28.636  24.929  1.00  0.00    -0.744 OA
ENDBRANCH  66  70
ENDBRANCH  49  63
BRANCH  50  74
ATOM     74  C   UNL A   1      39.660  33.902  36.957  1.00  0.00     0.023 A 
ATOM     75  C   UNL A   1      39.063  33.418  38.131  1.00  0.00     0.031 A 
ATOM     76  C   UNL A   1      40.036  35.257  36.921  1.00  0.00     0.131 A 
ATOM     77  C   UNL A   1      38.811  34.292  39.201  1.00  0.00     0.055 A 
ATOM     78  C   UNL A   1      39.841  36.108  38.011  1.00  0.00     0.041 A 
ATOM     79  F   UNL A   1      40.611  35.775  35.823  1.00  0.00    -0.206 F 
ATOM     80  C   UNL A   1      39.210  35.630  39.154  1.00  0.00     0.022 A 
BRANCH  77  81
ATOM     81  S   UNL A   1      37.861  33.678  40.619  1.00  0.00     0.124 S 
ATOM     82  O   UNL A   1      38.890  32.984  41.386  1.00  0.00    -0.237 OA
ATOM     83  O   UNL A   1      37.351  34.915  41.200  1.00  0.00    -0.237 OA
ATOM     84  O   UNL A   1      36.853  32.817  40.004  1.00  0.00    -0.744 OA
ENDBRANCH  77  81
ENDBRANCH  50  74
BRANCH  62  85
ATOM     85  C   UNL A   1      44.188  28.821  35.419  1.00  0.00     0.023 A 
ATOM     86  C   UNL A   1      44.083  27.752  36.327  1.00  0.00     0.031 A 
ATOM     87  C   UNL A   1      45.458  29.389  35.214  1.00  0.00     0.131 A 
ATOM     88  C   UNL A   1      45.214  27.326  37.039  1.00  0.00     0.055 A 
ATOM     89  C   UNL A   1      46.593  28.915  35.874  1.00  0.00     0.041 A 
ATOM     90  F   UNL A   1      45.619  30.415  34.363  1.00  0.00    -0.206 F 
ATOM     91  C   UNL A   1      46.471  27.887  36.804  1.00  0.00     0.022 A 
BRANCH  88  92
ATOM     92  S   UNL A   1      45.002  26.095  38.354  1.00  0.00     0.124 S 
ATOM     93  O   UNL A   1      43.826  26.599  39.056  1.00  0.00    -0.237 OA
ATOM     94  O   UNL A   1      44.812  24.860  37.599  1.00  0.00    -0.237 OA
ATOM     95  O   UNL A   1      46.254  26.175  39.104  1.00  0.00    -0.744 OA
ENDBRANCH  88  92
ENDBRANCH  62  85
ENDBRANCH  36  37
ENDBRANCH  28  31
ENDBRANCH  26  27
ENDBRANCH  25  26
ENDBRANCH   1  25
TORSDOF 18
ENDMDL
MODEL 2
REMARK VINA RESULT:     -11.4      6.644     10.847
REMARK SMILES Cn1ncc(C(=O)NCCCCCCNC(=O)c2ccc(-c3c4nc(c(-c5cc(S(=O)(=O)[O-])ccc5F)c5ccc([nH]5)c(-c5cc(S(=O)(=O)[O-])ccc5F)c5nc(c(-c6cc(S(=O)(=O)[O-])ccc6F)c6ccc3[nH]6)C=C5)C=C4)cc2)c1C(=O)Nc1ccccn1
REMARK SMILES IDX 12 1 11 2 10 3 9 4 8 5 6 6 7 7 5 9 1 10 2 11 3 12 81 13 4 14
REMARK SMILES IDX 82 15 83 16 84 17 85 19 86 20 90 21 87 22 89 23 88 24 13 25
REMARK SMILES IDX 14 26 15 27 16 28 17 30 18 31 19 32 80 33 20 34 79 35 21 36
REMARK SMILES IDX 22 37 23 38 73 39 24 40 78 41 72 42 74 43 25 44 77 45 71 46
REMARK SMILES IDX 70 47 26 49 58 50 38 51 57 52 39 53 42 54 56 55 75 56 40 57
REMARK SMILES IDX 41 58 55 60 76 61 43 62 27 63 28 64 36 65 29 66 35 67 37 68
REMARK SMILES IDX 34 69 30 70 31 71 32 72 33 73 59 74 60 75 68 76 61 77 67 78
REMARK SMILES IDX 69 79 66 80 62 81 63 82 64 83 65 84 44 85 45 86 53 87 46 88
REMARK SMILES IDX 52 89 54 90 51 91 47 92 48 93 49 94 50 95
REMARK H PARENT 8 8 84 18 15 29 74 48 42 59
REMARK Flexibility Score: inf
ROOT
ATOM      1  C   UNL A   1      41.057  22.039  27.869  1.00  0.00     0.002 C 
ENDROOT
BRANCH   1   2
ATOM      2  C   UNL A   1      40.569  22.951  26.739  1.00  0.00     0.002 C 
BRANCH   2   3
ATOM      3  C   UNL A   1      39.343  23.817  27.036  1.00  0.00     0.021 C 
BRANCH   3   4
ATOM      4  C   UNL A   1      38.013  23.324  26.481  1.00  0.00     0.116 C 
BRANCH   4   5
ATOM      5  N   UNL A   1      38.064  21.986  25.950  1.00  0.00    -0.352 N 
ATOM      6  C   UNL A   1      37.318  21.360  24.988  1.00  0.00     0.255 C 
ATOM      7  O   UNL A   1      37.580  20.169  24.796  1.00  0.00    -0.269 OA
ATOM      8  H   UNL A   1      38.761  21.418  26.352  1.00  0.00     0.163 HD
BRANCH   6   9
ATOM      9  C   UNL A   1      36.220  21.985  24.252  1.00  0.00     0.090 A 
ATOM     10  C   UNL A   1      33.173  23.756  23.507  1.00  0.00     0.174 C 
ATOM     11  N   UNL A   1      34.409  23.008  23.528  1.00  0.00    -0.262 N 
ATOM     12  N   UNL A   1      35.361  23.397  22.661  1.00  0.00    -0.180 NA
ATOM     13  C   UNL A   1      34.829  22.041  24.419  1.00  0.00     0.139 A 
ATOM     14  C   UNL A   1      36.464  22.847  23.153  1.00  0.00     0.149 A 
BRANCH  13  15
ATOM     15  C   UNL A   1      34.025  21.448  25.460  1.00  0.00     0.275 C 
ATOM     16  O   UNL A   1      33.465  22.143  26.308  1.00  0.00    -0.267 OA
ATOM     17  N   UNL A   1      33.969  20.078  25.638  1.00  0.00    -0.305 N 
ATOM     18  H   UNL A   1      34.130  19.732  26.546  1.00  0.00     0.171 HD
BRANCH  17  19
ATOM     19  C   UNL A   1      33.703  19.149  24.636  1.00  0.00     0.132 A 
ATOM     20  C   UNL A   1      32.626  19.247  23.770  1.00  0.00     0.047 A 
ATOM     21  N   UNL A   1      34.591  18.137  24.600  1.00  0.00    -0.239 NA
ATOM     22  C   UNL A   1      32.422  18.201  22.866  1.00  0.00     0.005 A 
ATOM     23  C   UNL A   1      34.366  17.135  23.730  1.00  0.00     0.113 A 
ATOM     24  C   UNL A   1      33.293  17.113  22.860  1.00  0.00     0.020 A 
ENDBRANCH  17  19
ENDBRANCH  13  15
ENDBRANCH   6   9
ENDBRANCH   4   5
ENDBRANCH   3   4
ENDBRANCH   2   3
ENDBRANCH   1   2
BRANCH   1  25
ATOM     25  C   UNL A   1      41.395  20.598  27.483  1.00  0.00     0.021 C 
BRANCH  25  26
ATOM     26  C   UNL A   1      41.340  20.280  25.993  1.00  0.00     0.116 C 
BRANCH  26  27
ATOM     27  N   UNL A   1      42.555  19.649  25.509  1.00  0.00    -0.352 N 
ATOM     28  C   UNL A   1      43.782  20.204  25.246  1.00  0.00     0.251 C 
ATOM     29  H   UNL A   1      42.489  18.680  25.346  1.00  0.00     0.163 HD
ATOM     30  O   UNL A   1      44.640  19.533  24.672  1.00  0.00    -0.269 OA
BRANCH  28  31
ATOM     31  C   UNL A   1      44.063  21.605  25.626  1.00  0.00     0.039 A 
ATOM     32  C   UNL A   1      43.767  22.623  24.715  1.00  0.00     0.014 A 
ATOM     33  C   UNL A   1      44.626  21.920  26.866  1.00  0.00     0.014 A 
ATOM     34  C   UNL A   1      43.979  23.957  25.071  1.00  0.00     0.010 A 
ATOM     35  C   UNL A   1      44.765  23.253  27.249  1.00  0.00     0.010 A 
ATOM     36  C   UNL A   1      44.447  24.286  26.353  1.00  0.00    -0.014 A 
BRANCH  36  37
ATOM     37  C   UNL A   1      44.611  25.705  26.771  1.00  0.00     0.031 A 
ATOM     38  C   UNL A   1      45.964  26.361  26.706  1.00  0.00     0.074 A 
ATOM     39  C   UNL A   1      43.552  26.383  27.257  1.00  0.00     0.049 A 
ATOM     40  N   UNL A   1      46.321  27.561  27.085  1.00  0.00    -0.248 NA
ATOM     41  C   UNL A   1      47.065  25.549  26.169  1.00  0.00     0.031 C 
ATOM     42  C   UNL A   1      42.197  25.844  27.399  1.00  0.00     0.029 A 
ATOM     43  N   UNL A   1      43.445  27.669  27.725  1.00  0.00    -0.354 N 
ATOM     44  C   UNL A   1      47.688  27.646  26.841  1.00  0.00     0.074 A 
ATOM     45  C   UNL A   1      48.104  26.353  26.343  1.00  0.00     0.031 C 
ATOM     46  C   UNL A   1      41.392  26.798  27.890  1.00  0.00     0.029 A 
ATOM     47  C   UNL A   1      42.178  28.000  28.150  1.00  0.00     0.049 A 
ATOM     48  H   UNL A   1      44.204  28.296  27.755  1.00  0.00     0.167 HD
ATOM     49  C   UNL A   1      48.514  28.712  26.997  1.00  0.00     0.034 A 
ATOM     50  C   UNL A   1      41.705  29.137  28.699  1.00  0.00     0.034 A 
ATOM     51  C   UNL A   1      48.078  29.996  27.489  1.00  0.00     0.049 A 
ATOM     52  C   UNL A   1      42.653  30.293  28.903  1.00  0.00     0.074 A 
ATOM     53  C   UNL A   1      48.818  31.157  27.638  1.00  0.00     0.029 A 
ATOM     54  N   UNL A   1      46.791  30.291  27.922  1.00  0.00    -0.354 N 
ATOM     55  N   UNL A   1      43.934  30.373  28.622  1.00  0.00    -0.248 NA
ATOM     56  C   UNL A   1      42.089  31.517  29.488  1.00  0.00     0.031 C 
ATOM     57  C   UNL A   1      48.003  32.124  28.236  1.00  0.00     0.029 A 
ATOM     58  C   UNL A   1      46.728  31.601  28.375  1.00  0.00     0.049 A 
ATOM     59  H   UNL A   1      46.035  29.661  27.911  1.00  0.00     0.167 HD
ATOM     60  C   UNL A   1      44.318  31.667  28.964  1.00  0.00     0.074 A 
ATOM     61  C   UNL A   1      43.130  32.335  29.456  1.00  0.00     0.031 C 
ATOM     62  C   UNL A   1      45.539  32.253  28.875  1.00  0.00     0.034 A 
BRANCH  49  63
ATOM     63  C   UNL A   1      49.975  28.518  26.660  1.00  0.00     0.023 A 
ATOM     64  C   UNL A   1      50.474  28.748  25.366  1.00  0.00     0.031 A 
ATOM     65  C   UNL A   1      50.880  28.076  27.642  1.00  0.00     0.131 A 
ATOM     66  C   UNL A   1      51.815  28.463  25.070  1.00  0.00     0.055 A 
ATOM     67  C   UNL A   1      52.234  27.879  27.362  1.00  0.00     0.041 A 
ATOM     68  F   UNL A   1      50.461  27.816  28.891  1.00  0.00    -0.206 F 
ATOM     69  C   UNL A   1      52.705  28.057  26.066  1.00  0.00     0.022 A 
BRANCH  66  70
ATOM     70  S   UNL A   1      52.342  28.485  23.334  1.00  0.00     0.124 S 
ATOM     71  O   UNL A   1      52.456  27.058  23.043  1.00  0.00    -0.237 OA
ATOM     72  O   UNL A   1      51.243  29.185  22.679  1.00  0.00    -0.237 OA
ATOM     73  O   UNL A   1      53.611  29.209  23.371  1.00  0.00    -0.744 OA
ENDBRANCH  66  70
ENDBRANCH  49  63
BRANCH  50  74
ATOM     74  C   UNL A   1      40.276  29.243  29.112  1.00  0.00     0.023 A 
ATOM     75  C   UNL A   1      39.903  29.139  30.461  1.00  0.00     0.031 A 
ATOM     76  C   UNL A   1      39.254  29.401  28.158  1.00  0.00     0.131 A 
ATOM     77  C   UNL A   1      38.544  29.140  30.814  1.00  0.00     0.055 A 
ATOM     78  C   UNL A   1      37.907  29.464  28.520  1.00  0.00     0.041 A 
ATOM     79  F   UNL A   1      39.553  29.506  26.852  1.00  0.00    -0.206 F 
ATOM     80  C   UNL A   1      37.545  29.317  29.854  1.00  0.00     0.022 A 
BRANCH  77  81
ATOM     81  S   UNL A   1      38.095  28.802  32.539  1.00  0.00     0.124 S 
ATOM     82  O   UNL A   1      39.077  29.604  33.262  1.00  0.00    -0.237 OA
ATOM     83  O   UNL A   1      36.716  29.275  32.591  1.00  0.00    -0.237 OA
ATOM     84  O   UNL A   1      38.261  27.356  32.656  1.00  0.00    -0.744 OA
ENDBRANCH  77  81
ENDBRANCH  50  74
BRANCH  62  85
ATOM     85  C   UNL A   1      45.637  33.706  29.274  1.00  0.00     0.023 A 
ATOM     86  C   UNL A   1      45.459  34.746  28.345  1.00  0.00     0.031 A 
ATOM     87  C   UNL A   1      45.925  34.055  30.606  1.00  0.00     0.131 A 
ATOM     88  C   UNL A   1      45.628  36.079  28.746  1.00  0.00     0.055 A 
ATOM     89  C   UNL A   1      46.024  35.385  31.015  1.00  0.00     0.041 A 
ATOM     90  F   UNL A   1      46.110  33.105  31.537  1.00  0.00    -0.206 F 
ATOM     91  C   UNL A   1      45.890  36.406  30.079  1.00  0.00     0.022 A 
BRANCH  88  92
ATOM     92  S   UNL A   1      45.603  37.380  27.482  1.00  0.00     0.124 S 
ATOM     93  O   UNL A   1      46.343  38.453  28.137  1.00  0.00    -0.237 OA
ATOM     94  O   UNL A   1      46.275  36.736  26.358  1.00  0.00    -0.237 OA
ATOM     95  O   UNL A   1      44.178  37.639  27.285  1.00  0.00    -0.744 OA
ENDBRANCH  88  92
ENDBRANCH  62  85
ENDBRANCH  36  37
ENDBRANCH  28  31
ENDBRANCH  26  27
ENDBRANCH  25  26
ENDBRANCH   1  25
TORSDOF 18
ENDMDL
MODEL 3
REMARK VINA RESULT:     -11.3      3.228      8.549
REMARK SMILES Cn1ncc(C(=O)NCCCCCCNC(=O)c2ccc(-c3c4nc(c(-c5cc(S(=O)(=O)[O-])ccc5F)c5ccc([nH]5)c(-c5cc(S(=O)(=O)[O-])ccc5F)c5nc(c(-c6cc(S(=O)(=O)[O-])ccc6F)c6ccc3[nH]6)C=C5)C=C4)cc2)c1C(=O)Nc1ccccn1
REMARK SMILES IDX 12 1 11 2 10 3 9 4 8 5 6 6 7 7 5 9 1 10 2 11 3 12 81 13 4 14
REMARK SMILES IDX 82 15 83 16 84 17 85 19 86 20 90 21 87 22 89 23 88 24 13 25
REMARK SMILES IDX 14 26 15 27 16 28 17 30 18 31 19 32 80 33 20 34 79 35 21 36
REMARK SMILES IDX 22 37 23 38 73 39 24 40 78 41 72 42 74 43 25 44 77 45 71 46
REMARK SMILES IDX 70 47 26 49 58 50 38 51 57 52 39 53 42 54 56 55 75 56 40 57
REMARK SMILES IDX 41 58 55 60 76 61 43 62 27 63 28 64 36 65 29 66 35 67 37 68
REMARK SMILES IDX 34 69 30 70 31 71 32 72 33 73 59 74 60 75 68 76 61 77 67 78
REMARK SMILES IDX 69 79 66 80 62 81 63 82 64 83 65 84 44 85 45 86 53 87 46 88
REMARK SMILES IDX 52 89 54 90 51 91 47 92 48 93 49 94 50 95
REMARK H PARENT 8 8 84 18 15 29 74 48 42 59
REMARK Flexibility Score: inf
ROOT
ATOM      1  C   UNL A   1      32.569  26.581  26.253  1.00  0.00     0.002 C 
ENDROOT
BRANCH   1   2
ATOM      2  C   UNL A   1      33.778  26.044  25.483  1.00  0.00     0.002 C 
BRANCH   2   3
ATOM      3  C   UNL A   1      33.579  24.736  24.715  1.00  0.00     0.021 C 
BRANCH   3   4
ATOM      4  C   UNL A   1      32.204  24.513  24.098  1.00  0.00     0.116 C 
BRANCH   4   5
ATOM      5  N   UNL A   1      32.160  24.748  22.678  1.00  0.00    -0.352 N 
ATOM      6  C   UNL A   1      32.070  25.903  21.950  1.00  0.00     0.255 C 
ATOM      7  O   UNL A   1      31.997  25.762  20.726  1.00  0.00    -0.269 OA
ATOM      8  H   UNL A   1      32.200  23.929  22.131  1.00  0.00     0.163 HD
BRANCH   6   9
ATOM      9  C   UNL A   1      31.986  27.243  22.528  1.00  0.00     0.090 A 
ATOM     10  C   UNL A   1      31.158  29.976  24.725  1.00  0.00     0.174 C 
ATOM     11  N   UNL A   1      31.611  29.078  23.686  1.00  0.00    -0.262 N 
ATOM     12  N   UNL A   1      32.896  29.200  23.306  1.00  0.00    -0.180 NA
ATOM     13  C   UNL A   1      30.965  27.996  23.125  1.00  0.00     0.139 A 
ATOM     14  C   UNL A   1      33.139  28.054  22.683  1.00  0.00     0.149 A 
BRANCH  13  15
ATOM     15  C   UNL A   1      29.592  27.619  23.360  1.00  0.00     0.275 C 
ATOM     16  O   UNL A   1      29.306  26.679  24.101  1.00  0.00    -0.267 OA
ATOM     17  N   UNL A   1      28.552  28.199  22.656  1.00  0.00    -0.305 N 
ATOM     18  H   UNL A   1      27.901  27.594  22.230  1.00  0.00     0.171 HD
BRANCH  17  19
ATOM     19  C   UNL A   1      28.352  29.567  22.501  1.00  0.00     0.132 A 
ATOM     20  C   UNL A   1      27.813  30.377  23.487  1.00  0.00     0.047 A 
ATOM     21  N   UNL A   1      28.726  30.025  21.291  1.00  0.00    -0.239 NA
ATOM     22  C   UNL A   1      27.584  31.720  23.172  1.00  0.00     0.005 A 
ATOM     23  C   UNL A   1      28.483  31.319  21.006  1.00  0.00     0.113 A 
ATOM     24  C   UNL A   1      27.902  32.195  21.902  1.00  0.00     0.020 A 
ENDBRANCH  17  19
ENDBRANCH  13  15
ENDBRANCH   6   9
ENDBRANCH   4   5
ENDBRANCH   3   4
ENDBRANCH   2   3
ENDBRANCH   1   2
BRANCH   1  25
ATOM     25  C   UNL A   1      32.804  27.831  27.104  1.00  0.00     0.021 C 
BRANCH  25  26
ATOM     26  C   UNL A   1      33.937  28.742  26.646  1.00  0.00     0.116 C 
BRANCH  26  27
ATOM     27  N   UNL A   1      33.711  30.134  26.993  1.00  0.00    -0.352 N 
ATOM     28  C   UNL A   1      34.436  30.956  27.818  1.00  0.00     0.251 C 
ATOM     29  H   UNL A   1      32.923  30.548  26.574  1.00  0.00     0.163 HD
ATOM     30  O   UNL A   1      33.982  32.059  28.124  1.00  0.00    -0.269 OA
BRANCH  28  31
ATOM     31  C   UNL A   1      35.739  30.512  28.357  1.00  0.00     0.039 A 
ATOM     32  C   UNL A   1      35.760  29.740  29.522  1.00  0.00     0.014 A 
ATOM     33  C   UNL A   1      36.938  30.860  27.728  1.00  0.00     0.014 A 
ATOM     34  C   UNL A   1      36.976  29.269  30.021  1.00  0.00     0.010 A 
ATOM     35  C   UNL A   1      38.143  30.326  28.183  1.00  0.00     0.010 A 
ATOM     36  C   UNL A   1      38.175  29.528  29.338  1.00  0.00    -0.014 A 
BRANCH  36  37
ATOM     37  C   UNL A   1      39.470  28.974  29.818  1.00  0.00     0.031 A 
ATOM     38  C   UNL A   1      40.195  29.629  30.962  1.00  0.00     0.074 A 
ATOM     39  C   UNL A   1      40.014  27.912  29.189  1.00  0.00     0.049 A 
ATOM     40  N   UNL A   1      41.359  29.336  31.481  1.00  0.00    -0.248 NA
ATOM     41  C   UNL A   1      39.533  30.783  31.588  1.00  0.00     0.031 C 
ATOM     42  C   UNL A   1      39.421  27.212  28.048  1.00  0.00     0.029 A 
ATOM     43  N   UNL A   1      41.189  27.239  29.416  1.00  0.00    -0.354 N 
ATOM     44  C   UNL A   1      41.576  30.274  32.485  1.00  0.00     0.074 A 
ATOM     45  C   UNL A   1      40.450  31.182  32.457  1.00  0.00     0.031 C 
ATOM     46  C   UNL A   1      40.219  26.193  27.694  1.00  0.00     0.029 A 
ATOM     47  C   UNL A   1      41.405  26.195  28.543  1.00  0.00     0.049 A 
ATOM     48  H   UNL A   1      41.818  27.479  30.134  1.00  0.00     0.167 HD
ATOM     49  C   UNL A   1      42.607  30.354  33.364  1.00  0.00     0.034 A 
ATOM     50  C   UNL A   1      42.447  25.347  28.432  1.00  0.00     0.034 A 
ATOM     51  C   UNL A   1      43.718  29.434  33.381  1.00  0.00     0.049 A 
ATOM     52  C   UNL A   1      43.601  25.484  29.393  1.00  0.00     0.074 A 
ATOM     53  C   UNL A   1      44.789  29.392  34.258  1.00  0.00     0.029 A 
ATOM     54  N   UNL A   1      43.911  28.398  32.474  1.00  0.00    -0.354 N 
ATOM     55  N   UNL A   1      43.768  26.347  30.369  1.00  0.00    -0.248 NA
ATOM     56  C   UNL A   1      44.705  24.525  29.244  1.00  0.00     0.031 C 
ATOM     57  C   UNL A   1      45.666  28.389  33.833  1.00  0.00     0.029 A 
ATOM     58  C   UNL A   1      45.101  27.741  32.748  1.00  0.00     0.049 A 
ATOM     59  H   UNL A   1      43.293  28.167  31.744  1.00  0.00     0.167 HD
ATOM     60  C   UNL A   1      44.977  26.011  30.971  1.00  0.00     0.074 A 
ATOM     61  C   UNL A   1      45.489  24.859  30.258  1.00  0.00     0.031 C 
ATOM     62  C   UNL A   1      45.607  26.597  32.021  1.00  0.00     0.034 A 
BRANCH  49  63
ATOM     63  C   UNL A   1      42.591  31.495  34.356  1.00  0.00     0.023 A 
ATOM     64  C   UNL A   1      41.748  31.487  35.481  1.00  0.00     0.031 A 
ATOM     65  C   UNL A   1      43.416  32.618  34.164  1.00  0.00     0.131 A 
ATOM     66  C   UNL A   1      41.691  32.607  36.324  1.00  0.00     0.055 A 
ATOM     67  C   UNL A   1      43.420  33.692  35.057  1.00  0.00     0.041 A 
ATOM     68  F   UNL A   1      44.227  32.696  33.097  1.00  0.00    -0.206 F 
ATOM     69  C   UNL A   1      42.542  33.697  36.136  1.00  0.00     0.022 A 
BRANCH  66  70
ATOM     70  S   UNL A   1      40.383  32.681  37.579  1.00  0.00     0.124 S 
ATOM     71  O   UNL A   1      39.960  34.076  37.481  1.00  0.00    -0.237 OA
ATOM     72  O   UNL A   1      39.429  31.688  37.100  1.00  0.00    -0.237 OA
ATOM     73  O   UNL A   1      41.077  32.334  38.817  1.00  0.00    -0.744 OA
ENDBRANCH  66  70
ENDBRANCH  49  63
BRANCH  50  74
ATOM     74  C   UNL A   1      42.463  24.302  27.367  1.00  0.00     0.023 A 
ATOM     75  C   UNL A   1      41.760  23.098  27.525  1.00  0.00     0.031 A 
ATOM     76  C   UNL A   1      43.222  24.471  26.195  1.00  0.00     0.131 A 
ATOM     77  C   UNL A   1      41.872  22.088  26.555  1.00  0.00     0.055 A 
ATOM     78  C   UNL A   1      43.281  23.489  25.204  1.00  0.00     0.041 A 
ATOM     79  F   UNL A   1      43.916  25.603  25.991  1.00  0.00    -0.206 F 
ATOM     80  C   UNL A   1      42.616  22.282  25.389  1.00  0.00     0.022 A 
BRANCH  77  81
ATOM     81  S   UNL A   1      41.113  20.475  26.890  1.00  0.00     0.124 S 
ATOM     82  O   UNL A   1      39.916  20.533  26.056  1.00  0.00    -0.237 OA
ATOM     83  O   UNL A   1      42.155  19.553  26.452  1.00  0.00    -0.237 OA
ATOM     84  O   UNL A   1      40.873  20.504  28.330  1.00  0.00    -0.744 OA
ENDBRANCH  77  81
ENDBRANCH  50  74
BRANCH  62  85
ATOM     85  C   UNL A   1      46.896  25.967  32.491  1.00  0.00     0.023 A 
ATOM     86  C   UNL A   1      46.919  24.973  33.486  1.00  0.00     0.031 A 
ATOM     87  C   UNL A   1      48.124  26.377  31.942  1.00  0.00     0.131 A 
ATOM     88  C   UNL A   1      48.145  24.467  33.941  1.00  0.00     0.055 A 
ATOM     89  C   UNL A   1      49.337  25.819  32.349  1.00  0.00     0.041 A 
ATOM     90  F   UNL A   1      48.165  27.325  30.992  1.00  0.00    -0.206 F 
ATOM     91  C   UNL A   1      49.352  24.869  33.365  1.00  0.00     0.022 A 
BRANCH  88  92
ATOM     92  S   UNL A   1      48.149  23.348  35.368  1.00  0.00     0.124 S 
ATOM     93  O   UNL A   1      46.978  23.800  36.111  1.00  0.00    -0.237 OA
ATOM     94  O   UNL A   1      48.037  22.036  34.737  1.00  0.00    -0.237 OA
ATOM     95  O   UNL A   1      49.434  23.617  36.012  1.00  0.00    -0.744 OA
ENDBRANCH  88  92
ENDBRANCH  62  85
ENDBRANCH  36  37
ENDBRANCH  28  31
ENDBRANCH  26  27
ENDBRANCH  25  26
ENDBRANCH   1  25
TORSDOF 18
ENDMDL
