MODEL 1
REMARK VINA RESULT:     -10.3      0.000      0.000
REMARK SMILES CCOc1cccc(-c2ccc([C@@H](C)C(=O)NCCCCCCNC(=O)c3ccc(-c4c5nc(c(-c6cc(S(=O)(=O)[O-])ccc6F)c6ccc([nH]6)c(-c6cc(S(=O)(=O)[O-])ccc6F)c6nc(c(-c7cc(S(=O)(=O)[O-])ccc7F)c7ccc4[nH]7)C=C6)C=C5)cc3)cc2F)c1
REMARK SMILES IDX 20 1 19 2 18 3 17 4 15 5 16 6 13 8 14 9 12 10 9 11 10 12
REMARK SMILES IDX 91 13 11 14 90 15 92 16 8 17 4 18 5 19 93 20 6 21 7 22 3 23
REMARK SMILES IDX 2 24 1 25 21 26 22 27 23 28 24 29 25 30 26 32 27 33 28 34
REMARK SMILES IDX 89 35 29 36 88 37 30 38 31 39 32 40 82 41 33 42 87 43 81 44
REMARK SMILES IDX 83 45 34 46 86 47 80 48 79 49 35 51 67 52 47 53 66 54 48 55
REMARK SMILES IDX 51 56 65 57 84 58 49 59 50 60 64 62 85 63 52 64 36 65 37 66
REMARK SMILES IDX 45 67 38 68 44 69 46 70 43 71 39 72 40 73 41 74 42 75 68 76
REMARK SMILES IDX 69 77 77 78 70 79 76 80 78 81 75 82 71 83 72 84 73 85 74 86
REMARK SMILES IDX 53 87 54 88 62 89 55 90 61 91 63 92 60 93 56 94 57 95 58 96
REMARK SMILES IDX 59 97
REMARK H PARENT 17 7 24 31 83 50 51 61
REMARK Flexibility Score: inf
ROOT
ATOM      1  C   UNL A   1      45.633  39.173  27.658  1.00  0.00     0.002 C 
ENDROOT
BRANCH   1   2
ATOM      2  C   UNL A   1      44.385  40.003  27.978  1.00  0.00     0.021 C 
BRANCH   2   3
ATOM      3  C   UNL A   1      43.727  40.619  26.743  1.00  0.00     0.116 C 
BRANCH   3   4
ATOM      4  N   UNL A   1      43.957  42.047  26.678  1.00  0.00    -0.356 N 
ATOM      5  C   UNL A   1      44.706  42.800  25.828  1.00  0.00     0.227 C 
ATOM      6  O   UNL A   1      44.798  44.004  26.096  1.00  0.00    -0.274 OA
ATOM      7  H   UNL A   1      43.488  42.564  27.372  1.00  0.00     0.163 HD
BRANCH   5   8
ATOM      8  C   UNL A   1      45.401  42.237  24.578  1.00  0.00     0.105 C 
ATOM      9  C   UNL A   1      46.921  42.385  24.588  1.00  0.00     0.023 C 
BRANCH   8  10
ATOM     10  C   UNL A   1      44.710  42.596  23.273  1.00  0.00    -0.033 A 
ATOM     11  C   UNL A   1      43.338  43.453  20.903  1.00  0.00     0.018 A 
ATOM     12  C   UNL A   1      44.722  43.216  20.912  1.00  0.00     0.012 A 
ATOM     13  C   UNL A   1      42.658  43.185  22.103  1.00  0.00     0.131 A 
ATOM     14  C   UNL A   1      45.386  42.762  22.061  1.00  0.00     0.005 A 
ATOM     15  C   UNL A   1      43.324  42.794  23.266  1.00  0.00     0.044 A 
ATOM     16  F   UNL A   1      41.323  43.305  22.178  1.00  0.00    -0.206 F 
BRANCH  11  17
ATOM     17  C   UNL A   1      42.666  44.007  19.702  1.00  0.00    -0.012 A 
ATOM     18  C   UNL A   1      42.755  45.366  17.668  1.00  0.00     0.119 A 
ATOM     19  C   UNL A   1      41.450  45.015  17.345  1.00  0.00     0.046 A 
ATOM     20  C   UNL A   1      43.342  44.884  18.837  1.00  0.00     0.055 A 
ATOM     21  C   UNL A   1      40.748  44.154  18.184  1.00  0.00     0.004 A 
ATOM     22  C   UNL A   1      41.348  43.659  19.349  1.00  0.00     0.009 A 
BRANCH  18  23
ATOM     23  O   UNL A   1      43.402  46.281  16.884  1.00  0.00    -0.494 OA
BRANCH  23  24
ATOM     24  C   UNL A   1      43.513  47.573  17.493  1.00  0.00     0.226 C 
ATOM     25  C   UNL A   1      42.629  48.609  16.813  1.00  0.00     0.049 C 
ENDBRANCH  23  24
ENDBRANCH  18  23
ENDBRANCH  11  17
ENDBRANCH   8  10
ENDBRANCH   5   8
ENDBRANCH   3   4
ENDBRANCH   2   3
ENDBRANCH   1   2
BRANCH   1  26
ATOM     26  C   UNL A   1      45.711  38.660  26.214  1.00  0.00     0.002 C 
BRANCH  26  27
ATOM     27  C   UNL A   1      46.882  37.716  25.920  1.00  0.00     0.021 C 
BRANCH  27  28
ATOM     28  C   UNL A   1      46.637  36.265  26.324  1.00  0.00     0.116 C 
BRANCH  28  29
ATOM     29  N   UNL A   1      45.734  35.601  25.398  1.00  0.00    -0.352 N 
ATOM     30  C   UNL A   1      44.658  34.791  25.665  1.00  0.00     0.251 C 
ATOM     31  H   UNL A   1      45.920  35.755  24.444  1.00  0.00     0.163 HD
ATOM     32  O   UNL A   1      44.184  34.095  24.772  1.00  0.00    -0.269 OA
BRANCH  30  33
ATOM     33  C   UNL A   1      44.084  34.759  27.026  1.00  0.00     0.039 A 
ATOM     34  C   UNL A   1      43.570  35.933  27.580  1.00  0.00     0.014 A 
ATOM     35  C   UNL A   1      44.078  33.571  27.765  1.00  0.00     0.014 A 
ATOM     36  C   UNL A   1      43.001  35.906  28.856  1.00  0.00     0.010 A 
ATOM     37  C   UNL A   1      43.445  33.530  29.004  1.00  0.00     0.010 A 
ATOM     38  C   UNL A   1      42.910  34.698  29.567  1.00  0.00    -0.014 A 
BRANCH  38  39
ATOM     39  C   UNL A   1      42.292  34.636  30.917  1.00  0.00     0.031 A 
ATOM     40  C   UNL A   1      43.170  34.530  32.134  1.00  0.00     0.074 A 
ATOM     41  C   UNL A   1      40.951  34.603  31.041  1.00  0.00     0.049 A 
ATOM     42  N   UNL A   1      42.836  34.347  33.386  1.00  0.00    -0.248 NA
ATOM     43  C   UNL A   1      44.621  34.606  31.905  1.00  0.00     0.031 C 
ATOM     44  C   UNL A   1      39.997  34.675  29.932  1.00  0.00     0.029 A 
ATOM     45  N   UNL A   1      40.157  34.490  32.155  1.00  0.00    -0.354 N 
ATOM     46  C   UNL A   1      44.033  34.272  34.090  1.00  0.00     0.074 A 
ATOM     47  C   UNL A   1      45.098  34.360  33.114  1.00  0.00     0.031 C 
ATOM     48  C   UNL A   1      38.748  34.627  30.423  1.00  0.00     0.029 A 
ATOM     49  C   UNL A   1      38.809  34.466  31.873  1.00  0.00     0.049 A 
ATOM     50  H   UNL A   1      40.516  34.432  33.069  1.00  0.00     0.167 HD
ATOM     51  C   UNL A   1      44.224  34.164  35.429  1.00  0.00     0.034 A 
ATOM     52  C   UNL A   1      37.747  34.315  32.689  1.00  0.00     0.034 A 
ATOM     53  C   UNL A   1      43.148  34.087  36.386  1.00  0.00     0.049 A 
ATOM     54  C   UNL A   1      37.984  34.153  34.170  1.00  0.00     0.074 A 
ATOM     55  C   UNL A   1      43.224  34.015  37.766  1.00  0.00     0.029 A 
ATOM     56  N   UNL A   1      41.796  34.063  36.063  1.00  0.00    -0.354 N 
ATOM     57  N   UNL A   1      39.122  34.116  34.826  1.00  0.00    -0.248 NA
ATOM     58  C   UNL A   1      36.795  34.024  35.021  1.00  0.00     0.031 C 
ATOM     59  C   UNL A   1      41.927  33.876  38.271  1.00  0.00     0.029 A 
ATOM     60  C   UNL A   1      41.032  33.947  37.215  1.00  0.00     0.049 A 
ATOM     61  H   UNL A   1      41.434  34.119  35.150  1.00  0.00     0.167 HD
ATOM     62  C   UNL A   1      38.780  33.999  36.171  1.00  0.00     0.074 A 
ATOM     63  C   UNL A   1      37.333  33.980  36.231  1.00  0.00     0.031 C 
ATOM     64  C   UNL A   1      39.588  33.925  37.259  1.00  0.00     0.034 A 
BRANCH  51  65
ATOM     65  C   UNL A   1      45.652  34.092  35.922  1.00  0.00     0.023 A 
ATOM     66  C   UNL A   1      46.332  32.866  36.041  1.00  0.00     0.031 A 
ATOM     67  C   UNL A   1      46.331  35.258  36.316  1.00  0.00     0.131 A 
ATOM     68  C   UNL A   1      47.608  32.825  36.621  1.00  0.00     0.055 A 
ATOM     69  C   UNL A   1      47.638  35.220  36.807  1.00  0.00     0.041 A 
ATOM     70  F   UNL A   1      45.730  36.456  36.248  1.00  0.00    -0.206 F 
ATOM     71  C   UNL A   1      48.278  33.996  36.980  1.00  0.00     0.022 A 
BRANCH  68  72
ATOM     72  S   UNL A   1      48.308  31.208  37.054  1.00  0.00     0.124 S 
ATOM     73  O   UNL A   1      47.233  30.304  36.650  1.00  0.00    -0.237 OA
ATOM     74  O   UNL A   1      49.520  31.162  36.242  1.00  0.00    -0.237 OA
ATOM     75  O   UNL A   1      48.524  31.303  38.496  1.00  0.00    -0.744 OA
ENDBRANCH  68  72
ENDBRANCH  51  65
BRANCH  52  76
ATOM     76  C   UNL A   1      36.363  34.299  32.131  1.00  0.00     0.023 A 
ATOM     77  C   UNL A   1      35.488  35.375  32.343  1.00  0.00     0.031 A 
ATOM     78  C   UNL A   1      35.882  33.190  31.413  1.00  0.00     0.131 A 
ATOM     79  C   UNL A   1      34.164  35.300  31.885  1.00  0.00     0.055 A 
ATOM     80  C   UNL A   1      34.581  33.144  30.910  1.00  0.00     0.041 A 
ATOM     81  F   UNL A   1      36.679  32.134  31.177  1.00  0.00    -0.206 F 
ATOM     82  C   UNL A   1      33.709  34.199  31.158  1.00  0.00     0.022 A 
BRANCH  79  83
ATOM     83  S   UNL A   1      33.014  36.630  32.333  1.00  0.00     0.124 S 
ATOM     84  O   UNL A   1      33.122  37.516  31.179  1.00  0.00    -0.237 OA
ATOM     85  O   UNL A   1      31.755  35.907  32.472  1.00  0.00    -0.237 OA
ATOM     86  O   UNL A   1      33.570  37.155  33.579  1.00  0.00    -0.744 OA
ENDBRANCH  79  83
ENDBRANCH  52  76
BRANCH  64  87
ATOM     87  C   UNL A   1      38.921  33.878  38.613  1.00  0.00     0.023 A 
ATOM     88  C   UNL A   1      38.274  32.725  39.086  1.00  0.00     0.031 A 
ATOM     89  C   UNL A   1      38.937  35.015  39.442  1.00  0.00     0.131 A 
ATOM     90  C   UNL A   1      37.623  32.748  40.329  1.00  0.00     0.055 A 
ATOM     91  C   UNL A   1      38.344  35.012  40.705  1.00  0.00     0.041 A 
ATOM     92  F   UNL A   1      39.539  36.146  39.040  1.00  0.00    -0.206 F 
ATOM     93  C   UNL A   1      37.671  33.879  41.150  1.00  0.00     0.022 A 
BRANCH  90  94
ATOM     94  S   UNL A   1      36.634  31.311  40.824  1.00  0.00     0.124 S 
ATOM     95  O   UNL A   1      36.569  31.472  42.274  1.00  0.00    -0.237 OA
ATOM     96  O   UNL A   1      35.384  31.527  40.103  1.00  0.00    -0.237 OA
ATOM     97  O   UNL A   1      37.427  30.173  40.362  1.00  0.00    -0.744 OA
ENDBRANCH  90  94
ENDBRANCH  64  87
ENDBRANCH  38  39
ENDBRANCH  30  33
ENDBRANCH  28  29
ENDBRANCH  27  28
ENDBRANCH  26  27
ENDBRANCH   1  26
TORSDOF 20
ENDMDL
MODEL 2
REMARK VINA RESULT:     -10.3      8.311     12.923
REMARK SMILES CCOc1cccc(-c2ccc([C@@H](C)C(=O)NCCCCCCNC(=O)c3ccc(-c4c5nc(c(-c6cc(S(=O)(=O)[O-])ccc6F)c6ccc([nH]6)c(-c6cc(S(=O)(=O)[O-])ccc6F)c6nc(c(-c7cc(S(=O)(=O)[O-])ccc7F)c7ccc4[nH]7)C=C6)C=C5)cc3)cc2F)c1
REMARK SMILES IDX 20 1 19 2 18 3 17 4 15 5 16 6 13 8 14 9 12 10 9 11 10 12
REMARK SMILES IDX 91 13 11 14 90 15 92 16 8 17 4 18 5 19 93 20 6 21 7 22 3 23
REMARK SMILES IDX 2 24 1 25 21 26 22 27 23 28 24 29 25 30 26 32 27 33 28 34
REMARK SMILES IDX 89 35 29 36 88 37 30 38 31 39 32 40 82 41 33 42 87 43 81 44
REMARK SMILES IDX 83 45 34 46 86 47 80 48 79 49 35 51 67 52 47 53 66 54 48 55
REMARK SMILES IDX 51 56 65 57 84 58 49 59 50 60 64 62 85 63 52 64 36 65 37 66
REMARK SMILES IDX 45 67 38 68 44 69 46 70 43 71 39 72 40 73 41 74 42 75 68 76
REMARK SMILES IDX 69 77 77 78 70 79 76 80 78 81 75 82 71 83 72 84 73 85 74 86
REMARK SMILES IDX 53 87 54 88 62 89 55 90 61 91 63 92 60 93 56 94 57 95 58 96
REMARK SMILES IDX 59 97
REMARK H PARENT 17 7 24 31 83 50 51 61
REMARK Flexibility Score: inf
ROOT
ATOM      1  C   UNL A   1      45.225  22.582  25.780  1.00  0.00     0.002 C 
ENDROOT
BRANCH   1   2
ATOM      2  C   UNL A   1      45.171  23.592  24.628  1.00  0.00     0.021 C 
BRANCH   2   3
ATOM      3  C   UNL A   1      46.280  24.643  24.683  1.00  0.00     0.116 C 
BRANCH   3   4
ATOM      4  N   UNL A   1      47.299  24.287  25.648  1.00  0.00    -0.356 N 
ATOM      5  C   UNL A   1      47.693  24.888  26.802  1.00  0.00     0.227 C 
ATOM      6  O   UNL A   1      48.682  24.402  27.366  1.00  0.00    -0.274 OA
ATOM      7  H   UNL A   1      47.793  23.464  25.430  1.00  0.00     0.163 HD
BRANCH   5   8
ATOM      8  C   UNL A   1      46.971  26.092  27.427  1.00  0.00     0.105 C 
ATOM      9  C   UNL A   1      47.755  27.401  27.348  1.00  0.00     0.023 C 
BRANCH   8  10
ATOM     10  C   UNL A   1      46.315  25.794  28.765  1.00  0.00    -0.033 A 
ATOM     11  C   UNL A   1      45.090  25.022  31.243  1.00  0.00     0.018 A 
ATOM     12  C   UNL A   1      46.285  25.759  31.205  1.00  0.00     0.012 A 
ATOM     13  C   UNL A   1      44.500  24.741  29.999  1.00  0.00     0.131 A 
ATOM     14  C   UNL A   1      46.864  26.168  29.995  1.00  0.00     0.005 A 
ATOM     15  C   UNL A   1      45.105  25.090  28.790  1.00  0.00     0.044 A 
ATOM     16  F   UNL A   1      43.318  24.110  29.927  1.00  0.00    -0.206 F 
BRANCH  11  17
ATOM     17  C   UNL A   1      44.534  24.533  32.528  1.00  0.00    -0.012 A 
ATOM     18  C   UNL A   1      43.799  24.979  34.820  1.00  0.00     0.119 A 
ATOM     19  C   UNL A   1      43.387  23.662  34.972  1.00  0.00     0.046 A 
ATOM     20  C   UNL A   1      44.379  25.399  33.624  1.00  0.00     0.055 A 
ATOM     21  C   UNL A   1      43.534  22.773  33.909  1.00  0.00     0.004 A 
ATOM     22  C   UNL A   1      44.102  23.204  32.704  1.00  0.00     0.009 A 
BRANCH  18  23
ATOM     23  O   UNL A   1      43.732  25.817  35.898  1.00  0.00    -0.494 OA
BRANCH  23  24
ATOM     24  C   UNL A   1      42.483  25.746  36.597  1.00  0.00     0.226 C 
ATOM     25  C   UNL A   1      41.684  27.037  36.484  1.00  0.00     0.049 C 
ENDBRANCH  23  24
ENDBRANCH  18  23
ENDBRANCH  11  17
ENDBRANCH   8  10
ENDBRANCH   5   8
ENDBRANCH   3   4
ENDBRANCH   2   3
ENDBRANCH   1   2
BRANCH   1  26
ATOM     26  C   UNL A   1      43.868  21.990  26.181  1.00  0.00     0.002 C 
BRANCH  26  27
ATOM     27  C   UNL A   1      42.645  22.794  25.727  1.00  0.00     0.021 C 
BRANCH  27  28
ATOM     28  C   UNL A   1      41.590  23.000  26.809  1.00  0.00     0.116 C 
BRANCH  28  29
ATOM     29  N   UNL A   1      40.255  23.083  26.240  1.00  0.00    -0.352 N 
ATOM     30  C   UNL A   1      39.240  23.963  26.529  1.00  0.00     0.251 C 
ATOM     31  H   UNL A   1      40.049  22.414  25.548  1.00  0.00     0.163 HD
ATOM     32  O   UNL A   1      38.096  23.715  26.160  1.00  0.00    -0.269 OA
BRANCH  30  33
ATOM     33  C   UNL A   1      39.534  25.197  27.287  1.00  0.00     0.039 A 
ATOM     34  C   UNL A   1      39.229  25.251  28.649  1.00  0.00     0.014 A 
ATOM     35  C   UNL A   1      40.087  26.308  26.645  1.00  0.00     0.014 A 
ATOM     36  C   UNL A   1      39.527  26.405  29.380  1.00  0.00     0.010 A 
ATOM     37  C   UNL A   1      40.452  27.427  27.388  1.00  0.00     0.010 A 
ATOM     38  C   UNL A   1      40.166  27.491  28.761  1.00  0.00    -0.014 A 
BRANCH  38  39
ATOM     39  C   UNL A   1      40.515  28.722  29.517  1.00  0.00     0.031 A 
ATOM     40  C   UNL A   1      41.947  28.980  29.901  1.00  0.00     0.074 A 
ATOM     41  C   UNL A   1      39.542  29.564  29.917  1.00  0.00     0.049 A 
ATOM     42  N   UNL A   1      42.448  29.925  30.655  1.00  0.00    -0.248 NA
ATOM     43  C   UNL A   1      42.944  28.024  29.394  1.00  0.00     0.031 C 
ATOM     44  C   UNL A   1      38.116  29.407  29.625  1.00  0.00     0.029 A 
ATOM     45  N   UNL A   1      39.604  30.715  30.662  1.00  0.00    -0.354 N 
ATOM     46  C   UNL A   1      43.813  29.670  30.725  1.00  0.00     0.074 A 
ATOM     47  C   UNL A   1      44.047  28.442  29.993  1.00  0.00     0.031 C 
ATOM     48  C   UNL A   1      37.441  30.433  30.167  1.00  0.00     0.029 A 
ATOM     49  C   UNL A   1      38.375  31.293  30.889  1.00  0.00     0.049 A 
ATOM     50  H   UNL A   1      40.446  31.091  31.003  1.00  0.00     0.167 HD
ATOM     51  C   UNL A   1      44.784  30.404  31.324  1.00  0.00     0.034 A 
ATOM     52  C   UNL A   1      38.039  32.381  31.610  1.00  0.00     0.034 A 
ATOM     53  C   UNL A   1      44.530  31.629  32.041  1.00  0.00     0.049 A 
ATOM     54  C   UNL A   1      39.129  33.159  32.304  1.00  0.00     0.074 A 
ATOM     55  C   UNL A   1      45.440  32.475  32.652  1.00  0.00     0.029 A 
ATOM     56  N   UNL A   1      43.273  32.182  32.252  1.00  0.00    -0.354 N 
ATOM     57  N   UNL A   1      40.422  32.924  32.334  1.00  0.00    -0.248 NA
ATOM     58  C   UNL A   1      38.718  34.354  33.050  1.00  0.00     0.031 C 
ATOM     59  C   UNL A   1      44.729  33.496  33.291  1.00  0.00     0.029 A 
ATOM     60  C   UNL A   1      43.381  33.340  33.008  1.00  0.00     0.049 A 
ATOM     61  H   UNL A   1      42.428  31.807  31.914  1.00  0.00     0.167 HD
ATOM     62  C   UNL A   1      40.979  33.966  33.071  1.00  0.00     0.074 A 
ATOM     63  C   UNL A   1      39.884  34.832  33.457  1.00  0.00     0.031 C 
ATOM     64  C   UNL A   1      42.279  34.192  33.390  1.00  0.00     0.034 A 
BRANCH  51  65
ATOM     65  C   UNL A   1      46.199  29.876  31.249  1.00  0.00     0.023 A 
ATOM     66  C   UNL A   1      46.768  29.135  32.302  1.00  0.00     0.031 A 
ATOM     67  C   UNL A   1      47.005  30.148  30.130  1.00  0.00     0.131 A 
ATOM     68  C   UNL A   1      48.121  28.772  32.252  1.00  0.00     0.055 A 
ATOM     69  C   UNL A   1      48.326  29.702  30.047  1.00  0.00     0.041 A 
ATOM     70  F   UNL A   1      46.528  30.868  29.103  1.00  0.00    -0.206 F 
ATOM     71  C   UNL A   1      48.898  29.025  31.120  1.00  0.00     0.022 A 
BRANCH  68  72
ATOM     72  S   UNL A   1      48.894  28.113  33.755  1.00  0.00     0.124 S 
ATOM     73  O   UNL A   1      50.315  28.285  33.456  1.00  0.00    -0.237 OA
ATOM     74  O   UNL A   1      48.351  28.980  34.795  1.00  0.00    -0.237 OA
ATOM     75  O   UNL A   1      48.437  26.726  33.796  1.00  0.00    -0.744 OA
ENDBRANCH  68  72
ENDBRANCH  51  65
BRANCH  52  76
ATOM     76  C   UNL A   1      36.611  32.799  31.725  1.00  0.00     0.023 A 
ATOM     77  C   UNL A   1      35.912  33.291  30.612  1.00  0.00     0.031 A 
ATOM     78  C   UNL A   1      35.938  32.751  32.958  1.00  0.00     0.131 A 
ATOM     79  C   UNL A   1      34.599  33.760  30.763  1.00  0.00     0.055 A 
ATOM     80  C   UNL A   1      34.612  33.167  33.091  1.00  0.00     0.041 A 
ATOM     81  F   UNL A   1      36.557  32.286  34.055  1.00  0.00    -0.206 F 
ATOM     82  C   UNL A   1      33.939  33.688  31.991  1.00  0.00     0.022 A 
BRANCH  79  83
ATOM     83  S   UNL A   1      33.792  34.552  29.344  1.00  0.00     0.124 S 
ATOM     84  O   UNL A   1      34.758  35.587  28.994  1.00  0.00    -0.237 OA
ATOM     85  O   UNL A   1      33.672  33.441  28.405  1.00  0.00    -0.237 OA
ATOM     86  O   UNL A   1      32.529  35.036  29.897  1.00  0.00    -0.744 OA
ENDBRANCH  79  83
ENDBRANCH  52  76
BRANCH  64  87
ATOM     87  C   UNL A   1      42.593  35.462  34.146  1.00  0.00     0.023 A 
ATOM     88  C   UNL A   1      42.924  36.659  33.490  1.00  0.00     0.031 A 
ATOM     89  C   UNL A   1      42.556  35.466  35.553  1.00  0.00     0.131 A 
ATOM     90  C   UNL A   1      43.260  37.797  34.239  1.00  0.00     0.055 A 
ATOM     91  C   UNL A   1      42.828  36.619  36.292  1.00  0.00     0.041 A 
ATOM     92  F   UNL A   1      42.249  34.350  36.232  1.00  0.00    -0.206 F 
ATOM     93  C   UNL A   1      43.194  37.789  35.635  1.00  0.00     0.022 A 
BRANCH  90  94
ATOM     94  S   UNL A   1      43.870  39.267  33.369  1.00  0.00     0.124 S 
ATOM     95  O   UNL A   1      42.667  40.089  33.283  1.00  0.00    -0.237 OA
ATOM     96  O   UNL A   1      44.911  39.753  34.268  1.00  0.00    -0.237 OA
ATOM     97  O   UNL A   1      44.350  38.736  32.094  1.00  0.00    -0.744 OA
ENDBRANCH  90  94
ENDBRANCH  64  87
ENDBRANCH  38  39
ENDBRANCH  30  33
ENDBRANCH  28  29
ENDBRANCH  27  28
ENDBRANCH  26  27
ENDBRANCH   1  26
TORSDOF 20
ENDMDL
MODEL 3
REMARK VINA RESULT:     -10.1     11.480     16.373
REMARK SMILES CCOc1cccc(-c2ccc([C@@H](C)C(=O)NCCCCCCNC(=O)c3ccc(-c4c5nc(c(-c6cc(S(=O)(=O)[O-])ccc6F)c6ccc([nH]6)c(-c6cc(S(=O)(=O)[O-])ccc6F)c6nc(c(-c7cc(S(=O)(=O)[O-])ccc7F)c7ccc4[nH]7)C=C6)C=C5)cc3)cc2F)c1
REMARK SMILES IDX 20 1 19 2 18 3 17 4 15 5 16 6 13 8 14 9 12 10 9 11 10 12
REMARK SMILES IDX 91 13 11 14 90 15 92 16 8 17 4 18 5 19 93 20 6 21 7 22 3 23
REMARK SMILES IDX 2 24 1 25 21 26 22 27 23 28 24 29 25 30 26 32 27 33 28 34
REMARK SMILES IDX 89 35 29 36 88 37 30 38 31 39 32 40 82 41 33 42 87 43 81 44
REMARK SMILES IDX 83 45 34 46 86 47 80 48 79 49 35 51 67 52 47 53 66 54 48 55
REMARK SMILES IDX 51 56 65 57 84 58 49 59 50 60 64 62 85 63 52 64 36 65 37 66
REMARK SMILES IDX 45 67 38 68 44 69 46 70 43 71 39 72 40 73 41 74 42 75 68 76
REMARK SMILES IDX 69 77 77 78 70 79 76 80 78 81 75 82 71 83 72 84 73 85 74 86
REMARK SMILES IDX 53 87 54 88 62 89 55 90 61 91 63 92 60 93 56 94 57 95 58 96
REMARK SMILES IDX 59 97
REMARK H PARENT 17 7 24 31 83 50 51 61
REMARK Flexibility Score: inf
ROOT
ATOM      1  C   UNL A   1      43.481  29.172  26.939  1.00  0.00     0.002 C 
ENDROOT
BRANCH   1   2
ATOM      2  C   UNL A   1      44.798  29.943  26.799  1.00  0.00     0.021 C 
BRANCH   2   3
ATOM      3  C   UNL A   1      45.982  29.063  26.397  1.00  0.00     0.116 C 
BRANCH   3   4
ATOM      4  N   UNL A   1      46.105  28.966  24.958  1.00  0.00    -0.356 N 
ATOM      5  C   UNL A   1      46.753  28.069  24.169  1.00  0.00     0.227 C 
ATOM      6  O   UNL A   1      46.771  28.314  22.956  1.00  0.00    -0.274 OA
ATOM      7  H   UNL A   1      45.635  29.677  24.463  1.00  0.00     0.163 HD
BRANCH   5   8
ATOM      8  C   UNL A   1      47.423  26.793  24.702  1.00  0.00     0.105 C 
ATOM      9  C   UNL A   1      48.780  26.488  24.071  1.00  0.00     0.023 C 
BRANCH   8  10
ATOM     10  C   UNL A   1      46.478  25.610  24.841  1.00  0.00    -0.033 A 
ATOM     11  C   UNL A   1      44.824  23.301  25.252  1.00  0.00     0.018 A 
ATOM     12  C   UNL A   1      44.340  24.604  25.454  1.00  0.00     0.012 A 
ATOM     13  C   UNL A   1      46.143  23.200  24.777  1.00  0.00     0.131 A 
ATOM     14  C   UNL A   1      45.137  25.733  25.218  1.00  0.00     0.005 A 
ATOM     15  C   UNL A   1      46.961  24.318  24.601  1.00  0.00     0.044 A 
ATOM     16  F   UNL A   1      46.676  22.005  24.477  1.00  0.00    -0.206 F 
BRANCH  11  17
ATOM     17  C   UNL A   1      43.994  22.117  25.581  1.00  0.00    -0.012 A 
ATOM     18  C   UNL A   1      41.977  21.164  26.590  1.00  0.00     0.119 A 
ATOM     19  C   UNL A   1      42.326  19.894  26.151  1.00  0.00     0.046 A 
ATOM     20  C   UNL A   1      42.809  22.251  26.324  1.00  0.00     0.055 A 
ATOM     21  C   UNL A   1      43.498  19.723  25.418  1.00  0.00     0.004 A 
ATOM     22  C   UNL A   1      44.321  20.821  25.139  1.00  0.00     0.009 A 
BRANCH  18  23
ATOM     23  O   UNL A   1      40.872  21.305  27.384  1.00  0.00    -0.494 OA
BRANCH  23  24
ATOM     24  C   UNL A   1      40.010  22.373  26.972  1.00  0.00     0.226 C 
ATOM     25  C   UNL A   1      38.902  21.896  26.043  1.00  0.00     0.049 C 
ENDBRANCH  23  24
ENDBRANCH  18  23
ENDBRANCH  11  17
ENDBRANCH   8  10
ENDBRANCH   5   8
ENDBRANCH   3   4
ENDBRANCH   2   3
ENDBRANCH   1   2
BRANCH   1  26
ATOM     26  C   UNL A   1      42.929  28.598  25.627  1.00  0.00     0.002 C 
BRANCH  26  27
ATOM     27  C   UNL A   1      41.455  28.181  25.668  1.00  0.00     0.021 C 
BRANCH  27  28
ATOM     28  C   UNL A   1      41.229  26.697  25.945  1.00  0.00     0.116 C 
BRANCH  28  29
ATOM     29  N   UNL A   1      40.265  26.498  27.015  1.00  0.00    -0.352 N 
ATOM     30  C   UNL A   1      40.462  26.011  28.284  1.00  0.00     0.251 C 
ATOM     31  H   UNL A   1      39.338  26.749  26.799  1.00  0.00     0.163 HD
ATOM     32  O   UNL A   1      39.500  25.649  28.953  1.00  0.00    -0.269 OA
BRANCH  30  33
ATOM     33  C   UNL A   1      41.833  25.920  28.828  1.00  0.00     0.039 A 
ATOM     34  C   UNL A   1      42.376  27.017  29.501  1.00  0.00     0.014 A 
ATOM     35  C   UNL A   1      42.590  24.758  28.651  1.00  0.00     0.014 A 
ATOM     36  C   UNL A   1      43.662  26.930  30.042  1.00  0.00     0.010 A 
ATOM     37  C   UNL A   1      43.840  24.646  29.255  1.00  0.00     0.010 A 
ATOM     38  C   UNL A   1      44.393  25.735  29.946  1.00  0.00    -0.014 A 
BRANCH  38  39
ATOM     39  C   UNL A   1      45.753  25.607  30.531  1.00  0.00     0.031 A 
ATOM     40  C   UNL A   1      45.909  25.242  31.982  1.00  0.00     0.074 A 
ATOM     41  C   UNL A   1      46.837  25.885  29.780  1.00  0.00     0.049 A 
ATOM     42  N   UNL A   1      46.992  25.192  32.715  1.00  0.00    -0.248 NA
ATOM     43  C   UNL A   1      44.674  24.925  32.715  1.00  0.00     0.031 C 
ATOM     44  C   UNL A   1      46.809  26.271  28.367  1.00  0.00     0.029 A 
ATOM     45  N   UNL A   1      48.171  25.896  30.101  1.00  0.00    -0.354 N 
ATOM     46  C   UNL A   1      46.569  24.853  33.995  1.00  0.00     0.074 A 
ATOM     47  C   UNL A   1      45.123  24.777  33.951  1.00  0.00     0.031 C 
ATOM     48  C   UNL A   1      48.068  26.460  27.940  1.00  0.00     0.029 A 
ATOM     49  C   UNL A   1      48.988  26.262  29.055  1.00  0.00     0.049 A 
ATOM     50  H   UNL A   1      48.512  25.664  30.994  1.00  0.00     0.167 HD
ATOM     51  C   UNL A   1      47.318  24.603  35.099  1.00  0.00     0.034 A 
ATOM     52  C   UNL A   1      50.325  26.434  29.008  1.00  0.00     0.034 A 
ATOM     53  C   UNL A   1      48.758  24.675  35.119  1.00  0.00     0.049 A 
ATOM     54  C   UNL A   1      51.134  26.193  30.257  1.00  0.00     0.074 A 
ATOM     55  C   UNL A   1      49.621  24.405  36.167  1.00  0.00     0.029 A 
ATOM     56  N   UNL A   1      49.552  25.052  34.042  1.00  0.00    -0.354 N 
ATOM     57  N   UNL A   1      50.722  25.841  31.454  1.00  0.00    -0.248 NA
ATOM     58  C   UNL A   1      52.588  26.362  30.147  1.00  0.00     0.031 C 
ATOM     59  C   UNL A   1      50.924  24.686  35.747  1.00  0.00     0.029 A 
ATOM     60  C   UNL A   1      50.889  25.050  34.410  1.00  0.00     0.049 A 
ATOM     61  H   UNL A   1      49.214  25.286  33.147  1.00  0.00     0.167 HD
ATOM     62  C   UNL A   1      51.874  25.708  32.227  1.00  0.00     0.074 A 
ATOM     63  C   UNL A   1      52.993  26.011  31.359  1.00  0.00     0.031 C 
ATOM     64  C   UNL A   1      51.995  25.358  33.533  1.00  0.00     0.034 A 
BRANCH  51  65
ATOM     65  C   UNL A   1      46.581  24.262  36.374  1.00  0.00     0.023 A 
ATOM     66  C   UNL A   1      45.978  25.255  37.167  1.00  0.00     0.031 A 
ATOM     67  C   UNL A   1      46.513  22.933  36.826  1.00  0.00     0.131 A 
ATOM     68  C   UNL A   1      45.415  24.918  38.406  1.00  0.00     0.055 A 
ATOM     69  C   UNL A   1      45.869  22.591  38.018  1.00  0.00     0.041 A 
ATOM     70  F   UNL A   1      47.088  21.942  36.127  1.00  0.00    -0.206 F 
ATOM     71  C   UNL A   1      45.331  23.589  38.825  1.00  0.00     0.022 A 
BRANCH  68  72
ATOM     72  S   UNL A   1      44.946  26.258  39.536  1.00  0.00     0.124 S 
ATOM     73  O   UNL A   1      43.824  26.865  38.822  1.00  0.00    -0.237 OA
ATOM     74  O   UNL A   1      44.610  25.537  40.758  1.00  0.00    -0.237 OA
ATOM     75  O   UNL A   1      46.150  27.083  39.607  1.00  0.00    -0.744 OA
ENDBRANCH  68  72
ENDBRANCH  51  65
BRANCH  52  76
ATOM     76  C   UNL A   1      50.985  26.865  27.742  1.00  0.00     0.023 A 
ATOM     77  C   UNL A   1      51.138  28.226  27.435  1.00  0.00     0.031 A 
ATOM     78  C   UNL A   1      51.437  25.923  26.801  1.00  0.00     0.131 A 
ATOM     79  C   UNL A   1      51.682  28.608  26.199  1.00  0.00     0.055 A 
ATOM     80  C   UNL A   1      52.030  26.308  25.597  1.00  0.00     0.041 A 
ATOM     81  F   UNL A   1      51.321  24.607  27.045  1.00  0.00    -0.206 F 
ATOM     82  C   UNL A   1      52.143  27.659  25.285  1.00  0.00     0.022 A 
BRANCH  79  83
ATOM     83  S   UNL A   1      51.698  30.369  25.765  1.00  0.00     0.124 S 
ATOM     84  O   UNL A   1      51.706  30.315  24.308  1.00  0.00    -0.237 OA
ATOM     85  O   UNL A   1      50.465  30.844  26.384  1.00  0.00    -0.237 OA
ATOM     86  O   UNL A   1      52.930  30.860  26.381  1.00  0.00    -0.744 OA
ENDBRANCH  79  83
ENDBRANCH  52  76
BRANCH  64  87
ATOM     87  C   UNL A   1      53.395  25.224  34.084  1.00  0.00     0.023 A 
ATOM     88  C   UNL A   1      54.049  26.289  34.725  1.00  0.00     0.031 A 
ATOM     89  C   UNL A   1      54.082  24.002  33.964  1.00  0.00     0.131 A 
ATOM     90  C   UNL A   1      55.370  26.130  35.173  1.00  0.00     0.055 A 
ATOM     91  C   UNL A   1      55.371  23.830  34.469  1.00  0.00     0.041 A 
ATOM     92  F   UNL A   1      53.506  22.951  33.359  1.00  0.00    -0.206 F 
ATOM     93  C   UNL A   1      56.027  24.902  35.066  1.00  0.00     0.022 A 
BRANCH  90  94
ATOM     94  S   UNL A   1      56.253  27.577  35.818  1.00  0.00     0.124 S 
ATOM     95  O   UNL A   1      55.846  27.580  37.220  1.00  0.00    -0.237 OA
ATOM     96  O   UNL A   1      57.647  27.233  35.560  1.00  0.00    -0.237 OA
ATOM     97  O   UNL A   1      55.730  28.683  35.018  1.00  0.00    -0.744 OA
ENDBRANCH  90  94
ENDBRANCH  64  87
ENDBRANCH  38  39
ENDBRANCH  30  33
ENDBRANCH  28  29
ENDBRANCH  27  28
ENDBRANCH  26  27
ENDBRANCH   1  26
TORSDOF 20
ENDMDL
