MODEL 1
REMARK VINA RESULT:     -12.5      0.000      0.000
REMARK SMILES C[C@H](C(=O)NCCCCCCNC(=O)c1ccc(-c2c3nc(c(-c4cc(S(=O)(=O)[O-])ccc4F)c4ccc([nH]4)c(-c4cc(S(=O)(=O)[O-])ccc4F)c4nc(c(-c5cc(S(=O)(=O)[O-])ccc5F)c5ccc2[nH]5)C=C4)C=C3)cc1)c1ccc2c3cc(Cl)ccc3n(C(=O)c3cocn3)c2c1
REMARK SMILES IDX 8 1 7 2 6 3 5 4 3 5 4 6 2 8 1 9 78 10 79 11 98 12 80 13
REMARK SMILES IDX 97 14 81 15 89 16 82 17 88 18 83 19 87 20 84 21 86 22 85 23
REMARK SMILES IDX 90 24 91 25 92 26 93 27 96 28 94 29 95 30 9 31 10 32 11 33
REMARK SMILES IDX 12 34 13 35 14 37 15 38 16 39 77 40 17 41 76 42 18 43 19 44
REMARK SMILES IDX 20 45 70 46 21 47 75 48 69 49 71 50 22 51 74 52 68 53 67 54
REMARK SMILES IDX 23 56 55 57 35 58 54 59 36 60 39 61 53 62 72 63 37 64 38 65
REMARK SMILES IDX 52 67 73 68 40 69 24 70 25 71 33 72 26 73 32 74 34 75 31 76
REMARK SMILES IDX 27 77 28 78 29 79 30 80 56 81 57 82 65 83 58 84 64 85 66 86
REMARK SMILES IDX 63 87 59 88 60 89 61 90 62 91 41 92 42 93 50 94 43 95 49 96
REMARK SMILES IDX 51 97 48 98 44 99 45 100 46 101 47 102
REMARK H PARENT 5 7 12 36 71 55 39 66
REMARK Flexibility Score: inf
ROOT
ATOM      1  C   UNL A   1      33.000  30.148  26.766  1.00  0.00     0.002 C 
ENDROOT
BRANCH   1   2
ATOM      2  C   UNL A   1      33.093  28.619  26.799  1.00  0.00     0.021 C 
BRANCH   2   3
ATOM      3  C   UNL A   1      33.970  27.981  25.723  1.00  0.00     0.116 C 
BRANCH   3   4
ATOM      4  N   UNL A   1      33.213  27.536  24.566  1.00  0.00    -0.356 N 
ATOM      5  C   UNL A   1      32.186  26.647  24.464  1.00  0.00     0.227 C 
ATOM      6  O   UNL A   1      31.608  26.576  23.375  1.00  0.00    -0.274 OA
ATOM      7  H   UNL A   1      33.489  27.943  23.713  1.00  0.00     0.163 HD
BRANCH   5   8
ATOM      8  C   UNL A   1      31.792  25.720  25.612  1.00  0.00     0.105 C 
ATOM      9  C   UNL A   1      30.375  26.098  26.074  1.00  0.00     0.023 C 
BRANCH   8  10
ATOM     10  C   UNL A   1      32.013  24.223  25.392  1.00  0.00    -0.034 A 
ATOM     11  C   UNL A   1      30.991  23.280  25.548  1.00  0.00     0.005 A 
ATOM     12  C   UNL A   1      33.279  23.770  24.978  1.00  0.00     0.032 A 
ATOM     13  C   UNL A   1      31.237  21.908  25.401  1.00  0.00     0.011 A 
ATOM     14  C   UNL A   1      33.536  22.389  24.850  1.00  0.00     0.058 A 
ATOM     15  C   UNL A   1      32.529  21.454  25.063  1.00  0.00     0.008 A 
ATOM     16  N   UNL A   1      34.702  21.705  24.480  1.00  0.00    -0.274 N 
ATOM     17  C   UNL A   1      33.105  20.162  24.907  1.00  0.00     0.009 A 
ATOM     18  C   UNL A   1      34.462  20.329  24.602  1.00  0.00     0.057 A 
ATOM     19  C   UNL A   1      32.580  18.859  25.059  1.00  0.00     0.031 A 
ATOM     20  C   UNL A   1      35.324  19.215  24.539  1.00  0.00     0.029 A 
ATOM     21  C   UNL A   1      33.430  17.760  24.950  1.00  0.00     0.041 A 
ATOM     22  C   UNL A   1      34.785  17.934  24.706  1.00  0.00     0.023 A 
ATOM     23  Cl  UNL A   1      32.794  16.173  25.150  1.00  0.00    -0.084 Cl
BRANCH  16  24
ATOM     24  C   UNL A   1      35.914  22.341  24.092  1.00  0.00     0.284 C 
ATOM     25  O   UNL A   1      35.960  22.752  22.929  1.00  0.00    -0.266 OA
BRANCH  24  26
ATOM     26  C   UNL A   1      37.094  22.473  24.943  1.00  0.00     0.167 A 
ATOM     27  C   UNL A   1      37.432  23.491  25.809  1.00  0.00     0.231 A 
ATOM     28  N   UNL A   1      38.027  21.453  25.086  1.00  0.00    -0.211 NA
ATOM     29  O   UNL A   1      38.572  23.138  26.472  1.00  0.00    -0.451 OA
ATOM     30  C   UNL A   1      38.862  21.900  25.991  1.00  0.00     0.308 A 
ENDBRANCH  24  26
ENDBRANCH  16  24
ENDBRANCH   8  10
ENDBRANCH   5   8
ENDBRANCH   3   4
ENDBRANCH   2   3
ENDBRANCH   1   2
BRANCH   1  31
ATOM     31  C   UNL A   1      31.616  30.736  26.479  1.00  0.00     0.002 C 
BRANCH  31  32
ATOM     32  C   UNL A   1      31.473  32.243  26.689  1.00  0.00     0.021 C 
BRANCH  32  33
ATOM     33  C   UNL A   1      32.744  32.973  27.110  1.00  0.00     0.116 C 
BRANCH  33  34
ATOM     34  N   UNL A   1      32.480  34.227  27.798  1.00  0.00    -0.352 N 
ATOM     35  C   UNL A   1      33.134  34.780  28.874  1.00  0.00     0.251 C 
ATOM     36  H   UNL A   1      31.727  34.754  27.443  1.00  0.00     0.163 HD
ATOM     37  O   UNL A   1      32.692  35.794  29.407  1.00  0.00    -0.269 OA
BRANCH  35  38
ATOM     38  C   UNL A   1      34.351  34.127  29.407  1.00  0.00     0.039 A 
ATOM     39  C   UNL A   1      35.605  34.580  28.988  1.00  0.00     0.014 A 
ATOM     40  C   UNL A   1      34.255  33.089  30.337  1.00  0.00     0.014 A 
ATOM     41  C   UNL A   1      36.764  34.048  29.561  1.00  0.00     0.010 A 
ATOM     42  C   UNL A   1      35.405  32.608  30.955  1.00  0.00     0.010 A 
ATOM     43  C   UNL A   1      36.671  33.085  30.579  1.00  0.00    -0.014 A 
BRANCH  43  44
ATOM     44  C   UNL A   1      37.874  32.551  31.270  1.00  0.00     0.031 A 
ATOM     45  C   UNL A   1      38.624  31.394  30.673  1.00  0.00     0.074 A 
ATOM     46  C   UNL A   1      38.219  33.025  32.485  1.00  0.00     0.049 A 
ATOM     47  N   UNL A   1      39.574  30.661  31.192  1.00  0.00    -0.248 NA
ATOM     48  C   UNL A   1      38.211  30.984  29.323  1.00  0.00     0.031 C 
ATOM     49  C   UNL A   1      37.547  34.119  33.187  1.00  0.00     0.029 A 
ATOM     50  N   UNL A   1      39.200  32.621  33.358  1.00  0.00    -0.354 N 
ATOM     51  C   UNL A   1      39.855  29.682  30.245  1.00  0.00     0.074 A 
ATOM     52  C   UNL A   1      38.931  29.887  29.147  1.00  0.00     0.031 C 
ATOM     53  C   UNL A   1      38.126  34.292  34.386  1.00  0.00     0.029 A 
ATOM     54  C   UNL A   1      39.177  33.293  34.558  1.00  0.00     0.049 A 
ATOM     55  H   UNL A   1      39.855  31.919  33.145  1.00  0.00     0.167 HD
ATOM     56  C   UNL A   1      40.805  28.713  30.281  1.00  0.00     0.034 A 
ATOM     57  C   UNL A   1      39.896  33.105  35.684  1.00  0.00     0.034 A 
ATOM     58  C   UNL A   1      41.724  28.537  31.379  1.00  0.00     0.049 A 
ATOM     59  C   UNL A   1      40.938  32.019  35.716  1.00  0.00     0.074 A 
ATOM     60  C   UNL A   1      42.774  27.641  31.492  1.00  0.00     0.029 A 
ATOM     61  N   UNL A   1      41.695  29.263  32.564  1.00  0.00    -0.354 N 
ATOM     62  N   UNL A   1      41.231  31.132  34.793  1.00  0.00    -0.248 NA
ATOM     63  C   UNL A   1      41.751  31.912  36.935  1.00  0.00     0.031 C 
ATOM     64  C   UNL A   1      43.333  27.777  32.767  1.00  0.00     0.029 A 
ATOM     65  C   UNL A   1      42.685  28.811  33.425  1.00  0.00     0.049 A 
ATOM     66  H   UNL A   1      41.064  29.991  32.764  1.00  0.00     0.167 HD
ATOM     67  C   UNL A   1      42.283  30.380  35.309  1.00  0.00     0.074 A 
ATOM     68  C   UNL A   1      42.571  30.916  36.624  1.00  0.00     0.031 C 
ATOM     69  C   UNL A   1      42.956  29.349  34.738  1.00  0.00     0.034 A 
BRANCH  56  70
ATOM     70  C   UNL A   1      40.860  27.757  29.112  1.00  0.00     0.023 A 
ATOM     71  C   UNL A   1      41.820  27.888  28.093  1.00  0.00     0.031 A 
ATOM     72  C   UNL A   1      39.898  26.738  28.977  1.00  0.00     0.131 A 
ATOM     73  C   UNL A   1      41.731  27.096  26.939  1.00  0.00     0.055 A 
ATOM     74  C   UNL A   1      39.877  25.887  27.870  1.00  0.00     0.041 A 
ATOM     75  F   UNL A   1      38.945  26.571  29.907  1.00  0.00    -0.206 F 
ATOM     76  C   UNL A   1      40.782  26.079  26.831  1.00  0.00     0.022 A 
BRANCH  73  77
ATOM     77  S   UNL A   1      42.747  27.548  25.505  1.00  0.00     0.124 S 
ATOM     78  O   UNL A   1      42.650  26.343  24.683  1.00  0.00    -0.237 OA
ATOM     79  O   UNL A   1      42.060  28.727  24.992  1.00  0.00    -0.237 OA
ATOM     80  O   UNL A   1      44.067  27.792  26.083  1.00  0.00    -0.744 OA
ENDBRANCH  73  77
ENDBRANCH  56  70
BRANCH  57  81
ATOM     81  C   UNL A   1      39.624  33.949  36.881  1.00  0.00     0.023 A 
ATOM     82  C   UNL A   1      38.994  33.421  38.017  1.00  0.00     0.031 A 
ATOM     83  C   UNL A   1      40.007  35.303  36.904  1.00  0.00     0.131 A 
ATOM     84  C   UNL A   1      38.743  34.249  39.124  1.00  0.00     0.055 A 
ATOM     85  C   UNL A   1      39.792  36.111  38.022  1.00  0.00     0.041 A 
ATOM     86  F   UNL A   1      40.624  35.852  35.846  1.00  0.00    -0.206 F 
ATOM     87  C   UNL A   1      39.149  35.585  39.139  1.00  0.00     0.022 A 
BRANCH  84  88
ATOM     88  S   UNL A   1      37.838  33.562  40.538  1.00  0.00     0.124 S 
ATOM     89  O   UNL A   1      36.620  33.072  39.901  1.00  0.00    -0.237 OA
ATOM     90  O   UNL A   1      38.762  32.542  41.024  1.00  0.00    -0.237 OA
ATOM     91  O   UNL A   1      37.663  34.712  41.421  1.00  0.00    -0.744 OA
ENDBRANCH  84  88
ENDBRANCH  57  81
BRANCH  69  92
ATOM     92  C   UNL A   1      44.111  28.763  35.512  1.00  0.00     0.023 A 
ATOM     93  C   UNL A   1      43.941  27.706  36.421  1.00  0.00     0.031 A 
ATOM     94  C   UNL A   1      45.412  29.256  35.301  1.00  0.00     0.131 A 
ATOM     95  C   UNL A   1      45.052  27.193  37.109  1.00  0.00     0.055 A 
ATOM     96  C   UNL A   1      46.519  28.709  35.952  1.00  0.00     0.041 A 
ATOM     97  F   UNL A   1      45.629  30.267  34.443  1.00  0.00    -0.206 F 
ATOM     98  C   UNL A   1      46.341  27.676  36.866  1.00  0.00     0.022 A 
BRANCH  95  99
ATOM     99  S   UNL A   1      44.790  25.908  38.362  1.00  0.00     0.124 S 
ATOM    100  O   UNL A   1      43.931  24.965  37.654  1.00  0.00    -0.237 OA
ATOM    101  O   UNL A   1      46.149  25.453  38.634  1.00  0.00    -0.237 OA
ATOM    102  O   UNL A   1      44.148  26.627  39.462  1.00  0.00    -0.744 OA
ENDBRANCH  95  99
ENDBRANCH  69  92
ENDBRANCH  43  44
ENDBRANCH  35  38
ENDBRANCH  33  34
ENDBRANCH  32  33
ENDBRANCH  31  32
ENDBRANCH   1  31
TORSDOF 19
ENDMDL
MODEL 2
REMARK VINA RESULT:     -12.4      1.547      2.501
REMARK SMILES C[C@H](C(=O)NCCCCCCNC(=O)c1ccc(-c2c3nc(c(-c4cc(S(=O)(=O)[O-])ccc4F)c4ccc([nH]4)c(-c4cc(S(=O)(=O)[O-])ccc4F)c4nc(c(-c5cc(S(=O)(=O)[O-])ccc5F)c5ccc2[nH]5)C=C4)C=C3)cc1)c1ccc2c3cc(Cl)ccc3n(C(=O)c3cocn3)c2c1
REMARK SMILES IDX 8 1 7 2 6 3 5 4 3 5 4 6 2 8 1 9 78 10 79 11 98 12 80 13
REMARK SMILES IDX 97 14 81 15 89 16 82 17 88 18 83 19 87 20 84 21 86 22 85 23
REMARK SMILES IDX 90 24 91 25 92 26 93 27 96 28 94 29 95 30 9 31 10 32 11 33
REMARK SMILES IDX 12 34 13 35 14 37 15 38 16 39 77 40 17 41 76 42 18 43 19 44
REMARK SMILES IDX 20 45 70 46 21 47 75 48 69 49 71 50 22 51 74 52 68 53 67 54
REMARK SMILES IDX 23 56 55 57 35 58 54 59 36 60 39 61 53 62 72 63 37 64 38 65
REMARK SMILES IDX 52 67 73 68 40 69 24 70 25 71 33 72 26 73 32 74 34 75 31 76
REMARK SMILES IDX 27 77 28 78 29 79 30 80 56 81 57 82 65 83 58 84 64 85 66 86
REMARK SMILES IDX 63 87 59 88 60 89 61 90 62 91 41 92 42 93 50 94 43 95 49 96
REMARK SMILES IDX 51 97 48 98 44 99 45 100 46 101 47 102
REMARK H PARENT 5 7 12 36 71 55 39 66
REMARK Flexibility Score: inf
ROOT
ATOM      1  C   UNL A   1      33.142  29.481  25.371  1.00  0.00     0.002 C 
ENDROOT
BRANCH   1   2
ATOM      2  C   UNL A   1      33.182  29.328  23.846  1.00  0.00     0.021 C 
BRANCH   2   3
ATOM      3  C   UNL A   1      31.825  29.254  23.148  1.00  0.00     0.116 C 
BRANCH   3   4
ATOM      4  N   UNL A   1      31.738  28.164  22.193  1.00  0.00    -0.356 N 
ATOM      5  C   UNL A   1      31.417  26.852  22.368  1.00  0.00     0.227 C 
ATOM      6  O   UNL A   1      31.254  26.170  21.351  1.00  0.00    -0.274 OA
ATOM      7  H   UNL A   1      31.946  28.414  21.264  1.00  0.00     0.163 HD
BRANCH   5   8
ATOM      8  C   UNL A   1      31.323  26.212  23.752  1.00  0.00     0.105 C 
ATOM      9  C   UNL A   1      30.003  25.427  23.833  1.00  0.00     0.023 C 
BRANCH   8  10
ATOM     10  C   UNL A   1      32.553  25.445  24.239  1.00  0.00    -0.034 A 
ATOM     11  C   UNL A   1      33.616  26.069  24.900  1.00  0.00     0.005 A 
ATOM     12  C   UNL A   1      32.609  24.051  24.055  1.00  0.00     0.032 A 
ATOM     13  C   UNL A   1      34.759  25.352  25.280  1.00  0.00     0.011 A 
ATOM     14  C   UNL A   1      33.766  23.330  24.416  1.00  0.00     0.058 A 
ATOM     15  C   UNL A   1      34.843  23.968  25.021  1.00  0.00     0.008 A 
ATOM     16  N   UNL A   1      34.063  21.964  24.314  1.00  0.00    -0.274 N 
ATOM     17  C   UNL A   1      35.863  22.994  25.217  1.00  0.00     0.009 A 
ATOM     18  C   UNL A   1      35.390  21.771  24.725  1.00  0.00     0.057 A 
ATOM     19  C   UNL A   1      37.177  23.078  25.729  1.00  0.00     0.031 A 
ATOM     20  C   UNL A   1      36.244  20.651  24.649  1.00  0.00     0.029 A 
ATOM     21  C   UNL A   1      38.000  21.955  25.693  1.00  0.00     0.041 A 
ATOM     22  C   UNL A   1      37.547  20.761  25.150  1.00  0.00     0.023 A 
ATOM     23  Cl  UNL A   1      39.607  22.061  26.302  1.00  0.00    -0.084 Cl
BRANCH  16  24
ATOM     24  C   UNL A   1      33.156  20.982  23.831  1.00  0.00     0.284 C 
ATOM     25  O   UNL A   1      32.510  21.292  22.825  1.00  0.00    -0.266 OA
BRANCH  24  26
ATOM     26  C   UNL A   1      32.902  19.695  24.473  1.00  0.00     0.167 A 
ATOM     27  C   UNL A   1      32.863  19.384  25.816  1.00  0.00     0.231 A 
ATOM     28  N   UNL A   1      32.516  18.569  23.756  1.00  0.00    -0.211 NA
ATOM     29  O   UNL A   1      32.485  18.080  25.950  1.00  0.00    -0.451 OA
ATOM     30  C   UNL A   1      32.286  17.662  24.672  1.00  0.00     0.308 A 
ENDBRANCH  24  26
ENDBRANCH  16  24
ENDBRANCH   8  10
ENDBRANCH   5   8
ENDBRANCH   3   4
ENDBRANCH   2   3
ENDBRANCH   1   2
BRANCH   1  31
ATOM     31  C   UNL A   1      31.802  29.914  25.972  1.00  0.00     0.002 C 
BRANCH  31  32
ATOM     32  C   UNL A   1      31.882  30.863  27.167  1.00  0.00     0.021 C 
BRANCH  32  33
ATOM     33  C   UNL A   1      33.067  31.822  27.169  1.00  0.00     0.116 C 
BRANCH  33  34
ATOM     34  N   UNL A   1      32.680  33.205  27.404  1.00  0.00    -0.352 N 
ATOM     35  C   UNL A   1      33.192  34.106  28.309  1.00  0.00     0.251 C 
ATOM     36  H   UNL A   1      31.951  33.543  26.836  1.00  0.00     0.163 HD
ATOM     37  O   UNL A   1      32.654  35.200  28.458  1.00  0.00    -0.269 OA
BRANCH  35  38
ATOM     38  C   UNL A   1      34.368  33.735  29.127  1.00  0.00     0.039 A 
ATOM     39  C   UNL A   1      34.199  32.863  30.206  1.00  0.00     0.014 A 
ATOM     40  C   UNL A   1      35.638  34.224  28.813  1.00  0.00     0.014 A 
ATOM     41  C   UNL A   1      35.314  32.418  30.923  1.00  0.00     0.010 A 
ATOM     42  C   UNL A   1      36.753  33.729  29.483  1.00  0.00     0.010 A 
ATOM     43  C   UNL A   1      36.605  32.817  30.541  1.00  0.00    -0.014 A 
BRANCH  43  44
ATOM     44  C   UNL A   1      37.822  32.305  31.223  1.00  0.00     0.031 A 
ATOM     45  C   UNL A   1      38.576  31.147  30.632  1.00  0.00     0.074 A 
ATOM     46  C   UNL A   1      38.178  32.798  32.426  1.00  0.00     0.049 A 
ATOM     47  N   UNL A   1      39.541  30.431  31.148  1.00  0.00    -0.248 NA
ATOM     48  C   UNL A   1      38.150  30.714  29.293  1.00  0.00     0.031 C 
ATOM     49  C   UNL A   1      37.504  33.895  33.122  1.00  0.00     0.029 A 
ATOM     50  N   UNL A   1      39.175  32.418  33.291  1.00  0.00    -0.354 N 
ATOM     51  C   UNL A   1      39.820  29.442  30.211  1.00  0.00     0.074 A 
ATOM     52  C   UNL A   1      38.878  29.622  29.123  1.00  0.00     0.031 C 
ATOM     53  C   UNL A   1      38.098  34.091  34.310  1.00  0.00     0.029 A 
ATOM     54  C   UNL A   1      39.162  33.106  34.482  1.00  0.00     0.049 A 
ATOM     55  H   UNL A   1      39.835  31.719  33.079  1.00  0.00     0.167 HD
ATOM     56  C   UNL A   1      40.780  28.484  30.247  1.00  0.00     0.034 A 
ATOM     57  C   UNL A   1      39.897  32.942  35.600  1.00  0.00     0.034 A 
ATOM     58  C   UNL A   1      41.716  28.332  31.335  1.00  0.00     0.049 A 
ATOM     59  C   UNL A   1      40.951  31.866  35.633  1.00  0.00     0.074 A 
ATOM     60  C   UNL A   1      42.776  27.449  31.446  1.00  0.00     0.029 A 
ATOM     61  N   UNL A   1      41.695  29.075  32.510  1.00  0.00    -0.354 N 
ATOM     62  N   UNL A   1      41.241  30.970  34.719  1.00  0.00    -0.248 NA
ATOM     63  C   UNL A   1      41.782  31.785  36.843  1.00  0.00     0.031 C 
ATOM     64  C   UNL A   1      43.351  27.609  32.711  1.00  0.00     0.029 A 
ATOM     65  C   UNL A   1      42.701  28.645  33.364  1.00  0.00     0.049 A 
ATOM     66  H   UNL A   1      41.059  29.799  32.709  1.00  0.00     0.167 HD
ATOM     67  C   UNL A   1      42.308  30.236  35.231  1.00  0.00     0.074 A 
ATOM     68  C   UNL A   1      42.608  30.793  36.534  1.00  0.00     0.031 C 
ATOM     69  C   UNL A   1      42.984  29.204  34.666  1.00  0.00     0.034 A 
BRANCH  56  70
ATOM     70  C   UNL A   1      40.829  27.512  29.091  1.00  0.00     0.023 A 
ATOM     71  C   UNL A   1      41.785  27.629  28.066  1.00  0.00     0.031 A 
ATOM     72  C   UNL A   1      39.867  26.492  28.975  1.00  0.00     0.131 A 
ATOM     73  C   UNL A   1      41.690  26.821  26.923  1.00  0.00     0.055 A 
ATOM     74  C   UNL A   1      39.840  25.626  27.879  1.00  0.00     0.041 A 
ATOM     75  F   UNL A   1      38.917  26.337  29.910  1.00  0.00    -0.206 F 
ATOM     76  C   UNL A   1      40.740  25.803  26.833  1.00  0.00     0.022 A 
BRANCH  73  77
ATOM     77  S   UNL A   1      42.700  27.253  25.479  1.00  0.00     0.124 S 
ATOM     78  O   UNL A   1      42.005  28.438  24.977  1.00  0.00    -0.237 OA
ATOM     79  O   UNL A   1      44.012  27.486  26.070  1.00  0.00    -0.237 OA
ATOM     80  O   UNL A   1      42.598  26.073  24.623  1.00  0.00    -0.744 OA
ENDBRANCH  73  77
ENDBRANCH  56  70
BRANCH  57  81
ATOM     81  C   UNL A   1      39.633  33.799  36.790  1.00  0.00     0.023 A 
ATOM     82  C   UNL A   1      38.979  33.292  37.922  1.00  0.00     0.031 A 
ATOM     83  C   UNL A   1      40.046  35.144  36.808  1.00  0.00     0.131 A 
ATOM     84  C   UNL A   1      38.736  34.133  39.021  1.00  0.00     0.055 A 
ATOM     85  C   UNL A   1      39.838  35.964  37.918  1.00  0.00     0.041 A 
ATOM     86  F   UNL A   1      40.685  35.672  35.753  1.00  0.00    -0.206 F 
ATOM     87  C   UNL A   1      39.172  35.460  39.032  1.00  0.00     0.022 A 
BRANCH  84  88
ATOM     88  S   UNL A   1      37.802  33.476  40.431  1.00  0.00     0.124 S 
ATOM     89  O   UNL A   1      36.626  32.918  39.773  1.00  0.00    -0.237 OA
ATOM     90  O   UNL A   1      38.741  32.511  40.994  1.00  0.00    -0.237 OA
ATOM     91  O   UNL A   1      37.556  34.656  41.256  1.00  0.00    -0.744 OA
ENDBRANCH  84  88
ENDBRANCH  57  81
BRANCH  69  92
ATOM     92  C   UNL A   1      44.156  28.641  35.431  1.00  0.00     0.023 A 
ATOM     93  C   UNL A   1      44.007  27.605  36.367  1.00  0.00     0.031 A 
ATOM     94  C   UNL A   1      45.450  29.135  35.186  1.00  0.00     0.131 A 
ATOM     95  C   UNL A   1      45.132  27.112  37.046  1.00  0.00     0.055 A 
ATOM     96  C   UNL A   1      46.572  28.608  35.829  1.00  0.00     0.041 A 
ATOM     97  F   UNL A   1      45.647  30.126  34.301  1.00  0.00    -0.206 F 
ATOM     98  C   UNL A   1      46.415  27.596  36.770  1.00  0.00     0.022 A 
BRANCH  95  99
ATOM     99  S   UNL A   1      44.899  25.855  38.334  1.00  0.00     0.124 S 
ATOM    100  O   UNL A   1      43.891  24.989  37.732  1.00  0.00    -0.237 OA
ATOM    101  O   UNL A   1      46.236  25.285  38.462  1.00  0.00    -0.237 OA
ATOM    102  O   UNL A   1      44.444  26.627  39.489  1.00  0.00    -0.744 OA
ENDBRANCH  95  99
ENDBRANCH  69  92
ENDBRANCH  43  44
ENDBRANCH  35  38
ENDBRANCH  33  34
ENDBRANCH  32  33
ENDBRANCH  31  32
ENDBRANCH   1  31
TORSDOF 19
ENDMDL
MODEL 3
REMARK VINA RESULT:     -12.0      1.404      7.268
REMARK SMILES C[C@H](C(=O)NCCCCCCNC(=O)c1ccc(-c2c3nc(c(-c4cc(S(=O)(=O)[O-])ccc4F)c4ccc([nH]4)c(-c4cc(S(=O)(=O)[O-])ccc4F)c4nc(c(-c5cc(S(=O)(=O)[O-])ccc5F)c5ccc2[nH]5)C=C4)C=C3)cc1)c1ccc2c3cc(Cl)ccc3n(C(=O)c3cocn3)c2c1
REMARK SMILES IDX 8 1 7 2 6 3 5 4 3 5 4 6 2 8 1 9 78 10 79 11 98 12 80 13
REMARK SMILES IDX 97 14 81 15 89 16 82 17 88 18 83 19 87 20 84 21 86 22 85 23
REMARK SMILES IDX 90 24 91 25 92 26 93 27 96 28 94 29 95 30 9 31 10 32 11 33
REMARK SMILES IDX 12 34 13 35 14 37 15 38 16 39 77 40 17 41 76 42 18 43 19 44
REMARK SMILES IDX 20 45 70 46 21 47 75 48 69 49 71 50 22 51 74 52 68 53 67 54
REMARK SMILES IDX 23 56 55 57 35 58 54 59 36 60 39 61 53 62 72 63 37 64 38 65
REMARK SMILES IDX 52 67 73 68 40 69 24 70 25 71 33 72 26 73 32 74 34 75 31 76
REMARK SMILES IDX 27 77 28 78 29 79 30 80 56 81 57 82 65 83 58 84 64 85 66 86
REMARK SMILES IDX 63 87 59 88 60 89 61 90 62 91 41 92 42 93 50 94 43 95 49 96
REMARK SMILES IDX 51 97 48 98 44 99 45 100 46 101 47 102
REMARK H PARENT 5 7 12 36 71 55 39 66
REMARK Flexibility Score: inf
ROOT
ATOM      1  C   UNL A   1      32.959  30.323  27.208  1.00  0.00     0.002 C 
ENDROOT
BRANCH   1   2
ATOM      2  C   UNL A   1      32.831  28.796  27.252  1.00  0.00     0.021 C 
BRANCH   2   3
ATOM      3  C   UNL A   1      33.884  28.017  26.466  1.00  0.00     0.116 C 
BRANCH   3   4
ATOM      4  N   UNL A   1      33.407  27.570  25.169  1.00  0.00    -0.356 N 
ATOM      5  C   UNL A   1      32.470  26.640  24.839  1.00  0.00     0.227 C 
ATOM      6  O   UNL A   1      32.134  26.573  23.651  1.00  0.00    -0.274 OA
ATOM      7  H   UNL A   1      33.833  28.014  24.400  1.00  0.00     0.163 HD
BRANCH   5   8
ATOM      8  C   UNL A   1      31.893  25.663  25.862  1.00  0.00     0.105 C 
ATOM      9  C   UNL A   1      30.433  26.060  26.139  1.00  0.00     0.023 C 
BRANCH   8  10
ATOM     10  C   UNL A   1      32.109  24.174  25.588  1.00  0.00    -0.034 A 
ATOM     11  C   UNL A   1      31.091  23.226  25.735  1.00  0.00     0.005 A 
ATOM     12  C   UNL A   1      33.365  23.736  25.130  1.00  0.00     0.032 A 
ATOM     13  C   UNL A   1      31.334  21.860  25.538  1.00  0.00     0.011 A 
ATOM     14  C   UNL A   1      33.619  22.360  24.952  1.00  0.00     0.058 A 
ATOM     15  C   UNL A   1      32.618  21.419  25.156  1.00  0.00     0.008 A 
ATOM     16  N   UNL A   1      34.777  21.690  24.532  1.00  0.00    -0.274 N 
ATOM     17  C   UNL A   1      33.189  20.132  24.945  1.00  0.00     0.009 A 
ATOM     18  C   UNL A   1      34.539  20.311  24.614  1.00  0.00     0.057 A 
ATOM     19  C   UNL A   1      32.668  18.825  25.066  1.00  0.00     0.031 A 
ATOM     20  C   UNL A   1      35.399  19.199  24.495  1.00  0.00     0.029 A 
ATOM     21  C   UNL A   1      33.515  17.731  24.900  1.00  0.00     0.041 A 
ATOM     22  C   UNL A   1      34.864  17.913  24.631  1.00  0.00     0.023 A 
ATOM     23  Cl  UNL A   1      32.884  16.138  25.063  1.00  0.00    -0.084 Cl
BRANCH  16  24
ATOM     24  C   UNL A   1      35.979  22.339  24.138  1.00  0.00     0.284 C 
ATOM     25  O   UNL A   1      36.006  22.769  22.981  1.00  0.00    -0.266 OA
BRANCH  24  26
ATOM     26  C   UNL A   1      37.170  22.465  24.975  1.00  0.00     0.167 A 
ATOM     27  C   UNL A   1      37.572  23.524  25.761  1.00  0.00     0.231 A 
ATOM     28  N   UNL A   1      38.042  21.405  25.193  1.00  0.00    -0.211 NA
ATOM     29  O   UNL A   1      38.693  23.155  26.447  1.00  0.00    -0.451 OA
ATOM     30  C   UNL A   1      38.907  21.869  26.061  1.00  0.00     0.308 A 
ENDBRANCH  24  26
ENDBRANCH  16  24
ENDBRANCH   8  10
ENDBRANCH   5   8
ENDBRANCH   3   4
ENDBRANCH   2   3
ENDBRANCH   1   2
BRANCH   1  31
ATOM     31  C   UNL A   1      31.820  31.078  26.517  1.00  0.00     0.002 C 
BRANCH  31  32
ATOM     32  C   UNL A   1      31.686  32.558  26.874  1.00  0.00     0.021 C 
BRANCH  32  33
ATOM     33  C   UNL A   1      32.918  33.197  27.505  1.00  0.00     0.116 C 
BRANCH  33  34
ATOM     34  N   UNL A   1      32.680  34.554  27.973  1.00  0.00    -0.352 N 
ATOM     35  C   UNL A   1      33.245  35.216  29.037  1.00  0.00     0.251 C 
ATOM     36  H   UNL A   1      32.021  35.071  27.454  1.00  0.00     0.163 HD
ATOM     37  O   UNL A   1      32.829  36.324  29.363  1.00  0.00    -0.269 OA
BRANCH  35  38
ATOM     38  C   UNL A   1      34.332  34.571  29.808  1.00  0.00     0.039 A 
ATOM     39  C   UNL A   1      34.016  33.886  30.985  1.00  0.00     0.014 A 
ATOM     40  C   UNL A   1      35.653  34.618  29.356  1.00  0.00     0.014 A 
ATOM     41  C   UNL A   1      35.012  33.181  31.667  1.00  0.00     0.010 A 
ATOM     42  C   UNL A   1      36.628  33.861  29.998  1.00  0.00     0.010 A 
ATOM     43  C   UNL A   1      36.318  33.129  31.156  1.00  0.00    -0.014 A 
BRANCH  43  44
ATOM     44  C   UNL A   1      37.388  32.326  31.806  1.00  0.00     0.031 A 
ATOM     45  C   UNL A   1      37.917  32.741  33.150  1.00  0.00     0.074 A 
ATOM     46  C   UNL A   1      37.962  31.304  31.140  1.00  0.00     0.049 A 
ATOM     47  N   UNL A   1      38.960  32.301  33.806  1.00  0.00    -0.248 NA
ATOM     48  C   UNL A   1      37.192  33.828  33.823  1.00  0.00     0.031 C 
ATOM     49  C   UNL A   1      37.563  30.831  29.814  1.00  0.00     0.029 A 
ATOM     50  N   UNL A   1      39.025  30.502  31.475  1.00  0.00    -0.354 N 
ATOM     51  C   UNL A   1      39.037  33.079  34.956  1.00  0.00     0.074 A 
ATOM     52  C   UNL A   1      37.966  34.052  34.873  1.00  0.00     0.031 C 
ATOM     53  C   UNL A   1      38.378  29.830  29.443  1.00  0.00     0.029 A 
ATOM     54  C   UNL A   1      39.385  29.622  30.480  1.00  0.00     0.049 A 
ATOM     55  H   UNL A   1      39.487  30.553  32.343  1.00  0.00     0.167 HD
ATOM     56  C   UNL A   1      39.910  32.980  35.991  1.00  0.00     0.034 A 
ATOM     57  C   UNL A   1      40.425  28.770  30.395  1.00  0.00     0.034 A 
ATOM     58  C   UNL A   1      40.960  31.993  36.058  1.00  0.00     0.049 A 
ATOM     59  C   UNL A   1      41.394  28.678  31.544  1.00  0.00     0.074 A 
ATOM     60  C   UNL A   1      41.853  31.750  37.088  1.00  0.00     0.029 A 
ATOM     61  N   UNL A   1      41.270  31.092  35.046  1.00  0.00    -0.354 N 
ATOM     62  N   UNL A   1      41.427  29.383  32.652  1.00  0.00    -0.248 NA
ATOM     63  C   UNL A   1      42.461  27.673  31.438  1.00  0.00     0.031 C 
ATOM     64  C   UNL A   1      42.743  30.754  36.672  1.00  0.00     0.029 A 
ATOM     65  C   UNL A   1      42.360  30.318  35.413  1.00  0.00     0.049 A 
ATOM     66  H   UNL A   1      40.786  31.015  34.192  1.00  0.00     0.167 HD
ATOM     67  C   UNL A   1      42.499  28.886  33.388  1.00  0.00     0.074 A 
ATOM     68  C   UNL A   1      43.089  27.824  32.598  1.00  0.00     0.031 C 
ATOM     69  C   UNL A   1      42.944  29.267  34.612  1.00  0.00     0.034 A 
BRANCH  56  70
ATOM     70  C   UNL A   1      39.777  33.993  37.105  1.00  0.00     0.023 A 
ATOM     71  C   UNL A   1      40.685  35.057  37.248  1.00  0.00     0.031 A 
ATOM     72  C   UNL A   1      38.768  33.858  38.076  1.00  0.00     0.131 A 
ATOM     73  C   UNL A   1      40.637  35.871  38.390  1.00  0.00     0.055 A 
ATOM     74  C   UNL A   1      38.666  34.734  39.159  1.00  0.00     0.041 A 
ATOM     75  F   UNL A   1      37.880  32.854  38.005  1.00  0.00    -0.206 F 
ATOM     76  C   UNL A   1      39.618  35.733  39.334  1.00  0.00     0.022 A 
BRANCH  73  77
ATOM     77  S   UNL A   1      42.037  36.977  38.718  1.00  0.00     0.124 S 
ATOM     78  O   UNL A   1      41.355  38.201  39.134  1.00  0.00    -0.237 OA
ATOM     79  O   UNL A   1      42.764  36.264  39.762  1.00  0.00    -0.237 OA
ATOM     80  O   UNL A   1      42.717  37.061  37.427  1.00  0.00    -0.744 OA
ENDBRANCH  73  77
ENDBRANCH  56  70
BRANCH  57  81
ATOM     81  C   UNL A   1      40.618  27.961  29.159  1.00  0.00     0.023 A 
ATOM     82  C   UNL A   1      41.550  28.337  28.180  1.00  0.00     0.031 A 
ATOM     83  C   UNL A   1      39.871  26.788  28.948  1.00  0.00     0.131 A 
ATOM     84  C   UNL A   1      41.696  27.557  27.021  1.00  0.00     0.055 A 
ATOM     85  C   UNL A   1      40.049  25.994  27.813  1.00  0.00     0.041 A 
ATOM     86  F   UNL A   1      38.975  26.380  29.860  1.00  0.00    -0.206 F 
ATOM     87  C   UNL A   1      40.962  26.383  26.837  1.00  0.00     0.022 A 
BRANCH  84  88
ATOM     88  S   UNL A   1      42.837  28.123  25.729  1.00  0.00     0.124 S 
ATOM     89  O   UNL A   1      42.599  29.562  25.732  1.00  0.00    -0.237 OA
ATOM     90  O   UNL A   1      44.128  27.686  26.252  1.00  0.00    -0.237 OA
ATOM     91  O   UNL A   1      42.379  27.415  24.536  1.00  0.00    -0.744 OA
ENDBRANCH  84  88
ENDBRANCH  57  81
BRANCH  69  92
ATOM     92  C   UNL A   1      44.098  28.494  35.201  1.00  0.00     0.023 A 
ATOM     93  C   UNL A   1      43.906  27.318  35.945  1.00  0.00     0.031 A 
ATOM     94  C   UNL A   1      45.417  28.931  34.978  1.00  0.00     0.131 A 
ATOM     95  C   UNL A   1      45.015  26.632  36.464  1.00  0.00     0.055 A 
ATOM     96  C   UNL A   1      46.518  28.219  35.456  1.00  0.00     0.041 A 
ATOM     97  F   UNL A   1      45.655  30.050  34.274  1.00  0.00    -0.206 F 
ATOM     98  C   UNL A   1      46.319  27.066  36.209  1.00  0.00     0.022 A 
BRANCH  95  99
ATOM     99  S   UNL A   1      44.736  25.183  37.518  1.00  0.00     0.124 S 
ATOM    100  O   UNL A   1      45.765  24.263  37.046  1.00  0.00    -0.237 OA
ATOM    101  O   UNL A   1      44.931  25.726  38.858  1.00  0.00    -0.237 OA
ATOM    102  O   UNL A   1      43.362  24.790  37.206  1.00  0.00    -0.744 OA
ENDBRANCH  95  99
ENDBRANCH  69  92
ENDBRANCH  43  44
ENDBRANCH  35  38
ENDBRANCH  33  34
ENDBRANCH  32  33
ENDBRANCH  31  32
ENDBRANCH   1  31
TORSDOF 19
ENDMDL
