MODEL 1
REMARK VINA RESULT:     -11.0      0.000      0.000
REMARK SMILES CSCCC(=O)N1[C@H](C)CCC[C@@H]1C(=O)NCCCCCCNC(=O)c1ccc(-c2c3nc(c(-c4cc(S(=O)(=O)[O-])ccc4F)c4ccc([nH]4)c(-c4cc(S(=O)(=O)[O-])ccc4F)c4nc(c(-c5cc(S(=O)(=O)[O-])ccc5F)c5ccc2[nH]5)C=C4)C=C3)cc1
REMARK SMILES IDX 19 1 18 2 17 3 16 4 14 5 15 6 13 8 7 9 8 10 9 11 10 12 12 13
REMARK SMILES IDX 11 14 5 15 6 16 4 17 3 18 2 19 1 20 20 21 21 22 22 23 23 24
REMARK SMILES IDX 24 25 25 27 26 28 27 29 88 30 28 31 87 32 29 33 30 34 31 35
REMARK SMILES IDX 81 36 32 37 86 38 80 39 82 40 33 41 85 42 79 43 78 44 34 46
REMARK SMILES IDX 66 47 46 48 65 49 47 50 50 51 64 52 83 53 48 54 49 55 63 57
REMARK SMILES IDX 84 58 51 59 35 60 36 61 44 62 37 63 43 64 45 65 42 66 38 67
REMARK SMILES IDX 39 68 40 69 41 70 67 71 68 72 76 73 69 74 75 75 77 76 74 77
REMARK SMILES IDX 70 78 71 79 72 80 73 81 52 82 53 83 61 84 54 85 60 86 62 87
REMARK SMILES IDX 59 88 55 89 56 90 57 91 58 92
REMARK H PARENT 16 7 23 26 82 45 50 56
REMARK Flexibility Score: inf
ROOT
ATOM      1  C   UNL A   1      32.568  29.690  27.041  1.00  0.00     0.002 C 
ENDROOT
BRANCH   1   2
ATOM      2  C   UNL A   1      32.025  28.347  27.529  1.00  0.00     0.021 C 
BRANCH   2   3
ATOM      3  C   UNL A   1      31.346  27.483  26.479  1.00  0.00     0.116 C 
BRANCH   3   4
ATOM      4  N   UNL A   1      31.377  26.052  26.654  1.00  0.00    -0.354 N 
ATOM      5  C   UNL A   1      32.271  25.145  26.143  1.00  0.00     0.242 C 
ATOM      6  O   UNL A   1      32.303  24.047  26.715  1.00  0.00    -0.273 OA
ATOM      7  H   UNL A   1      30.662  25.676  27.215  1.00  0.00     0.163 HD
BRANCH   5   8
ATOM      8  C   UNL A   1      33.283  25.443  24.975  1.00  0.00     0.174 C 
ATOM      9  N   UNL A   1      32.799  25.239  23.590  1.00  0.00    -0.328 N 
ATOM     10  C   UNL A   1      32.643  23.859  23.152  1.00  0.00     0.082 C 
ATOM     11  C   UNL A   1      31.262  23.286  23.462  1.00  0.00     0.031 C 
ATOM     12  C   UNL A   1      33.861  22.999  23.551  1.00  0.00     0.025 C 
ATOM     13  C   UNL A   1      34.705  24.904  25.122  1.00  0.00     0.035 C 
ATOM     14  C   UNL A   1      35.049  23.794  24.116  1.00  0.00     0.005 C 
BRANCH   9  15
ATOM     15  C   UNL A   1      33.013  26.247  22.646  1.00  0.00     0.224 C 
ATOM     16  O   UNL A   1      33.821  26.127  21.724  1.00  0.00    -0.275 OA
BRANCH  15  17
ATOM     17  C   UNL A   1      32.252  27.557  22.823  1.00  0.00     0.111 C 
BRANCH  17  18
ATOM     18  C   UNL A   1      30.851  27.574  22.211  1.00  0.00     0.079 C 
BRANCH  18  19
ATOM     19  S   UNL A   1      29.644  28.604  23.132  1.00  0.00    -0.165 SA
ATOM     20  C   UNL A   1      28.445  27.335  23.617  1.00  0.00     0.085 C 
ENDBRANCH  18  19
ENDBRANCH  17  18
ENDBRANCH  15  17
ENDBRANCH   9  15
ENDBRANCH   5   8
ENDBRANCH   3   4
ENDBRANCH   2   3
ENDBRANCH   1   2
BRANCH   1  21
ATOM     21  C   UNL A   1      31.603  30.617  26.286  1.00  0.00     0.002 C 
BRANCH  21  22
ATOM     22  C   UNL A   1      31.473  32.066  26.771  1.00  0.00     0.021 C 
BRANCH  22  23
ATOM     23  C   UNL A   1      32.758  32.764  27.212  1.00  0.00     0.116 C 
BRANCH  23  24
ATOM     24  N   UNL A   1      32.529  34.099  27.733  1.00  0.00    -0.352 N 
ATOM     25  C   UNL A   1      33.152  34.788  28.743  1.00  0.00     0.251 C 
ATOM     26  H   UNL A   1      31.803  34.593  27.286  1.00  0.00     0.163 HD
ATOM     27  O   UNL A   1      32.689  35.871  29.093  1.00  0.00    -0.269 OA
BRANCH  25  28
ATOM     28  C   UNL A   1      34.345  34.238  29.428  1.00  0.00     0.039 A 
ATOM     29  C   UNL A   1      34.159  33.553  30.633  1.00  0.00     0.014 A 
ATOM     30  C   UNL A   1      35.637  34.425  28.930  1.00  0.00     0.014 A 
ATOM     31  C   UNL A   1      35.256  33.010  31.308  1.00  0.00     0.010 A 
ATOM     32  C   UNL A   1      36.725  33.827  29.569  1.00  0.00     0.010 A 
ATOM     33  C   UNL A   1      36.547  33.114  30.766  1.00  0.00    -0.014 A 
BRANCH  33  34
ATOM     34  C   UNL A   1      37.715  32.478  31.436  1.00  0.00     0.031 A 
ATOM     35  C   UNL A   1      38.443  31.338  30.773  1.00  0.00     0.074 A 
ATOM     36  C   UNL A   1      38.079  32.889  32.668  1.00  0.00     0.049 A 
ATOM     37  N   UNL A   1      39.431  30.612  31.229  1.00  0.00    -0.248 NA
ATOM     38  C   UNL A   1      37.982  30.947  29.432  1.00  0.00     0.031 C 
ATOM     39  C   UNL A   1      37.428  33.961  33.427  1.00  0.00     0.029 A 
ATOM     40  N   UNL A   1      39.074  32.453  33.508  1.00  0.00    -0.354 N 
ATOM     41  C   UNL A   1      39.695  29.665  30.245  1.00  0.00     0.074 A 
ATOM     42  C   UNL A   1      38.735  29.885  29.184  1.00  0.00     0.031 C 
ATOM     43  C   UNL A   1      38.049  34.108  34.608  1.00  0.00     0.029 A 
ATOM     44  C   UNL A   1      39.110  33.111  34.717  1.00  0.00     0.049 A 
ATOM     45  H   UNL A   1      39.704  31.736  33.268  1.00  0.00     0.167 HD
ATOM     46  C   UNL A   1      40.657  28.709  30.226  1.00  0.00     0.034 A 
ATOM     47  C   UNL A   1      39.892  32.921  35.799  1.00  0.00     0.034 A 
ATOM     48  C   UNL A   1      41.626  28.524  31.279  1.00  0.00     0.049 A 
ATOM     49  C   UNL A   1      40.950  31.843  35.750  1.00  0.00     0.074 A 
ATOM     50  C   UNL A   1      42.695  27.646  31.317  1.00  0.00     0.029 A 
ATOM     51  N   UNL A   1      41.637  29.216  32.482  1.00  0.00    -0.354 N 
ATOM     52  N   UNL A   1      41.233  31.008  34.776  1.00  0.00    -0.248 NA
ATOM     53  C   UNL A   1      41.799  31.690  36.938  1.00  0.00     0.031 C 
ATOM     54  C   UNL A   1      43.303  27.749  32.572  1.00  0.00     0.029 A 
ATOM     55  C   UNL A   1      42.669  28.753  33.286  1.00  0.00     0.049 A 
ATOM     56  H   UNL A   1      41.007  29.929  32.730  1.00  0.00     0.167 HD
ATOM     57  C   UNL A   1      42.320  30.260  35.224  1.00  0.00     0.074 A 
ATOM     58  C   UNL A   1      42.649  30.755  36.544  1.00  0.00     0.031 C 
ATOM     59  C   UNL A   1      42.987  29.256  34.600  1.00  0.00     0.034 A 
BRANCH  46  60
ATOM     60  C   UNL A   1      40.695  27.764  29.048  1.00  0.00     0.023 A 
ATOM     61  C   UNL A   1      41.602  27.928  27.987  1.00  0.00     0.031 A 
ATOM     62  C   UNL A   1      39.819  26.664  29.002  1.00  0.00     0.131 A 
ATOM     63  C   UNL A   1      41.578  27.038  26.902  1.00  0.00     0.055 A 
ATOM     64  C   UNL A   1      39.851  25.740  27.956  1.00  0.00     0.041 A 
ATOM     65  F   UNL A   1      38.917  26.467  29.976  1.00  0.00    -0.206 F 
ATOM     66  C   UNL A   1      40.727  25.929  26.893  1.00  0.00     0.022 A 
BRANCH  63  67
ATOM     67  S   UNL A   1      42.600  27.408  25.450  1.00  0.00     0.124 S 
ATOM     68  O   UNL A   1      42.392  26.215  24.632  1.00  0.00    -0.237 OA
ATOM     69  O   UNL A   1      42.003  28.639  24.948  1.00  0.00    -0.237 OA
ATOM     70  O   UNL A   1      43.945  27.547  26.005  1.00  0.00    -0.744 OA
ENDBRANCH  63  67
ENDBRANCH  46  60
BRANCH  47  71
ATOM     71  C   UNL A   1      39.705  33.739  37.035  1.00  0.00     0.023 A 
ATOM     72  C   UNL A   1      39.137  33.183  38.192  1.00  0.00     0.031 A 
ATOM     73  C   UNL A   1      40.016  35.111  37.051  1.00  0.00     0.131 A 
ATOM     74  C   UNL A   1      38.828  34.006  39.287  1.00  0.00     0.055 A 
ATOM     75  C   UNL A   1      39.771  35.912  38.168  1.00  0.00     0.041 A 
ATOM     76  F   UNL A   1      40.563  35.697  35.974  1.00  0.00    -0.206 F 
ATOM     77  C   UNL A   1      39.154  35.364  39.288  1.00  0.00     0.022 A 
BRANCH  74  78
ATOM     78  S   UNL A   1      37.869  33.302  40.657  1.00  0.00     0.124 S 
ATOM     79  O   UNL A   1      37.198  34.483  41.185  1.00  0.00    -0.237 OA
ATOM     80  O   UNL A   1      37.022  32.336  39.966  1.00  0.00    -0.237 OA
ATOM     81  O   UNL A   1      38.893  32.724  41.525  1.00  0.00    -0.744 OA
ENDBRANCH  74  78
ENDBRANCH  47  71
BRANCH  59  82
ATOM     82  C   UNL A   1      44.177  28.669  35.321  1.00  0.00     0.023 A 
ATOM     83  C   UNL A   1      44.046  27.599  36.224  1.00  0.00     0.031 A 
ATOM     84  C   UNL A   1      45.462  29.199  35.108  1.00  0.00     0.131 A 
ATOM     85  C   UNL A   1      45.168  27.133  36.925  1.00  0.00     0.055 A 
ATOM     86  C   UNL A   1      46.586  28.687  35.758  1.00  0.00     0.041 A 
ATOM     87  F   UNL A   1      45.646  30.223  34.259  1.00  0.00    -0.206 F 
ATOM     88  C   UNL A   1      46.441  27.658  36.683  1.00  0.00     0.022 A 
BRANCH  85  89
ATOM     89  S   UNL A   1      44.929  25.897  38.229  1.00  0.00     0.124 S 
ATOM     90  O   UNL A   1      46.242  25.873  38.868  1.00  0.00    -0.237 OA
ATOM     91  O   UNL A   1      43.848  26.479  39.017  1.00  0.00    -0.237 OA
ATOM     92  O   UNL A   1      44.576  24.684  37.493  1.00  0.00    -0.744 OA
ENDBRANCH  85  89
ENDBRANCH  59  82
ENDBRANCH  33  34
ENDBRANCH  25  28
ENDBRANCH  23  24
ENDBRANCH  22  23
ENDBRANCH  21  22
ENDBRANCH   1  21
TORSDOF 20
ENDMDL
MODEL 2
REMARK VINA RESULT:     -10.7      5.615      8.817
REMARK SMILES CSCCC(=O)N1[C@H](C)CCC[C@@H]1C(=O)NCCCCCCNC(=O)c1ccc(-c2c3nc(c(-c4cc(S(=O)(=O)[O-])ccc4F)c4ccc([nH]4)c(-c4cc(S(=O)(=O)[O-])ccc4F)c4nc(c(-c5cc(S(=O)(=O)[O-])ccc5F)c5ccc2[nH]5)C=C4)C=C3)cc1
REMARK SMILES IDX 19 1 18 2 17 3 16 4 14 5 15 6 13 8 7 9 8 10 9 11 10 12 12 13
REMARK SMILES IDX 11 14 5 15 6 16 4 17 3 18 2 19 1 20 20 21 21 22 22 23 23 24
REMARK SMILES IDX 24 25 25 27 26 28 27 29 88 30 28 31 87 32 29 33 30 34 31 35
REMARK SMILES IDX 81 36 32 37 86 38 80 39 82 40 33 41 85 42 79 43 78 44 34 46
REMARK SMILES IDX 66 47 46 48 65 49 47 50 50 51 64 52 83 53 48 54 49 55 63 57
REMARK SMILES IDX 84 58 51 59 35 60 36 61 44 62 37 63 43 64 45 65 42 66 38 67
REMARK SMILES IDX 39 68 40 69 41 70 67 71 68 72 76 73 69 74 75 75 77 76 74 77
REMARK SMILES IDX 70 78 71 79 72 80 73 81 52 82 53 83 61 84 54 85 60 86 62 87
REMARK SMILES IDX 59 88 55 89 56 90 57 91 58 92
REMARK H PARENT 16 7 23 26 82 45 50 56
REMARK Flexibility Score: inf
ROOT
ATOM      1  C   UNL A   1      34.520  22.801  26.385  1.00  0.00     0.002 C 
ENDROOT
BRANCH   1   2
ATOM      2  C   UNL A   1      33.171  22.893  27.100  1.00  0.00     0.021 C 
BRANCH   2   3
ATOM      3  C   UNL A   1      32.061  23.599  26.339  1.00  0.00     0.116 C 
BRANCH   3   4
ATOM      4  N   UNL A   1      31.682  24.922  26.764  1.00  0.00    -0.354 N 
ATOM      5  C   UNL A   1      31.300  25.993  25.996  1.00  0.00     0.242 C 
ATOM      6  O   UNL A   1      30.687  26.888  26.595  1.00  0.00    -0.273 OA
ATOM      7  H   UNL A   1      31.697  25.078  27.736  1.00  0.00     0.163 HD
BRANCH   5   8
ATOM      8  C   UNL A   1      31.509  26.101  24.440  1.00  0.00     0.174 C 
ATOM      9  N   UNL A   1      32.850  26.510  23.962  1.00  0.00    -0.328 N 
ATOM     10  C   UNL A   1      33.206  27.911  24.145  1.00  0.00     0.082 C 
ATOM     11  C   UNL A   1      33.866  28.190  25.493  1.00  0.00     0.031 C 
ATOM     12  C   UNL A   1      32.052  28.845  23.726  1.00  0.00     0.025 C 
ATOM     13  C   UNL A   1      30.423  26.809  23.632  1.00  0.00     0.035 C 
ATOM     14  C   UNL A   1      30.882  28.142  23.020  1.00  0.00     0.005 C 
BRANCH   9  15
ATOM     15  C   UNL A   1      33.464  25.764  22.953  1.00  0.00     0.224 C 
ATOM     16  O   UNL A   1      33.791  26.258  21.873  1.00  0.00    -0.275 OA
BRANCH  15  17
ATOM     17  C   UNL A   1      33.667  24.272  23.197  1.00  0.00     0.111 C 
BRANCH  17  18
ATOM     18  C   UNL A   1      32.613  23.367  22.556  1.00  0.00     0.079 C 
BRANCH  18  19
ATOM     19  S   UNL A   1      32.564  21.669  23.248  1.00  0.00    -0.165 SA
ATOM     20  C   UNL A   1      31.881  20.766  21.832  1.00  0.00     0.085 C 
ENDBRANCH  18  19
ENDBRANCH  17  18
ENDBRANCH  15  17
ENDBRANCH   9  15
ENDBRANCH   5   8
ENDBRANCH   3   4
ENDBRANCH   2   3
ENDBRANCH   1   2
BRANCH   1  21
ATOM     21  C   UNL A   1      35.171  21.414  26.267  1.00  0.00     0.002 C 
BRANCH  21  22
ATOM     22  C   UNL A   1      35.835  21.044  24.936  1.00  0.00     0.021 C 
BRANCH  22  23
ATOM     23  C   UNL A   1      37.303  21.435  24.764  1.00  0.00     0.116 C 
BRANCH  23  24
ATOM     24  N   UNL A   1      38.217  20.494  25.382  1.00  0.00    -0.352 N 
ATOM     25  C   UNL A   1      39.379  20.699  26.082  1.00  0.00     0.251 C 
ATOM     26  H   UNL A   1      37.959  19.548  25.283  1.00  0.00     0.163 HD
ATOM     27  O   UNL A   1      40.057  19.725  26.401  1.00  0.00    -0.269 OA
BRANCH  25  28
ATOM     28  C   UNL A   1      39.837  22.064  26.430  1.00  0.00     0.039 A 
ATOM     29  C   UNL A   1      41.048  22.202  27.116  1.00  0.00     0.014 A 
ATOM     30  C   UNL A   1      39.074  23.198  26.135  1.00  0.00     0.014 A 
ATOM     31  C   UNL A   1      41.520  23.473  27.455  1.00  0.00     0.010 A 
ATOM     32  C   UNL A   1      39.577  24.470  26.416  1.00  0.00     0.010 A 
ATOM     33  C   UNL A   1      40.805  24.622  27.081  1.00  0.00    -0.014 A 
BRANCH  33  34
ATOM     34  C   UNL A   1      41.333  25.984  27.372  1.00  0.00     0.031 A 
ATOM     35  C   UNL A   1      42.694  26.393  26.874  1.00  0.00     0.074 A 
ATOM     36  C   UNL A   1      40.608  26.828  28.135  1.00  0.00     0.049 A 
ATOM     37  N   UNL A   1      43.352  27.503  27.086  1.00  0.00    -0.248 NA
ATOM     38  C   UNL A   1      43.422  25.414  26.052  1.00  0.00     0.031 C 
ATOM     39  C   UNL A   1      39.291  26.532  28.703  1.00  0.00     0.029 A 
ATOM     40  N   UNL A   1      40.876  28.100  28.576  1.00  0.00    -0.354 N 
ATOM     41  C   UNL A   1      44.578  27.349  26.447  1.00  0.00     0.074 A 
ATOM     42  C   UNL A   1      44.586  26.021  25.872  1.00  0.00     0.031 C 
ATOM     43  C   UNL A   1      38.861  27.595  29.403  1.00  0.00     0.029 A 
ATOM     44  C   UNL A   1      39.888  28.631  29.377  1.00  0.00     0.049 A 
ATOM     45  H   UNL A   1      41.698  28.589  28.343  1.00  0.00     0.167 HD
ATOM     46  C   UNL A   1      45.595  28.240  26.340  1.00  0.00     0.034 A 
ATOM     47  C   UNL A   1      39.826  29.807  30.033  1.00  0.00     0.034 A 
ATOM     48  C   UNL A   1      45.558  29.572  26.893  1.00  0.00     0.049 A 
ATOM     49  C   UNL A   1      40.978  30.775  29.901  1.00  0.00     0.074 A 
ATOM     50  C   UNL A   1      46.496  30.582  26.765  1.00  0.00     0.029 A 
ATOM     51  N   UNL A   1      44.537  30.077  27.687  1.00  0.00    -0.354 N 
ATOM     52  N   UNL A   1      42.097  30.639  29.226  1.00  0.00    -0.248 NA
ATOM     53  C   UNL A   1      40.856  32.056  30.608  1.00  0.00     0.031 C 
ATOM     54  C   UNL A   1      46.083  31.665  27.546  1.00  0.00     0.029 A 
ATOM     55  C   UNL A   1      44.845  31.368  28.092  1.00  0.00     0.049 A 
ATOM     56  H   UNL A   1      43.716  29.592  27.929  1.00  0.00     0.167 HD
ATOM     57  C   UNL A   1      42.789  31.836  29.397  1.00  0.00     0.074 A 
ATOM     58  C   UNL A   1      41.955  32.684  30.223  1.00  0.00     0.031 C 
ATOM     59  C   UNL A   1      44.004  32.203  28.914  1.00  0.00     0.034 A 
BRANCH  46  60
ATOM     60  C   UNL A   1      46.853  27.799  25.628  1.00  0.00     0.023 A 
ATOM     61  C   UNL A   1      47.053  28.026  24.256  1.00  0.00     0.031 A 
ATOM     62  C   UNL A   1      47.879  27.159  26.347  1.00  0.00     0.131 A 
ATOM     63  C   UNL A   1      48.228  27.571  23.636  1.00  0.00     0.055 A 
ATOM     64  C   UNL A   1      49.076  26.777  25.740  1.00  0.00     0.041 A 
ATOM     65  F   UNL A   1      47.736  26.897  27.656  1.00  0.00    -0.206 F 
ATOM     66  C   UNL A   1      49.253  26.973  24.375  1.00  0.00     0.022 A 
BRANCH  63  67
ATOM     67  S   UNL A   1      48.356  27.676  21.830  1.00  0.00     0.124 S 
ATOM     68  O   UNL A   1      47.103  28.346  21.486  1.00  0.00    -0.237 OA
ATOM     69  O   UNL A   1      49.571  28.460  21.643  1.00  0.00    -0.237 OA
ATOM     70  O   UNL A   1      48.443  26.279  21.411  1.00  0.00    -0.744 OA
ENDBRANCH  63  67
ENDBRANCH  46  60
BRANCH  47  71
ATOM     71  C   UNL A   1      38.654  30.143  30.897  1.00  0.00     0.023 A 
ATOM     72  C   UNL A   1      37.574  30.887  30.395  1.00  0.00     0.031 A 
ATOM     73  C   UNL A   1      38.634  29.797  32.260  1.00  0.00     0.131 A 
ATOM     74  C   UNL A   1      36.559  31.323  31.262  1.00  0.00     0.055 A 
ATOM     75  C   UNL A   1      37.588  30.174  33.105  1.00  0.00     0.041 A 
ATOM     76  F   UNL A   1      39.639  29.085  32.796  1.00  0.00    -0.206 F 
ATOM     77  C   UNL A   1      36.552  30.960  32.611  1.00  0.00     0.022 A 
BRANCH  74  78
ATOM     78  S   UNL A   1      35.320  32.487  30.629  1.00  0.00     0.124 S 
ATOM     79  O   UNL A   1      34.843  31.792  29.440  1.00  0.00    -0.237 OA
ATOM     80  O   UNL A   1      34.385  32.567  31.746  1.00  0.00    -0.237 OA
ATOM     81  O   UNL A   1      36.093  33.701  30.375  1.00  0.00    -0.744 OA
ENDBRANCH  74  78
ENDBRANCH  47  71
BRANCH  59  82
ATOM     82  C   UNL A   1      44.472  33.605  29.223  1.00  0.00     0.023 A 
ATOM     83  C   UNL A   1      44.004  34.720  28.506  1.00  0.00     0.031 A 
ATOM     84  C   UNL A   1      45.411  33.825  30.246  1.00  0.00     0.131 A 
ATOM     85  C   UNL A   1      44.519  35.995  28.780  1.00  0.00     0.055 A 
ATOM     86  C   UNL A   1      45.871  35.105  30.560  1.00  0.00     0.041 A 
ATOM     87  F   UNL A   1      45.894  32.797  30.962  1.00  0.00    -0.206 F 
ATOM     88  C   UNL A   1      45.437  36.197  29.815  1.00  0.00     0.022 A 
BRANCH  85  89
ATOM     89  S   UNL A   1      44.051  37.375  27.701  1.00  0.00     0.124 S 
ATOM     90  O   UNL A   1      43.229  36.708  26.696  1.00  0.00    -0.237 OA
ATOM     91  O   UNL A   1      43.341  38.260  28.618  1.00  0.00    -0.237 OA
ATOM     92  O   UNL A   1      45.333  37.883  27.216  1.00  0.00    -0.744 OA
ENDBRANCH  85  89
ENDBRANCH  59  82
ENDBRANCH  33  34
ENDBRANCH  25  28
ENDBRANCH  23  24
ENDBRANCH  22  23
ENDBRANCH  21  22
ENDBRANCH   1  21
TORSDOF 20
ENDMDL
MODEL 3
REMARK VINA RESULT:     -10.6      1.914      2.860
REMARK SMILES CSCCC(=O)N1[C@H](C)CCC[C@@H]1C(=O)NCCCCCCNC(=O)c1ccc(-c2c3nc(c(-c4cc(S(=O)(=O)[O-])ccc4F)c4ccc([nH]4)c(-c4cc(S(=O)(=O)[O-])ccc4F)c4nc(c(-c5cc(S(=O)(=O)[O-])ccc5F)c5ccc2[nH]5)C=C4)C=C3)cc1
REMARK SMILES IDX 19 1 18 2 17 3 16 4 14 5 15 6 13 8 7 9 8 10 9 11 10 12 12 13
REMARK SMILES IDX 11 14 5 15 6 16 4 17 3 18 2 19 1 20 20 21 21 22 22 23 23 24
REMARK SMILES IDX 24 25 25 27 26 28 27 29 88 30 28 31 87 32 29 33 30 34 31 35
REMARK SMILES IDX 81 36 32 37 86 38 80 39 82 40 33 41 85 42 79 43 78 44 34 46
REMARK SMILES IDX 66 47 46 48 65 49 47 50 50 51 64 52 83 53 48 54 49 55 63 57
REMARK SMILES IDX 84 58 51 59 35 60 36 61 44 62 37 63 43 64 45 65 42 66 38 67
REMARK SMILES IDX 39 68 40 69 41 70 67 71 68 72 76 73 69 74 75 75 77 76 74 77
REMARK SMILES IDX 70 78 71 79 72 80 73 81 52 82 53 83 61 84 54 85 60 86 62 87
REMARK SMILES IDX 59 88 55 89 56 90 57 91 58 92
REMARK H PARENT 16 7 23 26 82 45 50 56
REMARK Flexibility Score: inf
ROOT
ATOM      1  C   UNL A   1      32.993  29.692  25.408  1.00  0.00     0.002 C 
ENDROOT
BRANCH   1   2
ATOM      2  C   UNL A   1      33.272  29.226  23.978  1.00  0.00     0.021 C 
BRANCH   2   3
ATOM      3  C   UNL A   1      32.504  27.999  23.518  1.00  0.00     0.116 C 
BRANCH   3   4
ATOM      4  N   UNL A   1      33.163  27.081  22.623  1.00  0.00    -0.354 N 
ATOM      5  C   UNL A   1      33.499  25.768  22.836  1.00  0.00     0.242 C 
ATOM      6  O   UNL A   1      33.723  25.101  21.815  1.00  0.00    -0.273 OA
ATOM      7  H   UNL A   1      33.403  27.445  21.741  1.00  0.00     0.163 HD
BRANCH   5   8
ATOM      8  C   UNL A   1      33.524  25.065  24.244  1.00  0.00     0.174 C 
ATOM      9  N   UNL A   1      32.406  24.148  24.565  1.00  0.00    -0.328 N 
ATOM     10  C   UNL A   1      31.119  24.767  24.854  1.00  0.00     0.082 C 
ATOM     11  C   UNL A   1      30.266  24.984  23.607  1.00  0.00     0.031 C 
ATOM     12  C   UNL A   1      31.273  25.967  25.812  1.00  0.00     0.025 C 
ATOM     13  C   UNL A   1      33.858  25.934  25.457  1.00  0.00     0.035 C 
ATOM     14  C   UNL A   1      32.675  26.126  26.420  1.00  0.00     0.005 C 
BRANCH   9  15
ATOM     15  C   UNL A   1      32.698  22.882  25.078  1.00  0.00     0.224 C 
ATOM     16  O   UNL A   1      32.643  22.630  26.283  1.00  0.00    -0.275 OA
BRANCH  15  17
ATOM     17  C   UNL A   1      33.162  21.809  24.098  1.00  0.00     0.111 C 
BRANCH  17  18
ATOM     18  C   UNL A   1      33.933  20.650  24.732  1.00  0.00     0.079 C 
BRANCH  18  19
ATOM     19  S   UNL A   1      32.889  19.205  25.166  1.00  0.00    -0.165 SA
ATOM     20  C   UNL A   1      32.506  18.579  23.508  1.00  0.00     0.085 C 
ENDBRANCH  18  19
ENDBRANCH  17  18
ENDBRANCH  15  17
ENDBRANCH   9  15
ENDBRANCH   5   8
ENDBRANCH   3   4
ENDBRANCH   2   3
ENDBRANCH   1   2
BRANCH   1  21
ATOM     21  C   UNL A   1      31.567  30.158  25.740  1.00  0.00     0.002 C 
BRANCH  21  22
ATOM     22  C   UNL A   1      31.399  31.513  26.437  1.00  0.00     0.021 C 
BRANCH  22  23
ATOM     23  C   UNL A   1      32.662  32.159  27.006  1.00  0.00     0.116 C 
BRANCH  23  24
ATOM     24  N   UNL A   1      32.465  33.541  27.399  1.00  0.00    -0.352 N 
ATOM     25  C   UNL A   1      33.109  34.308  28.338  1.00  0.00     0.251 C 
ATOM     26  H   UNL A   1      31.749  34.008  26.909  1.00  0.00     0.163 HD
ATOM     27  O   UNL A   1      32.673  35.429  28.586  1.00  0.00    -0.269 OA
BRANCH  25  28
ATOM     28  C   UNL A   1      34.292  33.796  29.069  1.00  0.00     0.039 A 
ATOM     29  C   UNL A   1      34.085  32.879  30.104  1.00  0.00     0.014 A 
ATOM     30  C   UNL A   1      35.587  34.240  28.785  1.00  0.00     0.014 A 
ATOM     31  C   UNL A   1      35.174  32.365  30.814  1.00  0.00     0.010 A 
ATOM     32  C   UNL A   1      36.678  33.677  29.449  1.00  0.00     0.010 A 
ATOM     33  C   UNL A   1      36.485  32.735  30.472  1.00  0.00    -0.014 A 
BRANCH  33  34
ATOM     34  C   UNL A   1      37.657  32.140  31.171  1.00  0.00     0.031 A 
ATOM     35  C   UNL A   1      38.431  31.016  30.534  1.00  0.00     0.074 A 
ATOM     36  C   UNL A   1      37.985  32.574  32.405  1.00  0.00     0.049 A 
ATOM     37  N   UNL A   1      39.431  30.324  31.015  1.00  0.00    -0.248 NA
ATOM     38  C   UNL A   1      38.008  30.599  29.187  1.00  0.00     0.031 C 
ATOM     39  C   UNL A   1      37.288  33.632  33.141  1.00  0.00     0.029 A 
ATOM     40  N   UNL A   1      38.976  32.175  33.268  1.00  0.00    -0.354 N 
ATOM     41  C   UNL A   1      39.742  29.376  30.046  1.00  0.00     0.074 A 
ATOM     42  C   UNL A   1      38.797  29.557  28.965  1.00  0.00     0.031 C 
ATOM     43  C   UNL A   1      37.882  33.809  34.332  1.00  0.00     0.029 A 
ATOM     44  C   UNL A   1      38.970  32.845  34.472  1.00  0.00     0.049 A 
ATOM     45  H   UNL A   1      39.632  31.474  33.047  1.00  0.00     0.167 HD
ATOM     46  C   UNL A   1      40.731  28.449  30.055  1.00  0.00     0.034 A 
ATOM     47  C   UNL A   1      39.736  32.688  35.570  1.00  0.00     0.034 A 
ATOM     48  C   UNL A   1      41.685  28.302  31.128  1.00  0.00     0.049 A 
ATOM     49  C   UNL A   1      40.826  31.642  35.551  1.00  0.00     0.074 A 
ATOM     50  C   UNL A   1      42.779  27.456  31.195  1.00  0.00     0.029 A 
ATOM     51  N   UNL A   1      41.653  29.005  32.324  1.00  0.00    -0.354 N 
ATOM     52  N   UNL A   1      41.152  30.806  34.592  1.00  0.00    -0.248 NA
ATOM     53  C   UNL A   1      41.656  31.525  36.757  1.00  0.00     0.031 C 
ATOM     54  C   UNL A   1      43.359  27.589  32.460  1.00  0.00     0.029 A 
ATOM     55  C   UNL A   1      42.682  28.581  33.152  1.00  0.00     0.049 A 
ATOM     56  H   UNL A   1      40.998  29.702  32.552  1.00  0.00     0.167 HD
ATOM     57  C   UNL A   1      42.251  30.095  35.067  1.00  0.00     0.074 A 
ATOM     58  C   UNL A   1      42.541  30.612  36.389  1.00  0.00     0.031 C 
ATOM     59  C   UNL A   1      42.960  29.106  34.467  1.00  0.00     0.034 A 
BRANCH  46  60
ATOM     60  C   UNL A   1      40.820  27.494  28.887  1.00  0.00     0.023 A 
ATOM     61  C   UNL A   1      41.781  27.642  27.872  1.00  0.00     0.031 A 
ATOM     62  C   UNL A   1      39.938  26.402  28.805  1.00  0.00     0.131 A 
ATOM     63  C   UNL A   1      41.803  26.743  26.794  1.00  0.00     0.055 A 
ATOM     64  C   UNL A   1      40.014  25.469  27.769  1.00  0.00     0.041 A 
ATOM     65  F   UNL A   1      38.985  26.220  29.733  1.00  0.00    -0.206 F 
ATOM     66  C   UNL A   1      40.944  25.642  26.750  1.00  0.00     0.022 A 
BRANCH  63  67
ATOM     67  S   UNL A   1      42.901  27.093  25.393  1.00  0.00     0.124 S 
ATOM     68  O   UNL A   1      44.156  27.404  26.074  1.00  0.00    -0.237 OA
ATOM     69  O   UNL A   1      42.872  25.841  24.647  1.00  0.00    -0.237 OA
ATOM     70  O   UNL A   1      42.261  28.229  24.731  1.00  0.00    -0.744 OA
ENDBRANCH  63  67
ENDBRANCH  46  60
BRANCH  47  71
ATOM     71  C   UNL A   1      39.501  33.512  36.794  1.00  0.00     0.023 A 
ATOM     72  C   UNL A   1      40.292  34.639  37.070  1.00  0.00     0.031 A 
ATOM     73  C   UNL A   1      38.539  33.137  37.748  1.00  0.00     0.131 A 
ATOM     74  C   UNL A   1      40.158  35.306  38.299  1.00  0.00     0.055 A 
ATOM     75  C   UNL A   1      38.361  33.844  38.938  1.00  0.00     0.041 A 
ATOM     76  F   UNL A   1      37.752  32.069  37.537  1.00  0.00    -0.206 F 
ATOM     77  C   UNL A   1      39.188  34.925  39.229  1.00  0.00     0.022 A 
BRANCH  74  78
ATOM     78  S   UNL A   1      41.363  36.594  38.721  1.00  0.00     0.124 S 
ATOM     79  O   UNL A   1      40.518  37.586  39.376  1.00  0.00    -0.237 OA
ATOM     80  O   UNL A   1      42.289  35.869  39.584  1.00  0.00    -0.237 OA
ATOM     81  O   UNL A   1      41.903  36.993  37.423  1.00  0.00    -0.744 OA
ENDBRANCH  74  78
ENDBRANCH  47  71
BRANCH  59  82
ATOM     82  C   UNL A   1      44.153  28.561  35.216  1.00  0.00     0.023 A 
ATOM     83  C   UNL A   1      44.029  27.521  36.154  1.00  0.00     0.031 A 
ATOM     84  C   UNL A   1      45.432  29.101  34.994  1.00  0.00     0.131 A 
ATOM     85  C   UNL A   1      45.152  27.095  36.879  1.00  0.00     0.055 A 
ATOM     86  C   UNL A   1      46.558  28.628  35.669  1.00  0.00     0.041 A 
ATOM     87  F   UNL A   1      45.608  30.098  34.111  1.00  0.00    -0.206 F 
ATOM     88  C   UNL A   1      46.420  27.630  36.628  1.00  0.00     0.022 A 
BRANCH  85  89
ATOM     89  S   UNL A   1      44.921  25.901  38.224  1.00  0.00     0.124 S 
ATOM     90  O   UNL A   1      44.087  24.886  37.587  1.00  0.00    -0.237 OA
ATOM     91  O   UNL A   1      46.292  25.502  38.525  1.00  0.00    -0.237 OA
ATOM     92  O   UNL A   1      44.260  26.683  39.267  1.00  0.00    -0.744 OA
ENDBRANCH  85  89
ENDBRANCH  59  82
ENDBRANCH  33  34
ENDBRANCH  25  28
ENDBRANCH  23  24
ENDBRANCH  22  23
ENDBRANCH  21  22
ENDBRANCH   1  21
TORSDOF 20
ENDMDL
