MODEL 1
REMARK VINA RESULT:     -10.1      0.000      0.000
REMARK SMILES C[C@@H](C(=O)NCCCCCCNC(=O)c1ccc(-c2c3nc(c(-c4cc(S(=O)(=O)[O-])ccc4F)c4ccc([nH]4)c(-c4cc(S(=O)(=O)[O-])ccc4F)c4nc(c(-c5cc(S(=O)(=O)[O-])ccc5F)c5ccc2[nH]5)C=C4)C=C3)cc1)N1C(=O)/C(=C\c2ccc(OCc3ccccc3Cl)cc2)SC1=S
REMARK SMILES IDX 7 1 6 2 5 3 3 4 4 5 2 7 1 8 78 9 79 10 99 11 80 12 81 13
REMARK SMILES IDX 98 14 100 15 82 16 83 17 84 18 97 19 85 20 96 21 86 22 87 23
REMARK SMILES IDX 88 24 89 25 90 26 94 27 91 28 93 29 95 30 92 31 8 32 9 33
REMARK SMILES IDX 10 34 11 35 12 36 13 37 14 39 15 40 16 41 77 42 17 43 76 44
REMARK SMILES IDX 18 45 19 46 20 47 70 48 21 49 75 50 69 51 71 52 22 53 74 54
REMARK SMILES IDX 68 55 67 56 23 58 55 59 35 60 54 61 36 62 39 63 53 64 72 65
REMARK SMILES IDX 37 66 38 67 52 69 73 70 40 71 24 72 25 73 33 74 26 75 32 76
REMARK SMILES IDX 34 77 31 78 27 79 28 80 29 81 30 82 56 83 57 84 65 85 58 86
REMARK SMILES IDX 64 87 66 88 63 89 59 90 60 91 61 92 62 93 41 94 42 95 50 96
REMARK SMILES IDX 43 97 49 98 51 99 48 100 44 101 45 102 46 103 47 104
REMARK H PARENT 5 6 12 38 71 57 39 68
REMARK Flexibility Score: inf
ROOT
ATOM      1  C   UNL A   1      39.359  27.916  29.670  1.00  0.00     0.021 C 
ENDROOT
BRANCH   1   2
ATOM      2  C   UNL A   1      38.149  28.624  29.058  1.00  0.00     0.116 C 
BRANCH   2   3
ATOM      3  N   UNL A   1      37.339  29.245  30.086  1.00  0.00    -0.354 N 
ATOM      4  C   UNL A   1      36.758  30.479  30.132  1.00  0.00     0.242 C 
ATOM      5  O   UNL A   1      36.096  30.750  31.139  1.00  0.00    -0.273 OA
ATOM      6  H   UNL A   1      37.181  28.686  30.880  1.00  0.00     0.163 HD
BRANCH   4   7
ATOM      7  C   UNL A   1      36.878  31.458  28.942  1.00  0.00     0.178 C 
ATOM      8  C   UNL A   1      37.869  32.608  29.115  1.00  0.00     0.042 C 
BRANCH   7   9
ATOM      9  N   UNL A   1      35.516  31.914  28.559  1.00  0.00    -0.281 N 
ATOM     10  C   UNL A   1      34.737  31.042  27.807  1.00  0.00     0.266 C 
ATOM     11  C   UNL A   1      34.897  33.076  28.974  1.00  0.00     0.149 C 
ATOM     12  O   UNL A   1      35.095  29.941  27.415  1.00  0.00    -0.268 OA
ATOM     13  C   UNL A   1      33.397  31.642  27.521  1.00  0.00     0.081 C 
ATOM     14  S   UNL A   1      33.311  33.213  28.219  1.00  0.00    -0.054 SA
ATOM     15  S   UNL A   1      35.433  34.276  30.005  1.00  0.00    -0.052 S 
ATOM     16  C   UNL A   1      32.365  31.111  26.848  1.00  0.00     0.029 C 
BRANCH  16  17
ATOM     17  C   UNL A   1      32.330  29.761  26.292  1.00  0.00    -0.024 A 
ATOM     18  C   UNL A   1      32.842  29.508  25.018  1.00  0.00     0.012 A 
ATOM     19  C   UNL A   1      31.813  28.704  27.050  1.00  0.00     0.012 A 
ATOM     20  C   UNL A   1      32.930  28.194  24.556  1.00  0.00     0.047 A 
ATOM     21  C   UNL A   1      31.894  27.392  26.582  1.00  0.00     0.047 A 
ATOM     22  C   UNL A   1      32.521  27.131  25.365  1.00  0.00     0.119 A 
BRANCH  22  23
ATOM     23  O   UNL A   1      32.900  25.901  24.909  1.00  0.00    -0.489 OA
BRANCH  23  24
ATOM     24  C   UNL A   1      34.176  25.372  25.301  1.00  0.00     0.267 C 
BRANCH  24  25
ATOM     25  C   UNL A   1      34.198  24.023  26.011  1.00  0.00     0.008 A 
ATOM     26  C   UNL A   1      33.174  23.615  26.888  1.00  0.00     0.009 A 
ATOM     27  C   UNL A   1      35.209  23.083  25.733  1.00  0.00     0.047 A 
ATOM     28  C   UNL A   1      33.138  22.329  27.436  1.00  0.00     0.001 A 
ATOM     29  C   UNL A   1      35.189  21.803  26.307  1.00  0.00     0.021 A 
ATOM     30  Cl  UNL A   1      36.519  23.433  24.657  1.00  0.00    -0.084 Cl
ATOM     31  C   UNL A   1      34.147  21.423  27.148  1.00  0.00     0.002 A 
ENDBRANCH  24  25
ENDBRANCH  23  24
ENDBRANCH  22  23
ENDBRANCH  16  17
ENDBRANCH   7   9
ENDBRANCH   4   7
ENDBRANCH   2   3
ENDBRANCH   1   2
BRANCH   1  32
ATOM     32  C   UNL A   1      39.358  26.394  29.464  1.00  0.00     0.002 C 
BRANCH  32  33
ATOM     33  C   UNL A   1      39.321  25.935  28.002  1.00  0.00     0.002 C 
BRANCH  33  34
ATOM     34  C   UNL A   1      40.034  24.609  27.722  1.00  0.00     0.021 C 
BRANCH  34  35
ATOM     35  C   UNL A   1      41.557  24.690  27.759  1.00  0.00     0.116 C 
BRANCH  35  36
ATOM     36  N   UNL A   1      42.116  25.011  26.456  1.00  0.00    -0.352 N 
ATOM     37  C   UNL A   1      42.521  26.227  25.960  1.00  0.00     0.251 C 
ATOM     38  H   UNL A   1      42.219  24.249  25.841  1.00  0.00     0.163 HD
ATOM     39  O   UNL A   1      42.762  26.350  24.763  1.00  0.00    -0.269 OA
BRANCH  37  40
ATOM     40  C   UNL A   1      42.640  27.387  26.871  1.00  0.00     0.039 A 
ATOM     41  C   UNL A   1      43.639  27.385  27.847  1.00  0.00     0.014 A 
ATOM     42  C   UNL A   1      41.777  28.479  26.751  1.00  0.00     0.014 A 
ATOM     43  C   UNL A   1      43.820  28.511  28.653  1.00  0.00     0.010 A 
ATOM     44  C   UNL A   1      42.005  29.628  27.506  1.00  0.00     0.010 A 
ATOM     45  C   UNL A   1      43.035  29.660  28.459  1.00  0.00    -0.014 A 
BRANCH  45  46
ATOM     46  C   UNL A   1      43.290  30.911  29.222  1.00  0.00     0.031 A 
ATOM     47  C   UNL A   1      42.438  31.258  30.412  1.00  0.00     0.074 A 
ATOM     48  C   UNL A   1      44.236  31.769  28.791  1.00  0.00     0.049 A 
ATOM     49  N   UNL A   1      42.437  32.346  31.139  1.00  0.00    -0.248 NA
ATOM     50  C   UNL A   1      41.435  30.262  30.820  1.00  0.00     0.031 C 
ATOM     51  C   UNL A   1      45.103  31.558  27.629  1.00  0.00     0.029 A 
ATOM     52  N   UNL A   1      44.620  33.000  29.265  1.00  0.00    -0.354 N 
ATOM     53  C   UNL A   1      41.427  32.173  32.080  1.00  0.00     0.074 A 
ATOM     54  C   UNL A   1      40.805  30.897  31.798  1.00  0.00     0.031 C 
ATOM     55  C   UNL A   1      45.924  32.610  27.492  1.00  0.00     0.029 A 
ATOM     56  C   UNL A   1      45.607  33.600  28.517  1.00  0.00     0.049 A 
ATOM     57  H   UNL A   1      44.227  33.414  30.067  1.00  0.00     0.167 HD
ATOM     58  C   UNL A   1      41.063  33.000  33.091  1.00  0.00     0.034 A 
ATOM     59  C   UNL A   1      46.174  34.820  28.622  1.00  0.00     0.034 A 
ATOM     60  C   UNL A   1      41.707  34.262  33.364  1.00  0.00     0.049 A 
ATOM     61  C   UNL A   1      45.721  35.737  29.732  1.00  0.00     0.074 A 
ATOM     62  C   UNL A   1      41.472  35.137  34.411  1.00  0.00     0.029 A 
ATOM     63  N   UNL A   1      42.696  34.841  32.580  1.00  0.00    -0.354 N 
ATOM     64  N   UNL A   1      44.813  35.527  30.658  1.00  0.00    -0.248 NA
ATOM     65  C   UNL A   1      46.371  37.052  29.817  1.00  0.00     0.031 C 
ATOM     66  C   UNL A   1      42.251  36.280  34.211  1.00  0.00     0.029 A 
ATOM     67  C   UNL A   1      43.042  36.083  33.090  1.00  0.00     0.049 A 
ATOM     68  H   UNL A   1      43.094  34.430  31.778  1.00  0.00     0.167 HD
ATOM     69  C   UNL A   1      44.806  36.673  31.449  1.00  0.00     0.074 A 
ATOM     70  C   UNL A   1      45.812  37.561  30.904  1.00  0.00     0.031 C 
ATOM     71  C   UNL A   1      44.039  36.964  32.530  1.00  0.00     0.034 A 
BRANCH  58  72
ATOM     72  C   UNL A   1      39.897  32.587  33.955  1.00  0.00     0.023 A 
ATOM     73  C   UNL A   1      38.617  33.148  33.798  1.00  0.00     0.031 A 
ATOM     74  C   UNL A   1      40.067  31.608  34.950  1.00  0.00     0.131 A 
ATOM     75  C   UNL A   1      37.577  32.772  34.662  1.00  0.00     0.055 A 
ATOM     76  C   UNL A   1      39.009  31.180  35.754  1.00  0.00     0.041 A 
ATOM     77  F   UNL A   1      41.270  31.051  35.163  1.00  0.00    -0.206 F 
ATOM     78  C   UNL A   1      37.757  31.773  35.620  1.00  0.00     0.022 A 
BRANCH  75  79
ATOM     79  S   UNL A   1      36.023  33.705  34.604  1.00  0.00     0.124 S 
ATOM     80  O   UNL A   1      36.445  34.942  33.952  1.00  0.00    -0.237 OA
ATOM     81  O   UNL A   1      35.160  32.831  33.818  1.00  0.00    -0.237 OA
ATOM     82  O   UNL A   1      35.655  33.846  36.012  1.00  0.00    -0.744 OA
ENDBRANCH  75  79
ENDBRANCH  58  72
BRANCH  59  83
ATOM     83  C   UNL A   1      47.200  35.270  27.635  1.00  0.00     0.023 A 
ATOM     84  C   UNL A   1      48.555  34.944  27.799  1.00  0.00     0.031 A 
ATOM     85  C   UNL A   1      46.849  36.090  26.546  1.00  0.00     0.131 A 
ATOM     86  C   UNL A   1      49.515  35.480  26.925  1.00  0.00     0.055 A 
ATOM     87  C   UNL A   1      47.799  36.567  25.642  1.00  0.00     0.041 A 
ATOM     88  F   UNL A   1      45.567  36.436  26.341  1.00  0.00    -0.206 F 
ATOM     89  C   UNL A   1      49.144  36.276  25.838  1.00  0.00     0.022 A 
BRANCH  86  90
ATOM     90  S   UNL A   1      51.270  35.218  27.300  1.00  0.00     0.124 S 
ATOM     91  O   UNL A   1      51.589  34.080  26.445  1.00  0.00    -0.237 OA
ATOM     92  O   UNL A   1      51.857  36.497  26.912  1.00  0.00    -0.237 OA
ATOM     93  O   UNL A   1      51.274  34.943  28.734  1.00  0.00    -0.744 OA
ENDBRANCH  86  90
ENDBRANCH  59  83
BRANCH  71  94
ATOM     94  C   UNL A   1      44.288  38.284  33.219  1.00  0.00     0.023 A 
ATOM     95  C   UNL A   1      43.477  39.407  32.983  1.00  0.00     0.031 A 
ATOM     96  C   UNL A   1      45.350  38.414  34.134  1.00  0.00     0.131 A 
ATOM     97  C   UNL A   1      43.767  40.624  33.620  1.00  0.00     0.055 A 
ATOM     98  C   UNL A   1      45.593  39.609  34.813  1.00  0.00     0.041 A 
ATOM     99  F   UNL A   1      46.159  37.376  34.394  1.00  0.00    -0.206 F 
ATOM    100  C   UNL A   1      44.806  40.726  34.549  1.00  0.00     0.022 A 
BRANCH  97 101
ATOM    101  S   UNL A   1      42.815  42.096  33.160  1.00  0.00     0.124 S 
ATOM    102  O   UNL A   1      43.800  42.873  32.412  1.00  0.00    -0.237 OA
ATOM    103  O   UNL A   1      41.721  41.532  32.376  1.00  0.00    -0.237 OA
ATOM    104  O   UNL A   1      42.421  42.668  34.446  1.00  0.00    -0.744 OA
ENDBRANCH  97 101
ENDBRANCH  71  94
ENDBRANCH  45  46
ENDBRANCH  37  40
ENDBRANCH  35  36
ENDBRANCH  34  35
ENDBRANCH  33  34
ENDBRANCH  32  33
ENDBRANCH   1  32
TORSDOF 21
ENDMDL
MODEL 2
REMARK VINA RESULT:      -9.7      6.092     10.253
REMARK SMILES C[C@@H](C(=O)NCCCCCCNC(=O)c1ccc(-c2c3nc(c(-c4cc(S(=O)(=O)[O-])ccc4F)c4ccc([nH]4)c(-c4cc(S(=O)(=O)[O-])ccc4F)c4nc(c(-c5cc(S(=O)(=O)[O-])ccc5F)c5ccc2[nH]5)C=C4)C=C3)cc1)N1C(=O)/C(=C\c2ccc(OCc3ccccc3Cl)cc2)SC1=S
REMARK SMILES IDX 7 1 6 2 5 3 3 4 4 5 2 7 1 8 78 9 79 10 99 11 80 12 81 13
REMARK SMILES IDX 98 14 100 15 82 16 83 17 84 18 97 19 85 20 96 21 86 22 87 23
REMARK SMILES IDX 88 24 89 25 90 26 94 27 91 28 93 29 95 30 92 31 8 32 9 33
REMARK SMILES IDX 10 34 11 35 12 36 13 37 14 39 15 40 16 41 77 42 17 43 76 44
REMARK SMILES IDX 18 45 19 46 20 47 70 48 21 49 75 50 69 51 71 52 22 53 74 54
REMARK SMILES IDX 68 55 67 56 23 58 55 59 35 60 54 61 36 62 39 63 53 64 72 65
REMARK SMILES IDX 37 66 38 67 52 69 73 70 40 71 24 72 25 73 33 74 26 75 32 76
REMARK SMILES IDX 34 77 31 78 27 79 28 80 29 81 30 82 56 83 57 84 65 85 58 86
REMARK SMILES IDX 64 87 66 88 63 89 59 90 60 91 61 92 62 93 41 94 42 95 50 96
REMARK SMILES IDX 43 97 49 98 51 99 48 100 44 101 45 102 46 103 47 104
REMARK H PARENT 5 6 12 38 71 57 39 68
REMARK Flexibility Score: inf
ROOT
ATOM      1  C   UNL A   1      35.197  30.080  28.207  1.00  0.00     0.021 C 
ENDROOT
BRANCH   1   2
ATOM      2  C   UNL A   1      34.660  29.053  27.209  1.00  0.00     0.116 C 
BRANCH   2   3
ATOM      3  N   UNL A   1      33.317  28.640  27.566  1.00  0.00    -0.354 N 
ATOM      4  C   UNL A   1      32.111  28.990  27.033  1.00  0.00     0.242 C 
ATOM      5  O   UNL A   1      31.107  28.467  27.526  1.00  0.00    -0.273 OA
ATOM      6  H   UNL A   1      33.267  28.002  28.314  1.00  0.00     0.163 HD
BRANCH   4   7
ATOM      7  C   UNL A   1      32.026  29.948  25.823  1.00  0.00     0.178 C 
ATOM      8  C   UNL A   1      31.377  31.307  26.086  1.00  0.00     0.042 C 
BRANCH   7   9
ATOM      9  N   UNL A   1      31.416  29.222  24.679  1.00  0.00    -0.281 N 
ATOM     10  C   UNL A   1      31.892  27.945  24.405  1.00  0.00     0.266 C 
ATOM     11  C   UNL A   1      30.337  29.642  23.925  1.00  0.00     0.149 C 
ATOM     12  O   UNL A   1      32.790  27.384  25.015  1.00  0.00    -0.268 OA
ATOM     13  C   UNL A   1      31.166  27.348  23.241  1.00  0.00     0.081 C 
ATOM     14  S   UNL A   1      30.008  28.474  22.648  1.00  0.00    -0.054 SA
ATOM     15  S   UNL A   1      29.398  31.016  24.058  1.00  0.00    -0.052 S 
ATOM     16  C   UNL A   1      31.320  26.136  22.687  1.00  0.00     0.029 C 
BRANCH  16  17
ATOM     17  C   UNL A   1      32.224  25.097  23.175  1.00  0.00    -0.024 A 
ATOM     18  C   UNL A   1      31.752  24.087  24.014  1.00  0.00     0.012 A 
ATOM     19  C   UNL A   1      33.565  25.092  22.773  1.00  0.00     0.012 A 
ATOM     20  C   UNL A   1      32.590  23.025  24.358  1.00  0.00     0.047 A 
ATOM     21  C   UNL A   1      34.404  24.033  23.126  1.00  0.00     0.047 A 
ATOM     22  C   UNL A   1      33.894  22.962  23.858  1.00  0.00     0.119 A 
BRANCH  22  23
ATOM     23  O   UNL A   1      34.512  21.760  24.051  1.00  0.00    -0.489 OA
BRANCH  23  24
ATOM     24  C   UNL A   1      33.878  20.771  24.876  1.00  0.00     0.267 C 
BRANCH  24  25
ATOM     25  C   UNL A   1      33.822  19.340  24.353  1.00  0.00     0.008 A 
ATOM     26  C   UNL A   1      34.539  18.288  24.956  1.00  0.00     0.009 A 
ATOM     27  C   UNL A   1      32.961  18.997  23.292  1.00  0.00     0.047 A 
ATOM     28  C   UNL A   1      34.385  16.959  24.548  1.00  0.00     0.001 A 
ATOM     29  C   UNL A   1      32.829  17.667  22.865  1.00  0.00     0.021 A 
ATOM     30  Cl  UNL A   1      32.000  20.178  22.471  1.00  0.00    -0.084 Cl
ATOM     31  C   UNL A   1      33.532  16.648  23.501  1.00  0.00     0.002 A 
ENDBRANCH  24  25
ENDBRANCH  23  24
ENDBRANCH  22  23
ENDBRANCH  16  17
ENDBRANCH   7   9
ENDBRANCH   4   7
ENDBRANCH   2   3
ENDBRANCH   1   2
BRANCH   1  32
ATOM     32  C   UNL A   1      35.101  31.532  27.716  1.00  0.00     0.002 C 
BRANCH  32  33
ATOM     33  C   UNL A   1      33.980  32.362  28.353  1.00  0.00     0.002 C 
BRANCH  33  34
ATOM     34  C   UNL A   1      34.442  33.365  29.414  1.00  0.00     0.021 C 
BRANCH  34  35
ATOM     35  C   UNL A   1      33.937  34.789  29.202  1.00  0.00     0.116 C 
BRANCH  35  36
ATOM     36  N   UNL A   1      33.055  35.218  30.275  1.00  0.00    -0.352 N 
ATOM     37  C   UNL A   1      33.154  34.988  31.627  1.00  0.00     0.251 C 
ATOM     38  H   UNL A   1      32.274  35.749  29.994  1.00  0.00     0.163 HD
ATOM     39  O   UNL A   1      32.203  35.237  32.361  1.00  0.00    -0.269 OA
BRANCH  37  40
ATOM     40  C   UNL A   1      34.401  34.417  32.183  1.00  0.00     0.039 A 
ATOM     41  C   UNL A   1      34.374  33.135  32.736  1.00  0.00     0.014 A 
ATOM     42  C   UNL A   1      35.596  35.142  32.145  1.00  0.00     0.014 A 
ATOM     43  C   UNL A   1      35.561  32.550  33.181  1.00  0.00     0.010 A 
ATOM     44  C   UNL A   1      36.788  34.529  32.522  1.00  0.00     0.010 A 
ATOM     45  C   UNL A   1      36.785  33.223  33.036  1.00  0.00    -0.014 A 
BRANCH  45  46
ATOM     46  C   UNL A   1      38.075  32.572  33.391  1.00  0.00     0.031 A 
ATOM     47  C   UNL A   1      38.635  31.478  32.523  1.00  0.00     0.074 A 
ATOM     48  C   UNL A   1      38.697  32.913  34.538  1.00  0.00     0.049 A 
ATOM     49  N   UNL A   1      39.685  30.724  32.719  1.00  0.00    -0.248 NA
ATOM     50  C   UNL A   1      37.900  31.175  31.286  1.00  0.00     0.031 C 
ATOM     51  C   UNL A   1      38.231  33.936  35.479  1.00  0.00     0.029 A 
ATOM     52  N   UNL A   1      39.842  32.429  35.121  1.00  0.00    -0.354 N 
ATOM     53  C   UNL A   1      39.729  29.846  31.640  1.00  0.00     0.074 A 
ATOM     54  C   UNL A   1      38.571  30.132  30.820  1.00  0.00     0.031 C 
ATOM     55  C   UNL A   1      39.090  34.013  36.507  1.00  0.00     0.029 A 
ATOM     56  C   UNL A   1      40.134  33.008  36.335  1.00  0.00     0.049 A 
ATOM     57  H   UNL A   1      40.403  31.734  34.708  1.00  0.00     0.167 HD
ATOM     58  C   UNL A   1      40.658  28.900  31.358  1.00  0.00     0.034 A 
ATOM     59  C   UNL A   1      41.113  32.742  37.225  1.00  0.00     0.034 A 
ATOM     60  C   UNL A   1      41.814  28.641  32.180  1.00  0.00     0.049 A 
ATOM     61  C   UNL A   1      42.110  31.655  36.905  1.00  0.00     0.074 A 
ATOM     62  C   UNL A   1      42.859  27.764  31.944  1.00  0.00     0.029 A 
ATOM     63  N   UNL A   1      42.072  29.240  33.407  1.00  0.00    -0.354 N 
ATOM     64  N   UNL A   1      42.177  30.884  35.843  1.00  0.00    -0.248 NA
ATOM     65  C   UNL A   1      43.166  31.405  37.896  1.00  0.00     0.031 C 
ATOM     66  C   UNL A   1      43.696  27.767  33.062  1.00  0.00     0.029 A 
ATOM     67  C   UNL A   1      43.228  28.713  33.960  1.00  0.00     0.049 A 
ATOM     68  H   UNL A   1      41.515  29.938  33.823  1.00  0.00     0.167 HD
ATOM     69  C   UNL A   1      43.297  30.079  36.030  1.00  0.00     0.074 A 
ATOM     70  C   UNL A   1      43.886  30.471  37.294  1.00  0.00     0.031 C 
ATOM     71  C   UNL A   1      43.798  29.105  35.228  1.00  0.00     0.034 A 
BRANCH  58  72
ATOM     72  C   UNL A   1      40.447  28.050  30.128  1.00  0.00     0.023 A 
ATOM     73  C   UNL A   1      41.261  28.173  28.988  1.00  0.00     0.031 A 
ATOM     74  C   UNL A   1      39.416  27.094  30.098  1.00  0.00     0.131 A 
ATOM     75  C   UNL A   1      40.992  27.401  27.848  1.00  0.00     0.055 A 
ATOM     76  C   UNL A   1      39.203  26.273  28.990  1.00  0.00     0.041 A 
ATOM     77  F   UNL A   1      38.591  26.945  31.146  1.00  0.00    -0.206 F 
ATOM     78  C   UNL A   1      39.986  26.432  27.850  1.00  0.00     0.022 A 
BRANCH  75  79
ATOM     79  S   UNL A   1      41.887  27.776  26.316  1.00  0.00     0.124 S 
ATOM     80  O   UNL A   1      41.468  29.150  26.057  1.00  0.00    -0.237 OA
ATOM     81  O   UNL A   1      43.279  27.596  26.713  1.00  0.00    -0.237 OA
ATOM     82  O   UNL A   1      41.375  26.787  25.369  1.00  0.00    -0.744 OA
ENDBRANCH  75  79
ENDBRANCH  58  72
BRANCH  59  83
ATOM     83  C   UNL A   1      41.185  33.481  38.521  1.00  0.00     0.023 A 
ATOM     84  C   UNL A   1      40.398  33.097  39.618  1.00  0.00     0.031 A 
ATOM     85  C   UNL A   1      41.994  34.623  38.661  1.00  0.00     0.131 A 
ATOM     86  C   UNL A   1      40.393  33.880  40.784  1.00  0.00     0.055 A 
ATOM     87  C   UNL A   1      42.035  35.361  39.845  1.00  0.00     0.041 A 
ATOM     88  F   UNL A   1      42.766  35.039  37.643  1.00  0.00    -0.206 F 
ATOM     89  C   UNL A   1      41.218  35.000  40.911  1.00  0.00     0.022 A 
BRANCH  86  90
ATOM     90  S   UNL A   1      39.201  33.479  42.091  1.00  0.00     0.124 S 
ATOM     91  O   UNL A   1      39.945  33.842  43.292  1.00  0.00    -0.237 OA
ATOM     92  O   UNL A   1      38.075  34.342  41.748  1.00  0.00    -0.237 OA
ATOM     93  O   UNL A   1      38.966  32.049  41.910  1.00  0.00    -0.744 OA
ENDBRANCH  86  90
ENDBRANCH  59  83
BRANCH  71  94
ATOM     94  C   UNL A   1      45.068  28.423  35.678  1.00  0.00     0.023 A 
ATOM     95  C   UNL A   1      45.045  27.223  36.408  1.00  0.00     0.031 A 
ATOM     96  C   UNL A   1      46.320  28.981  35.359  1.00  0.00     0.131 A 
ATOM     97  C   UNL A   1      46.249  26.642  36.834  1.00  0.00     0.055 A 
ATOM     98  C   UNL A   1      47.515  28.365  35.731  1.00  0.00     0.041 A 
ATOM     99  F   UNL A   1      46.401  30.129  34.668  1.00  0.00    -0.206 F 
ATOM    100  C   UNL A   1      47.484  27.194  36.483  1.00  0.00     0.022 A 
BRANCH  97 101
ATOM    101  S   UNL A   1      46.181  25.196  37.925  1.00  0.00     0.124 S 
ATOM    102  O   UNL A   1      47.269  25.469  38.860  1.00  0.00    -0.237 OA
ATOM    103  O   UNL A   1      44.832  25.280  38.475  1.00  0.00    -0.237 OA
ATOM    104  O   UNL A   1      46.409  24.071  37.020  1.00  0.00    -0.744 OA
ENDBRANCH  97 101
ENDBRANCH  71  94
ENDBRANCH  45  46
ENDBRANCH  37  40
ENDBRANCH  35  36
ENDBRANCH  34  35
ENDBRANCH  33  34
ENDBRANCH  32  33
ENDBRANCH   1  32
TORSDOF 21
ENDMDL
MODEL 3
REMARK VINA RESULT:      -9.6      5.036     10.605
REMARK SMILES C[C@@H](C(=O)NCCCCCCNC(=O)c1ccc(-c2c3nc(c(-c4cc(S(=O)(=O)[O-])ccc4F)c4ccc([nH]4)c(-c4cc(S(=O)(=O)[O-])ccc4F)c4nc(c(-c5cc(S(=O)(=O)[O-])ccc5F)c5ccc2[nH]5)C=C4)C=C3)cc1)N1C(=O)/C(=C\c2ccc(OCc3ccccc3Cl)cc2)SC1=S
REMARK SMILES IDX 7 1 6 2 5 3 3 4 4 5 2 7 1 8 78 9 79 10 99 11 80 12 81 13
REMARK SMILES IDX 98 14 100 15 82 16 83 17 84 18 97 19 85 20 96 21 86 22 87 23
REMARK SMILES IDX 88 24 89 25 90 26 94 27 91 28 93 29 95 30 92 31 8 32 9 33
REMARK SMILES IDX 10 34 11 35 12 36 13 37 14 39 15 40 16 41 77 42 17 43 76 44
REMARK SMILES IDX 18 45 19 46 20 47 70 48 21 49 75 50 69 51 71 52 22 53 74 54
REMARK SMILES IDX 68 55 67 56 23 58 55 59 35 60 54 61 36 62 39 63 53 64 72 65
REMARK SMILES IDX 37 66 38 67 52 69 73 70 40 71 24 72 25 73 33 74 26 75 32 76
REMARK SMILES IDX 34 77 31 78 27 79 28 80 29 81 30 82 56 83 57 84 65 85 58 86
REMARK SMILES IDX 64 87 66 88 63 89 59 90 60 91 61 92 62 93 41 94 42 95 50 96
REMARK SMILES IDX 43 97 49 98 51 99 48 100 44 101 45 102 46 103 47 104
REMARK H PARENT 5 6 12 38 71 57 39 68
REMARK Flexibility Score: inf
ROOT
ATOM      1  C   UNL A   1      38.249  34.537  30.211  1.00  0.00     0.021 C 
ENDROOT
BRANCH   1   2
ATOM      2  C   UNL A   1      37.639  34.105  28.877  1.00  0.00     0.116 C 
BRANCH   2   3
ATOM      3  N   UNL A   1      36.276  34.584  28.752  1.00  0.00    -0.354 N 
ATOM      4  C   UNL A   1      35.124  33.913  28.463  1.00  0.00     0.242 C 
ATOM      5  O   UNL A   1      34.081  34.575  28.436  1.00  0.00    -0.273 OA
ATOM      6  H   UNL A   1      36.164  35.550  28.901  1.00  0.00     0.163 HD
BRANCH   4   7
ATOM      7  C   UNL A   1      35.129  32.382  28.248  1.00  0.00     0.178 C 
ATOM      8  C   UNL A   1      33.788  31.753  27.872  1.00  0.00     0.042 C 
BRANCH   7   9
ATOM      9  N   UNL A   1      35.768  31.736  29.423  1.00  0.00    -0.281 N 
ATOM     10  C   UNL A   1      36.835  30.879  29.181  1.00  0.00     0.266 C 
ATOM     11  C   UNL A   1      35.483  31.989  30.751  1.00  0.00     0.149 C 
ATOM     12  O   UNL A   1      37.271  30.596  28.075  1.00  0.00    -0.268 OA
ATOM     13  C   UNL A   1      37.372  30.327  30.464  1.00  0.00     0.081 C 
ATOM     14  S   UNL A   1      36.456  30.945  31.783  1.00  0.00    -0.054 SA
ATOM     15  S   UNL A   1      34.404  33.064  31.437  1.00  0.00    -0.052 S 
ATOM     16  C   UNL A   1      38.403  29.489  30.650  1.00  0.00     0.029 C 
BRANCH  16  17
ATOM     17  C   UNL A   1      39.275  28.979  29.595  1.00  0.00    -0.024 A 
ATOM     18  C   UNL A   1      40.439  29.666  29.248  1.00  0.00     0.012 A 
ATOM     19  C   UNL A   1      38.962  27.777  28.948  1.00  0.00     0.012 A 
ATOM     20  C   UNL A   1      41.332  29.097  28.339  1.00  0.00     0.047 A 
ATOM     21  C   UNL A   1      39.853  27.215  28.033  1.00  0.00     0.047 A 
ATOM     22  C   UNL A   1      41.074  27.841  27.784  1.00  0.00     0.119 A 
BRANCH  22  23
ATOM     23  O   UNL A   1      42.135  27.288  27.126  1.00  0.00    -0.489 OA
BRANCH  23  24
ATOM     24  C   UNL A   1      42.016  25.957  26.600  1.00  0.00     0.267 C 
BRANCH  24  25
ATOM     25  C   UNL A   1      43.256  25.070  26.626  1.00  0.00     0.008 A 
ATOM     26  C   UNL A   1      43.822  24.530  25.455  1.00  0.00     0.009 A 
ATOM     27  C   UNL A   1      43.947  24.839  27.831  1.00  0.00     0.047 A 
ATOM     28  C   UNL A   1      45.028  23.822  25.474  1.00  0.00     0.001 A 
ATOM     29  C   UNL A   1      45.142  24.104  27.854  1.00  0.00     0.021 A 
ATOM     30  Cl  UNL A   1      43.386  25.461  29.346  1.00  0.00    -0.084 Cl
ATOM     31  C   UNL A   1      45.688  23.607  26.674  1.00  0.00     0.002 A 
ENDBRANCH  24  25
ENDBRANCH  23  24
ENDBRANCH  22  23
ENDBRANCH  16  17
ENDBRANCH   7   9
ENDBRANCH   4   7
ENDBRANCH   2   3
ENDBRANCH   1   2
BRANCH   1  32
ATOM     32  C   UNL A   1      39.152  33.474  30.854  1.00  0.00     0.002 C 
BRANCH  32  33
ATOM     33  C   UNL A   1      39.492  33.714  32.330  1.00  0.00     0.002 C 
BRANCH  33  34
ATOM     34  C   UNL A   1      38.298  34.079  33.216  1.00  0.00     0.021 C 
BRANCH  34  35
ATOM     35  C   UNL A   1      38.667  34.485  34.640  1.00  0.00     0.116 C 
BRANCH  35  36
ATOM     36  N   UNL A   1      38.122  33.566  35.626  1.00  0.00    -0.352 N 
ATOM     37  C   UNL A   1      38.387  32.230  35.809  1.00  0.00     0.251 C 
ATOM     38  H   UNL A   1      37.469  33.957  36.251  1.00  0.00     0.163 HD
ATOM     39  O   UNL A   1      37.672  31.560  36.548  1.00  0.00    -0.269 OA
BRANCH  37  40
ATOM     40  C   UNL A   1      39.521  31.604  35.094  1.00  0.00     0.039 A 
ATOM     41  C   UNL A   1      39.259  30.626  34.132  1.00  0.00     0.014 A 
ATOM     42  C   UNL A   1      40.836  31.992  35.362  1.00  0.00     0.014 A 
ATOM     43  C   UNL A   1      40.312  30.092  33.385  1.00  0.00     0.010 A 
ATOM     44  C   UNL A   1      41.875  31.512  34.568  1.00  0.00     0.010 A 
ATOM     45  C   UNL A   1      41.623  30.563  33.565  1.00  0.00    -0.014 A 
BRANCH  45  46
ATOM     46  C   UNL A   1      42.740  30.098  32.699  1.00  0.00     0.031 A 
ATOM     47  C   UNL A   1      43.138  30.892  31.485  1.00  0.00     0.074 A 
ATOM     48  C   UNL A   1      43.338  28.919  32.965  1.00  0.00     0.049 A 
ATOM     49  N   UNL A   1      44.011  30.600  30.556  1.00  0.00    -0.248 NA
ATOM     50  C   UNL A   1      42.441  32.171  31.274  1.00  0.00     0.031 C 
ATOM     51  C   UNL A   1      43.015  28.044  34.095  1.00  0.00     0.029 A 
ATOM     52  N   UNL A   1      44.331  28.242  32.300  1.00  0.00    -0.354 N 
ATOM     53  C   UNL A   1      43.958  31.648  29.642  1.00  0.00     0.074 A 
ATOM     54  C   UNL A   1      42.932  32.557  30.106  1.00  0.00     0.031 C 
ATOM     55  C   UNL A   1      43.803  26.959  34.052  1.00  0.00     0.029 A 
ATOM     56  C   UNL A   1      44.647  27.026  32.864  1.00  0.00     0.049 A 
ATOM     57  H   UNL A   1      44.776  28.593  31.495  1.00  0.00     0.167 HD
ATOM     58  C   UNL A   1      44.708  31.836  28.528  1.00  0.00     0.034 A 
ATOM     59  C   UNL A   1      45.498  26.061  32.456  1.00  0.00     0.034 A 
ATOM     60  C   UNL A   1      45.737  30.925  28.092  1.00  0.00     0.049 A 
ATOM     61  C   UNL A   1      46.289  26.278  31.189  1.00  0.00     0.074 A 
ATOM     62  C   UNL A   1      46.610  31.061  27.025  1.00  0.00     0.029 A 
ATOM     63  N   UNL A   1      46.023  29.700  28.682  1.00  0.00    -0.354 N 
ATOM     64  N   UNL A   1      46.278  27.310  30.376  1.00  0.00    -0.248 NA
ATOM     65  C   UNL A   1      47.211  25.207  30.787  1.00  0.00     0.031 C 
ATOM     66  C   UNL A   1      47.358  29.885  26.917  1.00  0.00     0.029 A 
ATOM     67  C   UNL A   1      47.020  29.050  27.971  1.00  0.00     0.049 A 
ATOM     68  H   UNL A   1      45.583  29.345  29.488  1.00  0.00     0.167 HD
ATOM     69  C   UNL A   1      47.211  27.020  29.384  1.00  0.00     0.074 A 
ATOM     70  C   UNL A   1      47.779  25.729  29.711  1.00  0.00     0.031 C 
ATOM     71  C   UNL A   1      47.569  27.756  28.302  1.00  0.00     0.034 A 
BRANCH  58  72
ATOM     72  C   UNL A   1      44.421  33.053  27.683  1.00  0.00     0.023 A 
ATOM     73  C   UNL A   1      44.742  34.352  28.114  1.00  0.00     0.031 A 
ATOM     74  C   UNL A   1      43.820  32.911  26.419  1.00  0.00     0.131 A 
ATOM     75  C   UNL A   1      44.405  35.457  27.318  1.00  0.00     0.055 A 
ATOM     76  C   UNL A   1      43.560  34.008  25.597  1.00  0.00     0.041 A 
ATOM     77  F   UNL A   1      43.470  31.698  25.962  1.00  0.00    -0.206 F 
ATOM     78  C   UNL A   1      43.841  35.293  26.051  1.00  0.00     0.022 A 
BRANCH  75  79
ATOM     79  S   UNL A   1      44.590  37.120  28.020  1.00  0.00     0.124 S 
ATOM     80  O   UNL A   1      43.533  37.134  29.028  1.00  0.00    -0.237 OA
ATOM     81  O   UNL A   1      45.957  37.097  28.527  1.00  0.00    -0.237 OA
ATOM     82  O   UNL A   1      44.362  38.002  26.877  1.00  0.00    -0.744 OA
ENDBRANCH  75  79
ENDBRANCH  58  72
BRANCH  59  83
ATOM     83  C   UNL A   1      45.623  24.785  33.221  1.00  0.00     0.023 A 
ATOM     84  C   UNL A   1      46.643  24.605  34.168  1.00  0.00     0.031 A 
ATOM     85  C   UNL A   1      44.761  23.701  32.970  1.00  0.00     0.131 A 
ATOM     86  C   UNL A   1      46.813  23.355  34.784  1.00  0.00     0.055 A 
ATOM     87  C   UNL A   1      44.894  22.481  33.634  1.00  0.00     0.041 A 
ATOM     88  F   UNL A   1      43.768  23.815  32.072  1.00  0.00    -0.206 F 
ATOM     89  C   UNL A   1      45.936  22.297  34.537  1.00  0.00     0.022 A 
BRANCH  86  90
ATOM     90  S   UNL A   1      48.273  23.096  35.830  1.00  0.00     0.124 S 
ATOM     91  O   UNL A   1      48.674  21.747  35.450  1.00  0.00    -0.237 OA
ATOM     92  O   UNL A   1      49.153  24.175  35.393  1.00  0.00    -0.237 OA
ATOM     93  O   UNL A   1      47.748  23.235  37.186  1.00  0.00    -0.744 OA
ENDBRANCH  86  90
ENDBRANCH  59  83
BRANCH  71  94
ATOM     94  C   UNL A   1      48.655  27.197  27.413  1.00  0.00     0.023 A 
ATOM     95  C   UNL A   1      50.015  27.298  27.753  1.00  0.00     0.031 A 
ATOM     96  C   UNL A   1      48.318  26.543  26.214  1.00  0.00     0.131 A 
ATOM     97  C   UNL A   1      50.991  26.794  26.880  1.00  0.00     0.055 A 
ATOM     98  C   UNL A   1      49.290  25.987  25.381  1.00  0.00     0.041 A 
ATOM     99  F   UNL A   1      47.035  26.422  25.838  1.00  0.00    -0.206 F 
ATOM    100  C   UNL A   1      50.637  26.120  25.707  1.00  0.00     0.022 A 
BRANCH  97 101
ATOM    101  S   UNL A   1      52.738  27.098  27.258  1.00  0.00     0.124 S 
ATOM    102  O   UNL A   1      52.919  26.337  28.491  1.00  0.00    -0.237 OA
ATOM    103  O   UNL A   1      53.412  26.567  26.077  1.00  0.00    -0.237 OA
ATOM    104  O   UNL A   1      52.810  28.550  27.409  1.00  0.00    -0.744 OA
ENDBRANCH  97 101
ENDBRANCH  71  94
ENDBRANCH  45  46
ENDBRANCH  37  40
ENDBRANCH  35  36
ENDBRANCH  34  35
ENDBRANCH  33  34
ENDBRANCH  32  33
ENDBRANCH   1  32
TORSDOF 21
ENDMDL
