MODEL 1
REMARK VINA RESULT:     -11.3      0.000      0.000
REMARK SMILES COc1ccc(Cl)cc1C(=O)NC(=S)Nc1cc(C)c(O)c(C(=O)NCCCCCCNC(=O)c2ccc(-c3c4nc(c(-c5cc(S(=O)(=O)[O-])ccc5F)c5ccc([nH]5)c(-c5cc(S(=O)(=O)[O-])ccc5F)c5nc(c(-c6cc(S(=O)(=O)[O-])ccc6F)c6ccc3[nH]6)C=C5)C=C4)cc2)c1
REMARK SMILES IDX 27 1 26 2 25 3 23 4 24 5 22 7 16 8 17 9 98 10 18 11 19 12
REMARK SMILES IDX 20 13 15 14 13 16 14 17 12 18 10 19 11 20 9 22 3 23 4 24
REMARK SMILES IDX 5 25 8 26 6 27 7 28 2 29 1 30 21 31 28 33 29 34 30 35 31 36
REMARK SMILES IDX 32 37 33 38 34 40 35 41 36 42 97 43 37 44 96 45 38 46 39 47
REMARK SMILES IDX 40 48 90 49 41 50 95 51 89 52 91 53 42 54 94 55 88 56 87 57
REMARK SMILES IDX 43 59 75 60 55 61 74 62 56 63 59 64 73 65 92 66 57 67 58 68
REMARK SMILES IDX 72 70 93 71 60 72 44 73 45 74 53 75 46 76 52 77 54 78 51 79
REMARK SMILES IDX 47 80 48 81 49 82 50 83 76 84 77 85 85 86 78 87 84 88 86 89
REMARK SMILES IDX 83 90 79 91 80 92 81 93 82 94 61 95 62 96 70 97 63 98 69 99
REMARK SMILES IDX 71 100 68 101 64 102 65 103 66 104 67 105
REMARK H PARENT 25 6 15 15 12 21 21 32 32 39 91 58 59 69
REMARK Flexibility Score: inf
ROOT
ATOM      1  C   UNL A   1      39.344  23.632  27.247  1.00  0.00     0.021 C 
ENDROOT
BRANCH   1   2
ATOM      2  C   UNL A   1      38.386  24.034  26.130  1.00  0.00     0.116 C 
BRANCH   2   3
ATOM      3  N   UNL A   1      38.131  22.868  25.318  1.00  0.00    -0.352 N 
ATOM      4  C   UNL A   1      36.929  22.312  24.954  1.00  0.00     0.255 C 
ATOM      5  O   UNL A   1      36.915  21.127  24.622  1.00  0.00    -0.269 OA
ATOM      6  H   UNL A   1      38.931  22.406  24.979  1.00  0.00     0.163 HD
BRANCH   4   7
ATOM      7  C   UNL A   1      35.690  23.152  24.720  1.00  0.00     0.083 A 
ATOM      8  C   UNL A   1      33.551  22.980  22.594  1.00  0.00     0.042 A 
ATOM      9  C   UNL A   1      32.298  22.181  23.658  1.00  0.00     0.033 A 
ATOM     10  C   UNL A   1      35.168  23.273  23.142  1.00  0.00     0.043 A 
ATOM     11  C   UNL A   1      32.597  22.250  25.498  1.00  0.00    -0.006 A 
ATOM     12  C   UNL A   1      31.241  21.888  26.175  1.00  0.00     0.048 C 
ATOM     13  C   UNL A   1      34.494  22.796  25.968  1.00  0.00     0.131 A 
BRANCH   8  14
ATOM     14  N   UNL A   1      33.302  24.442  22.145  1.00  0.00    -0.332 N 
ATOM     15  H   UNL A   1      33.697  24.638  21.265  1.00  0.00     0.169 HD
BRANCH  14  16
ATOM     16  C   UNL A   1      32.635  25.572  22.703  1.00  0.00     0.177 C 
ATOM     17  S   UNL A   1      30.970  25.400  22.903  1.00  0.00    -0.040 S 
BRANCH  16  18
ATOM     18  N   UNL A   1      33.173  26.814  23.244  1.00  0.00    -0.299 N 
ATOM     19  C   UNL A   1      33.086  28.308  23.554  1.00  0.00     0.261 C 
ATOM     20  O   UNL A   1      34.077  28.942  23.903  1.00  0.00    -0.269 OA
ATOM     21  H   UNL A   1      34.055  26.554  23.595  1.00  0.00     0.172 HD
BRANCH  19  22
ATOM     22  C   UNL A   1      31.772  28.970  23.397  1.00  0.00     0.083 A 
ATOM     23  C   UNL A   1      31.698  29.860  24.860  1.00  0.00     0.131 A 
ATOM     24  C   UNL A   1      30.317  31.320  25.154  1.00  0.00     0.049 A 
ATOM     25  C   UNL A   1      29.045  31.521  23.878  1.00  0.00     0.024 A 
ATOM     26  C   UNL A   1      30.479  29.199  22.243  1.00  0.00     0.038 A 
ATOM     27  C   UNL A   1      29.158  30.428  22.468  1.00  0.00     0.042 A 
ATOM     28  Cl  UNL A   1      28.063  30.700  21.155  1.00  0.00    -0.084 Cl
BRANCH  23  29
ATOM     29  O   UNL A   1      31.440  28.172  25.396  1.00  0.00    -0.496 OA
ATOM     30  C   UNL A   1      31.542  27.530  26.715  1.00  0.00     0.278 C 
ENDBRANCH  23  29
ENDBRANCH  19  22
ENDBRANCH  16  18
ENDBRANCH  14  16
ENDBRANCH   8  14
BRANCH  13  31
ATOM     31  O   UNL A   1      35.215  22.973  27.196  1.00  0.00    -0.507 OA
ATOM     32  H   UNL A   1      35.250  23.817  27.601  1.00  0.00     0.293 HD
ENDBRANCH  13  31
ENDBRANCH   4   7
ENDBRANCH   2   3
ENDBRANCH   1   2
BRANCH   1  33
ATOM     33  C   UNL A   1      40.326  22.578  26.744  1.00  0.00     0.002 C 
BRANCH  33  34
ATOM     34  C   UNL A   1      41.052  21.867  27.892  1.00  0.00     0.002 C 
BRANCH  34  35
ATOM     35  C   UNL A   1      41.488  20.442  27.537  1.00  0.00     0.021 C 
BRANCH  35  36
ATOM     36  C   UNL A   1      41.280  20.130  26.062  1.00  0.00     0.116 C 
BRANCH  36  37
ATOM     37  N   UNL A   1      42.425  19.394  25.549  1.00  0.00    -0.352 N 
ATOM     38  C   UNL A   1      43.556  19.901  24.969  1.00  0.00     0.251 C 
ATOM     39  H   UNL A   1      42.381  18.413  25.628  1.00  0.00     0.163 HD
ATOM     40  O   UNL A   1      44.212  19.220  24.191  1.00  0.00    -0.269 OA
BRANCH  38  41
ATOM     41  C   UNL A   1      43.956  21.277  25.310  1.00  0.00     0.039 A 
ATOM     42  C   UNL A   1      43.589  22.324  24.469  1.00  0.00     0.014 A 
ATOM     43  C   UNL A   1      44.683  21.518  26.482  1.00  0.00     0.014 A 
ATOM     44  C   UNL A   1      43.915  23.628  24.832  1.00  0.00     0.010 A 
ATOM     45  C   UNL A   1      44.918  22.822  26.890  1.00  0.00     0.010 A 
ATOM     46  C   UNL A   1      44.543  23.889  26.063  1.00  0.00    -0.014 A 
BRANCH  46  47
ATOM     47  C   UNL A   1      44.794  25.279  26.507  1.00  0.00     0.031 A 
ATOM     48  C   UNL A   1      46.181  25.852  26.456  1.00  0.00     0.074 A 
ATOM     49  C   UNL A   1      43.768  26.005  26.992  1.00  0.00     0.049 A 
ATOM     50  N   UNL A   1      46.595  27.035  26.828  1.00  0.00    -0.248 NA
ATOM     51  C   UNL A   1      47.245  24.975  25.944  1.00  0.00     0.031 C 
ATOM     52  C   UNL A   1      42.387  25.532  27.117  1.00  0.00     0.029 A 
ATOM     53  N   UNL A   1      43.722  27.289  27.464  1.00  0.00    -0.354 N 
ATOM     54  C   UNL A   1      47.966  27.046  26.595  1.00  0.00     0.074 A 
ATOM     55  C   UNL A   1      48.320  25.727  26.118  1.00  0.00     0.031 C 
ATOM     56  C   UNL A   1      41.623  26.528  27.584  1.00  0.00     0.029 A 
ATOM     57  C   UNL A   1      42.466  27.686  27.862  1.00  0.00     0.049 A 
ATOM     58  H   UNL A   1      44.513  27.875  27.515  1.00  0.00     0.167 HD
ATOM     59  C   UNL A   1      48.839  28.072  26.745  1.00  0.00     0.034 A 
ATOM     60  C   UNL A   1      42.045  28.843  28.406  1.00  0.00     0.034 A 
ATOM     61  C   UNL A   1      48.462  29.374  27.235  1.00  0.00     0.049 A 
ATOM     62  C   UNL A   1      43.050  29.941  28.633  1.00  0.00     0.074 A 
ATOM     63  C   UNL A   1      49.255  30.497  27.387  1.00  0.00     0.029 A 
ATOM     64  N   UNL A   1      47.190  29.725  27.673  1.00  0.00    -0.354 N 
ATOM     65  N   UNL A   1      44.334  29.956  28.354  1.00  0.00    -0.248 NA
ATOM     66  C   UNL A   1      42.552  31.177  29.246  1.00  0.00     0.031 C 
ATOM     67  C   UNL A   1      48.494  31.489  28.011  1.00  0.00     0.029 A 
ATOM     68  C   UNL A   1      47.194  31.028  28.148  1.00  0.00     0.049 A 
ATOM     69  H   UNL A   1      46.402  29.135  27.650  1.00  0.00     0.167 HD
ATOM     70  C   UNL A   1      44.789  31.216  28.733  1.00  0.00     0.074 A 
ATOM     71  C   UNL A   1      43.637  31.935  29.237  1.00  0.00     0.031 C 
ATOM     72  C   UNL A   1      46.044  31.731  28.669  1.00  0.00     0.034 A 
BRANCH  59  73
ATOM     73  C   UNL A   1      50.288  27.808  26.415  1.00  0.00     0.023 A 
ATOM     74  C   UNL A   1      50.769  27.867  25.095  1.00  0.00     0.031 A 
ATOM     75  C   UNL A   1      51.200  27.470  27.431  1.00  0.00     0.131 A 
ATOM     76  C   UNL A   1      52.097  27.512  24.818  1.00  0.00     0.055 A 
ATOM     77  C   UNL A   1      52.545  27.217  27.159  1.00  0.00     0.041 A 
ATOM     78  F   UNL A   1      50.796  27.370  28.707  1.00  0.00    -0.206 F 
ATOM     79  C   UNL A   1      52.997  27.219  25.844  1.00  0.00     0.022 A 
BRANCH  76  80
ATOM     80  S   UNL A   1      52.580  27.268  23.086  1.00  0.00     0.124 S 
ATOM     81  O   UNL A   1      53.166  28.567  22.759  1.00  0.00    -0.237 OA
ATOM     82  O   UNL A   1      53.512  26.151  23.173  1.00  0.00    -0.237 OA
ATOM     83  O   UNL A   1      51.315  26.978  22.415  1.00  0.00    -0.744 OA
ENDBRANCH  76  80
ENDBRANCH  59  73
BRANCH  60  84
ATOM     84  C   UNL A   1      40.617  29.014  28.799  1.00  0.00     0.023 A 
ATOM     85  C   UNL A   1      40.217  28.902  30.140  1.00  0.00     0.031 A 
ATOM     86  C   UNL A   1      39.621  29.249  27.832  1.00  0.00     0.131 A 
ATOM     87  C   UNL A   1      38.856  28.975  30.470  1.00  0.00     0.055 A 
ATOM     88  C   UNL A   1      38.278  29.393  28.175  1.00  0.00     0.041 A 
ATOM     89  F   UNL A   1      39.947  29.360  26.533  1.00  0.00    -0.206 F 
ATOM     90  C   UNL A   1      37.886  29.241  29.500  1.00  0.00     0.022 A 
BRANCH  87  91
ATOM     91  S   UNL A   1      38.356  28.599  32.172  1.00  0.00     0.124 S 
ATOM     92  O   UNL A   1      39.338  29.353  32.940  1.00  0.00    -0.237 OA
ATOM     93  O   UNL A   1      36.987  29.104  32.205  1.00  0.00    -0.237 OA
ATOM     94  O   UNL A   1      38.484  27.145  32.249  1.00  0.00    -0.744 OA
ENDBRANCH  87  91
ENDBRANCH  60  84
BRANCH  72  95
ATOM     95  C   UNL A   1      46.228  33.156  29.130  1.00  0.00     0.023 A 
ATOM     96  C   UNL A   1      46.012  34.244  28.268  1.00  0.00     0.031 A 
ATOM     97  C   UNL A   1      46.636  33.430  30.448  1.00  0.00     0.131 A 
ATOM     98  C   UNL A   1      46.269  35.550  28.712  1.00  0.00     0.055 A 
ATOM     99  C   UNL A   1      46.807  34.736  30.910  1.00  0.00     0.041 A 
ATOM    100  F   UNL A   1      46.868  32.431  31.315  1.00  0.00    -0.206 F 
ATOM    101  C   UNL A   1      46.639  35.804  30.035  1.00  0.00     0.022 A 
BRANCH  98 102
ATOM    102  S   UNL A   1      46.239  36.898  27.499  1.00  0.00     0.124 S 
ATOM    103  O   UNL A   1      47.596  36.852  26.965  1.00  0.00    -0.237 OA
ATOM    104  O   UNL A   1      45.180  36.476  26.588  1.00  0.00    -0.237 OA
ATOM    105  O   UNL A   1      45.930  38.077  28.307  1.00  0.00    -0.744 OA
ENDBRANCH  98 102
ENDBRANCH  72  95
ENDBRANCH  46  47
ENDBRANCH  38  41
ENDBRANCH  36  37
ENDBRANCH  35  36
ENDBRANCH  34  35
ENDBRANCH  33  34
ENDBRANCH   1  33
TORSDOF 22
ENDMDL
MODEL 2
REMARK VINA RESULT:     -11.0      1.900      2.329
REMARK SMILES COc1ccc(Cl)cc1C(=O)NC(=S)Nc1cc(C)c(O)c(C(=O)NCCCCCCNC(=O)c2ccc(-c3c4nc(c(-c5cc(S(=O)(=O)[O-])ccc5F)c5ccc([nH]5)c(-c5cc(S(=O)(=O)[O-])ccc5F)c5nc(c(-c6cc(S(=O)(=O)[O-])ccc6F)c6ccc3[nH]6)C=C5)C=C4)cc2)c1
REMARK SMILES IDX 27 1 26 2 25 3 23 4 24 5 22 7 16 8 17 9 98 10 18 11 19 12
REMARK SMILES IDX 20 13 15 14 13 16 14 17 12 18 10 19 11 20 9 22 3 23 4 24
REMARK SMILES IDX 5 25 8 26 6 27 7 28 2 29 1 30 21 31 28 33 29 34 30 35 31 36
REMARK SMILES IDX 32 37 33 38 34 40 35 41 36 42 97 43 37 44 96 45 38 46 39 47
REMARK SMILES IDX 40 48 90 49 41 50 95 51 89 52 91 53 42 54 94 55 88 56 87 57
REMARK SMILES IDX 43 59 75 60 55 61 74 62 56 63 59 64 73 65 92 66 57 67 58 68
REMARK SMILES IDX 72 70 93 71 60 72 44 73 45 74 53 75 46 76 52 77 54 78 51 79
REMARK SMILES IDX 47 80 48 81 49 82 50 83 76 84 77 85 85 86 78 87 84 88 86 89
REMARK SMILES IDX 83 90 79 91 80 92 81 93 82 94 61 95 62 96 70 97 63 98 69 99
REMARK SMILES IDX 71 100 68 101 64 102 65 103 66 104 67 105
REMARK H PARENT 25 6 15 15 12 21 21 32 32 39 91 58 59 69
REMARK Flexibility Score: inf
ROOT
ATOM      1  C   UNL A   1      39.652  23.574  26.926  1.00  0.00     0.021 C 
ENDROOT
BRANCH   1   2
ATOM      2  C   UNL A   1      38.280  23.782  26.290  1.00  0.00     0.116 C 
BRANCH   2   3
ATOM      3  N   UNL A   1      37.991  22.633  25.467  1.00  0.00    -0.352 N 
ATOM      4  C   UNL A   1      36.773  22.148  25.054  1.00  0.00     0.255 C 
ATOM      5  O   UNL A   1      36.703  20.966  24.719  1.00  0.00    -0.269 OA
ATOM      6  H   UNL A   1      38.776  22.125  25.159  1.00  0.00     0.163 HD
BRANCH   4   7
ATOM      7  C   UNL A   1      35.596  23.059  24.772  1.00  0.00     0.083 A 
ATOM      8  C   UNL A   1      33.403  22.881  22.702  1.00  0.00     0.042 A 
ATOM      9  C   UNL A   1      32.118  22.269  23.849  1.00  0.00     0.033 A 
ATOM     10  C   UNL A   1      35.050  23.092  23.198  1.00  0.00     0.043 A 
ATOM     11  C   UNL A   1      32.463  22.463  25.672  1.00  0.00    -0.006 A 
ATOM     12  C   UNL A   1      31.099  22.262  26.399  1.00  0.00     0.048 C 
ATOM     13  C   UNL A   1      34.406  22.898  26.065  1.00  0.00     0.131 A 
BRANCH   8  14
ATOM     14  N   UNL A   1      33.254  24.317  22.139  1.00  0.00    -0.332 N 
ATOM     15  H   UNL A   1      33.462  24.367  21.178  1.00  0.00     0.169 HD
BRANCH  14  16
ATOM     16  C   UNL A   1      32.888  25.583  22.681  1.00  0.00     0.177 C 
ATOM     17  S   UNL A   1      33.636  26.916  21.968  1.00  0.00    -0.040 S 
BRANCH  16  18
ATOM     18  N   UNL A   1      31.879  25.931  23.674  1.00  0.00    -0.299 N 
ATOM     19  C   UNL A   1      31.407  26.663  24.930  1.00  0.00     0.261 C 
ATOM     20  O   UNL A   1      30.348  26.371  25.475  1.00  0.00    -0.269 OA
ATOM     21  H   UNL A   1      31.083  25.430  23.383  1.00  0.00     0.172 HD
BRANCH  19  22
ATOM     22  C   UNL A   1      32.282  27.723  25.479  1.00  0.00     0.083 A 
ATOM     23  C   UNL A   1      31.194  29.047  25.488  1.00  0.00     0.131 A 
ATOM     24  C   UNL A   1      31.612  30.767  26.486  1.00  0.00     0.049 A 
ATOM     25  C   UNL A   1      33.264  30.915  27.216  1.00  0.00     0.024 A 
ATOM     26  C   UNL A   1      33.868  27.972  26.171  1.00  0.00     0.038 A 
ATOM     27  C   UNL A   1      34.352  29.511  27.010  1.00  0.00     0.042 A 
ATOM     28  Cl  UNL A   1      35.874  29.549  27.834  1.00  0.00    -0.084 Cl
BRANCH  23  29
ATOM     29  O   UNL A   1      31.562  28.833  23.750  1.00  0.00    -0.496 OA
ATOM     30  C   UNL A   1      30.874  29.288  22.533  1.00  0.00     0.278 C 
ENDBRANCH  23  29
ENDBRANCH  19  22
ENDBRANCH  16  18
ENDBRANCH  14  16
ENDBRANCH   8  14
BRANCH  13  31
ATOM     31  O   UNL A   1      35.166  23.117  27.262  1.00  0.00    -0.507 OA
ATOM     32  H   UNL A   1      36.085  23.292  27.207  1.00  0.00     0.293 HD
ENDBRANCH  13  31
ENDBRANCH   4   7
ENDBRANCH   2   3
ENDBRANCH   1   2
BRANCH   1  33
ATOM     33  C   UNL A   1      40.036  22.098  26.877  1.00  0.00     0.002 C 
BRANCH  33  34
ATOM     34  C   UNL A   1      41.281  21.795  27.718  1.00  0.00     0.002 C 
BRANCH  34  35
ATOM     35  C   UNL A   1      41.937  20.457  27.362  1.00  0.00     0.021 C 
BRANCH  35  36
ATOM     36  C   UNL A   1      41.718  20.082  25.902  1.00  0.00     0.116 C 
BRANCH  36  37
ATOM     37  N   UNL A   1      42.869  19.343  25.407  1.00  0.00    -0.352 N 
ATOM     38  C   UNL A   1      44.003  19.845  24.830  1.00  0.00     0.251 C 
ATOM     39  H   UNL A   1      42.826  18.363  25.498  1.00  0.00     0.163 HD
ATOM     40  O   UNL A   1      44.667  19.155  24.065  1.00  0.00    -0.269 OA
BRANCH  38  41
ATOM     41  C   UNL A   1      44.398  21.226  25.157  1.00  0.00     0.039 A 
ATOM     42  C   UNL A   1      43.866  22.282  24.422  1.00  0.00     0.014 A 
ATOM     43  C   UNL A   1      45.287  21.461  26.213  1.00  0.00     0.014 A 
ATOM     44  C   UNL A   1      44.194  23.586  24.779  1.00  0.00     0.010 A 
ATOM     45  C   UNL A   1      45.533  22.761  26.628  1.00  0.00     0.010 A 
ATOM     46  C   UNL A   1      44.994  23.836  25.909  1.00  0.00    -0.014 A 
BRANCH  46  47
ATOM     47  C   UNL A   1      45.257  25.221  26.361  1.00  0.00     0.031 A 
ATOM     48  C   UNL A   1      46.619  25.830  26.187  1.00  0.00     0.074 A 
ATOM     49  C   UNL A   1      44.269  25.910  26.964  1.00  0.00     0.049 A 
ATOM     50  N   UNL A   1      47.041  27.013  26.546  1.00  0.00    -0.248 NA
ATOM     51  C   UNL A   1      47.645  24.992  25.549  1.00  0.00     0.031 C 
ATOM     52  C   UNL A   1      42.918  25.400  27.214  1.00  0.00     0.029 A 
ATOM     53  N   UNL A   1      44.241  27.181  27.472  1.00  0.00    -0.354 N 
ATOM     54  C   UNL A   1      48.381  27.064  26.178  1.00  0.00     0.074 A 
ATOM     55  C   UNL A   1      48.715  25.766  25.634  1.00  0.00     0.031 C 
ATOM     56  C   UNL A   1      42.182  26.366  27.780  1.00  0.00     0.029 A 
ATOM     57  C   UNL A   1      43.023  27.537  28.003  1.00  0.00     0.049 A 
ATOM     58  H   UNL A   1      45.020  27.785  27.458  1.00  0.00     0.167 HD
ATOM     59  C   UNL A   1      49.241  28.107  26.266  1.00  0.00     0.034 A 
ATOM     60  C   UNL A   1      42.632  28.671  28.615  1.00  0.00     0.034 A 
ATOM     61  C   UNL A   1      48.886  29.389  26.824  1.00  0.00     0.049 A 
ATOM     62  C   UNL A   1      43.631  29.787  28.769  1.00  0.00     0.074 A 
ATOM     63  C   UNL A   1      49.665  30.526  26.926  1.00  0.00     0.029 A 
ATOM     64  N   UNL A   1      47.658  29.697  27.396  1.00  0.00    -0.354 N 
ATOM     65  N   UNL A   1      44.879  29.841  28.364  1.00  0.00    -0.248 NA
ATOM     66  C   UNL A   1      43.168  30.997  29.461  1.00  0.00     0.031 C 
ATOM     67  C   UNL A   1      48.949  31.484  27.648  1.00  0.00     0.029 A 
ATOM     68  C   UNL A   1      47.680  30.989  27.902  1.00  0.00     0.049 A 
ATOM     69  H   UNL A   1      46.885  29.088  27.436  1.00  0.00     0.167 HD
ATOM     70  C   UNL A   1      45.341  31.103  28.728  1.00  0.00     0.074 A 
ATOM     71  C   UNL A   1      44.230  31.781  29.363  1.00  0.00     0.031 C 
ATOM     72  C   UNL A   1      46.572  31.650  28.552  1.00  0.00     0.034 A 
BRANCH  59  73
ATOM     73  C   UNL A   1      50.656  27.887  25.787  1.00  0.00     0.023 A 
ATOM     74  C   UNL A   1      50.998  27.972  24.426  1.00  0.00     0.031 A 
ATOM     75  C   UNL A   1      51.676  27.567  26.700  1.00  0.00     0.131 A 
ATOM     76  C   UNL A   1      52.298  27.658  24.010  1.00  0.00     0.055 A 
ATOM     77  C   UNL A   1      52.993  27.353  26.290  1.00  0.00     0.041 A 
ATOM     78  F   UNL A   1      51.407  27.444  28.009  1.00  0.00    -0.206 F 
ATOM     79  C   UNL A   1      53.307  27.380  24.935  1.00  0.00     0.022 A 
BRANCH  76  80
ATOM     80  S   UNL A   1      52.608  27.443  22.235  1.00  0.00     0.124 S 
ATOM     81  O   UNL A   1      53.129  28.758  21.867  1.00  0.00    -0.237 OA
ATOM     82  O   UNL A   1      53.569  26.346  22.213  1.00  0.00    -0.237 OA
ATOM     83  O   UNL A   1      51.288  27.130  21.692  1.00  0.00    -0.744 OA
ENDBRANCH  76  80
ENDBRANCH  59  73
BRANCH  60  84
ATOM     84  C   UNL A   1      41.248  28.796  29.153  1.00  0.00     0.023 A 
ATOM     85  C   UNL A   1      40.994  28.701  30.530  1.00  0.00     0.031 A 
ATOM     86  C   UNL A   1      40.148  28.972  28.292  1.00  0.00     0.131 A 
ATOM     87  C   UNL A   1      39.673  28.730  31.000  1.00  0.00     0.055 A 
ATOM     88  C   UNL A   1      38.843  29.072  28.771  1.00  0.00     0.041 A 
ATOM     89  F   UNL A   1      40.332  29.063  26.964  1.00  0.00    -0.206 F 
ATOM     90  C   UNL A   1      38.598  28.937  30.133  1.00  0.00     0.022 A 
BRANCH  87  91
ATOM     91  S   UNL A   1      39.369  28.376  32.752  1.00  0.00     0.124 S 
ATOM     92  O   UNL A   1      38.989  29.689  33.256  1.00  0.00    -0.237 OA
ATOM     93  O   UNL A   1      38.304  27.380  32.680  1.00  0.00    -0.237 OA
ATOM     94  O   UNL A   1      40.658  27.874  33.225  1.00  0.00    -0.744 OA
ENDBRANCH  87  91
ENDBRANCH  60  84
BRANCH  72  95
ATOM     95  C   UNL A   1      46.770  33.068  29.029  1.00  0.00     0.023 A 
ATOM     96  C   UNL A   1      47.230  33.355  30.325  1.00  0.00     0.031 A 
ATOM     97  C   UNL A   1      46.484  34.151  28.176  1.00  0.00     0.131 A 
ATOM     98  C   UNL A   1      47.327  34.687  30.754  1.00  0.00     0.055 A 
ATOM     99  C   UNL A   1      46.665  35.474  28.581  1.00  0.00     0.041 A 
ATOM    100  F   UNL A   1      46.031  33.940  26.929  1.00  0.00    -0.206 F 
ATOM    101  C   UNL A   1      47.072  35.748  29.882  1.00  0.00     0.022 A 
BRANCH  98 102
ATOM    102  S   UNL A   1      47.662  35.009  32.507  1.00  0.00     0.124 S 
ATOM    103  O   UNL A   1      47.640  33.663  33.070  1.00  0.00    -0.237 OA
ATOM    104  O   UNL A   1      48.967  35.660  32.461  1.00  0.00    -0.237 OA
ATOM    105  O   UNL A   1      46.553  35.871  32.914  1.00  0.00    -0.744 OA
ENDBRANCH  98 102
ENDBRANCH  72  95
ENDBRANCH  46  47
ENDBRANCH  38  41
ENDBRANCH  36  37
ENDBRANCH  35  36
ENDBRANCH  34  35
ENDBRANCH  33  34
ENDBRANCH   1  33
TORSDOF 22
ENDMDL
MODEL 3
REMARK VINA RESULT:     -10.8      2.034      2.653
REMARK SMILES COc1ccc(Cl)cc1C(=O)NC(=S)Nc1cc(C)c(O)c(C(=O)NCCCCCCNC(=O)c2ccc(-c3c4nc(c(-c5cc(S(=O)(=O)[O-])ccc5F)c5ccc([nH]5)c(-c5cc(S(=O)(=O)[O-])ccc5F)c5nc(c(-c6cc(S(=O)(=O)[O-])ccc6F)c6ccc3[nH]6)C=C5)C=C4)cc2)c1
REMARK SMILES IDX 27 1 26 2 25 3 23 4 24 5 22 7 16 8 17 9 98 10 18 11 19 12
REMARK SMILES IDX 20 13 15 14 13 16 14 17 12 18 10 19 11 20 9 22 3 23 4 24
REMARK SMILES IDX 5 25 8 26 6 27 7 28 2 29 1 30 21 31 28 33 29 34 30 35 31 36
REMARK SMILES IDX 32 37 33 38 34 40 35 41 36 42 97 43 37 44 96 45 38 46 39 47
REMARK SMILES IDX 40 48 90 49 41 50 95 51 89 52 91 53 42 54 94 55 88 56 87 57
REMARK SMILES IDX 43 59 75 60 55 61 74 62 56 63 59 64 73 65 92 66 57 67 58 68
REMARK SMILES IDX 72 70 93 71 60 72 44 73 45 74 53 75 46 76 52 77 54 78 51 79
REMARK SMILES IDX 47 80 48 81 49 82 50 83 76 84 77 85 85 86 78 87 84 88 86 89
REMARK SMILES IDX 83 90 79 91 80 92 81 93 82 94 61 95 62 96 70 97 63 98 69 99
REMARK SMILES IDX 71 100 68 101 64 102 65 103 66 104 67 105
REMARK H PARENT 25 6 15 15 12 21 21 32 32 39 91 58 59 69
REMARK Flexibility Score: inf
ROOT
ATOM      1  C   UNL A   1      39.015  23.706  26.438  1.00  0.00     0.021 C 
ENDROOT
BRANCH   1   2
ATOM      2  C   UNL A   1      37.537  23.820  26.073  1.00  0.00     0.116 C 
BRANCH   2   3
ATOM      3  N   UNL A   1      37.422  23.707  24.638  1.00  0.00    -0.352 N 
ATOM      4  C   UNL A   1      36.555  22.943  23.897  1.00  0.00     0.255 C 
ATOM      5  O   UNL A   1      36.870  22.667  22.739  1.00  0.00    -0.269 OA
ATOM      6  H   UNL A   1      38.054  24.256  24.119  1.00  0.00     0.163 HD
BRANCH   4   7
ATOM      7  C   UNL A   1      35.147  22.637  24.364  1.00  0.00     0.083 A 
ATOM      8  C   UNL A   1      32.644  21.970  22.810  1.00  0.00     0.042 A 
ATOM      9  C   UNL A   1      32.695  20.173  23.141  1.00  0.00     0.033 A 
ATOM     10  C   UNL A   1      33.918  23.032  23.310  1.00  0.00     0.043 A 
ATOM     11  C   UNL A   1      33.806  19.610  24.530  1.00  0.00    -0.006 A 
ATOM     12  C   UNL A   1      33.372  18.154  24.874  1.00  0.00     0.048 C 
ATOM     13  C   UNL A   1      35.113  21.044  25.124  1.00  0.00     0.131 A 
BRANCH   8  14
ATOM     14  N   UNL A   1      31.517  22.802  23.473  1.00  0.00    -0.332 N 
ATOM     15  H   UNL A   1      31.004  23.329  22.819  1.00  0.00     0.169 HD
BRANCH  14  16
ATOM     16  C   UNL A   1      31.046  22.987  24.806  1.00  0.00     0.177 C 
ATOM     17  S   UNL A   1      31.689  21.928  25.950  1.00  0.00    -0.040 S 
BRANCH  16  18
ATOM     18  N   UNL A   1      30.188  24.021  25.371  1.00  0.00    -0.299 N 
ATOM     19  C   UNL A   1      29.946  25.412  25.957  1.00  0.00     0.261 C 
ATOM     20  O   UNL A   1      28.892  25.689  26.519  1.00  0.00    -0.269 OA
ATOM     21  H   UNL A   1      29.296  23.605  25.381  1.00  0.00     0.172 HD
BRANCH  19  22
ATOM     22  C   UNL A   1      31.036  26.407  25.843  1.00  0.00     0.083 A 
ATOM     23  C   UNL A   1      30.327  27.516  24.745  1.00  0.00     0.131 A 
ATOM     24  C   UNL A   1      31.123  29.357  24.423  1.00  0.00     0.049 A 
ATOM     25  C   UNL A   1      32.718  29.714  25.205  1.00  0.00     0.024 A 
ATOM     26  C   UNL A   1      32.595  26.819  26.517  1.00  0.00     0.038 A 
ATOM     27  C   UNL A   1      33.415  28.413  26.214  1.00  0.00     0.042 A 
ATOM     28  Cl  UNL A   1      34.852  28.776  27.109  1.00  0.00    -0.084 Cl
BRANCH  23  29
ATOM     29  O   UNL A   1      30.715  26.108  23.710  1.00  0.00    -0.496 OA
ATOM     30  C   UNL A   1      31.463  25.987  22.450  1.00  0.00     0.278 C 
ENDBRANCH  23  29
ENDBRANCH  19  22
ENDBRANCH  16  18
ENDBRANCH  14  16
ENDBRANCH   8  14
BRANCH  13  31
ATOM     31  O   UNL A   1      36.158  21.110  26.105  1.00  0.00    -0.507 OA
ATOM     32  H   UNL A   1      37.051  21.205  25.834  1.00  0.00     0.293 HD
ENDBRANCH  13  31
ENDBRANCH   4   7
ENDBRANCH   2   3
ENDBRANCH   1   2
BRANCH   1  33
ATOM     33  C   UNL A   1      39.454  22.245  26.405  1.00  0.00     0.002 C 
BRANCH  33  34
ATOM     34  C   UNL A   1      40.418  21.905  27.547  1.00  0.00     0.002 C 
BRANCH  34  35
ATOM     35  C   UNL A   1      41.019  20.501  27.429  1.00  0.00     0.021 C 
BRANCH  35  36
ATOM     36  C   UNL A   1      40.977  19.979  25.999  1.00  0.00     0.116 C 
BRANCH  36  37
ATOM     37  N   UNL A   1      42.296  19.504  25.611  1.00  0.00    -0.352 N 
ATOM     38  C   UNL A   1      43.386  20.252  25.258  1.00  0.00     0.251 C 
ATOM     39  H   UNL A   1      42.419  18.527  25.599  1.00  0.00     0.163 HD
ATOM     40  O   UNL A   1      44.256  19.778  24.538  1.00  0.00    -0.269 OA
BRANCH  38  41
ATOM     41  C   UNL A   1      43.481  21.629  25.773  1.00  0.00     0.039 A 
ATOM     42  C   UNL A   1      43.995  21.849  27.048  1.00  0.00     0.014 A 
ATOM     43  C   UNL A   1      43.071  22.700  24.969  1.00  0.00     0.014 A 
ATOM     44  C   UNL A   1      44.141  23.156  27.501  1.00  0.00     0.010 A 
ATOM     45  C   UNL A   1      43.311  24.001  25.383  1.00  0.00     0.010 A 
ATOM     46  C   UNL A   1      43.841  24.241  26.657  1.00  0.00    -0.014 A 
BRANCH  46  47
ATOM     47  C   UNL A   1      44.097  25.633  27.091  1.00  0.00     0.031 A 
ATOM     48  C   UNL A   1      45.462  26.238  26.930  1.00  0.00     0.074 A 
ATOM     49  C   UNL A   1      43.099  26.332  27.666  1.00  0.00     0.049 A 
ATOM     50  N   UNL A   1      45.879  27.428  27.276  1.00  0.00    -0.248 NA
ATOM     51  C   UNL A   1      46.498  25.390  26.323  1.00  0.00     0.031 C 
ATOM     52  C   UNL A   1      41.745  25.826  27.902  1.00  0.00     0.029 A 
ATOM     53  N   UNL A   1      43.064  27.612  28.152  1.00  0.00    -0.354 N 
ATOM     54  C   UNL A   1      47.225  27.471  26.930  1.00  0.00     0.074 A 
ATOM     55  C   UNL A   1      47.568  26.165  26.413  1.00  0.00     0.031 C 
ATOM     56  C   UNL A   1      41.000  26.802  28.440  1.00  0.00     0.029 A 
ATOM     57  C   UNL A   1      41.837  27.976  28.657  1.00  0.00     0.049 A 
ATOM     58  H   UNL A   1      43.843  28.214  28.142  1.00  0.00     0.167 HD
ATOM     59  C   UNL A   1      48.084  28.516  27.015  1.00  0.00     0.034 A 
ATOM     60  C   UNL A   1      41.438  29.120  29.244  1.00  0.00     0.034 A 
ATOM     61  C   UNL A   1      47.721  29.806  27.546  1.00  0.00     0.049 A 
ATOM     62  C   UNL A   1      42.434  30.239  29.397  1.00  0.00     0.074 A 
ATOM     63  C   UNL A   1      48.499  30.945  27.642  1.00  0.00     0.029 A 
ATOM     64  N   UNL A   1      46.483  30.124  28.093  1.00  0.00    -0.354 N 
ATOM     65  N   UNL A   1      43.689  30.285  29.011  1.00  0.00    -0.248 NA
ATOM     66  C   UNL A   1      41.961  31.459  30.060  1.00  0.00     0.031 C 
ATOM     67  C   UNL A   1      47.771  31.915  28.337  1.00  0.00     0.029 A 
ATOM     68  C   UNL A   1      46.497  31.424  28.577  1.00  0.00     0.049 A 
ATOM     69  H   UNL A   1      45.709  29.517  28.130  1.00  0.00     0.167 HD
ATOM     70  C   UNL A   1      44.146  31.553  29.362  1.00  0.00     0.074 A 
ATOM     71  C   UNL A   1      43.025  32.242  29.967  1.00  0.00     0.031 C 
ATOM     72  C   UNL A   1      45.380  32.096  29.199  1.00  0.00     0.034 A 
BRANCH  59  73
ATOM     73  C   UNL A   1      49.507  28.288  26.563  1.00  0.00     0.023 A 
ATOM     74  C   UNL A   1      49.914  28.547  25.243  1.00  0.00     0.031 A 
ATOM     75  C   UNL A   1      50.466  27.783  27.458  1.00  0.00     0.131 A 
ATOM     76  C   UNL A   1      51.215  28.223  24.835  1.00  0.00     0.055 A 
ATOM     77  C   UNL A   1      51.788  27.557  27.072  1.00  0.00     0.041 A 
ATOM     78  F   UNL A   1      50.132  27.489  28.725  1.00  0.00    -0.206 F 
ATOM     79  C   UNL A   1      52.165  27.760  25.748  1.00  0.00     0.022 A 
BRANCH  76  80
ATOM     80  S   UNL A   1      51.595  28.247  23.062  1.00  0.00     0.124 S 
ATOM     81  O   UNL A   1      52.042  26.873  22.838  1.00  0.00    -0.237 OA
ATOM     82  O   UNL A   1      50.312  28.605  22.469  1.00  0.00    -0.237 OA
ATOM     83  O   UNL A   1      52.643  29.260  22.949  1.00  0.00    -0.744 OA
ENDBRANCH  76  80
ENDBRANCH  59  73
BRANCH  60  84
ATOM     84  C   UNL A   1      40.044  29.255  29.757  1.00  0.00     0.023 A 
ATOM     85  C   UNL A   1      39.110  30.077  29.107  1.00  0.00     0.031 A 
ATOM     86  C   UNL A   1      39.636  28.595  30.931  1.00  0.00     0.131 A 
ATOM     87  C   UNL A   1      37.836  30.259  29.663  1.00  0.00     0.055 A 
ATOM     88  C   UNL A   1      38.344  28.722  31.439  1.00  0.00     0.041 A 
ATOM     89  F   UNL A   1      40.490  27.800  31.596  1.00  0.00    -0.206 F 
ATOM     90  C   UNL A   1      37.438  29.570  30.812  1.00  0.00     0.022 A 
BRANCH  87  91
ATOM     91  S   UNL A   1      36.739  31.501  28.927  1.00  0.00     0.124 S 
ATOM     92  O   UNL A   1      35.466  31.181  29.560  1.00  0.00    -0.237 OA
ATOM     93  O   UNL A   1      37.370  32.749  29.345  1.00  0.00    -0.237 OA
ATOM     94  O   UNL A   1      36.815  31.215  27.496  1.00  0.00    -0.744 OA
ENDBRANCH  87  91
ENDBRANCH  60  84
BRANCH  72  95
ATOM     95  C   UNL A   1      45.570  33.522  29.655  1.00  0.00     0.023 A 
ATOM     96  C   UNL A   1      45.307  34.610  28.806  1.00  0.00     0.031 A 
ATOM     97  C   UNL A   1      46.032  33.797  30.955  1.00  0.00     0.131 A 
ATOM     98  C   UNL A   1      45.569  35.917  29.243  1.00  0.00     0.055 A 
ATOM     99  C   UNL A   1      46.210  35.103  31.413  1.00  0.00     0.041 A 
ATOM    100  F   UNL A   1      46.311  32.798  31.808  1.00  0.00    -0.206 F 
ATOM    101  C   UNL A   1      45.994  36.172  30.549  1.00  0.00     0.022 A 
BRANCH  98 102
ATOM    102  S   UNL A   1      45.474  37.268  28.037  1.00  0.00     0.124 S 
ATOM    103  O   UNL A   1      46.369  36.796  26.985  1.00  0.00    -0.237 OA
ATOM    104  O   UNL A   1      44.054  37.291  27.704  1.00  0.00    -0.237 OA
ATOM    105  O   UNL A   1      45.955  38.429  28.785  1.00  0.00    -0.744 OA
ENDBRANCH  98 102
ENDBRANCH  72  95
ENDBRANCH  46  47
ENDBRANCH  38  41
ENDBRANCH  36  37
ENDBRANCH  35  36
ENDBRANCH  34  35
ENDBRANCH  33  34
ENDBRANCH   1  33
TORSDOF 22
ENDMDL
