MODEL 1
REMARK VINA RESULT:     -10.2      0.000      0.000
REMARK SMILES CC(C)C[C@H](NC(=O)CNC(=O)[C@@H](NC(=O)OCc1ccccc1)C(C)C)C(=O)NCCCCCCNC(=O)c1ccc(-c2c3nc(c(-c4cc(S(=O)(=O)[O-])ccc4F)c4ccc([nH]4)c(-c4cc(S(=O)(=O)[O-])ccc4F)c4nc(c(-c5cc(S(=O)(=O)[O-])ccc5F)c5ccc2[nH]5)C=C4)C=C3)cc1
REMARK SMILES IDX 31 1 30 2 28 3 29 4 5 6 4 7 2 8 1 9 3 10 6 11 7 12 8 14 9 15
REMARK SMILES IDX 10 16 11 17 12 19 13 20 14 21 15 22 16 24 17 25 18 26 19 27
REMARK SMILES IDX 20 28 24 29 21 30 23 31 22 32 25 33 26 34 27 35 32 36 33 37
REMARK SMILES IDX 34 38 35 39 36 40 37 41 38 42 39 44 40 45 41 46 102 47 42 48
REMARK SMILES IDX 101 49 43 50 44 51 45 52 95 53 46 54 100 55 94 56 96 57
REMARK SMILES IDX 47 58 99 59 93 60 92 61 48 63 80 64 60 65 79 66 61 67 64 68
REMARK SMILES IDX 78 69 97 70 62 71 63 72 77 74 98 75 65 76 49 77 50 78 58 79
REMARK SMILES IDX 51 80 57 81 59 82 56 83 52 84 53 85 54 86 55 87 81 88 82 89
REMARK SMILES IDX 90 90 83 91 89 92 91 93 88 94 84 95 85 96 86 97 87 98 66 99
REMARK SMILES IDX 67 100 75 101 68 102 74 103 76 104 73 105 69 106 70 107
REMARK SMILES IDX 71 108 72 109
REMARK H PARENT 30 5 6 13 10 18 14 23 37 43 96 62 64 73
REMARK Flexibility Score: inf
ROOT
ATOM      1  C   UNL A   1      31.670  29.876  25.576  1.00  0.00     0.116 C 
ENDROOT
BRANCH   1   2
ATOM      2  N   UNL A   1      32.527  29.586  24.441  1.00  0.00    -0.354 N 
ATOM      3  C   UNL A   1      32.166  29.091  23.221  1.00  0.00     0.242 C 
ATOM      4  O   UNL A   1      33.024  28.963  22.348  1.00  0.00    -0.273 OA
ATOM      5  H   UNL A   1      33.487  29.768  24.567  1.00  0.00     0.163 HD
BRANCH   3   6
ATOM      6  C   UNL A   1      30.685  28.750  22.969  1.00  0.00     0.171 C 
BRANCH   6   7
ATOM      7  C   UNL A   1      29.787  29.819  23.584  1.00  0.00     0.038 C 
BRANCH   7   8
ATOM      8  C   UNL A   1      28.526  30.320  22.855  1.00  0.00    -0.015 C 
ATOM      9  C   UNL A   1      28.766  30.644  21.383  1.00  0.00     0.007 C 
ATOM     10  C   UNL A   1      27.454  29.224  22.968  1.00  0.00     0.007 C 
ENDBRANCH   7   8
ENDBRANCH   6   7
BRANCH   6  11
ATOM     11  N   UNL A   1      30.522  27.356  23.454  1.00  0.00    -0.343 N 
ATOM     12  C   UNL A   1      30.975  26.104  23.246  1.00  0.00     0.240 C 
ATOM     13  H   UNL A   1      29.851  27.341  24.175  1.00  0.00     0.164 HD
ATOM     14  O   UNL A   1      30.502  25.258  24.023  1.00  0.00    -0.273 OA
BRANCH  12  15
ATOM     15  C   UNL A   1      32.066  25.639  22.273  1.00  0.00     0.216 C 
BRANCH  15  16
ATOM     16  N   UNL A   1      32.244  24.251  21.937  1.00  0.00    -0.345 N 
ATOM     17  C   UNL A   1      32.777  23.205  22.610  1.00  0.00     0.243 C 
ATOM     18  H   UNL A   1      31.913  24.016  21.040  1.00  0.00     0.164 HD
ATOM     19  O   UNL A   1      32.645  22.101  22.066  1.00  0.00    -0.273 OA
BRANCH  17  20
ATOM     20  C   UNL A   1      33.484  23.299  23.994  1.00  0.00     0.177 C 
BRANCH  20  21
ATOM     21  N   UNL A   1      32.599  23.208  25.165  1.00  0.00    -0.309 N 
ATOM     22  C   UNL A   1      31.725  22.258  25.586  1.00  0.00     0.408 C 
ATOM     23  H   UNL A   1      32.649  23.990  25.761  1.00  0.00     0.167 HD
ATOM     24  O   UNL A   1      30.922  22.510  26.468  1.00  0.00    -0.225 OA
BRANCH  22  25
ATOM     25  O   UNL A   1      31.855  21.082  24.935  1.00  0.00    -0.445 OA
BRANCH  25  26
ATOM     26  C   UNL A   1      32.556  20.045  25.633  1.00  0.00     0.270 C 
BRANCH  26  27
ATOM     27  C   UNL A   1      32.898  18.892  24.724  1.00  0.00    -0.011 A 
ATOM     28  C   UNL A   1      32.473  18.881  23.388  1.00  0.00     0.007 A 
ATOM     29  C   UNL A   1      33.714  17.854  25.189  1.00  0.00     0.007 A 
ATOM     30  C   UNL A   1      32.884  17.865  22.526  1.00  0.00     0.000 A 
ATOM     31  C   UNL A   1      34.118  16.834  24.328  1.00  0.00     0.000 A 
ATOM     32  C   UNL A   1      33.707  16.844  22.997  1.00  0.00     0.000 A 
ENDBRANCH  26  27
ENDBRANCH  25  26
ENDBRANCH  22  25
ENDBRANCH  20  21
BRANCH  20  33
ATOM     33  C   UNL A   1      34.787  22.475  24.051  1.00  0.00     0.015 C 
ATOM     34  C   UNL A   1      35.898  23.084  23.185  1.00  0.00     0.010 C 
ATOM     35  C   UNL A   1      35.310  22.385  25.491  1.00  0.00     0.010 C 
ENDBRANCH  20  33
ENDBRANCH  17  20
ENDBRANCH  15  16
ENDBRANCH  12  15
ENDBRANCH   6  11
ENDBRANCH   3   6
ENDBRANCH   1   2
BRANCH   1  36
ATOM     36  C   UNL A   1      32.151  29.182  26.832  1.00  0.00     0.021 C 
BRANCH  36  37
ATOM     37  C   UNL A   1      33.521  29.678  27.290  1.00  0.00     0.002 C 
BRANCH  37  38
ATOM     38  C   UNL A   1      33.589  31.184  27.577  1.00  0.00     0.002 C 
BRANCH  38  39
ATOM     39  C   UNL A   1      35.005  31.739  27.752  1.00  0.00     0.021 C 
BRANCH  39  40
ATOM     40  C   UNL A   1      35.061  33.243  27.984  1.00  0.00     0.116 C 
BRANCH  40  41
ATOM     41  N   UNL A   1      34.516  33.610  29.279  1.00  0.00    -0.352 N 
ATOM     42  C   UNL A   1      34.922  33.212  30.525  1.00  0.00     0.251 C 
ATOM     43  H   UNL A   1      33.751  34.229  29.258  1.00  0.00     0.163 HD
ATOM     44  O   UNL A   1      34.229  33.456  31.507  1.00  0.00    -0.269 OA
BRANCH  42  45
ATOM     45  C   UNL A   1      36.187  32.464  30.654  1.00  0.00     0.039 A 
ATOM     46  C   UNL A   1      37.373  33.074  30.246  1.00  0.00     0.014 A 
ATOM     47  C   UNL A   1      36.198  31.180  31.208  1.00  0.00     0.014 A 
ATOM     48  C   UNL A   1      38.582  32.409  30.436  1.00  0.00     0.010 A 
ATOM     49  C   UNL A   1      37.411  30.556  31.472  1.00  0.00     0.010 A 
ATOM     50  C   UNL A   1      38.614  31.160  31.079  1.00  0.00    -0.014 A 
BRANCH  50  51
ATOM     51  C   UNL A   1      39.900  30.463  31.331  1.00  0.00     0.031 A 
ATOM     52  C   UNL A   1      40.751  30.867  32.504  1.00  0.00     0.074 A 
ATOM     53  C   UNL A   1      40.316  29.504  30.482  1.00  0.00     0.049 A 
ATOM     54  N   UNL A   1      41.928  30.424  32.862  1.00  0.00    -0.248 NA
ATOM     55  C   UNL A   1      40.220  31.930  33.371  1.00  0.00     0.031 C 
ATOM     56  C   UNL A   1      39.587  29.056  29.293  1.00  0.00     0.029 A 
ATOM     57  N   UNL A   1      41.451  28.735  30.483  1.00  0.00    -0.354 N 
ATOM     58  C   UNL A   1      42.283  31.158  33.988  1.00  0.00     0.074 A 
ATOM     59  C   UNL A   1      41.226  32.122  34.210  1.00  0.00     0.031 C 
ATOM     60  C   UNL A   1      40.278  28.069  28.700  1.00  0.00     0.029 A 
ATOM     61  C   UNL A   1      41.522  27.851  29.430  1.00  0.00     0.049 A 
ATOM     62  H   UNL A   1      42.151  28.809  31.172  1.00  0.00     0.167 HD
ATOM     63  C   UNL A   1      43.375  31.022  34.779  1.00  0.00     0.034 A 
ATOM     64  C   UNL A   1      42.488  26.976  29.086  1.00  0.00     0.034 A 
ATOM     65  C   UNL A   1      44.414  30.050  34.542  1.00  0.00     0.049 A 
ATOM     66  C   UNL A   1      43.716  26.874  29.956  1.00  0.00     0.074 A 
ATOM     67  C   UNL A   1      45.541  29.792  35.302  1.00  0.00     0.029 A 
ATOM     68  N   UNL A   1      44.461  29.182  33.458  1.00  0.00    -0.354 N 
ATOM     69  N   UNL A   1      44.013  27.542  31.047  1.00  0.00    -0.248 NA
ATOM     70  C   UNL A   1      44.732  25.893  29.555  1.00  0.00     0.031 C 
ATOM     71  C   UNL A   1      46.308  28.830  34.637  1.00  0.00     0.029 A 
ATOM     72  C   UNL A   1      45.616  28.416  33.510  1.00  0.00     0.049 A 
ATOM     73  H   UNL A   1      43.775  29.120  32.755  1.00  0.00     0.167 HD
ATOM     74  C   UNL A   1      45.235  27.035  31.481  1.00  0.00     0.074 A 
ATOM     75  C   UNL A   1      45.609  25.996  30.542  1.00  0.00     0.031 C 
ATOM     76  C   UNL A   1      45.980  27.390  32.560  1.00  0.00     0.034 A 
BRANCH  63  77
ATOM     77  C   UNL A   1      43.510  31.967  35.950  1.00  0.00     0.023 A 
ATOM     78  C   UNL A   1      42.734  31.820  37.113  1.00  0.00     0.031 A 
ATOM     79  C   UNL A   1      44.410  33.046  35.895  1.00  0.00     0.131 A 
ATOM     80  C   UNL A   1      42.815  32.776  38.137  1.00  0.00     0.055 A 
ATOM     81  C   UNL A   1      44.551  33.943  36.955  1.00  0.00     0.041 A 
ATOM     82  F   UNL A   1      45.161  33.255  34.802  1.00  0.00    -0.206 F 
ATOM     83  C   UNL A   1      43.739  33.821  38.078  1.00  0.00     0.022 A 
BRANCH  80  84
ATOM     84  S   UNL A   1      41.587  32.722  39.471  1.00  0.00     0.124 S 
ATOM     85  O   UNL A   1      42.128  31.670  40.328  1.00  0.00    -0.237 OA
ATOM     86  O   UNL A   1      41.644  34.076  40.008  1.00  0.00    -0.237 OA
ATOM     87  O   UNL A   1      40.347  32.375  38.780  1.00  0.00    -0.744 OA
ENDBRANCH  80  84
ENDBRANCH  63  77
BRANCH  64  88
ATOM     88  C   UNL A   1      42.348  26.138  27.860  1.00  0.00     0.023 A 
ATOM     89  C   UNL A   1      41.817  24.840  27.927  1.00  0.00     0.031 A 
ATOM     90  C   UNL A   1      42.789  26.604  26.608  1.00  0.00     0.131 A 
ATOM     91  C   UNL A   1      41.790  24.034  26.777  1.00  0.00     0.055 A 
ATOM     92  C   UNL A   1      42.702  25.821  25.456  1.00  0.00     0.041 A 
ATOM     93  F   UNL A   1      43.305  27.838  26.486  1.00  0.00    -0.206 F 
ATOM     94  C   UNL A   1      42.214  24.523  25.540  1.00  0.00     0.022 A 
BRANCH  91  95
ATOM     95  S   UNL A   1      41.289  22.299  26.946  1.00  0.00     0.124 S 
ATOM     96  O   UNL A   1      41.895  21.700  25.763  1.00  0.00    -0.237 OA
ATOM     97  O   UNL A   1      41.884  21.935  28.227  1.00  0.00    -0.237 OA
ATOM     98  O   UNL A   1      39.829  22.365  26.936  1.00  0.00    -0.744 OA
ENDBRANCH  91  95
ENDBRANCH  64  88
BRANCH  76  99
ATOM     99  C   UNL A   1      47.249  26.610  32.808  1.00  0.00     0.023 A 
ATOM    100  C   UNL A   1      48.473  26.972  32.219  1.00  0.00     0.031 A 
ATOM    101  C   UNL A   1      47.229  25.480  33.646  1.00  0.00     0.131 A 
ATOM    102  C   UNL A   1      49.610  26.178  32.426  1.00  0.00     0.055 A 
ATOM    103  C   UNL A   1      48.379  24.735  33.905  1.00  0.00     0.041 A 
ATOM    104  F   UNL A   1      46.088  25.083  34.232  1.00  0.00    -0.206 F 
ATOM    105  C   UNL A   1      49.576  25.073  33.283  1.00  0.00     0.022 A 
BRANCH 102 106
ATOM    106  S   UNL A   1      51.113  26.544  31.479  1.00  0.00     0.124 S 
ATOM    107  O   UNL A   1      50.571  26.851  30.159  1.00  0.00    -0.237 OA
ATOM    108  O   UNL A   1      51.678  27.671  32.214  1.00  0.00    -0.237 OA
ATOM    109  O   UNL A   1      51.881  25.303  31.560  1.00  0.00    -0.744 OA
ENDBRANCH 102 106
ENDBRANCH  76  99
ENDBRANCH  50  51
ENDBRANCH  42  45
ENDBRANCH  40  41
ENDBRANCH  39  40
ENDBRANCH  38  39
ENDBRANCH  37  38
ENDBRANCH  36  37
ENDBRANCH   1  36
TORSDOF 27
ENDMDL
MODEL 2
REMARK VINA RESULT:     -10.2      5.105     11.040
REMARK SMILES CC(C)C[C@H](NC(=O)CNC(=O)[C@@H](NC(=O)OCc1ccccc1)C(C)C)C(=O)NCCCCCCNC(=O)c1ccc(-c2c3nc(c(-c4cc(S(=O)(=O)[O-])ccc4F)c4ccc([nH]4)c(-c4cc(S(=O)(=O)[O-])ccc4F)c4nc(c(-c5cc(S(=O)(=O)[O-])ccc5F)c5ccc2[nH]5)C=C4)C=C3)cc1
REMARK SMILES IDX 31 1 30 2 28 3 29 4 5 6 4 7 2 8 1 9 3 10 6 11 7 12 8 14 9 15
REMARK SMILES IDX 10 16 11 17 12 19 13 20 14 21 15 22 16 24 17 25 18 26 19 27
REMARK SMILES IDX 20 28 24 29 21 30 23 31 22 32 25 33 26 34 27 35 32 36 33 37
REMARK SMILES IDX 34 38 35 39 36 40 37 41 38 42 39 44 40 45 41 46 102 47 42 48
REMARK SMILES IDX 101 49 43 50 44 51 45 52 95 53 46 54 100 55 94 56 96 57
REMARK SMILES IDX 47 58 99 59 93 60 92 61 48 63 80 64 60 65 79 66 61 67 64 68
REMARK SMILES IDX 78 69 97 70 62 71 63 72 77 74 98 75 65 76 49 77 50 78 58 79
REMARK SMILES IDX 51 80 57 81 59 82 56 83 52 84 53 85 54 86 55 87 81 88 82 89
REMARK SMILES IDX 90 90 83 91 89 92 91 93 88 94 84 95 85 96 86 97 87 98 66 99
REMARK SMILES IDX 67 100 75 101 68 102 74 103 76 104 73 105 69 106 70 107
REMARK SMILES IDX 71 108 72 109
REMARK H PARENT 30 5 6 13 10 18 14 23 37 43 96 62 64 73
REMARK Flexibility Score: inf
ROOT
ATOM      1  C   UNL A   1      42.257  22.920  26.180  1.00  0.00     0.116 C 
ENDROOT
BRANCH   1   2
ATOM      2  N   UNL A   1      41.959  24.234  25.641  1.00  0.00    -0.354 N 
ATOM      3  C   UNL A   1      41.130  25.187  26.162  1.00  0.00     0.242 C 
ATOM      4  O   UNL A   1      41.042  26.277  25.599  1.00  0.00    -0.273 OA
ATOM      5  H   UNL A   1      42.408  24.467  24.796  1.00  0.00     0.163 HD
BRANCH   3   6
ATOM      6  C   UNL A   1      40.368  24.873  27.463  1.00  0.00     0.171 C 
BRANCH   6   7
ATOM      7  C   UNL A   1      38.877  24.721  27.176  1.00  0.00     0.038 C 
BRANCH   7   8
ATOM      8  C   UNL A   1      38.369  23.799  26.050  1.00  0.00    -0.015 C 
ATOM      9  C   UNL A   1      38.758  22.336  26.244  1.00  0.00     0.007 C 
ATOM     10  C   UNL A   1      36.837  23.918  26.005  1.00  0.00     0.007 C 
ENDBRANCH   7   8
ENDBRANCH   6   7
BRANCH   6  11
ATOM     11  N   UNL A   1      40.777  25.935  28.416  1.00  0.00    -0.343 N 
ATOM     12  C   UNL A   1      40.500  27.208  28.763  1.00  0.00     0.240 C 
ATOM     13  H   UNL A   1      41.497  25.593  28.993  1.00  0.00     0.164 HD
ATOM     14  O   UNL A   1      41.156  27.622  29.734  1.00  0.00    -0.273 OA
BRANCH  12  15
ATOM     15  C   UNL A   1      39.417  28.134  28.195  1.00  0.00     0.216 C 
BRANCH  15  16
ATOM     16  N   UNL A   1      38.150  28.316  28.853  1.00  0.00    -0.345 N 
ATOM     17  C   UNL A   1      37.522  29.408  29.349  1.00  0.00     0.243 C 
ATOM     18  H   UNL A   1      37.639  27.482  28.963  1.00  0.00     0.164 HD
ATOM     19  O   UNL A   1      36.361  29.223  29.735  1.00  0.00    -0.273 OA
BRANCH  17  20
ATOM     20  C   UNL A   1      38.138  30.837  29.423  1.00  0.00     0.177 C 
BRANCH  20  21
ATOM     21  N   UNL A   1      37.469  31.858  28.602  1.00  0.00    -0.309 N 
ATOM     22  C   UNL A   1      36.176  32.264  28.514  1.00  0.00     0.408 C 
ATOM     23  H   UNL A   1      38.077  32.342  28.000  1.00  0.00     0.167 HD
ATOM     24  O   UNL A   1      35.817  32.968  27.585  1.00  0.00    -0.225 OA
BRANCH  22  25
ATOM     25  O   UNL A   1      35.398  31.806  29.518  1.00  0.00    -0.445 OA
BRANCH  25  26
ATOM     26  C   UNL A   1      34.586  32.781  30.185  1.00  0.00     0.270 C 
BRANCH  26  27
ATOM     27  C   UNL A   1      35.178  33.188  31.510  1.00  0.00    -0.011 A 
ATOM     28  C   UNL A   1      35.458  32.232  32.496  1.00  0.00     0.007 A 
ATOM     29  C   UNL A   1      35.528  34.525  31.737  1.00  0.00     0.007 A 
ATOM     30  C   UNL A   1      36.105  32.603  33.675  1.00  0.00     0.000 A 
ATOM     31  C   UNL A   1      36.166  34.896  32.919  1.00  0.00     0.000 A 
ATOM     32  C   UNL A   1      36.459  33.935  33.884  1.00  0.00     0.000 A 
ENDBRANCH  26  27
ENDBRANCH  25  26
ENDBRANCH  22  25
ENDBRANCH  20  21
BRANCH  20  33
ATOM     33  C   UNL A   1      38.511  31.247  30.862  1.00  0.00     0.015 C 
ATOM     34  C   UNL A   1      39.725  30.470  31.391  1.00  0.00     0.010 C 
ATOM     35  C   UNL A   1      38.845  32.743  30.931  1.00  0.00     0.010 C 
ENDBRANCH  20  33
ENDBRANCH  17  20
ENDBRANCH  15  16
ENDBRANCH  12  15
ENDBRANCH   6  11
ENDBRANCH   3   6
ENDBRANCH   1   2
BRANCH   1  36
ATOM     36  C   UNL A   1      43.468  22.304  25.512  1.00  0.00     0.021 C 
BRANCH  36  37
ATOM     37  C   UNL A   1      43.976  23.133  24.334  1.00  0.00     0.002 C 
BRANCH  37  38
ATOM     38  C   UNL A   1      45.503  23.168  24.191  1.00  0.00     0.002 C 
BRANCH  38  39
ATOM     39  C   UNL A   1      46.270  23.111  25.514  1.00  0.00     0.021 C 
BRANCH  39  40
ATOM     40  C   UNL A   1      46.767  24.464  26.005  1.00  0.00     0.116 C 
BRANCH  40  41
ATOM     41  N   UNL A   1      47.084  25.356  24.903  1.00  0.00    -0.352 N 
ATOM     42  C   UNL A   1      46.732  26.668  24.732  1.00  0.00     0.251 C 
ATOM     43  H   UNL A   1      47.625  24.963  24.180  1.00  0.00     0.163 HD
ATOM     44  O   UNL A   1      46.911  27.219  23.652  1.00  0.00    -0.269 OA
BRANCH  42  45
ATOM     45  C   UNL A   1      46.112  27.389  25.860  1.00  0.00     0.039 A 
ATOM     46  C   UNL A   1      44.724  27.357  25.997  1.00  0.00     0.014 A 
ATOM     47  C   UNL A   1      46.906  28.063  26.793  1.00  0.00     0.014 A 
ATOM     48  C   UNL A   1      44.133  27.967  27.102  1.00  0.00     0.010 A 
ATOM     49  C   UNL A   1      46.321  28.598  27.934  1.00  0.00     0.010 A 
ATOM     50  C   UNL A   1      44.928  28.565  28.095  1.00  0.00    -0.014 A 
BRANCH  50  51
ATOM     51  C   UNL A   1      44.315  29.176  29.300  1.00  0.00     0.031 A 
ATOM     52  C   UNL A   1      43.945  30.634  29.293  1.00  0.00     0.074 A 
ATOM     53  C   UNL A   1      44.134  28.430  30.406  1.00  0.00     0.049 A 
ATOM     54  N   UNL A   1      43.454  31.367  30.258  1.00  0.00    -0.248 NA
ATOM     55  C   UNL A   1      44.188  31.371  28.043  1.00  0.00     0.031 C 
ATOM     56  C   UNL A   1      44.488  27.013  30.536  1.00  0.00     0.029 A 
ATOM     57  N   UNL A   1      43.612  28.754  31.632  1.00  0.00    -0.354 N 
ATOM     58  C   UNL A   1      43.337  32.650  29.737  1.00  0.00     0.074 A 
ATOM     59  C   UNL A   1      43.875  32.608  28.394  1.00  0.00     0.031 C 
ATOM     60  C   UNL A   1      44.141  26.585  31.761  1.00  0.00     0.029 A 
ATOM     61  C   UNL A   1      43.595  27.704  32.522  1.00  0.00     0.049 A 
ATOM     62  H   UNL A   1      43.282  29.654  31.855  1.00  0.00     0.167 HD
ATOM     63  C   UNL A   1      42.806  33.754  30.317  1.00  0.00     0.034 A 
ATOM     64  C   UNL A   1      43.198  27.654  33.809  1.00  0.00     0.034 A 
ATOM     65  C   UNL A   1      42.271  33.772  31.656  1.00  0.00     0.049 A 
ATOM     66  C   UNL A   1      42.651  28.907  34.447  1.00  0.00     0.074 A 
ATOM     67  C   UNL A   1      41.667  34.820  32.327  1.00  0.00     0.029 A 
ATOM     68  N   UNL A   1      42.284  32.694  32.534  1.00  0.00    -0.354 N 
ATOM     69  N   UNL A   1      42.502  30.103  33.924  1.00  0.00    -0.248 NA
ATOM     70  C   UNL A   1      42.212  28.801  35.844  1.00  0.00     0.031 C 
ATOM     71  C   UNL A   1      41.391  34.403  33.634  1.00  0.00     0.029 A 
ATOM     72  C   UNL A   1      41.734  33.065  33.752  1.00  0.00     0.049 A 
ATOM     73  H   UNL A   1      42.633  31.799  32.322  1.00  0.00     0.167 HD
ATOM     74  C   UNL A   1      41.916  30.881  34.920  1.00  0.00     0.074 A 
ATOM     75  C   UNL A   1      41.728  30.014  36.065  1.00  0.00     0.031 C 
ATOM     76  C   UNL A   1      41.561  32.191  34.889  1.00  0.00     0.034 A 
BRANCH  63  77
ATOM     77  C   UNL A   1      42.809  35.034  29.513  1.00  0.00     0.023 A 
ATOM     78  C   UNL A   1      43.939  35.868  29.454  1.00  0.00     0.031 A 
ATOM     79  C   UNL A   1      41.658  35.439  28.815  1.00  0.00     0.131 A 
ATOM     80  C   UNL A   1      43.869  37.097  28.780  1.00  0.00     0.055 A 
ATOM     81  C   UNL A   1      41.624  36.620  28.072  1.00  0.00     0.041 A 
ATOM     82  F   UNL A   1      40.539  34.698  28.852  1.00  0.00    -0.206 F 
ATOM     83  C   UNL A   1      42.729  37.466  28.065  1.00  0.00     0.022 A 
BRANCH  80  84
ATOM     84  S   UNL A   1      45.234  38.275  28.985  1.00  0.00     0.124 S 
ATOM     85  O   UNL A   1      45.005  39.190  27.870  1.00  0.00    -0.237 OA
ATOM     86  O   UNL A   1      44.987  38.815  30.317  1.00  0.00    -0.237 OA
ATOM     87  O   UNL A   1      46.428  37.440  28.861  1.00  0.00    -0.744 OA
ENDBRANCH  80  84
ENDBRANCH  63  77
BRANCH  64  88
ATOM     88  C   UNL A   1      43.311  26.386  34.587  1.00  0.00     0.023 A 
ATOM     89  C   UNL A   1      44.562  25.882  34.972  1.00  0.00     0.031 A 
ATOM     90  C   UNL A   1      42.169  25.633  34.916  1.00  0.00     0.131 A 
ATOM     91  C   UNL A   1      44.648  24.635  35.614  1.00  0.00     0.055 A 
ATOM     92  C   UNL A   1      42.255  24.425  35.611  1.00  0.00     0.041 A 
ATOM     93  F   UNL A   1      40.946  26.068  34.574  1.00  0.00    -0.206 F 
ATOM     94  C   UNL A   1      43.502  23.913  35.950  1.00  0.00     0.022 A 
BRANCH  91  95
ATOM     95  S   UNL A   1      46.290  23.924  35.911  1.00  0.00     0.124 S 
ATOM     96  O   UNL A   1      46.788  23.751  34.552  1.00  0.00    -0.237 OA
ATOM     97  O   UNL A   1      46.934  24.967  36.702  1.00  0.00    -0.237 OA
ATOM     98  O   UNL A   1      45.999  22.687  36.634  1.00  0.00    -0.744 OA
ENDBRANCH  91  95
ENDBRANCH  64  88
BRANCH  76  99
ATOM     99  C   UNL A   1      40.884  32.750  36.118  1.00  0.00     0.023 A 
ATOM    100  C   UNL A   1      41.601  33.427  37.120  1.00  0.00     0.031 A 
ATOM    101  C   UNL A   1      39.497  32.596  36.290  1.00  0.00     0.131 A 
ATOM    102  C   UNL A   1      40.939  33.869  38.275  1.00  0.00     0.055 A 
ATOM    103  C   UNL A   1      38.832  33.101  37.407  1.00  0.00     0.041 A 
ATOM    104  F   UNL A   1      38.761  31.954  35.368  1.00  0.00    -0.206 F 
ATOM    105  C   UNL A   1      39.555  33.730  38.415  1.00  0.00     0.022 A 
BRANCH 102 106
ATOM    106  S   UNL A   1      41.926  34.538  39.643  1.00  0.00     0.124 S 
ATOM    107  O   UNL A   1      41.731  33.527  40.677  1.00  0.00    -0.237 OA
ATOM    108  O   UNL A   1      43.263  34.604  39.060  1.00  0.00    -0.237 OA
ATOM    109  O   UNL A   1      41.303  35.832  39.915  1.00  0.00    -0.744 OA
ENDBRANCH 102 106
ENDBRANCH  76  99
ENDBRANCH  50  51
ENDBRANCH  42  45
ENDBRANCH  40  41
ENDBRANCH  39  40
ENDBRANCH  38  39
ENDBRANCH  37  38
ENDBRANCH  36  37
ENDBRANCH   1  36
TORSDOF 27
ENDMDL
MODEL 3
REMARK VINA RESULT:     -10.1      1.535      1.915
REMARK SMILES CC(C)C[C@H](NC(=O)CNC(=O)[C@@H](NC(=O)OCc1ccccc1)C(C)C)C(=O)NCCCCCCNC(=O)c1ccc(-c2c3nc(c(-c4cc(S(=O)(=O)[O-])ccc4F)c4ccc([nH]4)c(-c4cc(S(=O)(=O)[O-])ccc4F)c4nc(c(-c5cc(S(=O)(=O)[O-])ccc5F)c5ccc2[nH]5)C=C4)C=C3)cc1
REMARK SMILES IDX 31 1 30 2 28 3 29 4 5 6 4 7 2 8 1 9 3 10 6 11 7 12 8 14 9 15
REMARK SMILES IDX 10 16 11 17 12 19 13 20 14 21 15 22 16 24 17 25 18 26 19 27
REMARK SMILES IDX 20 28 24 29 21 30 23 31 22 32 25 33 26 34 27 35 32 36 33 37
REMARK SMILES IDX 34 38 35 39 36 40 37 41 38 42 39 44 40 45 41 46 102 47 42 48
REMARK SMILES IDX 101 49 43 50 44 51 45 52 95 53 46 54 100 55 94 56 96 57
REMARK SMILES IDX 47 58 99 59 93 60 92 61 48 63 80 64 60 65 79 66 61 67 64 68
REMARK SMILES IDX 78 69 97 70 62 71 63 72 77 74 98 75 65 76 49 77 50 78 58 79
REMARK SMILES IDX 51 80 57 81 59 82 56 83 52 84 53 85 54 86 55 87 81 88 82 89
REMARK SMILES IDX 90 90 83 91 89 92 91 93 88 94 84 95 85 96 86 97 87 98 66 99
REMARK SMILES IDX 67 100 75 101 68 102 74 103 76 104 73 105 69 106 70 107
REMARK SMILES IDX 71 108 72 109
REMARK H PARENT 30 5 6 13 10 18 14 23 37 43 96 62 64 73
REMARK Flexibility Score: inf
ROOT
ATOM      1  C   UNL A   1      31.917  29.924  25.599  1.00  0.00     0.116 C 
ENDROOT
BRANCH   1   2
ATOM      2  N   UNL A   1      32.806  29.648  24.486  1.00  0.00    -0.354 N 
ATOM      3  C   UNL A   1      32.493  29.098  23.276  1.00  0.00     0.242 C 
ATOM      4  O   UNL A   1      33.370  28.992  22.420  1.00  0.00    -0.273 OA
ATOM      5  H   UNL A   1      33.753  29.887  24.620  1.00  0.00     0.163 HD
BRANCH   3   6
ATOM      6  C   UNL A   1      31.037  28.668  23.014  1.00  0.00     0.171 C 
BRANCH   6   7
ATOM      7  C   UNL A   1      30.072  29.710  23.570  1.00  0.00     0.038 C 
BRANCH   7   8
ATOM      8  C   UNL A   1      28.862  30.197  22.750  1.00  0.00    -0.015 C 
ATOM      9  C   UNL A   1      27.556  29.502  23.128  1.00  0.00     0.007 C 
ATOM     10  C   UNL A   1      28.719  31.710  22.980  1.00  0.00     0.007 C 
ENDBRANCH   7   8
ENDBRANCH   6   7
BRANCH   6  11
ATOM     11  N   UNL A   1      30.939  27.288  23.552  1.00  0.00    -0.343 N 
ATOM     12  C   UNL A   1      31.394  26.036  23.342  1.00  0.00     0.240 C 
ATOM     13  H   UNL A   1      30.334  27.285  24.329  1.00  0.00     0.164 HD
ATOM     14  O   UNL A   1      31.003  25.208  24.182  1.00  0.00    -0.273 OA
BRANCH  12  15
ATOM     15  C   UNL A   1      32.404  25.556  22.292  1.00  0.00     0.216 C 
BRANCH  15  16
ATOM     16  N   UNL A   1      32.510  24.171  21.916  1.00  0.00    -0.345 N 
ATOM     17  C   UNL A   1      33.073  23.097  22.517  1.00  0.00     0.243 C 
ATOM     18  H   UNL A   1      32.091  23.964  21.049  1.00  0.00     0.164 HD
ATOM     19  O   UNL A   1      32.860  22.009  21.968  1.00  0.00    -0.273 OA
BRANCH  17  20
ATOM     20  C   UNL A   1      33.908  23.144  23.832  1.00  0.00     0.177 C 
BRANCH  20  21
ATOM     21  N   UNL A   1      33.129  23.094  25.079  1.00  0.00    -0.309 N 
ATOM     22  C   UNL A   1      32.205  22.218  25.551  1.00  0.00     0.408 C 
ATOM     23  H   UNL A   1      33.314  23.841  25.691  1.00  0.00     0.167 HD
ATOM     24  O   UNL A   1      31.516  22.513  26.513  1.00  0.00    -0.225 OA
BRANCH  22  25
ATOM     25  O   UNL A   1      32.152  21.064  24.853  1.00  0.00    -0.445 OA
BRANCH  25  26
ATOM     26  C   UNL A   1      32.500  19.873  25.571  1.00  0.00     0.270 C 
BRANCH  26  27
ATOM     27  C   UNL A   1      33.054  18.811  24.655  1.00  0.00    -0.011 A 
ATOM     28  C   UNL A   1      34.030  17.911  25.106  1.00  0.00     0.007 A 
ATOM     29  C   UNL A   1      32.538  18.665  23.362  1.00  0.00     0.007 A 
ATOM     30  C   UNL A   1      34.458  16.866  24.288  1.00  0.00     0.000 A 
ATOM     31  C   UNL A   1      32.972  17.625  22.542  1.00  0.00     0.000 A 
ATOM     32  C   UNL A   1      33.927  16.724  23.008  1.00  0.00     0.000 A 
ENDBRANCH  26  27
ENDBRANCH  25  26
ENDBRANCH  22  25
ENDBRANCH  20  21
BRANCH  20  33
ATOM     33  C   UNL A   1      35.163  22.250  23.768  1.00  0.00     0.015 C 
ATOM     34  C   UNL A   1      36.349  22.961  23.101  1.00  0.00     0.010 C 
ATOM     35  C   UNL A   1      35.601  21.829  25.177  1.00  0.00     0.010 C 
ENDBRANCH  20  33
ENDBRANCH  17  20
ENDBRANCH  15  16
ENDBRANCH  12  15
ENDBRANCH   6  11
ENDBRANCH   3   6
ENDBRANCH   1   2
BRANCH   1  36
ATOM     36  C   UNL A   1      32.305  29.138  26.833  1.00  0.00     0.021 C 
BRANCH  36  37
ATOM     37  C   UNL A   1      33.759  29.367  27.243  1.00  0.00     0.002 C 
BRANCH  37  38
ATOM     38  C   UNL A   1      34.101  30.823  27.585  1.00  0.00     0.002 C 
BRANCH  38  39
ATOM     39  C   UNL A   1      35.576  31.076  27.905  1.00  0.00     0.021 C 
BRANCH  39  40
ATOM     40  C   UNL A   1      35.886  32.504  28.332  1.00  0.00     0.116 C 
BRANCH  40  41
ATOM     41  N   UNL A   1      35.426  32.776  29.683  1.00  0.00    -0.352 N 
ATOM     42  C   UNL A   1      35.940  32.328  30.870  1.00  0.00     0.251 C 
ATOM     43  H   UNL A   1      34.637  33.361  29.754  1.00  0.00     0.163 HD
ATOM     44  O   UNL A   1      35.314  32.488  31.912  1.00  0.00    -0.269 OA
BRANCH  42  45
ATOM     45  C   UNL A   1      37.239  31.630  30.863  1.00  0.00     0.039 A 
ATOM     46  C   UNL A   1      38.358  32.298  30.366  1.00  0.00     0.014 A 
ATOM     47  C   UNL A   1      37.351  30.335  31.378  1.00  0.00     0.014 A 
ATOM     48  C   UNL A   1      39.605  31.679  30.427  1.00  0.00     0.010 A 
ATOM     49  C   UNL A   1      38.607  29.755  31.513  1.00  0.00     0.010 A 
ATOM     50  C   UNL A   1      39.745  30.417  31.029  1.00  0.00    -0.014 A 
BRANCH  50  51
ATOM     51  C   UNL A   1      41.075  29.768  31.145  1.00  0.00     0.031 A 
ATOM     52  C   UNL A   1      42.023  30.195  32.231  1.00  0.00     0.074 A 
ATOM     53  C   UNL A   1      41.439  28.833  30.247  1.00  0.00     0.049 A 
ATOM     54  N   UNL A   1      43.246  29.796  32.465  1.00  0.00    -0.248 NA
ATOM     55  C   UNL A   1      41.542  31.231  33.158  1.00  0.00     0.031 C 
ATOM     56  C   UNL A   1      40.611  28.366  29.132  1.00  0.00     0.029 A 
ATOM     57  N   UNL A   1      42.596  28.107  30.127  1.00  0.00    -0.354 N 
ATOM     58  C   UNL A   1      43.683  30.534  33.558  1.00  0.00     0.074 A 
ATOM     59  C   UNL A   1      42.619  31.456  33.895  1.00  0.00     0.031 C 
ATOM     60  C   UNL A   1      41.276  27.410  28.463  1.00  0.00     0.029 A 
ATOM     61  C   UNL A   1      42.595  27.235  29.062  1.00  0.00     0.049 A 
ATOM     62  H   UNL A   1      43.358  28.203  30.743  1.00  0.00     0.167 HD
ATOM     63  C   UNL A   1      44.854  30.434  34.234  1.00  0.00     0.034 A 
ATOM     64  C   UNL A   1      43.553  26.400  28.614  1.00  0.00     0.034 A 
ATOM     65  C   UNL A   1      45.899  29.504  33.884  1.00  0.00     0.049 A 
ATOM     66  C   UNL A   1      44.864  26.338  29.356  1.00  0.00     0.074 A 
ATOM     67  C   UNL A   1      47.105  29.285  34.526  1.00  0.00     0.029 A 
ATOM     68  N   UNL A   1      45.870  28.647  32.791  1.00  0.00    -0.354 N 
ATOM     69  N   UNL A   1      45.245  27.009  30.419  1.00  0.00    -0.248 NA
ATOM     70  C   UNL A   1      45.871  25.400  28.845  1.00  0.00     0.031 C 
ATOM     71  C   UNL A   1      47.838  28.358  33.777  1.00  0.00     0.029 A 
ATOM     72  C   UNL A   1      47.052  27.926  32.719  1.00  0.00     0.049 A 
ATOM     73  H   UNL A   1      45.119  28.564  32.159  1.00  0.00     0.167 HD
ATOM     74  C   UNL A   1      46.522  26.546  30.723  1.00  0.00     0.074 A 
ATOM     75  C   UNL A   1      46.838  25.529  29.740  1.00  0.00     0.031 C 
ATOM     76  C   UNL A   1      47.357  26.921  31.727  1.00  0.00     0.034 A 
BRANCH  63  77
ATOM     77  C   UNL A   1      45.070  31.375  35.397  1.00  0.00     0.023 A 
ATOM     78  C   UNL A   1      44.557  31.100  36.677  1.00  0.00     0.031 A 
ATOM     79  C   UNL A   1      45.778  32.577  35.219  1.00  0.00     0.131 A 
ATOM     80  C   UNL A   1      44.692  32.046  37.705  1.00  0.00     0.055 A 
ATOM     81  C   UNL A   1      45.986  33.473  36.268  1.00  0.00     0.041 A 
ATOM     82  F   UNL A   1      46.270  32.909  34.015  1.00  0.00    -0.206 F 
ATOM     83  C   UNL A   1      45.427  33.218  37.517  1.00  0.00     0.022 A 
BRANCH  80  84
ATOM     84  S   UNL A   1      43.758  31.794  39.240  1.00  0.00     0.124 S 
ATOM     85  O   UNL A   1      43.964  33.068  39.923  1.00  0.00    -0.237 OA
ATOM     86  O   UNL A   1      42.408  31.541  38.750  1.00  0.00    -0.237 OA
ATOM     87  O   UNL A   1      44.423  30.649  39.860  1.00  0.00    -0.744 OA
ENDBRANCH  80  84
ENDBRANCH  63  77
BRANCH  64  88
ATOM     88  C   UNL A   1      43.322  25.566  27.399  1.00  0.00     0.023 A 
ATOM     89  C   UNL A   1      42.695  24.313  27.488  1.00  0.00     0.031 A 
ATOM     90  C   UNL A   1      43.770  25.988  26.134  1.00  0.00     0.131 A 
ATOM     91  C   UNL A   1      42.582  23.503  26.347  1.00  0.00     0.055 A 
ATOM     92  C   UNL A   1      43.597  25.206  24.990  1.00  0.00     0.041 A 
ATOM     93  F   UNL A   1      44.375  27.177  25.989  1.00  0.00    -0.206 F 
ATOM     94  C   UNL A   1      43.014  23.948  25.096  1.00  0.00     0.022 A 
BRANCH  91  95
ATOM     95  S   UNL A   1      41.954  21.812  26.542  1.00  0.00     0.124 S 
ATOM     96  O   UNL A   1      42.690  21.102  25.503  1.00  0.00    -0.237 OA
ATOM     97  O   UNL A   1      42.330  21.506  27.918  1.00  0.00    -0.237 OA
ATOM     98  O   UNL A   1      40.519  21.954  26.307  1.00  0.00    -0.744 OA
ENDBRANCH  91  95
ENDBRANCH  64  88
BRANCH  76  99
ATOM     99  C   UNL A   1      48.673  26.188  31.838  1.00  0.00     0.023 A 
ATOM    100  C   UNL A   1      48.815  25.028  32.619  1.00  0.00     0.031 A 
ATOM    101  C   UNL A   1      49.805  26.664  31.153  1.00  0.00     0.131 A 
ATOM    102  C   UNL A   1      50.072  24.420  32.745  1.00  0.00     0.055 A 
ATOM    103  C   UNL A   1      51.037  26.014  31.224  1.00  0.00     0.041 A 
ATOM    104  F   UNL A   1      49.730  27.771  30.395  1.00  0.00    -0.206 F 
ATOM    105  C   UNL A   1      51.180  24.893  32.035  1.00  0.00     0.022 A 
BRANCH 102 106
ATOM    106  S   UNL A   1      50.269  23.061  33.931  1.00  0.00     0.124 S 
ATOM    107  O   UNL A   1      51.323  23.572  34.802  1.00  0.00    -0.237 OA
ATOM    108  O   UNL A   1      48.939  22.972  34.525  1.00  0.00    -0.237 OA
ATOM    109  O   UNL A   1      50.652  21.927  33.094  1.00  0.00    -0.744 OA
ENDBRANCH 102 106
ENDBRANCH  76  99
ENDBRANCH  50  51
ENDBRANCH  42  45
ENDBRANCH  40  41
ENDBRANCH  39  40
ENDBRANCH  38  39
ENDBRANCH  37  38
ENDBRANCH  36  37
ENDBRANCH   1  36
TORSDOF 27
ENDMDL
