MODEL 1
REMARK VINA RESULT:      -9.6      0.000      0.000
REMARK SMILES CC1(CNS(=O)(=O)Cc2ccc(C(=O)NCCCCCCNC(=O)c3ccc(-c4c5nc(c(-c6cc(S(=O)(=O)[O-])ccc6F)c6ccc([nH]6)c(-c6cc(S(=O)(=O)[O-])ccc6F)c6nc(c(-c7cc(S(=O)(=O)[O-])ccc7F)c7ccc4[nH]7)C=C6)C=C5)cc3)cc2)COC1
REMARK SMILES IDX 17 1 16 2 15 3 13 4 14 5 12 7 9 8 10 9 89 10 11 11 88 12
REMARK SMILES IDX 8 13 5 14 6 15 7 16 4 17 3 19 2 20 1 21 90 22 92 23 91 24
REMARK SMILES IDX 18 25 19 26 20 27 21 28 22 29 23 30 24 32 25 33 26 34 87 35
REMARK SMILES IDX 27 36 86 37 28 38 29 39 30 40 80 41 31 42 85 43 79 44 81 45
REMARK SMILES IDX 32 46 84 47 78 48 77 49 33 51 65 52 45 53 64 54 46 55 49 56
REMARK SMILES IDX 63 57 82 58 47 59 48 60 62 62 83 63 50 64 34 65 35 66 43 67
REMARK SMILES IDX 36 68 42 69 44 70 41 71 37 72 38 73 39 74 40 75 66 76 67 77
REMARK SMILES IDX 75 78 68 79 74 80 76 81 73 82 69 83 70 84 71 85 72 86 51 87
REMARK SMILES IDX 52 88 60 89 53 90 59 91 61 92 58 93 54 94 55 95 56 96 57 97
REMARK H PARENT 15 6 4 18 22 31 81 50 49 61
REMARK Flexibility Score: inf
ROOT
ATOM      1  C   UNL A   1      35.900  30.399  27.872  1.00  0.00     0.021 C 
ENDROOT
BRANCH   1   2
ATOM      2  C   UNL A   1      34.559  29.664  27.763  1.00  0.00     0.116 C 
BRANCH   2   3
ATOM      3  N   UNL A   1      33.479  30.613  27.535  1.00  0.00    -0.352 N 
ATOM      4  C   UNL A   1      32.279  30.514  26.874  1.00  0.00     0.251 C 
ATOM      5  O   UNL A   1      31.533  31.494  26.875  1.00  0.00    -0.269 OA
ATOM      6  H   UNL A   1      33.640  31.500  27.934  1.00  0.00     0.163 HD
BRANCH   4   7
ATOM      7  C   UNL A   1      31.831  29.268  26.196  1.00  0.00     0.039 A 
ATOM      8  C   UNL A   1      30.897  26.953  24.819  1.00  0.00    -0.032 A 
ATOM      9  C   UNL A   1      31.343  28.085  24.116  1.00  0.00     0.005 A 
ATOM     10  C   UNL A   1      30.970  27.016  26.205  1.00  0.00     0.005 A 
ATOM     11  C   UNL A   1      31.783  29.235  24.797  1.00  0.00     0.014 A 
ATOM     12  C   UNL A   1      31.485  28.117  26.881  1.00  0.00     0.014 A 
BRANCH   8  13
ATOM     13  C   UNL A   1      30.549  25.691  24.067  1.00  0.00     0.189 C 
BRANCH  13  14
ATOM     14  S   UNL A   1      31.879  24.890  23.142  1.00  0.00     0.215 S 
ATOM     15  O   UNL A   1      33.074  24.949  23.950  1.00  0.00    -0.212 OA
ATOM     16  O   UNL A   1      31.890  25.409  21.786  1.00  0.00    -0.212 OA
BRANCH  14  17
ATOM     17  N   UNL A   1      31.499  23.256  22.993  1.00  0.00    -0.214 NA
ATOM     18  H   UNL A   1      30.844  23.033  23.742  1.00  0.00     0.141 HD
BRANCH  17  19
ATOM     19  C   UNL A   1      32.579  22.249  23.053  1.00  0.00     0.110 C 
BRANCH  19  20
ATOM     20  C   UNL A   1      32.630  21.523  24.410  1.00  0.00     0.028 C 
ATOM     21  C   UNL A   1      31.573  21.935  25.427  1.00  0.00     0.018 C 
ATOM     22  C   UNL A   1      34.050  21.527  25.007  1.00  0.00     0.170 C 
ATOM     23  C   UNL A   1      32.859  20.002  24.315  1.00  0.00     0.170 C 
ATOM     24  O   UNL A   1      34.286  20.185  24.513  1.00  0.00    -0.380 OA
ENDBRANCH  19  20
ENDBRANCH  17  19
ENDBRANCH  14  17
ENDBRANCH  13  14
ENDBRANCH   8  13
ENDBRANCH   4   7
ENDBRANCH   2   3
ENDBRANCH   1   2
BRANCH   1  25
ATOM     25  C   UNL A   1      35.748  31.923  27.854  1.00  0.00     0.002 C 
BRANCH  25  26
ATOM     26  C   UNL A   1      36.293  32.628  29.103  1.00  0.00     0.002 C 
BRANCH  26  27
ATOM     27  C   UNL A   1      35.417  32.496  30.352  1.00  0.00     0.021 C 
BRANCH  27  28
ATOM     28  C   UNL A   1      36.200  32.444  31.660  1.00  0.00     0.116 C 
BRANCH  28  29
ATOM     29  N   UNL A   1      36.246  31.094  32.196  1.00  0.00    -0.352 N 
ATOM     30  C   UNL A   1      37.206  30.126  32.032  1.00  0.00     0.251 C 
ATOM     31  H   UNL A   1      35.480  30.836  32.758  1.00  0.00     0.163 HD
ATOM     32  O   UNL A   1      36.951  28.960  32.317  1.00  0.00    -0.269 OA
BRANCH  30  33
ATOM     33  C   UNL A   1      38.535  30.496  31.501  1.00  0.00     0.039 A 
ATOM     34  C   UNL A   1      38.775  30.391  30.130  1.00  0.00     0.014 A 
ATOM     35  C   UNL A   1      39.548  30.933  32.362  1.00  0.00     0.014 A 
ATOM     36  C   UNL A   1      40.014  30.777  29.614  1.00  0.00     0.010 A 
ATOM     37  C   UNL A   1      40.754  31.387  31.838  1.00  0.00     0.010 A 
ATOM     38  C   UNL A   1      41.002  31.310  30.459  1.00  0.00    -0.014 A 
BRANCH  38  39
ATOM     39  C   UNL A   1      42.300  31.788  29.919  1.00  0.00     0.031 A 
ATOM     40  C   UNL A   1      42.519  33.257  29.674  1.00  0.00     0.074 A 
ATOM     41  C   UNL A   1      43.255  30.895  29.594  1.00  0.00     0.049 A 
ATOM     42  N   UNL A   1      43.549  33.862  29.140  1.00  0.00    -0.248 NA
ATOM     43  C   UNL A   1      41.423  34.160  30.057  1.00  0.00     0.031 C 
ATOM     44  C   UNL A   1      43.142  29.444  29.754  1.00  0.00     0.029 A 
ATOM     45  N   UNL A   1      44.505  31.071  29.055  1.00  0.00    -0.354 N 
ATOM     46  C   UNL A   1      43.222  35.214  29.112  1.00  0.00     0.074 A 
ATOM     47  C   UNL A   1      41.872  35.328  29.624  1.00  0.00     0.031 C 
ATOM     48  C   UNL A   1      44.284  28.867  29.349  1.00  0.00     0.029 A 
ATOM     49  C   UNL A   1      45.190  29.896  28.851  1.00  0.00     0.049 A 
ATOM     50  H   UNL A   1      44.876  31.957  28.836  1.00  0.00     0.167 HD
ATOM     51  C   UNL A   1      43.986  36.264  28.719  1.00  0.00     0.034 A 
ATOM     52  C   UNL A   1      46.403  29.672  28.308  1.00  0.00     0.034 A 
ATOM     53  C   UNL A   1      45.332  36.129  28.217  1.00  0.00     0.049 A 
ATOM     54  C   UNL A   1      47.219  30.852  27.840  1.00  0.00     0.074 A 
ATOM     55  C   UNL A   1      46.214  37.126  27.837  1.00  0.00     0.029 A 
ATOM     56  N   UNL A   1      45.990  34.922  28.012  1.00  0.00    -0.354 N 
ATOM     57  N   UNL A   1      46.914  32.129  27.866  1.00  0.00    -0.248 NA
ATOM     58  C   UNL A   1      48.543  30.559  27.279  1.00  0.00     0.031 C 
ATOM     59  C   UNL A   1      47.370  36.521  27.332  1.00  0.00     0.029 A 
ATOM     60  C   UNL A   1      47.249  35.149  27.478  1.00  0.00     0.049 A 
ATOM     61  H   UNL A   1      45.616  34.034  28.217  1.00  0.00     0.167 HD
ATOM     62  C   UNL A   1      48.025  32.794  27.354  1.00  0.00     0.074 A 
ATOM     63  C   UNL A   1      49.010  31.777  27.045  1.00  0.00     0.031 C 
ATOM     64  C   UNL A   1      48.217  34.124  27.161  1.00  0.00     0.034 A 
BRANCH  51  65
ATOM     65  C   UNL A   1      43.367  37.641  28.790  1.00  0.00     0.023 A 
ATOM     66  C   UNL A   1      43.564  38.484  29.898  1.00  0.00     0.031 A 
ATOM     67  C   UNL A   1      42.550  38.111  27.746  1.00  0.00     0.131 A 
ATOM     68  C   UNL A   1      42.891  39.713  29.974  1.00  0.00     0.055 A 
ATOM     69  C   UNL A   1      41.953  39.373  27.788  1.00  0.00     0.041 A 
ATOM     70  F   UNL A   1      42.306  37.345  26.672  1.00  0.00    -0.206 F 
ATOM     71  C   UNL A   1      42.109  40.175  28.914  1.00  0.00     0.022 A 
BRANCH  68  72
ATOM     72  S   UNL A   1      42.930  40.626  31.540  1.00  0.00     0.124 S 
ATOM     73  O   UNL A   1      43.126  39.546  32.505  1.00  0.00    -0.237 OA
ATOM     74  O   UNL A   1      44.059  41.528  31.352  1.00  0.00    -0.237 OA
ATOM     75  O   UNL A   1      41.618  41.269  31.595  1.00  0.00    -0.744 OA
ENDBRANCH  68  72
ENDBRANCH  51  65
BRANCH  52  76
ATOM     76  C   UNL A   1      46.922  28.281  28.163  1.00  0.00     0.023 A 
ATOM     77  C   UNL A   1      46.628  27.514  27.025  1.00  0.00     0.031 A 
ATOM     78  C   UNL A   1      47.685  27.681  29.182  1.00  0.00     0.131 A 
ATOM     79  C   UNL A   1      47.049  26.176  26.953  1.00  0.00     0.055 A 
ATOM     80  C   UNL A   1      48.152  26.370  29.080  1.00  0.00     0.041 A 
ATOM     81  F   UNL A   1      47.999  28.370  30.291  1.00  0.00    -0.206 F 
ATOM     82  C   UNL A   1      47.821  25.604  27.967  1.00  0.00     0.022 A 
BRANCH  79  83
ATOM     83  S   UNL A   1      46.490  25.164  25.556  1.00  0.00     0.124 S 
ATOM     84  O   UNL A   1      47.345  25.649  24.479  1.00  0.00    -0.237 OA
ATOM     85  O   UNL A   1      46.763  23.813  26.034  1.00  0.00    -0.237 OA
ATOM     86  O   UNL A   1      45.075  25.507  25.434  1.00  0.00    -0.744 OA
ENDBRANCH  79  83
ENDBRANCH  52  76
BRANCH  64  87
ATOM     87  C   UNL A   1      49.563  34.553  26.627  1.00  0.00     0.023 A 
ATOM     88  C   UNL A   1      50.712  34.569  27.437  1.00  0.00     0.031 A 
ATOM     89  C   UNL A   1      49.695  34.963  25.288  1.00  0.00     0.131 A 
ATOM     90  C   UNL A   1      51.927  35.044  26.919  1.00  0.00     0.055 A 
ATOM     91  C   UNL A   1      50.920  35.370  24.759  1.00  0.00     0.041 A 
ATOM     92  F   UNL A   1      48.631  34.972  24.468  1.00  0.00    -0.206 F 
ATOM     93  C   UNL A   1      52.042  35.425  25.580  1.00  0.00     0.022 A 
BRANCH  90  94
ATOM     94  S   UNL A   1      53.332  35.253  28.046  1.00  0.00     0.124 S 
ATOM     95  O   UNL A   1      53.947  33.930  28.013  1.00  0.00    -0.237 OA
ATOM     96  O   UNL A   1      54.089  36.324  27.406  1.00  0.00    -0.237 OA
ATOM     97  O   UNL A   1      52.703  35.612  29.316  1.00  0.00    -0.744 OA
ENDBRANCH  90  94
ENDBRANCH  64  87
ENDBRANCH  38  39
ENDBRANCH  30  33
ENDBRANCH  28  29
ENDBRANCH  27  28
ENDBRANCH  26  27
ENDBRANCH  25  26
ENDBRANCH   1  25
TORSDOF 21
ENDMDL
MODEL 2
REMARK VINA RESULT:      -9.6      3.307      8.321
REMARK SMILES CC1(CNS(=O)(=O)Cc2ccc(C(=O)NCCCCCCNC(=O)c3ccc(-c4c5nc(c(-c6cc(S(=O)(=O)[O-])ccc6F)c6ccc([nH]6)c(-c6cc(S(=O)(=O)[O-])ccc6F)c6nc(c(-c7cc(S(=O)(=O)[O-])ccc7F)c7ccc4[nH]7)C=C6)C=C5)cc3)cc2)COC1
REMARK SMILES IDX 17 1 16 2 15 3 13 4 14 5 12 7 9 8 10 9 89 10 11 11 88 12
REMARK SMILES IDX 8 13 5 14 6 15 7 16 4 17 3 19 2 20 1 21 90 22 92 23 91 24
REMARK SMILES IDX 18 25 19 26 20 27 21 28 22 29 23 30 24 32 25 33 26 34 87 35
REMARK SMILES IDX 27 36 86 37 28 38 29 39 30 40 80 41 31 42 85 43 79 44 81 45
REMARK SMILES IDX 32 46 84 47 78 48 77 49 33 51 65 52 45 53 64 54 46 55 49 56
REMARK SMILES IDX 63 57 82 58 47 59 48 60 62 62 83 63 50 64 34 65 35 66 43 67
REMARK SMILES IDX 36 68 42 69 44 70 41 71 37 72 38 73 39 74 40 75 66 76 67 77
REMARK SMILES IDX 75 78 68 79 74 80 76 81 73 82 69 83 70 84 71 85 72 86 51 87
REMARK SMILES IDX 52 88 60 89 53 90 59 91 61 92 58 93 54 94 55 95 56 96 57 97
REMARK H PARENT 15 6 4 18 22 31 81 50 49 61
REMARK Flexibility Score: inf
ROOT
ATOM      1  C   UNL A   1      39.447  24.046  27.612  1.00  0.00     0.021 C 
ENDROOT
BRANCH   1   2
ATOM      2  C   UNL A   1      38.503  23.741  26.443  1.00  0.00     0.116 C 
BRANCH   2   3
ATOM      3  N   UNL A   1      38.615  22.344  26.052  1.00  0.00    -0.352 N 
ATOM      4  C   UNL A   1      37.830  21.531  25.271  1.00  0.00     0.251 C 
ATOM      5  O   UNL A   1      38.201  20.373  25.083  1.00  0.00    -0.269 OA
ATOM      6  H   UNL A   1      39.411  21.893  26.420  1.00  0.00     0.163 HD
BRANCH   4   7
ATOM      7  C   UNL A   1      36.580  22.003  24.617  1.00  0.00     0.039 A 
ATOM      8  C   UNL A   1      34.237  23.024  23.354  1.00  0.00    -0.032 A 
ATOM      9  C   UNL A   1      35.515  23.279  22.829  1.00  0.00     0.005 A 
ATOM     10  C   UNL A   1      34.182  22.226  24.490  1.00  0.00     0.005 A 
ATOM     11  C   UNL A   1      36.672  22.793  23.464  1.00  0.00     0.014 A 
ATOM     12  C   UNL A   1      35.316  21.671  25.074  1.00  0.00     0.014 A 
BRANCH   8  13
ATOM     13  C   UNL A   1      33.010  23.451  22.584  1.00  0.00     0.189 C 
BRANCH  13  14
ATOM     14  S   UNL A   1      32.721  25.226  22.412  1.00  0.00     0.215 S 
ATOM     15  O   UNL A   1      31.301  25.428  22.256  1.00  0.00    -0.212 OA
ATOM     16  O   UNL A   1      33.646  25.761  21.428  1.00  0.00    -0.212 OA
BRANCH  14  17
ATOM     17  N   UNL A   1      33.140  25.965  23.867  1.00  0.00    -0.214 NA
ATOM     18  H   UNL A   1      33.486  25.231  24.484  1.00  0.00     0.141 HD
BRANCH  17  19
ATOM     19  C   UNL A   1      32.115  26.714  24.623  1.00  0.00     0.110 C 
BRANCH  19  20
ATOM     20  C   UNL A   1      32.709  27.904  25.398  1.00  0.00     0.028 C 
ATOM     21  C   UNL A   1      33.956  27.608  26.221  1.00  0.00     0.018 C 
ATOM     22  C   UNL A   1      31.634  28.650  26.211  1.00  0.00     0.170 C 
ATOM     23  C   UNL A   1      32.775  29.220  24.599  1.00  0.00     0.170 C 
ATOM     24  O   UNL A   1      31.512  29.653  25.171  1.00  0.00    -0.380 OA
ENDBRANCH  19  20
ENDBRANCH  17  19
ENDBRANCH  14  17
ENDBRANCH  13  14
ENDBRANCH   8  13
ENDBRANCH   4   7
ENDBRANCH   2   3
ENDBRANCH   1   2
BRANCH   1  25
ATOM     25  C   UNL A   1      40.408  25.203  27.315  1.00  0.00     0.002 C 
BRANCH  25  26
ATOM     26  C   UNL A   1      41.472  24.885  26.256  1.00  0.00     0.002 C 
BRANCH  26  27
ATOM     27  C   UNL A   1      42.124  23.506  26.392  1.00  0.00     0.021 C 
BRANCH  27  28
ATOM     28  C   UNL A   1      42.861  23.039  25.141  1.00  0.00     0.116 C 
BRANCH  28  29
ATOM     29  N   UNL A   1      44.130  22.415  25.477  1.00  0.00    -0.352 N 
ATOM     30  C   UNL A   1      45.283  22.991  25.950  1.00  0.00     0.251 C 
ATOM     31  H   UNL A   1      44.169  21.440  25.346  1.00  0.00     0.163 HD
ATOM     32  O   UNL A   1      46.338  22.365  25.909  1.00  0.00    -0.269 OA
BRANCH  30  33
ATOM     33  C   UNL A   1      45.245  24.364  26.495  1.00  0.00     0.039 A 
ATOM     34  C   UNL A   1      45.084  25.440  25.620  1.00  0.00     0.014 A 
ATOM     35  C   UNL A   1      45.383  24.588  27.869  1.00  0.00     0.014 A 
ATOM     36  C   UNL A   1      45.006  26.738  26.128  1.00  0.00     0.010 A 
ATOM     37  C   UNL A   1      45.231  25.874  28.380  1.00  0.00     0.010 A 
ATOM     38  C   UNL A   1      45.045  26.963  27.515  1.00  0.00    -0.014 A 
BRANCH  38  39
ATOM     39  C   UNL A   1      44.895  28.329  28.078  1.00  0.00     0.031 A 
ATOM     40  C   UNL A   1      43.554  28.795  28.579  1.00  0.00     0.074 A 
ATOM     41  C   UNL A   1      45.950  29.166  28.081  1.00  0.00     0.049 A 
ATOM     42  N   UNL A   1      43.204  29.971  29.033  1.00  0.00    -0.248 NA
ATOM     43  C   UNL A   1      42.458  27.816  28.537  1.00  0.00     0.031 C 
ATOM     44  C   UNL A   1      47.290  28.837  27.589  1.00  0.00     0.029 A 
ATOM     45  N   UNL A   1      46.065  30.467  28.504  1.00  0.00    -0.354 N 
ATOM     46  C   UNL A   1      41.846  29.877  29.321  1.00  0.00     0.074 A 
ATOM     47  C   UNL A   1      41.427  28.549  28.928  1.00  0.00     0.031 C 
ATOM     48  C   UNL A   1      48.095  29.896  27.763  1.00  0.00     0.029 A 
ATOM     49  C   UNL A   1      47.322  30.997  28.327  1.00  0.00     0.049 A 
ATOM     50  H   UNL A   1      45.316  30.973  28.896  1.00  0.00     0.167 HD
ATOM     51  C   UNL A   1      41.033  30.806  29.885  1.00  0.00     0.034 A 
ATOM     52  C   UNL A   1      47.794  32.235  28.577  1.00  0.00     0.034 A 
ATOM     53  C   UNL A   1      41.473  32.123  30.275  1.00  0.00     0.049 A 
ATOM     54  C   UNL A   1      46.860  33.264  29.165  1.00  0.00     0.074 A 
ATOM     55  C   UNL A   1      40.748  33.125  30.898  1.00  0.00     0.029 A 
ATOM     56  N   UNL A   1      42.751  32.630  30.071  1.00  0.00    -0.354 N 
ATOM     57  N   UNL A   1      45.590  33.143  29.478  1.00  0.00    -0.248 NA
ATOM     58  C   UNL A   1      47.426  34.589  29.442  1.00  0.00     0.031 C 
ATOM     59  C   UNL A   1      41.562  34.258  30.999  1.00  0.00     0.029 A 
ATOM     60  C   UNL A   1      42.822  33.940  30.522  1.00  0.00     0.049 A 
ATOM     61  H   UNL A   1      43.497  32.131  29.666  1.00  0.00     0.167 HD
ATOM     62  C   UNL A   1      45.215  34.370  30.018  1.00  0.00     0.074 A 
ATOM     63  C   UNL A   1      46.398  35.207  30.004  1.00  0.00     0.031 C 
ATOM     64  C   UNL A   1      44.006  34.768  30.488  1.00  0.00     0.034 A 
BRANCH  51  65
ATOM     65  C   UNL A   1      39.581  30.432  30.080  1.00  0.00     0.023 A 
ATOM     66  C   UNL A   1      38.567  30.947  29.253  1.00  0.00     0.031 A 
ATOM     67  C   UNL A   1      39.201  29.567  31.122  1.00  0.00     0.131 A 
ATOM     68  C   UNL A   1      37.222  30.658  29.529  1.00  0.00     0.055 A 
ATOM     69  C   UNL A   1      37.868  29.213  31.337  1.00  0.00     0.041 A 
ATOM     70  F   UNL A   1      40.119  29.060  31.959  1.00  0.00    -0.206 F 
ATOM     71  C   UNL A   1      36.867  29.773  30.548  1.00  0.00     0.022 A 
BRANCH  68  72
ATOM     72  S   UNL A   1      35.939  31.577  28.635  1.00  0.00     0.124 S 
ATOM     73  O   UNL A   1      35.023  31.931  29.717  1.00  0.00    -0.237 OA
ATOM     74  O   UNL A   1      36.691  32.678  28.047  1.00  0.00    -0.237 OA
ATOM     75  O   UNL A   1      35.417  30.598  27.683  1.00  0.00    -0.744 OA
ENDBRANCH  68  72
ENDBRANCH  51  65
BRANCH  52  76
ATOM     76  C   UNL A   1      49.211  32.582  28.265  1.00  0.00     0.023 A 
ATOM     77  C   UNL A   1      49.564  33.133  27.023  1.00  0.00     0.031 A 
ATOM     78  C   UNL A   1      50.241  32.325  29.189  1.00  0.00     0.131 A 
ATOM     79  C   UNL A   1      50.915  33.365  26.718  1.00  0.00     0.055 A 
ATOM     80  C   UNL A   1      51.576  32.612  28.903  1.00  0.00     0.041 A 
ATOM     81  F   UNL A   1      49.960  31.802  30.393  1.00  0.00    -0.206 F 
ATOM     82  C   UNL A   1      51.922  33.121  27.655  1.00  0.00     0.022 A 
BRANCH  79  83
ATOM     83  S   UNL A   1      51.346  33.900  25.039  1.00  0.00     0.124 S 
ATOM     84  O   UNL A   1      52.595  34.614  25.268  1.00  0.00    -0.237 OA
ATOM     85  O   UNL A   1      51.453  32.627  24.335  1.00  0.00    -0.237 OA
ATOM     86  O   UNL A   1      50.211  34.733  24.647  1.00  0.00    -0.744 OA
ENDBRANCH  79  83
ENDBRANCH  52  76
BRANCH  64  87
ATOM     87  C   UNL A   1      43.918  36.161  31.066  1.00  0.00     0.023 A 
ATOM     88  C   UNL A   1      43.810  37.299  30.248  1.00  0.00     0.031 A 
ATOM     89  C   UNL A   1      43.956  36.353  32.459  1.00  0.00     0.131 A 
ATOM     90  C   UNL A   1      43.804  38.578  30.825  1.00  0.00     0.055 A 
ATOM     91  C   UNL A   1      43.883  37.624  33.031  1.00  0.00     0.041 A 
ATOM     92  F   UNL A   1      44.064  35.303  33.290  1.00  0.00    -0.206 F 
ATOM     93  C   UNL A   1      43.820  38.746  32.212  1.00  0.00     0.022 A 
BRANCH  90  94
ATOM     94  S   UNL A   1      43.880  40.026  29.734  1.00  0.00     0.124 S 
ATOM     95  O   UNL A   1      44.547  41.009  30.582  1.00  0.00    -0.237 OA
ATOM     96  O   UNL A   1      44.658  39.526  28.605  1.00  0.00    -0.237 OA
ATOM     97  O   UNL A   1      42.476  40.310  29.442  1.00  0.00    -0.744 OA
ENDBRANCH  90  94
ENDBRANCH  64  87
ENDBRANCH  38  39
ENDBRANCH  30  33
ENDBRANCH  28  29
ENDBRANCH  27  28
ENDBRANCH  26  27
ENDBRANCH  25  26
ENDBRANCH   1  25
TORSDOF 21
ENDMDL
MODEL 3
REMARK VINA RESULT:      -9.4      6.685     11.732
REMARK SMILES CC1(CNS(=O)(=O)Cc2ccc(C(=O)NCCCCCCNC(=O)c3ccc(-c4c5nc(c(-c6cc(S(=O)(=O)[O-])ccc6F)c6ccc([nH]6)c(-c6cc(S(=O)(=O)[O-])ccc6F)c6nc(c(-c7cc(S(=O)(=O)[O-])ccc7F)c7ccc4[nH]7)C=C6)C=C5)cc3)cc2)COC1
REMARK SMILES IDX 17 1 16 2 15 3 13 4 14 5 12 7 9 8 10 9 89 10 11 11 88 12
REMARK SMILES IDX 8 13 5 14 6 15 7 16 4 17 3 19 2 20 1 21 90 22 92 23 91 24
REMARK SMILES IDX 18 25 19 26 20 27 21 28 22 29 23 30 24 32 25 33 26 34 87 35
REMARK SMILES IDX 27 36 86 37 28 38 29 39 30 40 80 41 31 42 85 43 79 44 81 45
REMARK SMILES IDX 32 46 84 47 78 48 77 49 33 51 65 52 45 53 64 54 46 55 49 56
REMARK SMILES IDX 63 57 82 58 47 59 48 60 62 62 83 63 50 64 34 65 35 66 43 67
REMARK SMILES IDX 36 68 42 69 44 70 41 71 37 72 38 73 39 74 40 75 66 76 67 77
REMARK SMILES IDX 75 78 68 79 74 80 76 81 73 82 69 83 70 84 71 85 72 86 51 87
REMARK SMILES IDX 52 88 60 89 53 90 59 91 61 92 58 93 54 94 55 95 56 96 57 97
REMARK H PARENT 15 6 4 18 22 31 81 50 49 61
REMARK Flexibility Score: inf
ROOT
ATOM      1  C   UNL A   1      39.078  29.945  27.765  1.00  0.00     0.021 C 
ENDROOT
BRANCH   1   2
ATOM      2  C   UNL A   1      40.069  28.775  27.774  1.00  0.00     0.116 C 
BRANCH   2   3
ATOM      3  N   UNL A   1      40.865  28.776  26.556  1.00  0.00    -0.352 N 
ATOM      4  C   UNL A   1      41.567  27.792  25.903  1.00  0.00     0.251 C 
ATOM      5  O   UNL A   1      42.131  28.082  24.848  1.00  0.00    -0.269 OA
ATOM      6  H   UNL A   1      40.908  29.655  26.111  1.00  0.00     0.163 HD
BRANCH   4   7
ATOM      7  C   UNL A   1      41.641  26.390  26.396  1.00  0.00     0.039 A 
ATOM      8  C   UNL A   1      41.790  23.665  27.219  1.00  0.00    -0.032 A 
ATOM      9  C   UNL A   1      42.686  24.187  26.271  1.00  0.00     0.005 A 
ATOM     10  C   UNL A   1      40.862  24.552  27.750  1.00  0.00     0.005 A 
ATOM     11  C   UNL A   1      42.598  25.526  25.850  1.00  0.00     0.014 A 
ATOM     12  C   UNL A   1      40.826  25.898  27.401  1.00  0.00     0.014 A 
BRANCH   8  13
ATOM     13  C   UNL A   1      41.985  22.262  27.745  1.00  0.00     0.189 C 
BRANCH  13  14
ATOM     14  S   UNL A   1      41.592  20.900  26.624  1.00  0.00     0.215 S 
ATOM     15  O   UNL A   1      40.416  21.273  25.875  1.00  0.00    -0.212 OA
ATOM     16  O   UNL A   1      41.618  19.654  27.368  1.00  0.00    -0.212 OA
BRANCH  14  17
ATOM     17  N   UNL A   1      42.841  20.776  25.499  1.00  0.00    -0.214 NA
ATOM     18  H   UNL A   1      42.688  19.913  24.979  1.00  0.00     0.141 HD
BRANCH  17  19
ATOM     19  C   UNL A   1      44.242  20.751  25.969  1.00  0.00     0.110 C 
BRANCH  19  20
ATOM     20  C   UNL A   1      45.250  20.688  24.806  1.00  0.00     0.028 C 
ATOM     21  C   UNL A   1      45.648  22.025  24.195  1.00  0.00     0.018 C 
ATOM     22  C   UNL A   1      44.826  19.660  23.740  1.00  0.00     0.170 C 
ATOM     23  C   UNL A   1      46.425  19.718  25.029  1.00  0.00     0.170 C 
ATOM     24  O   UNL A   1      45.726  18.673  24.302  1.00  0.00    -0.380 OA
ENDBRANCH  19  20
ENDBRANCH  17  19
ENDBRANCH  14  17
ENDBRANCH  13  14
ENDBRANCH   8  13
ENDBRANCH   4   7
ENDBRANCH   2   3
ENDBRANCH   1   2
BRANCH   1  25
ATOM     25  C   UNL A   1      37.764  29.617  28.482  1.00  0.00     0.002 C 
BRANCH  25  26
ATOM     26  C   UNL A   1      36.515  29.744  27.601  1.00  0.00     0.002 C 
BRANCH  26  27
ATOM     27  C   UNL A   1      35.816  31.105  27.667  1.00  0.00     0.021 C 
BRANCH  27  28
ATOM     28  C   UNL A   1      34.519  31.102  28.469  1.00  0.00     0.116 C 
BRANCH  28  29
ATOM     29  N   UNL A   1      33.991  32.447  28.627  1.00  0.00    -0.352 N 
ATOM     30  C   UNL A   1      34.220  33.358  29.628  1.00  0.00     0.251 C 
ATOM     31  H   UNL A   1      33.383  32.749  27.915  1.00  0.00     0.163 HD
ATOM     32  O   UNL A   1      33.478  34.328  29.751  1.00  0.00    -0.269 OA
BRANCH  30  33
ATOM     33  C   UNL A   1      35.352  33.156  30.558  1.00  0.00     0.039 A 
ATOM     34  C   UNL A   1      35.242  32.195  31.565  1.00  0.00     0.014 A 
ATOM     35  C   UNL A   1      36.513  33.926  30.441  1.00  0.00     0.014 A 
ATOM     36  C   UNL A   1      36.321  31.969  32.422  1.00  0.00     0.010 A 
ATOM     37  C   UNL A   1      37.613  33.647  31.247  1.00  0.00     0.010 A 
ATOM     38  C   UNL A   1      37.528  32.668  32.249  1.00  0.00    -0.014 A 
BRANCH  38  39
ATOM     39  C   UNL A   1      38.708  32.392  33.107  1.00  0.00     0.031 A 
ATOM     40  C   UNL A   1      39.829  31.530  32.592  1.00  0.00     0.074 A 
ATOM     41  C   UNL A   1      38.739  32.867  34.367  1.00  0.00     0.049 A 
ATOM     42  N   UNL A   1      40.904  31.113  33.212  1.00  0.00    -0.248 NA
ATOM     43  C   UNL A   1      39.711  31.054  31.206  1.00  0.00     0.031 C 
ATOM     44  C   UNL A   1      37.694  33.684  34.987  1.00  0.00     0.029 A 
ATOM     45  N   UNL A   1      39.679  32.727  35.358  1.00  0.00    -0.354 N 
ATOM     46  C   UNL A   1      41.584  30.317  32.296  1.00  0.00     0.074 A 
ATOM     47  C   UNL A   1      40.766  30.260  31.103  1.00  0.00     0.031 C 
ATOM     48  C   UNL A   1      38.063  33.994  36.240  1.00  0.00     0.029 A 
ATOM     49  C   UNL A   1      39.342  33.357  36.534  1.00  0.00     0.049 A 
ATOM     50  H   UNL A   1      40.516  32.222  35.237  1.00  0.00     0.167 HD
ATOM     51  C   UNL A   1      42.790  29.711  32.431  1.00  0.00     0.034 A 
ATOM     52  C   UNL A   1      39.983  33.402  37.718  1.00  0.00     0.034 A 
ATOM     53  C   UNL A   1      43.593  29.786  33.627  1.00  0.00     0.049 A 
ATOM     54  C   UNL A   1      41.304  32.686  37.858  1.00  0.00     0.074 A 
ATOM     55  C   UNL A   1      44.850  29.253  33.856  1.00  0.00     0.029 A 
ATOM     56  N   UNL A   1      43.215  30.423  34.803  1.00  0.00    -0.354 N 
ATOM     57  N   UNL A   1      41.958  31.979  36.965  1.00  0.00    -0.248 NA
ATOM     58  C   UNL A   1      41.975  32.785  39.159  1.00  0.00     0.031 C 
ATOM     59  C   UNL A   1      45.197  29.501  35.188  1.00  0.00     0.029 A 
ATOM     60  C   UNL A   1      44.198  30.264  35.769  1.00  0.00     0.049 A 
ATOM     61  H   UNL A   1      42.372  30.915  34.931  1.00  0.00     0.167 HD
ATOM     62  C   UNL A   1      43.134  31.574  37.590  1.00  0.00     0.074 A 
ATOM     63  C   UNL A   1      43.105  32.133  38.928  1.00  0.00     0.031 C 
ATOM     64  C   UNL A   1      44.149  30.815  37.104  1.00  0.00     0.034 A 
BRANCH  51  65
ATOM     65  C   UNL A   1      43.293  28.893  31.263  1.00  0.00     0.023 A 
ATOM     66  C   UNL A   1      43.869  29.496  30.131  1.00  0.00     0.031 A 
ATOM     67  C   UNL A   1      43.175  27.492  31.271  1.00  0.00     0.131 A 
ATOM     68  C   UNL A   1      44.230  28.712  29.025  1.00  0.00     0.055 A 
ATOM     69  C   UNL A   1      43.618  26.709  30.202  1.00  0.00     0.041 A 
ATOM     70  F   UNL A   1      42.614  26.858  32.312  1.00  0.00    -0.206 F 
ATOM     71  C   UNL A   1      44.134  27.320  29.064  1.00  0.00     0.022 A 
BRANCH  68  72
ATOM     72  S   UNL A   1      44.682  29.549  27.481  1.00  0.00     0.124 S 
ATOM     73  O   UNL A   1      43.478  30.332  27.207  1.00  0.00    -0.237 OA
ATOM     74  O   UNL A   1      45.864  30.309  27.868  1.00  0.00    -0.237 OA
ATOM     75  O   UNL A   1      44.924  28.447  26.551  1.00  0.00    -0.744 OA
ENDBRANCH  68  72
ENDBRANCH  51  65
BRANCH  52  76
ATOM     76  C   UNL A   1      39.388  34.136  38.873  1.00  0.00     0.023 A 
ATOM     77  C   UNL A   1      39.570  35.519  39.022  1.00  0.00     0.031 A 
ATOM     78  C   UNL A   1      38.665  33.454  39.870  1.00  0.00     0.131 A 
ATOM     79  C   UNL A   1      39.079  36.171  40.166  1.00  0.00     0.055 A 
ATOM     80  C   UNL A   1      38.129  34.117  40.975  1.00  0.00     0.041 A 
ATOM     81  F   UNL A   1      38.458  32.131  39.776  1.00  0.00    -0.206 F 
ATOM     82  C   UNL A   1      38.348  35.481  41.135  1.00  0.00     0.022 A 
BRANCH  79  83
ATOM     83  S   UNL A   1      39.496  37.919  40.414  1.00  0.00     0.124 S 
ATOM     84  O   UNL A   1      39.361  38.052  41.859  1.00  0.00    -0.237 OA
ATOM     85  O   UNL A   1      40.854  37.983  39.886  1.00  0.00    -0.237 OA
ATOM     86  O   UNL A   1      38.488  38.623  39.624  1.00  0.00    -0.744 OA
ENDBRANCH  79  83
ENDBRANCH  52  76
BRANCH  64  87
ATOM     87  C   UNL A   1      45.331  30.584  38.015  1.00  0.00     0.023 A 
ATOM     88  C   UNL A   1      45.402  29.470  38.871  1.00  0.00     0.031 A 
ATOM     89  C   UNL A   1      46.398  31.500  38.036  1.00  0.00     0.131 A 
ATOM     90  C   UNL A   1      46.485  29.333  39.752  1.00  0.00     0.055 A 
ATOM     91  C   UNL A   1      47.505  31.323  38.866  1.00  0.00     0.041 A 
ATOM     92  F   UNL A   1      46.383  32.585  37.244  1.00  0.00    -0.206 F 
ATOM     93  C   UNL A   1      47.546  30.243  39.741  1.00  0.00     0.022 A 
BRANCH  90  94
ATOM     94  S   UNL A   1      46.441  28.006  40.988  1.00  0.00     0.124 S 
ATOM     95  O   UNL A   1      46.807  26.839  40.192  1.00  0.00    -0.237 OA
ATOM     96  O   UNL A   1      47.433  28.451  41.961  1.00  0.00    -0.237 OA
ATOM     97  O   UNL A   1      45.058  28.024  41.461  1.00  0.00    -0.744 OA
ENDBRANCH  90  94
ENDBRANCH  64  87
ENDBRANCH  38  39
ENDBRANCH  30  33
ENDBRANCH  28  29
ENDBRANCH  27  28
ENDBRANCH  26  27
ENDBRANCH  25  26
ENDBRANCH   1  25
TORSDOF 21
ENDMDL
