MODEL 1
REMARK VINA RESULT:     -10.9      0.000      0.000
REMARK SMILES O=C(/C=C/c1ccc(O)c(O)c1)NCCCCCCNC(=O)c1ccc(-c2c3nc(c(-c4cc(S(=O)(=O)[O-])ccc4F)c4ccc([nH]4)c(-c4cc(S(=O)(=O)[O-])ccc4F)c4nc(c(-c5cc(S(=O)(=O)[O-])ccc5F)c5ccc2[nH]5)C=C4)C=C3)cc1
REMARK SMILES IDX 17 1 16 2 15 3 14 4 13 5 1 6 2 7 3 9 4 10 5 11 6 12 12 13
REMARK SMILES IDX 7 14 10 15 8 16 11 17 9 19 18 21 19 22 20 23 21 24 22 26
REMARK SMILES IDX 23 27 24 28 85 29 25 30 84 31 26 32 27 33 28 34 78 35 29 36
REMARK SMILES IDX 83 37 77 38 79 39 30 40 82 41 76 42 75 43 31 45 63 46 43 47
REMARK SMILES IDX 62 48 44 49 47 50 61 51 80 52 45 53 46 54 60 56 81 57 48 58
REMARK SMILES IDX 32 59 33 60 41 61 34 62 40 63 42 64 39 65 35 66 36 67 37 68
REMARK SMILES IDX 38 69 64 70 65 71 73 72 66 73 72 74 74 75 71 76 67 77 68 78
REMARK SMILES IDX 69 79 70 80 49 81 50 82 58 83 51 84 57 85 59 86 56 87 52 88
REMARK SMILES IDX 53 89 54 90 55 91
REMARK H PARENT 13 8 11 18 9 20 20 25 79 44 47 55
REMARK Flexibility Score: inf
ROOT
ATOM      1  C   UNL A   1      31.839  27.584  27.240  1.00  0.00     0.002 C 
ENDROOT
BRANCH   1   2
ATOM      2  C   UNL A   1      30.826  26.731  26.469  1.00  0.00     0.002 C 
BRANCH   2   3
ATOM      3  C   UNL A   1      31.325  25.347  26.034  1.00  0.00     0.021 C 
BRANCH   3   4
ATOM      4  C   UNL A   1      31.020  24.986  24.580  1.00  0.00     0.116 C 
BRANCH   4   5
ATOM      5  N   UNL A   1      30.385  26.086  23.881  1.00  0.00    -0.353 N 
ATOM      6  O   UNL A   1      32.257  26.807  22.763  1.00  0.00    -0.270 OA
ATOM      7  C   UNL A   1      31.077  26.939  23.067  1.00  0.00     0.243 C 
ATOM      8  H   UNL A   1      29.417  26.224  23.997  1.00  0.00     0.163 HD
BRANCH   7   9
ATOM      9  C   UNL A   1      30.311  28.082  22.502  1.00  0.00     0.072 C 
ATOM     10  C   UNL A   1      30.010  29.225  23.137  1.00  0.00     0.014 C 
BRANCH  10  11
ATOM     11  C   UNL A   1      29.319  30.350  22.489  1.00  0.00    -0.022 A 
ATOM     12  C   UNL A   1      28.618  30.206  21.279  1.00  0.00     0.012 A 
ATOM     13  C   UNL A   1      29.328  31.600  23.124  1.00  0.00     0.058 A 
ATOM     14  C   UNL A   1      27.961  31.295  20.694  1.00  0.00     0.051 A 
ATOM     15  C   UNL A   1      28.674  32.675  22.538  1.00  0.00     0.157 A 
ATOM     16  C   UNL A   1      27.997  32.529  21.331  1.00  0.00     0.157 A 
BRANCH  15  17
ATOM     17  O   UNL A   1      28.700  33.890  23.161  1.00  0.00    -0.504 OA
ATOM     18  H   UNL A   1      28.398  34.654  22.710  1.00  0.00     0.293 HD
ENDBRANCH  15  17
BRANCH  16  19
ATOM     19  O   UNL A   1      27.378  33.630  20.809  1.00  0.00    -0.504 OA
ATOM     20  H   UNL A   1      26.485  33.577  20.529  1.00  0.00     0.293 HD
ENDBRANCH  16  19
ENDBRANCH  10  11
ENDBRANCH   7   9
ENDBRANCH   4   5
ENDBRANCH   3   4
ENDBRANCH   2   3
ENDBRANCH   1   2
BRANCH   1  21
ATOM     21  C   UNL A   1      31.617  29.095  27.156  1.00  0.00     0.021 C 
BRANCH  21  22
ATOM     22  C   UNL A   1      32.721  29.869  26.440  1.00  0.00     0.116 C 
BRANCH  22  23
ATOM     23  N   UNL A   1      32.590  31.307  26.611  1.00  0.00    -0.352 N 
ATOM     24  C   UNL A   1      33.364  32.171  27.345  1.00  0.00     0.251 C 
ATOM     25  H   UNL A   1      31.837  31.720  26.130  1.00  0.00     0.163 HD
ATOM     26  O   UNL A   1      32.980  33.327  27.520  1.00  0.00    -0.269 OA
BRANCH  24  27
ATOM     27  C   UNL A   1      34.636  31.710  27.946  1.00  0.00     0.039 A 
ATOM     28  C   UNL A   1      35.715  32.596  28.010  1.00  0.00     0.014 A 
ATOM     29  C   UNL A   1      34.773  30.409  28.438  1.00  0.00     0.014 A 
ATOM     30  C   UNL A   1      36.908  32.196  28.618  1.00  0.00     0.010 A 
ATOM     31  C   UNL A   1      35.934  30.039  29.115  1.00  0.00     0.010 A 
ATOM     32  C   UNL A   1      37.018  30.926  29.208  1.00  0.00    -0.014 A 
BRANCH  32  33
ATOM     33  C   UNL A   1      38.263  30.508  29.909  1.00  0.00     0.031 A 
ATOM     34  C   UNL A   1      39.202  29.525  29.259  1.00  0.00     0.074 A 
ATOM     35  C   UNL A   1      38.530  30.981  31.143  1.00  0.00     0.049 A 
ATOM     36  N   UNL A   1      40.302  28.995  29.730  1.00  0.00    -0.248 NA
ATOM     37  C   UNL A   1      38.841  29.057  27.913  1.00  0.00     0.031 C 
ATOM     38  C   UNL A   1      37.681  31.910  31.892  1.00  0.00     0.029 A 
ATOM     39  N   UNL A   1      39.585  30.743  31.988  1.00  0.00    -0.354 N 
ATOM     40  C   UNL A   1      40.764  28.134  28.741  1.00  0.00     0.074 A 
ATOM     41  C   UNL A   1      39.781  28.155  27.678  1.00  0.00     0.031 C 
ATOM     42  C   UNL A   1      38.263  32.184  33.071  1.00  0.00     0.029 A 
ATOM     43  C   UNL A   1      39.497  31.414  33.188  1.00  0.00     0.049 A 
ATOM     44  H   UNL A   1      40.335  30.148  31.759  1.00  0.00     0.167 HD
ATOM     45  C   UNL A   1      41.914  27.416  28.704  1.00  0.00     0.034 A 
ATOM     46  C   UNL A   1      40.309  31.401  34.264  1.00  0.00     0.034 A 
ATOM     47  C   UNL A   1      42.885  27.402  29.772  1.00  0.00     0.049 A 
ATOM     48  C   UNL A   1      41.560  30.555  34.221  1.00  0.00     0.074 A 
ATOM     49  C   UNL A   1      44.092  26.726  29.831  1.00  0.00     0.029 A 
ATOM     50  N   UNL A   1      42.759  28.089  30.973  1.00  0.00    -0.354 N 
ATOM     51  N   UNL A   1      42.000  29.776  33.258  1.00  0.00    -0.248 NA
ATOM     52  C   UNL A   1      42.431  30.599  35.402  1.00  0.00     0.031 C 
ATOM     53  C   UNL A   1      44.660  26.948  31.091  1.00  0.00     0.029 A 
ATOM     54  C   UNL A   1      43.853  27.835  31.786  1.00  0.00     0.049 A 
ATOM     55  H   UNL A   1      42.003  28.673  31.212  1.00  0.00     0.167 HD
ATOM     56  C   UNL A   1      43.220  29.274  33.706  1.00  0.00     0.074 A 
ATOM     57  C   UNL A   1      43.451  29.851  35.013  1.00  0.00     0.031 C 
ATOM     58  C   UNL A   1      44.074  28.415  33.090  1.00  0.00     0.034 A 
BRANCH  45  59
ATOM     59  C   UNL A   1      42.171  26.577  27.474  1.00  0.00     0.023 A 
ATOM     60  C   UNL A   1      41.777  25.228  27.409  1.00  0.00     0.031 A 
ATOM     61  C   UNL A   1      42.836  27.119  26.359  1.00  0.00     0.131 A 
ATOM     62  C   UNL A   1      42.120  24.448  26.295  1.00  0.00     0.055 A 
ATOM     63  C   UNL A   1      43.096  26.361  25.216  1.00  0.00     0.041 A 
ATOM     64  F   UNL A   1      43.257  28.393  26.367  1.00  0.00    -0.206 F 
ATOM     65  C   UNL A   1      42.752  25.012  25.184  1.00  0.00     0.022 A 
BRANCH  62  66
ATOM     66  S   UNL A   1      41.865  22.655  26.382  1.00  0.00     0.124 S 
ATOM     67  O   UNL A   1      42.511  22.328  27.652  1.00  0.00    -0.237 OA
ATOM     68  O   UNL A   1      40.412  22.541  26.357  1.00  0.00    -0.237 OA
ATOM     69  O   UNL A   1      42.552  22.152  25.195  1.00  0.00    -0.744 OA
ENDBRANCH  62  66
ENDBRANCH  45  59
BRANCH  46  70
ATOM     70  C   UNL A   1      39.973  32.194  35.484  1.00  0.00     0.023 A 
ATOM     71  C   UNL A   1      39.095  31.691  36.458  1.00  0.00     0.031 A 
ATOM     72  C   UNL A   1      40.469  33.498  35.659  1.00  0.00     0.131 A 
ATOM     73  C   UNL A   1      38.688  32.509  37.524  1.00  0.00     0.055 A 
ATOM     74  C   UNL A   1      40.115  34.283  36.758  1.00  0.00     0.041 A 
ATOM     75  F   UNL A   1      41.313  34.031  34.761  1.00  0.00    -0.206 F 
ATOM     76  C   UNL A   1      39.204  33.795  37.689  1.00  0.00     0.022 A 
BRANCH  73  77
ATOM     77  S   UNL A   1      37.377  31.908  38.625  1.00  0.00     0.124 S 
ATOM     78  O   UNL A   1      37.988  32.090  39.937  1.00  0.00    -0.237 OA
ATOM     79  O   UNL A   1      36.274  32.806  38.301  1.00  0.00    -0.237 OA
ATOM     80  O   UNL A   1      37.193  30.520  38.209  1.00  0.00    -0.744 OA
ENDBRANCH  73  77
ENDBRANCH  46  70
BRANCH  58  81
ATOM     81  C   UNL A   1      45.368  28.102  33.805  1.00  0.00     0.023 A 
ATOM     82  C   UNL A   1      45.503  26.989  34.653  1.00  0.00     0.031 A 
ATOM     83  C   UNL A   1      46.481  28.951  33.650  1.00  0.00     0.131 A 
ATOM     84  C   UNL A   1      46.694  26.794  35.367  1.00  0.00     0.055 A 
ATOM     85  C   UNL A   1      47.688  28.710  34.307  1.00  0.00     0.041 A 
ATOM     86  F   UNL A   1      46.411  30.031  32.856  1.00  0.00    -0.206 F 
ATOM     87  C   UNL A   1      47.795  27.635  35.185  1.00  0.00     0.022 A 
BRANCH  84  88
ATOM     88  S   UNL A   1      46.750  25.491  36.628  1.00  0.00     0.124 S 
ATOM     89  O   UNL A   1      47.290  26.205  37.780  1.00  0.00    -0.237 OA
ATOM     90  O   UNL A   1      45.349  25.091  36.726  1.00  0.00    -0.237 OA
ATOM     91  O   UNL A   1      47.640  24.488  36.047  1.00  0.00    -0.744 OA
ENDBRANCH  84  88
ENDBRANCH  58  81
ENDBRANCH  32  33
ENDBRANCH  24  27
ENDBRANCH  22  23
ENDBRANCH  21  22
ENDBRANCH   1  21
TORSDOF 19
ENDMDL
MODEL 2
REMARK VINA RESULT:     -10.9      5.323      8.757
REMARK SMILES O=C(/C=C/c1ccc(O)c(O)c1)NCCCCCCNC(=O)c1ccc(-c2c3nc(c(-c4cc(S(=O)(=O)[O-])ccc4F)c4ccc([nH]4)c(-c4cc(S(=O)(=O)[O-])ccc4F)c4nc(c(-c5cc(S(=O)(=O)[O-])ccc5F)c5ccc2[nH]5)C=C4)C=C3)cc1
REMARK SMILES IDX 17 1 16 2 15 3 14 4 13 5 1 6 2 7 3 9 4 10 5 11 6 12 12 13
REMARK SMILES IDX 7 14 10 15 8 16 11 17 9 19 18 21 19 22 20 23 21 24 22 26
REMARK SMILES IDX 23 27 24 28 85 29 25 30 84 31 26 32 27 33 28 34 78 35 29 36
REMARK SMILES IDX 83 37 77 38 79 39 30 40 82 41 76 42 75 43 31 45 63 46 43 47
REMARK SMILES IDX 62 48 44 49 47 50 61 51 80 52 45 53 46 54 60 56 81 57 48 58
REMARK SMILES IDX 32 59 33 60 41 61 34 62 40 63 42 64 39 65 35 66 36 67 37 68
REMARK SMILES IDX 38 69 64 70 65 71 73 72 66 73 72 74 74 75 71 76 67 77 68 78
REMARK SMILES IDX 69 79 70 80 49 81 50 82 58 83 51 84 57 85 59 86 56 87 52 88
REMARK SMILES IDX 53 89 54 90 55 91
REMARK H PARENT 13 8 11 18 9 20 20 25 79 44 47 55
REMARK Flexibility Score: inf
ROOT
ATOM      1  C   UNL A   1      34.520  25.053  25.968  1.00  0.00     0.002 C 
ENDROOT
BRANCH   1   2
ATOM      2  C   UNL A   1      33.418  25.409  24.965  1.00  0.00     0.002 C 
BRANCH   2   3
ATOM      3  C   UNL A   1      32.185  26.102  25.559  1.00  0.00     0.021 C 
BRANCH   3   4
ATOM      4  C   UNL A   1      30.896  25.283  25.488  1.00  0.00     0.116 C 
BRANCH   4   5
ATOM      5  N   UNL A   1      31.162  23.902  25.135  1.00  0.00    -0.353 N 
ATOM      6  O   UNL A   1      31.239  23.089  27.282  1.00  0.00    -0.270 OA
ATOM      7  C   UNL A   1      31.364  22.928  26.073  1.00  0.00     0.243 C 
ATOM      8  H   UNL A   1      31.199  23.657  24.182  1.00  0.00     0.163 HD
BRANCH   7   9
ATOM      9  C   UNL A   1      31.730  21.581  25.559  1.00  0.00     0.072 C 
ATOM     10  C   UNL A   1      32.451  21.322  24.457  1.00  0.00     0.014 C 
BRANCH  10  11
ATOM     11  C   UNL A   1      32.847  19.965  24.052  1.00  0.00    -0.022 A 
ATOM     12  C   UNL A   1      32.177  19.256  23.040  1.00  0.00     0.012 A 
ATOM     13  C   UNL A   1      33.959  19.378  24.671  1.00  0.00     0.058 A 
ATOM     14  C   UNL A   1      32.587  17.969  22.671  1.00  0.00     0.051 A 
ATOM     15  C   UNL A   1      34.360  18.102  24.299  1.00  0.00     0.157 A 
ATOM     16  C   UNL A   1      33.680  17.398  23.309  1.00  0.00     0.157 A 
BRANCH  15  17
ATOM     17  O   UNL A   1      35.438  17.535  24.919  1.00  0.00    -0.504 OA
ATOM     18  H   UNL A   1      35.559  16.607  24.891  1.00  0.00     0.293 HD
ENDBRANCH  15  17
BRANCH  16  19
ATOM     19  O   UNL A   1      34.128  16.146  22.996  1.00  0.00    -0.504 OA
ATOM     20  H   UNL A   1      34.929  16.040  22.520  1.00  0.00     0.293 HD
ENDBRANCH  16  19
ENDBRANCH  10  11
ENDBRANCH   7   9
ENDBRANCH   4   5
ENDBRANCH   3   4
ENDBRANCH   2   3
ENDBRANCH   1   2
BRANCH   1  21
ATOM     21  C   UNL A   1      35.233  23.724  25.708  1.00  0.00     0.021 C 
BRANCH  21  22
ATOM     22  C   UNL A   1      36.638  23.852  25.124  1.00  0.00     0.116 C 
BRANCH  22  23
ATOM     23  N   UNL A   1      37.489  22.726  25.476  1.00  0.00    -0.352 N 
ATOM     24  C   UNL A   1      38.709  22.719  26.106  1.00  0.00     0.251 C 
ATOM     25  H   UNL A   1      37.138  21.840  25.226  1.00  0.00     0.163 HD
ATOM     26  O   UNL A   1      39.363  21.678  26.144  1.00  0.00    -0.269 OA
BRANCH  24  27
ATOM     27  C   UNL A   1      39.246  23.960  26.708  1.00  0.00     0.039 A 
ATOM     28  C   UNL A   1      40.001  24.827  25.912  1.00  0.00     0.014 A 
ATOM     29  C   UNL A   1      39.018  24.269  28.052  1.00  0.00     0.014 A 
ATOM     30  C   UNL A   1      40.475  26.027  26.449  1.00  0.00     0.010 A 
ATOM     31  C   UNL A   1      39.422  25.502  28.561  1.00  0.00     0.010 A 
ATOM     32  C   UNL A   1      40.161  26.393  27.768  1.00  0.00    -0.014 A 
BRANCH  32  33
ATOM     33  C   UNL A   1      40.611  27.695  28.334  1.00  0.00     0.031 A 
ATOM     34  C   UNL A   1      42.080  27.964  28.533  1.00  0.00     0.074 A 
ATOM     35  C   UNL A   1      39.700  28.618  28.703  1.00  0.00     0.049 A 
ATOM     36  N   UNL A   1      42.666  29.007  29.063  1.00  0.00    -0.248 NA
ATOM     37  C   UNL A   1      43.009  26.908  28.104  1.00  0.00     0.031 C 
ATOM     38  C   UNL A   1      38.248  28.461  28.592  1.00  0.00     0.029 A 
ATOM     39  N   UNL A   1      39.856  29.867  29.250  1.00  0.00    -0.354 N 
ATOM     40  C   UNL A   1      44.030  28.735  29.031  1.00  0.00     0.074 A 
ATOM     41  C   UNL A   1      44.174  27.395  28.502  1.00  0.00     0.031 C 
ATOM     42  C   UNL A   1      37.650  29.581  29.030  1.00  0.00     0.029 A 
ATOM     43  C   UNL A   1      38.667  30.515  29.501  1.00  0.00     0.049 A 
ATOM     44  H   UNL A   1      40.736  30.263  29.446  1.00  0.00     0.167 HD
ATOM     45  C   UNL A   1      45.068  29.536  29.379  1.00  0.00     0.034 A 
ATOM     46  C   UNL A   1      38.424  31.718  30.059  1.00  0.00     0.034 A 
ATOM     47  C   UNL A   1      44.909  30.870  29.908  1.00  0.00     0.049 A 
ATOM     48  C   UNL A   1      39.594  32.573  30.485  1.00  0.00     0.074 A 
ATOM     49  C   UNL A   1      45.891  31.774  30.275  1.00  0.00     0.029 A 
ATOM     50  N   UNL A   1      43.690  31.490  30.153  1.00  0.00    -0.354 N 
ATOM     51  N   UNL A   1      40.880  32.313  30.410  1.00  0.00    -0.248 NA
ATOM     52  C   UNL A   1      39.279  33.889  31.056  1.00  0.00     0.031 C 
ATOM     53  C   UNL A   1      45.268  32.909  30.805  1.00  0.00     0.029 A 
ATOM     54  C   UNL A   1      43.896  32.753  30.687  1.00  0.00     0.049 A 
ATOM     55  H   UNL A   1      42.808  31.091  29.973  1.00  0.00     0.167 HD
ATOM     56  C   UNL A   1      41.524  33.453  30.886  1.00  0.00     0.074 A 
ATOM     57  C   UNL A   1      40.487  34.404  31.227  1.00  0.00     0.031 C 
ATOM     58  C   UNL A   1      42.853  33.694  31.025  1.00  0.00     0.034 A 
BRANCH  45  59
ATOM     59  C   UNL A   1      46.462  28.979  29.211  1.00  0.00     0.023 A 
ATOM     60  C   UNL A   1      47.159  29.097  27.995  1.00  0.00     0.031 A 
ATOM     61  C   UNL A   1      47.098  28.301  30.267  1.00  0.00     0.131 A 
ATOM     62  C   UNL A   1      48.409  28.481  27.838  1.00  0.00     0.055 A 
ATOM     63  C   UNL A   1      48.381  27.767  30.133  1.00  0.00     0.041 A 
ATOM     64  F   UNL A   1      46.477  28.136  31.445  1.00  0.00    -0.206 F 
ATOM     65  C   UNL A   1      49.039  27.840  28.908  1.00  0.00     0.022 A 
BRANCH  62  66
ATOM     66  S   UNL A   1      49.131  28.397  26.177  1.00  0.00     0.124 S 
ATOM     67  O   UNL A   1      47.935  28.414  25.337  1.00  0.00    -0.237 OA
ATOM     68  O   UNL A   1      49.960  29.595  26.132  1.00  0.00    -0.237 OA
ATOM     69  O   UNL A   1      49.861  27.131  26.183  1.00  0.00    -0.744 OA
ENDBRANCH  62  66
ENDBRANCH  45  59
BRANCH  46  70
ATOM     70  C   UNL A   1      37.023  32.193  30.268  1.00  0.00     0.023 A 
ATOM     71  C   UNL A   1      36.304  32.813  29.232  1.00  0.00     0.031 A 
ATOM     72  C   UNL A   1      36.406  32.097  31.528  1.00  0.00     0.131 A 
ATOM     73  C   UNL A   1      35.044  33.373  29.492  1.00  0.00     0.055 A 
ATOM     74  C   UNL A   1      35.123  32.594  31.763  1.00  0.00     0.041 A 
ATOM     75  F   UNL A   1      37.044  31.513  32.555  1.00  0.00    -0.206 F 
ATOM     76  C   UNL A   1      34.441  33.254  30.746  1.00  0.00     0.022 A 
BRANCH  73  77
ATOM     77  S   UNL A   1      34.254  34.368  28.197  1.00  0.00     0.124 S 
ATOM     78  O   UNL A   1      35.273  34.359  27.154  1.00  0.00    -0.237 OA
ATOM     79  O   UNL A   1      33.045  33.600  27.920  1.00  0.00    -0.237 OA
ATOM     80  O   UNL A   1      34.036  35.659  28.846  1.00  0.00    -0.744 OA
ENDBRANCH  73  77
ENDBRANCH  46  70
BRANCH  58  81
ATOM     81  C   UNL A   1      43.257  35.067  31.511  1.00  0.00     0.023 A 
ATOM     82  C   UNL A   1      43.494  36.133  30.625  1.00  0.00     0.031 A 
ATOM     83  C   UNL A   1      43.431  35.304  32.888  1.00  0.00     0.131 A 
ATOM     84  C   UNL A   1      43.957  37.362  31.118  1.00  0.00     0.055 A 
ATOM     85  C   UNL A   1      43.822  36.550  33.378  1.00  0.00     0.041 A 
ATOM     86  F   UNL A   1      43.223  34.323  33.781  1.00  0.00    -0.206 F 
ATOM     87  C   UNL A   1      44.104  37.584  32.490  1.00  0.00     0.022 A 
BRANCH  84  88
ATOM     88  S   UNL A   1      44.479  38.634  29.934  1.00  0.00     0.124 S 
ATOM     89  O   UNL A   1      44.399  39.849  30.738  1.00  0.00    -0.237 OA
ATOM     90  O   UNL A   1      45.825  38.194  29.577  1.00  0.00    -0.237 OA
ATOM     91  O   UNL A   1      43.490  38.532  28.862  1.00  0.00    -0.744 OA
ENDBRANCH  84  88
ENDBRANCH  58  81
ENDBRANCH  32  33
ENDBRANCH  24  27
ENDBRANCH  22  23
ENDBRANCH  21  22
ENDBRANCH   1  21
TORSDOF 19
ENDMDL
MODEL 3
REMARK VINA RESULT:     -10.8      4.979      7.271
REMARK SMILES O=C(/C=C/c1ccc(O)c(O)c1)NCCCCCCNC(=O)c1ccc(-c2c3nc(c(-c4cc(S(=O)(=O)[O-])ccc4F)c4ccc([nH]4)c(-c4cc(S(=O)(=O)[O-])ccc4F)c4nc(c(-c5cc(S(=O)(=O)[O-])ccc5F)c5ccc2[nH]5)C=C4)C=C3)cc1
REMARK SMILES IDX 17 1 16 2 15 3 14 4 13 5 1 6 2 7 3 9 4 10 5 11 6 12 12 13
REMARK SMILES IDX 7 14 10 15 8 16 11 17 9 19 18 21 19 22 20 23 21 24 22 26
REMARK SMILES IDX 23 27 24 28 85 29 25 30 84 31 26 32 27 33 28 34 78 35 29 36
REMARK SMILES IDX 83 37 77 38 79 39 30 40 82 41 76 42 75 43 31 45 63 46 43 47
REMARK SMILES IDX 62 48 44 49 47 50 61 51 80 52 45 53 46 54 60 56 81 57 48 58
REMARK SMILES IDX 32 59 33 60 41 61 34 62 40 63 42 64 39 65 35 66 36 67 37 68
REMARK SMILES IDX 38 69 64 70 65 71 73 72 66 73 72 74 74 75 71 76 67 77 68 78
REMARK SMILES IDX 69 79 70 80 49 81 50 82 58 83 51 84 57 85 59 86 56 87 52 88
REMARK SMILES IDX 53 89 54 90 55 91
REMARK H PARENT 13 8 11 18 9 20 20 25 79 44 47 55
REMARK Flexibility Score: inf
ROOT
ATOM      1  C   UNL A   1      34.566  23.046  25.720  1.00  0.00     0.002 C 
ENDROOT
BRANCH   1   2
ATOM      2  C   UNL A   1      34.798  24.039  24.577  1.00  0.00     0.002 C 
BRANCH   2   3
ATOM      3  C   UNL A   1      33.914  25.293  24.603  1.00  0.00     0.021 C 
BRANCH   3   4
ATOM      4  C   UNL A   1      32.718  25.250  23.651  1.00  0.00     0.116 C 
BRANCH   4   5
ATOM      5  N   UNL A   1      32.178  26.575  23.415  1.00  0.00    -0.353 N 
ATOM      6  O   UNL A   1      30.715  26.585  25.185  1.00  0.00    -0.270 OA
ATOM      7  C   UNL A   1      31.178  27.110  24.179  1.00  0.00     0.243 C 
ATOM      8  H   UNL A   1      32.548  27.111  22.676  1.00  0.00     0.163 HD
BRANCH   7   9
ATOM      9  C   UNL A   1      30.657  28.435  23.752  1.00  0.00     0.072 C 
ATOM     10  C   UNL A   1      29.644  28.650  22.898  1.00  0.00     0.014 C 
BRANCH  10  11
ATOM     11  C   UNL A   1      29.124  29.990  22.583  1.00  0.00    -0.022 A 
ATOM     12  C   UNL A   1      29.205  31.061  23.491  1.00  0.00     0.012 A 
ATOM     13  C   UNL A   1      28.567  30.214  21.317  1.00  0.00     0.058 A 
ATOM     14  C   UNL A   1      28.711  32.326  23.155  1.00  0.00     0.051 A 
ATOM     15  C   UNL A   1      28.079  31.472  20.991  1.00  0.00     0.157 A 
ATOM     16  C   UNL A   1      28.146  32.522  21.902  1.00  0.00     0.157 A 
BRANCH  15  17
ATOM     17  O   UNL A   1      27.527  31.674  19.759  1.00  0.00    -0.504 OA
ATOM     18  H   UNL A   1      26.970  32.412  19.611  1.00  0.00     0.293 HD
ENDBRANCH  15  17
BRANCH  16  19
ATOM     19  O   UNL A   1      27.644  33.734  21.516  1.00  0.00    -0.504 OA
ATOM     20  H   UNL A   1      27.572  34.431  22.139  1.00  0.00     0.293 HD
ENDBRANCH  16  19
ENDBRANCH  10  11
ENDBRANCH   7   9
ENDBRANCH   4   5
ENDBRANCH   3   4
ENDBRANCH   2   3
ENDBRANCH   1   2
BRANCH   1  21
ATOM     21  C   UNL A   1      35.598  21.921  25.826  1.00  0.00     0.021 C 
BRANCH  21  22
ATOM     22  C   UNL A   1      36.988  22.273  25.305  1.00  0.00     0.116 C 
BRANCH  22  23
ATOM     23  N   UNL A   1      37.982  21.272  25.659  1.00  0.00    -0.352 N 
ATOM     24  C   UNL A   1      39.239  21.440  26.185  1.00  0.00     0.251 C 
ATOM     25  H   UNL A   1      37.715  20.339  25.497  1.00  0.00     0.163 HD
ATOM     26  O   UNL A   1      40.006  20.479  26.238  1.00  0.00    -0.269 OA
BRANCH  24  27
ATOM     27  C   UNL A   1      39.679  22.772  26.659  1.00  0.00     0.039 A 
ATOM     28  C   UNL A   1      40.660  22.846  27.653  1.00  0.00     0.014 A 
ATOM     29  C   UNL A   1      39.126  23.945  26.137  1.00  0.00     0.014 A 
ATOM     30  C   UNL A   1      41.124  24.094  28.078  1.00  0.00     0.010 A 
ATOM     31  C   UNL A   1      39.647  25.184  26.504  1.00  0.00     0.010 A 
ATOM     32  C   UNL A   1      40.648  25.274  27.483  1.00  0.00    -0.014 A 
BRANCH  32  33
ATOM     33  C   UNL A   1      41.175  26.607  27.887  1.00  0.00     0.031 A 
ATOM     34  C   UNL A   1      42.617  26.959  27.627  1.00  0.00     0.074 A 
ATOM     35  C   UNL A   1      40.370  27.484  28.521  1.00  0.00     0.049 A 
ATOM     36  N   UNL A   1      43.278  28.040  27.954  1.00  0.00    -0.248 NA
ATOM     37  C   UNL A   1      43.428  25.950  26.930  1.00  0.00     0.031 C 
ATOM     38  C   UNL A   1      38.966  27.246  28.861  1.00  0.00     0.029 A 
ATOM     39  N   UNL A   1      40.616  28.748  28.997  1.00  0.00    -0.354 N 
ATOM     40  C   UNL A   1      44.578  27.843  27.504  1.00  0.00     0.074 A 
ATOM     41  C   UNL A   1      44.629  26.506  26.952  1.00  0.00     0.031 C 
ATOM     42  C   UNL A   1      38.469  28.338  29.464  1.00  0.00     0.029 A 
ATOM     43  C   UNL A   1      39.527  29.333  29.603  1.00  0.00     0.049 A 
ATOM     44  H   UNL A   1      41.489  29.194  28.914  1.00  0.00     0.167 HD
ATOM     45  C   UNL A   1      45.626  28.705  27.518  1.00  0.00     0.034 A 
ATOM     46  C   UNL A   1      39.398  30.530  30.212  1.00  0.00     0.034 A 
ATOM     47  C   UNL A   1      45.561  30.036  28.075  1.00  0.00     0.049 A 
ATOM     48  C   UNL A   1      40.592  31.453  30.261  1.00  0.00     0.074 A 
ATOM     49  C   UNL A   1      46.556  30.998  28.125  1.00  0.00     0.029 A 
ATOM     50  N   UNL A   1      44.443  30.592  28.684  1.00  0.00    -0.354 N 
ATOM     51  N   UNL A   1      41.806  31.263  29.794  1.00  0.00    -0.248 NA
ATOM     52  C   UNL A   1      40.394  32.758  30.905  1.00  0.00     0.031 C 
ATOM     53  C   UNL A   1      46.062  32.105  28.824  1.00  0.00     0.029 A 
ATOM     54  C   UNL A   1      44.731  31.872  29.133  1.00  0.00     0.049 A 
ATOM     55  H   UNL A   1      43.573  30.142  28.783  1.00  0.00     0.167 HD
ATOM     56  C   UNL A   1      42.499  32.444  30.052  1.00  0.00     0.074 A 
ATOM     57  C   UNL A   1      41.565  33.341  30.698  1.00  0.00     0.031 C 
ATOM     58  C   UNL A   1      43.791  32.759  29.777  1.00  0.00     0.034 A 
BRANCH  45  59
ATOM     59  C   UNL A   1      46.931  28.223  26.929  1.00  0.00     0.023 A 
ATOM     60  C   UNL A   1      47.151  28.214  25.539  1.00  0.00     0.031 A 
ATOM     61  C   UNL A   1      47.961  27.744  27.758  1.00  0.00     0.131 A 
ATOM     62  C   UNL A   1      48.331  27.666  25.018  1.00  0.00     0.055 A 
ATOM     63  C   UNL A   1      49.171  27.281  27.237  1.00  0.00     0.041 A 
ATOM     64  F   UNL A   1      47.805  27.705  29.090  1.00  0.00    -0.206 F 
ATOM     65  C   UNL A   1      49.357  27.225  25.858  1.00  0.00     0.022 A 
BRANCH  62  66
ATOM     66  S   UNL A   1      48.444  27.397  23.228  1.00  0.00     0.124 S 
ATOM     67  O   UNL A   1      47.293  28.156  22.745  1.00  0.00    -0.237 OA
ATOM     68  O   UNL A   1      49.754  27.950  22.908  1.00  0.00    -0.237 OA
ATOM     69  O   UNL A   1      48.327  25.947  23.091  1.00  0.00    -0.744 OA
ENDBRANCH  62  66
ENDBRANCH  45  59
BRANCH  46  70
ATOM     70  C   UNL A   1      38.104  30.930  30.843  1.00  0.00     0.023 A 
ATOM     71  C   UNL A   1      37.132  31.639  30.118  1.00  0.00     0.031 A 
ATOM     72  C   UNL A   1      37.850  30.670  32.201  1.00  0.00     0.131 A 
ATOM     73  C   UNL A   1      35.987  32.123  30.770  1.00  0.00     0.055 A 
ATOM     74  C   UNL A   1      36.677  31.094  32.828  1.00  0.00     0.041 A 
ATOM     75  F   UNL A   1      38.743  29.995  32.943  1.00  0.00    -0.206 F 
ATOM     76  C   UNL A   1      35.745  31.842  32.116  1.00  0.00     0.022 A 
BRANCH  73  77
ATOM     77  S   UNL A   1      34.876  33.231  29.860  1.00  0.00     0.124 S 
ATOM     78  O   UNL A   1      34.053  33.772  30.936  1.00  0.00    -0.237 OA
ATOM     79  O   UNL A   1      35.815  34.160  29.241  1.00  0.00    -0.237 OA
ATOM     80  O   UNL A   1      34.185  32.335  28.935  1.00  0.00    -0.744 OA
ENDBRANCH  73  77
ENDBRANCH  46  70
BRANCH  58  81
ATOM     81  C   UNL A   1      44.246  34.159  30.120  1.00  0.00     0.023 A 
ATOM     82  C   UNL A   1      44.162  35.218  29.198  1.00  0.00     0.031 A 
ATOM     83  C   UNL A   1      44.796  34.430  31.387  1.00  0.00     0.131 A 
ATOM     84  C   UNL A   1      44.684  36.477  29.531  1.00  0.00     0.055 A 
ATOM     85  C   UNL A   1      45.246  35.704  31.737  1.00  0.00     0.041 A 
ATOM     86  F   UNL A   1      44.904  33.459  32.307  1.00  0.00    -0.206 F 
ATOM     87  C   UNL A   1      45.207  36.732  30.801  1.00  0.00     0.022 A 
BRANCH  84  88
ATOM     88  S   UNL A   1      44.777  37.749  28.240  1.00  0.00     0.124 S 
ATOM     89  O   UNL A   1      46.190  37.711  27.877  1.00  0.00    -0.237 OA
ATOM     90  O   UNL A   1      43.847  37.243  27.236  1.00  0.00    -0.237 OA
ATOM     91  O   UNL A   1      44.345  38.966  28.926  1.00  0.00    -0.744 OA
ENDBRANCH  84  88
ENDBRANCH  58  81
ENDBRANCH  32  33
ENDBRANCH  24  27
ENDBRANCH  22  23
ENDBRANCH  21  22
ENDBRANCH   1  21
TORSDOF 19
ENDMDL
