MODEL 1
REMARK VINA RESULT:     -11.3      0.000      0.000
REMARK SMILES C=CC[N@@H+]1C[C@@H](C(=O)NCCCCCCNC(=O)c2ccc(-c3c4nc(c(-c5cc(S(=O)(=O)[O-])ccc5F)c5ccc([nH]5)c(-c5cc(S(=O)(=O)[O-])ccc5F)c5nc(c(-c6cc(S(=O)(=O)[O-])ccc6F)c6ccc3[nH]6)C=C5)C=C4)cc2)C2(CC[NH+](C)CC2)C1
REMARK SMILES IDX 13 1 12 2 11 3 10 4 9 5 7 6 8 7 6 9 4 10 5 11 89 12 82 14
REMARK SMILES IDX 83 15 88 16 84 17 87 18 85 19 86 20 3 22 2 23 1 24 14 25
REMARK SMILES IDX 15 26 16 27 17 28 18 30 19 31 20 32 81 33 21 34 80 35 22 36
REMARK SMILES IDX 23 37 24 38 74 39 25 40 79 41 73 42 75 43 26 44 78 45 72 46
REMARK SMILES IDX 71 47 27 49 59 50 39 51 58 52 40 53 43 54 57 55 76 56 41 57
REMARK SMILES IDX 42 58 56 60 77 61 44 62 28 63 29 64 37 65 30 66 36 67 38 68
REMARK SMILES IDX 35 69 31 70 32 71 33 72 34 73 60 74 61 75 69 76 62 77 68 78
REMARK SMILES IDX 70 79 67 80 63 81 64 82 65 83 66 84 45 85 46 86 54 87 47 88
REMARK SMILES IDX 53 89 55 90 52 91 48 92 49 93 50 94 51 95
REMARK H PARENT 9 8 4 13 85 21 16 29 75 48 43 59
REMARK Flexibility Score: inf
ROOT
ATOM      1  C   UNL A   1      31.640  27.906  26.577  1.00  0.00     0.002 C 
ENDROOT
BRANCH   1   2
ATOM      2  C   UNL A   1      31.210  27.818  25.113  1.00  0.00     0.002 C 
BRANCH   2   3
ATOM      3  C   UNL A   1      30.696  26.451  24.671  1.00  0.00     0.021 C 
BRANCH   3   4
ATOM      4  C   UNL A   1      31.719  25.318  24.740  1.00  0.00     0.116 C 
BRANCH   4   5
ATOM      5  N   UNL A   1      31.170  24.084  25.264  1.00  0.00    -0.356 N 
ATOM      6  C   UNL A   1      31.514  22.782  25.109  1.00  0.00     0.229 C 
ATOM      7  O   UNL A   1      30.862  21.974  25.786  1.00  0.00    -0.275 OA
ATOM      8  H   UNL A   1      30.389  24.217  25.850  1.00  0.00     0.163 HD
BRANCH   6   9
ATOM      9  C   UNL A   1      32.617  22.233  24.185  1.00  0.00     0.145 C 
ATOM     10  N   UNL A   1      32.621  19.905  23.950  1.00  0.00    -0.331 N 
ATOM     11  C   UNL A   1      32.143  21.101  23.283  1.00  0.00     0.276 C 
ATOM     12  C   UNL A   1      33.878  20.189  24.639  1.00  0.00     0.270 C 
ATOM     13  H   UNL A   1      31.943  19.664  24.673  1.00  0.00     0.348 HD
ATOM     14  C   UNL A   1      33.968  21.734  24.768  1.00  0.00     0.047 C 
ATOM     15  C   UNL A   1      34.261  22.202  26.203  1.00  0.00     0.075 C 
ATOM     16  C   UNL A   1      35.162  22.207  23.881  1.00  0.00     0.075 C 
ATOM     17  C   UNL A   1      34.595  23.694  26.294  1.00  0.00     0.262 C 
ATOM     18  C   UNL A   1      35.529  23.684  24.071  1.00  0.00     0.262 C 
ATOM     19  N   UNL A   1      35.740  24.079  25.465  1.00  0.00    -0.337 N 
ATOM     20  C   UNL A   1      37.002  23.586  26.013  1.00  0.00     0.332 C 
ATOM     21  H   UNL A   1      35.813  25.096  25.480  1.00  0.00     0.347 HD
BRANCH  10  22
ATOM     22  C   UNL A   1      32.560  18.678  23.176  1.00  0.00     0.290 C 
BRANCH  22  23
ATOM     23  C   UNL A   1      33.079  17.536  24.000  1.00  0.00     0.025 C 
ATOM     24  C   UNL A   1      33.908  16.587  23.542  1.00  0.00     0.010 C 
ENDBRANCH  22  23
ENDBRANCH  10  22
ENDBRANCH   6   9
ENDBRANCH   4   5
ENDBRANCH   3   4
ENDBRANCH   2   3
ENDBRANCH   1   2
BRANCH   1  25
ATOM     25  C   UNL A   1      33.150  27.840  26.824  1.00  0.00     0.021 C 
BRANCH  25  26
ATOM     26  C   UNL A   1      33.990  28.797  25.982  1.00  0.00     0.116 C 
BRANCH  26  27
ATOM     27  N   UNL A   1      33.834  30.175  26.405  1.00  0.00    -0.352 N 
ATOM     28  C   UNL A   1      34.540  30.875  27.348  1.00  0.00     0.251 C 
ATOM     29  H   UNL A   1      33.120  30.679  25.950  1.00  0.00     0.163 HD
ATOM     30  O   UNL A   1      34.125  31.971  27.727  1.00  0.00    -0.269 OA
BRANCH  28  31
ATOM     31  C   UNL A   1      35.781  30.311  27.917  1.00  0.00     0.039 A 
ATOM     32  C   UNL A   1      35.728  29.693  29.169  1.00  0.00     0.014 A 
ATOM     33  C   UNL A   1      36.998  30.415  27.237  1.00  0.00     0.014 A 
ATOM     34  C   UNL A   1      36.888  29.150  29.724  1.00  0.00     0.010 A 
ATOM     35  C   UNL A   1      38.141  29.812  27.759  1.00  0.00     0.010 A 
ATOM     36  C   UNL A   1      38.101  29.190  29.017  1.00  0.00    -0.014 A 
BRANCH  36  37
ATOM     37  C   UNL A   1      39.345  28.625  29.603  1.00  0.00     0.031 A 
ATOM     38  C   UNL A   1      39.943  29.246  30.836  1.00  0.00     0.074 A 
ATOM     39  C   UNL A   1      39.952  27.581  29.005  1.00  0.00     0.049 A 
ATOM     40  N   UNL A   1      41.043  28.936  31.472  1.00  0.00    -0.248 NA
ATOM     41  C   UNL A   1      39.221  30.392  31.410  1.00  0.00     0.031 C 
ATOM     42  C   UNL A   1      39.490  26.925  27.781  1.00  0.00     0.029 A 
ATOM     43  N   UNL A   1      41.091  26.895  29.342  1.00  0.00    -0.354 N 
ATOM     44  C   UNL A   1      41.149  29.849  32.516  1.00  0.00     0.074 A 
ATOM     45  C   UNL A   1      40.040  30.769  32.378  1.00  0.00     0.031 C 
ATOM     46  C   UNL A   1      40.327  25.918  27.480  1.00  0.00     0.029 A 
ATOM     47  C   UNL A   1      41.404  25.881  28.466  1.00  0.00     0.049 A 
ATOM     48  H   UNL A   1      41.633  27.107  30.135  1.00  0.00     0.167 HD
ATOM     49  C   UNL A   1      42.066  29.898  33.514  1.00  0.00     0.034 A 
ATOM     50  C   UNL A   1      42.443  25.024  28.455  1.00  0.00     0.034 A 
ATOM     51  C   UNL A   1      43.162  28.968  33.638  1.00  0.00     0.049 A 
ATOM     52  C   UNL A   1      43.457  25.098  29.569  1.00  0.00     0.074 A 
ATOM     53  C   UNL A   1      44.133  28.901  34.622  1.00  0.00     0.029 A 
ATOM     54  N   UNL A   1      43.437  27.939  32.743  1.00  0.00    -0.354 N 
ATOM     55  N   UNL A   1      43.520  25.941  30.574  1.00  0.00    -0.248 NA
ATOM     56  C   UNL A   1      44.527  24.093  29.557  1.00  0.00     0.031 C 
ATOM     57  C   UNL A   1      45.027  27.875  34.291  1.00  0.00     0.029 A 
ATOM     58  C   UNL A   1      44.571  27.249  33.140  1.00  0.00     0.049 A 
ATOM     59  H   UNL A   1      42.902  27.732  31.942  1.00  0.00     0.167 HD
ATOM     60  C   UNL A   1      44.621  25.548  31.330  1.00  0.00     0.074 A 
ATOM     61  C   UNL A   1      45.178  24.383  30.673  1.00  0.00     0.031 C 
ATOM     62  C   UNL A   1      45.124  26.096  32.467  1.00  0.00     0.034 A 
BRANCH  49  63
ATOM     63  C   UNL A   1      41.924  31.011  34.528  1.00  0.00     0.023 A 
ATOM     64  C   UNL A   1      40.846  31.050  35.432  1.00  0.00     0.031 A 
ATOM     65  C   UNL A   1      42.845  32.072  34.564  1.00  0.00     0.131 A 
ATOM     66  C   UNL A   1      40.665  32.166  36.262  1.00  0.00     0.055 A 
ATOM     67  C   UNL A   1      42.709  33.137  35.458  1.00  0.00     0.041 A 
ATOM     68  F   UNL A   1      43.884  32.105  33.714  1.00  0.00    -0.206 F 
ATOM     69  C   UNL A   1      41.603  33.198  36.301  1.00  0.00     0.022 A 
BRANCH  66  70
ATOM     70  S   UNL A   1      39.099  32.326  37.165  1.00  0.00     0.124 S 
ATOM     71  O   UNL A   1      38.491  31.019  36.931  1.00  0.00    -0.237 OA
ATOM     72  O   UNL A   1      39.547  32.589  38.529  1.00  0.00    -0.237 OA
ATOM     73  O   UNL A   1      38.433  33.444  36.500  1.00  0.00    -0.744 OA
ENDBRANCH  66  70
ENDBRANCH  49  63
BRANCH  50  74
ATOM     74  C   UNL A   1      42.583  24.027  27.356  1.00  0.00     0.023 A 
ATOM     75  C   UNL A   1      41.968  22.768  27.431  1.00  0.00     0.031 A 
ATOM     76  C   UNL A   1      43.360  24.314  26.220  1.00  0.00     0.131 A 
ATOM     77  C   UNL A   1      42.174  21.826  26.411  1.00  0.00     0.055 A 
ATOM     78  C   UNL A   1      43.522  23.393  25.184  1.00  0.00     0.041 A 
ATOM     79  F   UNL A   1      43.963  25.507  26.092  1.00  0.00    -0.206 F 
ATOM     80  C   UNL A   1      42.937  22.134  25.283  1.00  0.00     0.022 A 
BRANCH  77  81
ATOM     81  S   UNL A   1      41.492  20.158  26.617  1.00  0.00     0.124 S 
ATOM     82  O   UNL A   1      42.209  19.685  27.794  1.00  0.00    -0.237 OA
ATOM     83  O   UNL A   1      40.070  20.433  26.798  1.00  0.00    -0.237 OA
ATOM     84  O   UNL A   1      41.839  19.491  25.363  1.00  0.00    -0.744 OA
ENDBRANCH  77  81
ENDBRANCH  50  74
BRANCH  62  85
ATOM     85  C   UNL A   1      46.313  25.407  33.090  1.00  0.00     0.023 A 
ATOM     86  C   UNL A   1      46.163  24.373  34.030  1.00  0.00     0.031 A 
ATOM     87  C   UNL A   1      47.619  25.806  32.749  1.00  0.00     0.131 A 
ATOM     88  C   UNL A   1      47.295  23.815  34.643  1.00  0.00     0.055 A 
ATOM     89  C   UNL A   1      48.743  25.204  33.317  1.00  0.00     0.041 A 
ATOM     90  F   UNL A   1      47.822  26.790  31.858  1.00  0.00    -0.206 F 
ATOM     91  C   UNL A   1      48.584  24.214  34.281  1.00  0.00     0.022 A 
BRANCH  88  92
ATOM     92  S   UNL A   1      47.057  22.633  35.999  1.00  0.00     0.124 S 
ATOM     93  O   UNL A   1      47.743  23.295  37.104  1.00  0.00    -0.237 OA
ATOM     94  O   UNL A   1      45.603  22.563  36.101  1.00  0.00    -0.237 OA
ATOM     95  O   UNL A   1      47.702  21.416  35.509  1.00  0.00    -0.744 OA
ENDBRANCH  88  92
ENDBRANCH  62  85
ENDBRANCH  36  37
ENDBRANCH  28  31
ENDBRANCH  26  27
ENDBRANCH  25  26
ENDBRANCH   1  25
TORSDOF 18
ENDMDL
MODEL 2
REMARK VINA RESULT:     -11.2      4.870     10.102
REMARK SMILES C=CC[N@@H+]1C[C@@H](C(=O)NCCCCCCNC(=O)c2ccc(-c3c4nc(c(-c5cc(S(=O)(=O)[O-])ccc5F)c5ccc([nH]5)c(-c5cc(S(=O)(=O)[O-])ccc5F)c5nc(c(-c6cc(S(=O)(=O)[O-])ccc6F)c6ccc3[nH]6)C=C5)C=C4)cc2)C2(CC[NH+](C)CC2)C1
REMARK SMILES IDX 13 1 12 2 11 3 10 4 9 5 7 6 8 7 6 9 4 10 5 11 89 12 82 14
REMARK SMILES IDX 83 15 88 16 84 17 87 18 85 19 86 20 3 22 2 23 1 24 14 25
REMARK SMILES IDX 15 26 16 27 17 28 18 30 19 31 20 32 81 33 21 34 80 35 22 36
REMARK SMILES IDX 23 37 24 38 74 39 25 40 79 41 73 42 75 43 26 44 78 45 72 46
REMARK SMILES IDX 71 47 27 49 59 50 39 51 58 52 40 53 43 54 57 55 76 56 41 57
REMARK SMILES IDX 42 58 56 60 77 61 44 62 28 63 29 64 37 65 30 66 36 67 38 68
REMARK SMILES IDX 35 69 31 70 32 71 33 72 34 73 60 74 61 75 69 76 62 77 68 78
REMARK SMILES IDX 70 79 67 80 63 81 64 82 65 83 66 84 45 85 46 86 54 87 47 88
REMARK SMILES IDX 53 89 55 90 52 91 48 92 49 93 50 94 51 95
REMARK H PARENT 9 8 4 13 85 21 16 29 75 48 43 59
REMARK Flexibility Score: inf
ROOT
ATOM      1  C   UNL A   1      35.384  22.570  23.880  1.00  0.00     0.002 C 
ENDROOT
BRANCH   1   2
ATOM      2  C   UNL A   1      34.305  23.593  23.526  1.00  0.00     0.002 C 
BRANCH   2   3
ATOM      3  C   UNL A   1      33.157  23.696  24.525  1.00  0.00     0.021 C 
BRANCH   3   4
ATOM      4  C   UNL A   1      31.758  23.704  23.908  1.00  0.00     0.116 C 
BRANCH   4   5
ATOM      5  N   UNL A   1      31.637  24.607  22.781  1.00  0.00    -0.356 N 
ATOM      6  C   UNL A   1      31.192  25.882  22.665  1.00  0.00     0.229 C 
ATOM      7  O   UNL A   1      31.310  26.387  21.539  1.00  0.00    -0.275 OA
ATOM      8  H   UNL A   1      31.936  24.216  21.928  1.00  0.00     0.163 HD
BRANCH   6   9
ATOM      9  C   UNL A   1      30.566  26.736  23.784  1.00  0.00     0.145 C 
ATOM     10  N   UNL A   1      29.275  28.535  23.027  1.00  0.00    -0.331 N 
ATOM     11  C   UNL A   1      29.135  27.167  23.487  1.00  0.00     0.276 C 
ATOM     12  C   UNL A   1      30.402  29.173  23.702  1.00  0.00     0.270 C 
ATOM     13  H   UNL A   1      29.511  28.504  22.035  1.00  0.00     0.348 HD
ATOM     14  C   UNL A   1      31.269  28.026  24.288  1.00  0.00     0.047 C 
ATOM     15  C   UNL A   1      32.755  28.140  23.906  1.00  0.00     0.075 C 
ATOM     16  C   UNL A   1      31.189  28.128  25.843  1.00  0.00     0.075 C 
ATOM     17  C   UNL A   1      33.651  27.164  24.675  1.00  0.00     0.262 C 
ATOM     18  C   UNL A   1      32.170  27.205  26.577  1.00  0.00     0.262 C 
ATOM     19  N   UNL A   1      33.559  27.321  26.129  1.00  0.00    -0.337 N 
ATOM     20  C   UNL A   1      34.206  28.548  26.588  1.00  0.00     0.332 C 
ATOM     21  H   UNL A   1      34.078  26.558  26.563  1.00  0.00     0.347 HD
BRANCH  10  22
ATOM     22  C   UNL A   1      28.045  29.302  22.935  1.00  0.00     0.290 C 
BRANCH  22  23
ATOM     23  C   UNL A   1      28.338  30.754  23.179  1.00  0.00     0.025 C 
ATOM     24  C   UNL A   1      27.481  31.614  23.748  1.00  0.00     0.010 C 
ENDBRANCH  22  23
ENDBRANCH  10  22
ENDBRANCH   6   9
ENDBRANCH   4   5
ENDBRANCH   3   4
ENDBRANCH   2   3
ENDBRANCH   1   2
BRANCH   1  25
ATOM     25  C   UNL A   1      36.687  23.154  24.437  1.00  0.00     0.021 C 
BRANCH  25  26
ATOM     26  C   UNL A   1      36.979  22.818  25.896  1.00  0.00     0.116 C 
BRANCH  26  27
ATOM     27  N   UNL A   1      38.080  21.884  26.030  1.00  0.00    -0.352 N 
ATOM     28  C   UNL A   1      39.393  22.133  26.331  1.00  0.00     0.251 C 
ATOM     29  H   UNL A   1      37.851  20.937  25.885  1.00  0.00     0.163 HD
ATOM     30  O   UNL A   1      40.229  21.239  26.188  1.00  0.00    -0.269 OA
BRANCH  28  31
ATOM     31  C   UNL A   1      39.806  23.470  26.806  1.00  0.00     0.039 A 
ATOM     32  C   UNL A   1      39.778  24.542  25.911  1.00  0.00     0.014 A 
ATOM     33  C   UNL A   1      40.247  23.663  28.120  1.00  0.00     0.014 A 
ATOM     34  C   UNL A   1      40.160  25.813  26.341  1.00  0.00     0.010 A 
ATOM     35  C   UNL A   1      40.562  24.944  28.566  1.00  0.00     0.010 A 
ATOM     36  C   UNL A   1      40.540  26.030  27.676  1.00  0.00    -0.014 A 
BRANCH  36  37
ATOM     37  C   UNL A   1      40.959  27.377  28.141  1.00  0.00     0.031 A 
ATOM     38  C   UNL A   1      42.419  27.739  28.172  1.00  0.00     0.074 A 
ATOM     39  C   UNL A   1      40.032  28.256  28.569  1.00  0.00     0.049 A 
ATOM     40  N   UNL A   1      42.994  28.839  28.586  1.00  0.00    -0.248 NA
ATOM     41  C   UNL A   1      43.360  26.712  27.701  1.00  0.00     0.031 C 
ATOM     42  C   UNL A   1      38.592  28.002  28.628  1.00  0.00     0.029 A 
ATOM     43  N   UNL A   1      40.163  29.537  29.042  1.00  0.00    -0.354 N 
ATOM     44  C   UNL A   1      44.361  28.635  28.433  1.00  0.00     0.074 A 
ATOM     45  C   UNL A   1      44.529  27.277  27.960  1.00  0.00     0.031 C 
ATOM     46  C   UNL A   1      37.971  29.098  29.092  1.00  0.00     0.029 A 
ATOM     47  C   UNL A   1      38.969  30.119  29.398  1.00  0.00     0.049 A 
ATOM     48  H   UNL A   1      41.030  29.997  29.120  1.00  0.00     0.167 HD
ATOM     49  C   UNL A   1      45.380  29.506  28.639  1.00  0.00     0.034 A 
ATOM     50  C   UNL A   1      38.708  31.334  29.918  1.00  0.00     0.034 A 
ATOM     51  C   UNL A   1      45.192  30.858  29.107  1.00  0.00     0.049 A 
ATOM     52  C   UNL A   1      39.854  32.287  30.147  1.00  0.00     0.074 A 
ATOM     53  C   UNL A   1      46.145  31.839  29.323  1.00  0.00     0.029 A 
ATOM     54  N   UNL A   1      43.965  31.422  29.438  1.00  0.00    -0.354 N 
ATOM     55  N   UNL A   1      41.139  32.094  29.957  1.00  0.00    -0.248 NA
ATOM     56  C   UNL A   1      39.512  33.626  30.640  1.00  0.00     0.031 C 
ATOM     57  C   UNL A   1      45.503  32.971  29.840  1.00  0.00     0.029 A 
ATOM     58  C   UNL A   1      44.138  32.726  29.875  1.00  0.00     0.049 A 
ATOM     59  H   UNL A   1      43.097  30.960  29.372  1.00  0.00     0.167 HD
ATOM     60  C   UNL A   1      41.756  33.300  30.281  1.00  0.00     0.074 A 
ATOM     61  C   UNL A   1      40.698  34.215  30.660  1.00  0.00     0.031 C 
ATOM     62  C   UNL A   1      43.075  33.624  30.263  1.00  0.00     0.034 A 
BRANCH  49  63
ATOM     63  C   UNL A   1      46.782  29.003  28.378  1.00  0.00     0.023 A 
ATOM     64  C   UNL A   1      47.266  28.819  27.070  1.00  0.00     0.031 A 
ATOM     65  C   UNL A   1      47.630  28.656  29.443  1.00  0.00     0.131 A 
ATOM     66  C   UNL A   1      48.516  28.218  26.861  1.00  0.00     0.055 A 
ATOM     67  C   UNL A   1      48.912  28.143  29.229  1.00  0.00     0.041 A 
ATOM     68  F   UNL A   1      47.221  28.788  30.715  1.00  0.00    -0.206 F 
ATOM     69  C   UNL A   1      49.354  27.902  27.931  1.00  0.00     0.022 A 
BRANCH  66  70
ATOM     70  S   UNL A   1      48.956  27.701  25.177  1.00  0.00     0.124 S 
ATOM     71  O   UNL A   1      49.088  26.256  25.340  1.00  0.00    -0.237 OA
ATOM     72  O   UNL A   1      47.809  28.156  24.398  1.00  0.00    -0.237 OA
ATOM     73  O   UNL A   1      50.207  28.410  24.918  1.00  0.00    -0.744 OA
ENDBRANCH  66  70
ENDBRANCH  49  63
BRANCH  50  74
ATOM     74  C   UNL A   1      37.310  31.720  30.262  1.00  0.00     0.023 A 
ATOM     75  C   UNL A   1      36.429  32.214  29.287  1.00  0.00     0.031 A 
ATOM     76  C   UNL A   1      36.842  31.623  31.585  1.00  0.00     0.131 A 
ATOM     77  C   UNL A   1      35.141  32.632  29.656  1.00  0.00     0.055 A 
ATOM     78  C   UNL A   1      35.544  31.993  31.938  1.00  0.00     0.041 A 
ATOM     79  F   UNL A   1      37.640  31.148  32.554  1.00  0.00    -0.206 F 
ATOM     80  C   UNL A   1      34.689  32.514  30.972  1.00  0.00     0.022 A 
BRANCH  77  81
ATOM     81  S   UNL A   1      34.086  33.408  28.401  1.00  0.00     0.124 S 
ATOM     82  O   UNL A   1      33.497  32.247  27.747  1.00  0.00    -0.237 OA
ATOM     83  O   UNL A   1      33.183  34.212  29.219  1.00  0.00    -0.237 OA
ATOM     84  O   UNL A   1      35.031  34.172  27.588  1.00  0.00    -0.744 OA
ENDBRANCH  77  81
ENDBRANCH  50  74
BRANCH  62  85
ATOM     85  C   UNL A   1      43.435  35.044  30.624  1.00  0.00     0.023 A 
ATOM     86  C   UNL A   1      43.430  36.076  29.669  1.00  0.00     0.031 A 
ATOM     87  C   UNL A   1      43.808  35.365  31.942  1.00  0.00     0.131 A 
ATOM     88  C   UNL A   1      43.849  37.366  30.032  1.00  0.00     0.055 A 
ATOM     89  C   UNL A   1      44.163  36.663  32.310  1.00  0.00     0.041 A 
ATOM     90  F   UNL A   1      43.832  34.419  32.895  1.00  0.00    -0.206 F 
ATOM     91  C   UNL A   1      44.201  37.668  31.350  1.00  0.00     0.022 A 
BRANCH  88  92
ATOM     92  S   UNL A   1      44.029  38.619  28.733  1.00  0.00     0.124 S 
ATOM     93  O   UNL A   1      44.948  39.569  29.352  1.00  0.00    -0.237 OA
ATOM     94  O   UNL A   1      44.569  37.842  27.621  1.00  0.00    -0.237 OA
ATOM     95  O   UNL A   1      42.666  39.110  28.540  1.00  0.00    -0.744 OA
ENDBRANCH  88  92
ENDBRANCH  62  85
ENDBRANCH  36  37
ENDBRANCH  28  31
ENDBRANCH  26  27
ENDBRANCH  25  26
ENDBRANCH   1  25
TORSDOF 18
ENDMDL
MODEL 3
REMARK VINA RESULT:     -11.1      1.923      2.612
REMARK SMILES C=CC[N@@H+]1C[C@@H](C(=O)NCCCCCCNC(=O)c2ccc(-c3c4nc(c(-c5cc(S(=O)(=O)[O-])ccc5F)c5ccc([nH]5)c(-c5cc(S(=O)(=O)[O-])ccc5F)c5nc(c(-c6cc(S(=O)(=O)[O-])ccc6F)c6ccc3[nH]6)C=C5)C=C4)cc2)C2(CC[NH+](C)CC2)C1
REMARK SMILES IDX 13 1 12 2 11 3 10 4 9 5 7 6 8 7 6 9 4 10 5 11 89 12 82 14
REMARK SMILES IDX 83 15 88 16 84 17 87 18 85 19 86 20 3 22 2 23 1 24 14 25
REMARK SMILES IDX 15 26 16 27 17 28 18 30 19 31 20 32 81 33 21 34 80 35 22 36
REMARK SMILES IDX 23 37 24 38 74 39 25 40 79 41 73 42 75 43 26 44 78 45 72 46
REMARK SMILES IDX 71 47 27 49 59 50 39 51 58 52 40 53 43 54 57 55 76 56 41 57
REMARK SMILES IDX 42 58 56 60 77 61 44 62 28 63 29 64 37 65 30 66 36 67 38 68
REMARK SMILES IDX 35 69 31 70 32 71 33 72 34 73 60 74 61 75 69 76 62 77 68 78
REMARK SMILES IDX 70 79 67 80 63 81 64 82 65 83 66 84 45 85 46 86 54 87 47 88
REMARK SMILES IDX 53 89 55 90 52 91 48 92 49 93 50 94 51 95
REMARK H PARENT 9 8 4 13 85 21 16 29 75 48 43 59
REMARK Flexibility Score: inf
ROOT
ATOM      1  C   UNL A   1      31.777  27.666  26.956  1.00  0.00     0.002 C 
ENDROOT
BRANCH   1   2
ATOM      2  C   UNL A   1      31.953  26.358  26.185  1.00  0.00     0.002 C 
BRANCH   2   3
ATOM      3  C   UNL A   1      31.844  26.482  24.668  1.00  0.00     0.021 C 
BRANCH   3   4
ATOM      4  C   UNL A   1      31.732  25.156  23.915  1.00  0.00     0.116 C 
BRANCH   4   5
ATOM      5  N   UNL A   1      31.204  24.080  24.729  1.00  0.00    -0.356 N 
ATOM      6  C   UNL A   1      31.567  22.783  24.891  1.00  0.00     0.229 C 
ATOM      7  O   UNL A   1      30.931  22.157  25.752  1.00  0.00    -0.275 OA
ATOM      8  H   UNL A   1      30.426  24.342  25.274  1.00  0.00     0.163 HD
BRANCH   6   9
ATOM      9  C   UNL A   1      32.671  22.040  24.117  1.00  0.00     0.145 C 
ATOM     10  N   UNL A   1      32.613  19.712  24.335  1.00  0.00    -0.331 N 
ATOM     11  C   UNL A   1      32.182  20.767  23.439  1.00  0.00     0.276 C 
ATOM     12  C   UNL A   1      33.864  20.092  24.986  1.00  0.00     0.270 C 
ATOM     13  H   UNL A   1      31.915  19.631  25.075  1.00  0.00     0.348 HD
ATOM     14  C   UNL A   1      33.995  21.630  24.817  1.00  0.00     0.047 C 
ATOM     15  C   UNL A   1      34.275  22.360  26.142  1.00  0.00     0.075 C 
ATOM     16  C   UNL A   1      35.218  21.894  23.884  1.00  0.00     0.075 C 
ATOM     17  C   UNL A   1      34.649  23.833  25.951  1.00  0.00     0.262 C 
ATOM     18  C   UNL A   1      35.623  23.371  23.795  1.00  0.00     0.262 C 
ATOM     19  N   UNL A   1      35.820  24.023  25.091  1.00  0.00    -0.337 N 
ATOM     20  C   UNL A   1      37.057  23.614  25.753  1.00  0.00     0.332 C 
ATOM     21  H   UNL A   1      35.922  25.021  24.911  1.00  0.00     0.347 HD
BRANCH  10  22
ATOM     22  C   UNL A   1      32.531  18.360  23.810  1.00  0.00     0.290 C 
BRANCH  22  23
ATOM     23  C   UNL A   1      33.884  17.711  23.877  1.00  0.00     0.025 C 
ATOM     24  C   UNL A   1      34.244  16.637  23.160  1.00  0.00     0.010 C 
ENDBRANCH  22  23
ENDBRANCH  10  22
ENDBRANCH   6   9
ENDBRANCH   4   5
ENDBRANCH   3   4
ENDBRANCH   2   3
ENDBRANCH   1   2
BRANCH   1  25
ATOM     25  C   UNL A   1      31.538  28.911  26.094  1.00  0.00     0.021 C 
BRANCH  25  26
ATOM     26  C   UNL A   1      32.773  29.769  25.836  1.00  0.00     0.116 C 
BRANCH  26  27
ATOM     27  N   UNL A   1      32.540  31.166  26.148  1.00  0.00    -0.352 N 
ATOM     28  C   UNL A   1      33.137  31.951  27.099  1.00  0.00     0.251 C 
ATOM     29  H   UNL A   1      31.856  31.614  25.598  1.00  0.00     0.163 HD
ATOM     30  O   UNL A   1      32.658  33.055  27.364  1.00  0.00    -0.269 OA
BRANCH  28  31
ATOM     31  C   UNL A   1      34.337  31.468  27.814  1.00  0.00     0.039 A 
ATOM     32  C   UNL A   1      35.409  32.344  27.999  1.00  0.00     0.014 A 
ATOM     33  C   UNL A   1      34.420  30.150  28.273  1.00  0.00     0.014 A 
ATOM     34  C   UNL A   1      36.550  31.910  28.675  1.00  0.00     0.010 A 
ATOM     35  C   UNL A   1      35.531  29.738  29.007  1.00  0.00     0.010 A 
ATOM     36  C   UNL A   1      36.615  30.608  29.199  1.00  0.00    -0.014 A 
BRANCH  36  37
ATOM     37  C   UNL A   1      37.830  30.132  29.910  1.00  0.00     0.031 A 
ATOM     38  C   UNL A   1      38.117  30.608  31.308  1.00  0.00     0.074 A 
ATOM     39  C   UNL A   1      38.690  29.303  29.285  1.00  0.00     0.049 A 
ATOM     40  N   UNL A   1      39.141  30.350  32.080  1.00  0.00    -0.248 NA
ATOM     41  C   UNL A   1      37.132  31.523  31.904  1.00  0.00     0.031 C 
ATOM     42  C   UNL A   1      38.541  28.810  27.915  1.00  0.00     0.029 A 
ATOM     43  N   UNL A   1      39.861  28.736  29.717  1.00  0.00    -0.354 N 
ATOM     44  C   UNL A   1      38.928  31.075  33.248  1.00  0.00     0.074 A 
ATOM     45  C   UNL A   1      37.716  31.840  33.048  1.00  0.00     0.031 C 
ATOM     46  C   UNL A   1      39.571  27.999  27.626  1.00  0.00     0.029 A 
ATOM     47  C   UNL A   1      40.472  27.944  28.774  1.00  0.00     0.049 A 
ATOM     48  H   UNL A   1      40.231  28.882  30.618  1.00  0.00     0.167 HD
ATOM     49  C   UNL A   1      39.658  31.079  34.392  1.00  0.00     0.034 A 
ATOM     50  C   UNL A   1      41.630  27.257  28.825  1.00  0.00     0.034 A 
ATOM     51  C   UNL A   1      40.862  30.306  34.573  1.00  0.00     0.049 A 
ATOM     52  C   UNL A   1      42.432  27.279  30.101  1.00  0.00     0.074 A 
ATOM     53  C   UNL A   1      41.666  30.207  35.695  1.00  0.00     0.029 A 
ATOM     54  N   UNL A   1      41.442  29.496  33.601  1.00  0.00    -0.354 N 
ATOM     55  N   UNL A   1      42.196  27.936  31.214  1.00  0.00    -0.248 NA
ATOM     56  C   UNL A   1      43.644  26.452  30.135  1.00  0.00     0.031 C 
ATOM     57  C   UNL A   1      42.760  29.390  35.384  1.00  0.00     0.029 A 
ATOM     58  C   UNL A   1      42.601  28.915  34.091  1.00  0.00     0.049 A 
ATOM     59  H   UNL A   1      41.080  29.358  32.696  1.00  0.00     0.167 HD
ATOM     60  C   UNL A   1      43.216  27.577  32.091  1.00  0.00     0.074 A 
ATOM     61  C   UNL A   1      44.057  26.634  31.381  1.00  0.00     0.031 C 
ATOM     62  C   UNL A   1      43.437  27.985  33.367  1.00  0.00     0.034 A 
BRANCH  49  63
ATOM     63  C   UNL A   1      39.175  31.968  35.515  1.00  0.00     0.023 A 
ATOM     64  C   UNL A   1      39.596  33.306  35.628  1.00  0.00     0.031 A 
ATOM     65  C   UNL A   1      38.323  31.465  36.513  1.00  0.00     0.131 A 
ATOM     66  C   UNL A   1      39.243  34.061  36.756  1.00  0.00     0.055 A 
ATOM     67  C   UNL A   1      37.901  32.252  37.588  1.00  0.00     0.041 A 
ATOM     68  F   UNL A   1      37.902  30.191  36.474  1.00  0.00    -0.206 F 
ATOM     69  C   UNL A   1      38.377  33.552  37.725  1.00  0.00     0.022 A 
BRANCH  66  70
ATOM     70  S   UNL A   1      40.069  35.655  37.022  1.00  0.00     0.124 S 
ATOM     71  O   UNL A   1      39.499  36.071  38.300  1.00  0.00    -0.237 OA
ATOM     72  O   UNL A   1      41.479  35.281  37.041  1.00  0.00    -0.237 OA
ATOM     73  O   UNL A   1      39.651  36.453  35.871  1.00  0.00    -0.744 OA
ENDBRANCH  66  70
ENDBRANCH  49  63
BRANCH  50  74
ATOM     74  C   UNL A   1      42.105  26.495  27.634  1.00  0.00     0.023 A 
ATOM     75  C   UNL A   1      41.799  25.135  27.470  1.00  0.00     0.031 A 
ATOM     76  C   UNL A   1      42.897  27.116  26.652  1.00  0.00     0.131 A 
ATOM     77  C   UNL A   1      42.318  24.428  26.374  1.00  0.00     0.055 A 
ATOM     78  C   UNL A   1      43.369  26.422  25.537  1.00  0.00     0.041 A 
ATOM     79  F   UNL A   1      43.211  28.417  26.756  1.00  0.00    -0.206 F 
ATOM     80  C   UNL A   1      43.090  25.065  25.400  1.00  0.00     0.022 A 
BRANCH  77  81
ATOM     81  S   UNL A   1      42.031  22.640  26.277  1.00  0.00     0.124 S 
ATOM     82  O   UNL A   1      42.653  22.307  25.002  1.00  0.00    -0.237 OA
ATOM     83  O   UNL A   1      42.717  22.159  27.472  1.00  0.00    -0.237 OA
ATOM     84  O   UNL A   1      40.574  22.527  26.311  1.00  0.00    -0.744 OA
ENDBRANCH  77  81
ENDBRANCH  50  74
BRANCH  62  85
ATOM     85  C   UNL A   1      44.614  27.373  34.086  1.00  0.00     0.023 A 
ATOM     86  C   UNL A   1      44.473  26.245  34.912  1.00  0.00     0.031 A 
ATOM     87  C   UNL A   1      45.894  27.942  33.957  1.00  0.00     0.131 A 
ATOM     88  C   UNL A   1      45.580  25.758  35.625  1.00  0.00     0.055 A 
ATOM     89  C   UNL A   1      47.004  27.415  34.620  1.00  0.00     0.041 A 
ATOM     90  F   UNL A   1      46.087  29.022  33.182  1.00  0.00    -0.206 F 
ATOM     91  C   UNL A   1      46.847  26.326  35.471  1.00  0.00     0.022 A 
BRANCH  88  92
ATOM     92  S   UNL A   1      45.320  24.434  36.838  1.00  0.00     0.124 S 
ATOM     93  O   UNL A   1      46.553  24.488  37.617  1.00  0.00    -0.237 OA
ATOM     94  O   UNL A   1      44.111  24.875  37.527  1.00  0.00    -0.237 OA
ATOM     95  O   UNL A   1      45.160  23.238  36.011  1.00  0.00    -0.744 OA
ENDBRANCH  88  92
ENDBRANCH  62  85
ENDBRANCH  36  37
ENDBRANCH  28  31
ENDBRANCH  26  27
ENDBRANCH  25  26
ENDBRANCH   1  25
TORSDOF 18
ENDMDL
