MODEL 1
REMARK VINA RESULT:     -11.8      0.000      0.000
REMARK SMILES Cc1ccc(S(=O)(=O)n2cc(C(=O)C(=O)N[C@@H](Cc3c[nH]c4ccccc34)C(=O)NCC(=O)NCCCCCCNC(=O)c3ccc(-c4c5nc(c(-c6cc(S(=O)(=O)[O-])ccc6F)c6ccc([nH]6)c(-c6cc(S(=O)(=O)[O-])ccc6F)c6nc(c(-c7cc(S(=O)(=O)[O-])ccc7F)c7ccc4[nH]7)C=C6)C=C5)cc3)c3ccccc32)cc1
REMARK SMILES IDX 35 1 34 2 32 3 33 4 31 6 30 7 28 8 29 9 17 11 16 12 14 13
REMARK SMILES IDX 15 14 12 16 13 17 11 18 9 19 10 20 112 21 107 22 111 23
REMARK SMILES IDX 108 24 110 25 109 26 6 27 7 28 8 29 5 30 1 31 2 32 3 33
REMARK SMILES IDX 114 34 4 35 113 36 18 37 19 38 20 39 27 40 21 41 22 42 26 43
REMARK SMILES IDX 23 45 25 46 24 47 36 48 37 49 38 50 39 51 40 52 41 53 42 54
REMARK SMILES IDX 43 56 44 57 45 58 106 59 46 60 105 61 47 62 48 63 49 64
REMARK SMILES IDX 99 65 50 66 104 67 98 68 100 69 51 70 103 71 97 72 96 73
REMARK SMILES IDX 52 75 84 76 64 77 83 78 65 79 68 80 82 81 101 82 66 83 67 84
REMARK SMILES IDX 81 86 102 87 69 88 53 89 54 90 62 91 55 92 61 93 63 94 60 95
REMARK SMILES IDX 56 96 57 97 58 98 59 99 85 100 86 101 94 102 87 103 93 104
REMARK SMILES IDX 95 105 92 106 88 107 89 108 90 109 91 110 70 111 71 112
REMARK SMILES IDX 79 113 72 114 78 115 80 116 77 117 73 118 74 119 75 120
REMARK SMILES IDX 76 121
REMARK H PARENT 34 5 30 10 16 15 21 44 41 55 100 74 68 85
REMARK Flexibility Score: inf
ROOT
ATOM      1  C   UNL A   1      35.437  30.538  28.676  1.00  0.00     0.116 C 
ENDROOT
BRANCH   1   2
ATOM      2  N   UNL A   1      34.261  31.090  28.042  1.00  0.00    -0.355 N 
ATOM      3  C   UNL A   1      33.300  30.416  27.350  1.00  0.00     0.239 C 
ATOM      4  O   UNL A   1      32.286  31.013  26.979  1.00  0.00    -0.273 OA
ATOM      5  H   UNL A   1      34.141  32.064  28.119  1.00  0.00     0.163 HD
BRANCH   3   6
ATOM      6  C   UNL A   1      33.406  28.897  27.239  1.00  0.00     0.216 C 
BRANCH   6   7
ATOM      7  N   UNL A   1      33.912  28.290  26.021  1.00  0.00    -0.345 N 
ATOM      8  C   UNL A   1      33.235  27.878  24.910  1.00  0.00     0.243 C 
ATOM      9  O   UNL A   1      33.872  27.885  23.849  1.00  0.00    -0.273 OA
ATOM     10  H   UNL A   1      34.887  28.156  25.993  1.00  0.00     0.164 HD
BRANCH   8  11
ATOM     11  C   UNL A   1      31.707  27.557  24.875  1.00  0.00     0.176 C 
BRANCH  11  12
ATOM     12  N   UNL A   1      31.182  26.544  25.820  1.00  0.00    -0.337 N 
ATOM     13  C   UNL A   1      30.789  25.222  25.614  1.00  0.00     0.293 C 
ATOM     14  O   UNL A   1      30.139  24.635  26.476  1.00  0.00    -0.265 OA
ATOM     15  H   UNL A   1      31.096  26.857  26.750  1.00  0.00     0.164 HD
BRANCH  13  16
ATOM     16  C   UNL A   1      31.210  24.460  24.352  1.00  0.00     0.252 C 
ATOM     17  O   UNL A   1      30.558  24.723  23.342  1.00  0.00    -0.283 OA
BRANCH  16  18
ATOM     18  C   UNL A   1      32.242  23.397  24.344  1.00  0.00     0.054 A 
ATOM     19  N   UNL A   1      33.470  21.491  24.196  1.00  0.00    -0.240 N 
ATOM     20  C   UNL A   1      32.171  22.003  24.166  1.00  0.00     0.117 A 
ATOM     21  C   UNL A   1      34.358  22.577  24.263  1.00  0.00     0.065 A 
ATOM     22  C   UNL A   1      33.605  23.665  24.690  1.00  0.00     0.012 A 
ATOM     23  C   UNL A   1      35.769  22.623  24.247  1.00  0.00     0.028 A 
ATOM     24  C   UNL A   1      34.275  24.748  25.301  1.00  0.00     0.011 A 
ATOM     25  C   UNL A   1      36.404  23.673  24.905  1.00  0.00     0.002 A 
ATOM     26  C   UNL A   1      35.663  24.702  25.467  1.00  0.00     0.001 A 
BRANCH  19  27
ATOM     27  S   UNL A   1      34.089  20.110  25.059  1.00  0.00     0.268 S 
ATOM     28  O   UNL A   1      33.676  20.380  26.427  1.00  0.00    -0.201 OA
ATOM     29  O   UNL A   1      35.499  20.135  24.685  1.00  0.00    -0.201 OA
BRANCH  27  30
ATOM     30  C   UNL A   1      33.729  18.407  24.822  1.00  0.00     0.088 A 
ATOM     31  C   UNL A   1      32.609  14.262  25.367  1.00  0.00     0.044 C 
ATOM     32  C   UNL A   1      32.979  15.697  25.118  1.00  0.00    -0.051 A 
ATOM     33  C   UNL A   1      32.402  16.656  25.937  1.00  0.00     0.005 A 
ATOM     34  C   UNL A   1      33.911  16.109  24.137  1.00  0.00     0.005 A 
ATOM     35  C   UNL A   1      32.766  17.983  25.777  1.00  0.00     0.022 A 
ATOM     36  C   UNL A   1      34.300  17.467  23.984  1.00  0.00     0.022 A 
ENDBRANCH  27  30
ENDBRANCH  19  27
ENDBRANCH  16  18
ENDBRANCH  13  16
ENDBRANCH  11  12
BRANCH  11  37
ATOM     37  C   UNL A   1      30.833  28.856  24.818  1.00  0.00     0.072 C 
BRANCH  37  38
ATOM     38  C   UNL A   1      30.429  29.379  23.457  1.00  0.00    -0.020 A 
ATOM     39  C   UNL A   1      31.111  29.161  22.271  1.00  0.00     0.087 A 
ATOM     40  C   UNL A   1      29.328  30.247  23.130  1.00  0.00     0.003 A 
ATOM     41  N   UNL A   1      30.566  29.962  21.299  1.00  0.00    -0.361 N 
ATOM     42  C   UNL A   1      29.545  30.713  21.832  1.00  0.00     0.046 A 
ATOM     43  C   UNL A   1      28.255  30.798  23.862  1.00  0.00     0.010 A 
ATOM     44  H   UNL A   1      30.862  29.994  20.362  1.00  0.00     0.166 HD
ATOM     45  C   UNL A   1      28.837  31.789  21.283  1.00  0.00     0.026 A 
ATOM     46  C   UNL A   1      27.554  31.890  23.339  1.00  0.00     0.001 A 
ATOM     47  C   UNL A   1      27.862  32.395  22.080  1.00  0.00     0.002 A 
ENDBRANCH  37  38
ENDBRANCH  11  37
ENDBRANCH   8  11
ENDBRANCH   6   7
ENDBRANCH   3   6
ENDBRANCH   1   2
BRANCH   1  48
ATOM     48  C   UNL A   1      36.598  30.403  27.708  1.00  0.00     0.021 C 
BRANCH  48  49
ATOM     49  C   UNL A   1      37.967  30.292  28.382  1.00  0.00     0.002 C 
BRANCH  49  50
ATOM     50  C   UNL A   1      38.249  28.980  29.132  1.00  0.00     0.002 C 
BRANCH  50  51
ATOM     51  C   UNL A   1      39.686  28.461  29.063  1.00  0.00     0.021 C 
BRANCH  51  52
ATOM     52  C   UNL A   1      40.009  27.678  27.801  1.00  0.00     0.116 C 
BRANCH  52  53
ATOM     53  N   UNL A   1      39.844  26.239  27.921  1.00  0.00    -0.352 N 
ATOM     54  C   UNL A   1      40.815  25.268  28.142  1.00  0.00     0.251 C 
ATOM     55  H   UNL A   1      38.922  25.907  27.833  1.00  0.00     0.163 HD
ATOM     56  O   UNL A   1      40.550  24.089  28.087  1.00  0.00    -0.269 OA
BRANCH  54  57
ATOM     57  C   UNL A   1      42.167  25.713  28.579  1.00  0.00     0.039 A 
ATOM     58  C   UNL A   1      43.257  24.935  28.167  1.00  0.00     0.014 A 
ATOM     59  C   UNL A   1      42.333  26.695  29.550  1.00  0.00     0.014 A 
ATOM     60  C   UNL A   1      44.446  24.981  28.892  1.00  0.00     0.010 A 
ATOM     61  C   UNL A   1      43.468  26.664  30.334  1.00  0.00     0.010 A 
ATOM     62  C   UNL A   1      44.500  25.766  30.042  1.00  0.00    -0.014 A 
BRANCH  62  63
ATOM     63  C   UNL A   1      45.540  25.646  31.058  1.00  0.00     0.031 A 
ATOM     64  C   UNL A   1      45.338  24.787  32.241  1.00  0.00     0.074 A 
ATOM     65  C   UNL A   1      46.736  26.244  30.867  1.00  0.00     0.049 A 
ATOM     66  N   UNL A   1      46.037  24.862  33.321  1.00  0.00    -0.248 NA
ATOM     67  C   UNL A   1      44.284  23.781  32.309  1.00  0.00     0.031 C 
ATOM     68  C   UNL A   1      47.979  26.007  31.598  1.00  0.00     0.029 A 
ATOM     69  N   UNL A   1      46.988  27.397  30.125  1.00  0.00    -0.354 N 
ATOM     70  C   UNL A   1      45.731  23.773  34.101  1.00  0.00     0.074 A 
ATOM     71  C   UNL A   1      44.596  23.158  33.449  1.00  0.00     0.031 C 
ATOM     72  C   UNL A   1      48.751  27.099  31.502  1.00  0.00     0.029 A 
ATOM     73  C   UNL A   1      47.973  28.121  30.831  1.00  0.00     0.049 A 
ATOM     74  H   UNL A   1      46.561  27.655  29.275  1.00  0.00     0.167 HD
ATOM     75  C   UNL A   1      46.542  23.453  35.148  1.00  0.00     0.034 A 
ATOM     76  C   UNL A   1      47.699  29.369  31.317  1.00  0.00     0.034 A 
ATOM     77  C   UNL A   1      47.595  24.449  35.343  1.00  0.00     0.049 A 
ATOM     78  C   UNL A   1      47.784  29.474  32.829  1.00  0.00     0.074 A 
ATOM     79  C   UNL A   1      48.941  24.530  35.022  1.00  0.00     0.029 A 
ATOM     80  N   UNL A   1      47.224  25.719  35.739  1.00  0.00    -0.354 N 
ATOM     81  N   UNL A   1      48.054  28.475  33.625  1.00  0.00    -0.248 NA
ATOM     82  C   UNL A   1      47.490  30.700  33.573  1.00  0.00     0.031 C 
ATOM     83  C   UNL A   1      49.357  25.883  35.203  1.00  0.00     0.029 A 
ATOM     84  C   UNL A   1      48.272  26.612  35.656  1.00  0.00     0.049 A 
ATOM     85  H   UNL A   1      46.319  25.958  36.043  1.00  0.00     0.167 HD
ATOM     86  C   UNL A   1      47.904  28.869  34.929  1.00  0.00     0.074 A 
ATOM     87  C   UNL A   1      47.562  30.277  34.847  1.00  0.00     0.031 C 
ATOM     88  C   UNL A   1      48.018  28.006  35.982  1.00  0.00     0.034 A 
BRANCH  75  89
ATOM     89  C   UNL A   1      46.517  22.130  35.872  1.00  0.00     0.023 A 
ATOM     90  C   UNL A   1      46.386  22.124  37.276  1.00  0.00     0.031 A 
ATOM     91  C   UNL A   1      46.638  20.862  35.271  1.00  0.00     0.131 A 
ATOM     92  C   UNL A   1      46.477  20.932  38.017  1.00  0.00     0.055 A 
ATOM     93  C   UNL A   1      46.796  19.683  36.010  1.00  0.00     0.041 A 
ATOM     94  F   UNL A   1      46.548  20.699  33.945  1.00  0.00    -0.206 F 
ATOM     95  C   UNL A   1      46.726  19.715  37.393  1.00  0.00     0.022 A 
BRANCH  92  96
ATOM     96  S   UNL A   1      46.247  20.997  39.814  1.00  0.00     0.124 S 
ATOM     97  O   UNL A   1      45.714  19.671  40.109  1.00  0.00    -0.237 OA
ATOM     98  O   UNL A   1      47.599  21.271  40.288  1.00  0.00    -0.237 OA
ATOM     99  O   UNL A   1      45.299  22.097  39.994  1.00  0.00    -0.744 OA
ENDBRANCH  92  96
ENDBRANCH  75  89
BRANCH  76 100
ATOM    100  C   UNL A   1      46.769  30.124  30.421  1.00  0.00     0.023 A 
ATOM    101  C   UNL A   1      47.303  30.567  29.189  1.00  0.00     0.031 A 
ATOM    102  C   UNL A   1      45.376  30.022  30.530  1.00  0.00     0.131 A 
ATOM    103  C   UNL A   1      46.480  30.670  28.060  1.00  0.00     0.055 A 
ATOM    104  C   UNL A   1      44.545  30.233  29.422  1.00  0.00     0.041 A 
ATOM    105  F   UNL A   1      44.805  29.583  31.662  1.00  0.00    -0.206 F 
ATOM    106  C   UNL A   1      45.100  30.501  28.168  1.00  0.00     0.022 A 
BRANCH 103 107
ATOM    107  S   UNL A   1      47.265  30.687  26.416  1.00  0.00     0.124 S 
ATOM    108  O   UNL A   1      46.134  30.971  25.540  1.00  0.00    -0.237 OA
ATOM    109  O   UNL A   1      48.258  31.754  26.539  1.00  0.00    -0.237 OA
ATOM    110  O   UNL A   1      47.837  29.347  26.295  1.00  0.00    -0.744 OA
ENDBRANCH 103 107
ENDBRANCH  76 100
BRANCH  88 111
ATOM    111  C   UNL A   1      47.859  28.425  37.420  1.00  0.00     0.023 A 
ATOM    112  C   UNL A   1      46.963  27.776  38.284  1.00  0.00     0.031 A 
ATOM    113  C   UNL A   1      48.540  29.544  37.949  1.00  0.00     0.131 A 
ATOM    114  C   UNL A   1      46.820  28.200  39.617  1.00  0.00     0.055 A 
ATOM    115  C   UNL A   1      48.329  30.018  39.246  1.00  0.00     0.041 A 
ATOM    116  F   UNL A   1      49.476  30.199  37.246  1.00  0.00    -0.206 F 
ATOM    117  C   UNL A   1      47.470  29.337  40.095  1.00  0.00     0.022 A 
BRANCH 114 118
ATOM    118  S   UNL A   1      45.832  27.185  40.746  1.00  0.00     0.124 S 
ATOM    119  O   UNL A   1      46.082  25.833  40.263  1.00  0.00    -0.237 OA
ATOM    120  O   UNL A   1      46.427  27.519  42.039  1.00  0.00    -0.237 OA
ATOM    121  O   UNL A   1      44.469  27.675  40.549  1.00  0.00    -0.744 OA
ENDBRANCH 114 118
ENDBRANCH  88 111
ENDBRANCH  62  63
ENDBRANCH  54  57
ENDBRANCH  52  53
ENDBRANCH  51  52
ENDBRANCH  50  51
ENDBRANCH  49  50
ENDBRANCH  48  49
ENDBRANCH   1  48
TORSDOF 25
ENDMDL
MODEL 2
REMARK VINA RESULT:     -11.6      4.010      7.474
REMARK SMILES Cc1ccc(S(=O)(=O)n2cc(C(=O)C(=O)N[C@@H](Cc3c[nH]c4ccccc34)C(=O)NCC(=O)NCCCCCCNC(=O)c3ccc(-c4c5nc(c(-c6cc(S(=O)(=O)[O-])ccc6F)c6ccc([nH]6)c(-c6cc(S(=O)(=O)[O-])ccc6F)c6nc(c(-c7cc(S(=O)(=O)[O-])ccc7F)c7ccc4[nH]7)C=C6)C=C5)cc3)c3ccccc32)cc1
REMARK SMILES IDX 35 1 34 2 32 3 33 4 31 6 30 7 28 8 29 9 17 11 16 12 14 13
REMARK SMILES IDX 15 14 12 16 13 17 11 18 9 19 10 20 112 21 107 22 111 23
REMARK SMILES IDX 108 24 110 25 109 26 6 27 7 28 8 29 5 30 1 31 2 32 3 33
REMARK SMILES IDX 114 34 4 35 113 36 18 37 19 38 20 39 27 40 21 41 22 42 26 43
REMARK SMILES IDX 23 45 25 46 24 47 36 48 37 49 38 50 39 51 40 52 41 53 42 54
REMARK SMILES IDX 43 56 44 57 45 58 106 59 46 60 105 61 47 62 48 63 49 64
REMARK SMILES IDX 99 65 50 66 104 67 98 68 100 69 51 70 103 71 97 72 96 73
REMARK SMILES IDX 52 75 84 76 64 77 83 78 65 79 68 80 82 81 101 82 66 83 67 84
REMARK SMILES IDX 81 86 102 87 69 88 53 89 54 90 62 91 55 92 61 93 63 94 60 95
REMARK SMILES IDX 56 96 57 97 58 98 59 99 85 100 86 101 94 102 87 103 93 104
REMARK SMILES IDX 95 105 92 106 88 107 89 108 90 109 91 110 70 111 71 112
REMARK SMILES IDX 79 113 72 114 78 115 80 116 77 117 73 118 74 119 75 120
REMARK SMILES IDX 76 121
REMARK H PARENT 34 5 30 10 16 15 21 44 41 55 100 74 68 85
REMARK Flexibility Score: inf
ROOT
ATOM      1  C   UNL A   1      35.296  30.358  28.637  1.00  0.00     0.116 C 
ENDROOT
BRANCH   1   2
ATOM      2  N   UNL A   1      34.521  30.745  27.480  1.00  0.00    -0.355 N 
ATOM      3  C   UNL A   1      33.737  29.946  26.702  1.00  0.00     0.239 C 
ATOM      4  O   UNL A   1      33.034  30.452  25.824  1.00  0.00    -0.273 OA
ATOM      5  H   UNL A   1      34.563  31.695  27.224  1.00  0.00     0.163 HD
BRANCH   3   6
ATOM      6  C   UNL A   1      33.592  28.473  27.077  1.00  0.00     0.216 C 
BRANCH   6   7
ATOM      7  N   UNL A   1      34.045  27.441  26.162  1.00  0.00    -0.345 N 
ATOM      8  C   UNL A   1      33.333  26.712  25.254  1.00  0.00     0.243 C 
ATOM      9  O   UNL A   1      33.964  26.299  24.272  1.00  0.00    -0.273 OA
ATOM     10  H   UNL A   1      35.007  27.237  26.203  1.00  0.00     0.164 HD
BRANCH   8  11
ATOM     11  C   UNL A   1      31.786  26.509  25.303  1.00  0.00     0.176 C 
BRANCH  11  12
ATOM     12  N   UNL A   1      31.230  25.609  26.341  1.00  0.00    -0.337 N 
ATOM     13  C   UNL A   1      30.908  24.253  26.295  1.00  0.00     0.293 C 
ATOM     14  O   UNL A   1      30.217  23.757  27.181  1.00  0.00    -0.265 OA
ATOM     15  H   UNL A   1      31.060  26.041  27.209  1.00  0.00     0.164 HD
BRANCH  13  16
ATOM     16  C   UNL A   1      31.456  23.348  25.185  1.00  0.00     0.252 C 
ATOM     17  O   UNL A   1      30.710  23.197  24.218  1.00  0.00    -0.283 OA
BRANCH  16  18
ATOM     18  C   UNL A   1      32.733  22.603  25.292  1.00  0.00     0.054 A 
ATOM     19  N   UNL A   1      34.829  21.832  25.709  1.00  0.00    -0.240 N 
ATOM     20  C   UNL A   1      33.992  22.947  25.816  1.00  0.00     0.117 A 
ATOM     21  C   UNL A   1      34.055  20.758  25.240  1.00  0.00     0.065 A 
ATOM     22  C   UNL A   1      32.913  21.321  24.682  1.00  0.00     0.012 A 
ATOM     23  C   UNL A   1      34.386  19.403  25.023  1.00  0.00     0.028 A 
ATOM     24  C   UNL A   1      32.192  20.571  23.727  1.00  0.00     0.011 A 
ATOM     25  C   UNL A   1      33.696  18.704  24.037  1.00  0.00     0.002 A 
ATOM     26  C   UNL A   1      32.639  19.297  23.362  1.00  0.00     0.001 A 
BRANCH  19  27
ATOM     27  S   UNL A   1      36.468  21.738  25.126  1.00  0.00     0.268 S 
ATOM     28  O   UNL A   1      36.349  22.238  23.766  1.00  0.00    -0.201 OA
ATOM     29  O   UNL A   1      36.792  20.339  25.383  1.00  0.00    -0.201 OA
BRANCH  27  30
ATOM     30  C   UNL A   1      37.910  22.518  25.755  1.00  0.00     0.088 A 
ATOM     31  C   UNL A   1      41.660  23.388  27.732  1.00  0.00     0.044 C 
ATOM     32  C   UNL A   1      40.371  23.132  27.004  1.00  0.00    -0.051 A 
ATOM     33  C   UNL A   1      40.149  21.847  26.532  1.00  0.00     0.005 A 
ATOM     34  C   UNL A   1      39.364  24.109  26.822  1.00  0.00     0.005 A 
ATOM     35  C   UNL A   1      38.946  21.557  25.910  1.00  0.00     0.022 A 
ATOM     36  C   UNL A   1      38.122  23.810  26.201  1.00  0.00     0.022 A 
ENDBRANCH  27  30
ENDBRANCH  19  27
ENDBRANCH  16  18
ENDBRANCH  13  16
ENDBRANCH  11  12
BRANCH  11  37
ATOM     37  C   UNL A   1      31.009  27.863  25.183  1.00  0.00     0.072 C 
BRANCH  37  38
ATOM     38  C   UNL A   1      30.915  28.508  23.818  1.00  0.00    -0.020 A 
ATOM     39  C   UNL A   1      31.986  28.928  23.045  1.00  0.00     0.087 A 
ATOM     40  C   UNL A   1      29.729  28.878  23.091  1.00  0.00     0.003 A 
ATOM     41  N   UNL A   1      31.502  29.649  21.983  1.00  0.00    -0.361 N 
ATOM     42  C   UNL A   1      30.132  29.721  22.053  1.00  0.00     0.046 A 
ATOM     43  C   UNL A   1      28.346  28.703  23.304  1.00  0.00     0.010 A 
ATOM     44  H   UNL A   1      32.055  30.053  21.276  1.00  0.00     0.166 HD
ATOM     45  C   UNL A   1      29.231  30.498  21.312  1.00  0.00     0.026 A 
ATOM     46  C   UNL A   1      27.434  29.489  22.591  1.00  0.00     0.001 A 
ATOM     47  C   UNL A   1      27.875  30.393  21.631  1.00  0.00     0.002 A 
ENDBRANCH  37  38
ENDBRANCH  11  37
ENDBRANCH   8  11
ENDBRANCH   6   7
ENDBRANCH   3   6
ENDBRANCH   1   2
BRANCH   1  48
ATOM     48  C   UNL A   1      36.689  29.889  28.260  1.00  0.00     0.021 C 
BRANCH  48  49
ATOM     49  C   UNL A   1      37.587  29.568  29.456  1.00  0.00     0.002 C 
BRANCH  49  50
ATOM     50  C   UNL A   1      38.392  28.261  29.369  1.00  0.00     0.002 C 
BRANCH  50  51
ATOM     51  C   UNL A   1      39.811  28.380  28.812  1.00  0.00     0.021 C 
BRANCH  51  52
ATOM     52  C   UNL A   1      39.880  28.571  27.306  1.00  0.00     0.116 C 
BRANCH  52  53
ATOM     53  N   UNL A   1      40.411  27.434  26.573  1.00  0.00    -0.352 N 
ATOM     54  C   UNL A   1      41.737  27.055  26.398  1.00  0.00     0.251 C 
ATOM     55  H   UNL A   1      39.741  26.855  26.143  1.00  0.00     0.163 HD
ATOM     56  O   UNL A   1      42.041  26.155  25.649  1.00  0.00    -0.269 OA
BRANCH  54  57
ATOM     57  C   UNL A   1      42.771  27.698  27.256  1.00  0.00     0.039 A 
ATOM     58  C   UNL A   1      43.326  28.898  26.792  1.00  0.00     0.014 A 
ATOM     59  C   UNL A   1      43.345  27.028  28.330  1.00  0.00     0.014 A 
ATOM     60  C   UNL A   1      44.580  29.295  27.250  1.00  0.00     0.010 A 
ATOM     61  C   UNL A   1      44.632  27.359  28.705  1.00  0.00     0.010 A 
ATOM     62  C   UNL A   1      45.273  28.457  28.121  1.00  0.00    -0.014 A 
BRANCH  62  63
ATOM     63  C   UNL A   1      46.698  28.581  28.405  1.00  0.00     0.031 A 
ATOM     64  C   UNL A   1      47.687  27.802  27.636  1.00  0.00     0.074 A 
ATOM     65  C   UNL A   1      47.126  29.490  29.309  1.00  0.00     0.049 A 
ATOM     66  N   UNL A   1      48.903  27.599  28.011  1.00  0.00    -0.248 NA
ATOM     67  C   UNL A   1      47.359  27.145  26.376  1.00  0.00     0.031 C 
ATOM     68  C   UNL A   1      48.490  29.970  29.514  1.00  0.00     0.029 A 
ATOM     69  N   UNL A   1      46.422  29.970  30.412  1.00  0.00    -0.354 N 
ATOM     70  C   UNL A   1      49.586  27.043  26.955  1.00  0.00     0.074 A 
ATOM     71  C   UNL A   1      48.567  26.734  25.978  1.00  0.00     0.031 C 
ATOM     72  C   UNL A   1      48.604  30.422  30.772  1.00  0.00     0.029 A 
ATOM     73  C   UNL A   1      47.363  30.116  31.455  1.00  0.00     0.049 A 
ATOM     74  H   UNL A   1      45.458  30.168  30.455  1.00  0.00     0.167 HD
ATOM     75  C   UNL A   1      50.948  27.011  26.984  1.00  0.00     0.034 A 
ATOM     76  C   UNL A   1      47.239  29.389  32.605  1.00  0.00     0.034 A 
ATOM     77  C   UNL A   1      51.476  27.497  28.259  1.00  0.00     0.049 A 
ATOM     78  C   UNL A   1      48.399  28.446  32.868  1.00  0.00     0.074 A 
ATOM     79  C   UNL A   1      52.030  28.686  28.702  1.00  0.00     0.029 A 
ATOM     80  N   UNL A   1      51.219  26.753  29.395  1.00  0.00    -0.354 N 
ATOM     81  N   UNL A   1      49.420  28.291  32.069  1.00  0.00    -0.248 NA
ATOM     82  C   UNL A   1      48.462  27.540  34.016  1.00  0.00     0.031 C 
ATOM     83  C   UNL A   1      52.068  28.652  30.129  1.00  0.00     0.029 A 
ATOM     84  C   UNL A   1      51.561  27.433  30.545  1.00  0.00     0.049 A 
ATOM     85  H   UNL A   1      50.836  25.847  29.384  1.00  0.00     0.167 HD
ATOM     86  C   UNL A   1      50.207  27.262  32.518  1.00  0.00     0.074 A 
ATOM     87  C   UNL A   1      49.573  26.830  33.750  1.00  0.00     0.031 C 
ATOM     88  C   UNL A   1      51.291  26.802  31.826  1.00  0.00     0.034 A 
BRANCH  75  89
ATOM     89  C   UNL A   1      51.819  26.739  25.783  1.00  0.00     0.023 A 
ATOM     90  C   UNL A   1      51.563  27.435  24.584  1.00  0.00     0.031 A 
ATOM     91  C   UNL A   1      52.881  25.816  25.731  1.00  0.00     0.131 A 
ATOM     92  C   UNL A   1      52.261  27.138  23.400  1.00  0.00     0.055 A 
ATOM     93  C   UNL A   1      53.531  25.472  24.539  1.00  0.00     0.041 A 
ATOM     94  F   UNL A   1      53.378  25.250  26.839  1.00  0.00    -0.206 F 
ATOM     95  C   UNL A   1      53.215  26.128  23.360  1.00  0.00     0.022 A 
BRANCH  92  96
ATOM     96  S   UNL A   1      51.912  28.111  21.910  1.00  0.00     0.124 S 
ATOM     97  O   UNL A   1      50.978  27.253  21.188  1.00  0.00    -0.237 OA
ATOM     98  O   UNL A   1      51.360  29.341  22.467  1.00  0.00    -0.237 OA
ATOM     99  O   UNL A   1      53.227  28.256  21.284  1.00  0.00    -0.744 OA
ENDBRANCH  92  96
ENDBRANCH  75  89
BRANCH  76 100
ATOM    100  C   UNL A   1      45.805  29.163  32.970  1.00  0.00     0.023 A 
ATOM    101  C   UNL A   1      45.111  30.271  33.509  1.00  0.00     0.031 A 
ATOM    102  C   UNL A   1      45.048  28.122  32.417  1.00  0.00     0.131 A 
ATOM    103  C   UNL A   1      43.735  30.418  33.283  1.00  0.00     0.055 A 
ATOM    104  C   UNL A   1      43.656  28.227  32.292  1.00  0.00     0.041 A 
ATOM    105  F   UNL A   1      45.645  27.055  31.866  1.00  0.00    -0.206 F 
ATOM    106  C   UNL A   1      43.002  29.401  32.672  1.00  0.00     0.022 A 
BRANCH 103 107
ATOM    107  S   UNL A   1      42.998  32.072  33.485  1.00  0.00     0.124 S 
ATOM    108  O   UNL A   1      42.149  32.174  32.304  1.00  0.00    -0.237 OA
ATOM    109  O   UNL A   1      42.299  31.963  34.765  1.00  0.00    -0.237 OA
ATOM    110  O   UNL A   1      44.157  32.963  33.510  1.00  0.00    -0.744 OA
ENDBRANCH 103 107
ENDBRANCH  76 100
BRANCH  88 111
ATOM    111  C   UNL A   1      52.166  25.675  32.308  1.00  0.00     0.023 A 
ATOM    112  C   UNL A   1      51.643  24.405  32.598  1.00  0.00     0.031 A 
ATOM    113  C   UNL A   1      53.541  25.862  32.573  1.00  0.00     0.131 A 
ATOM    114  C   UNL A   1      52.480  23.376  33.065  1.00  0.00     0.055 A 
ATOM    115  C   UNL A   1      54.350  24.865  33.122  1.00  0.00     0.041 A 
ATOM    116  F   UNL A   1      54.170  27.006  32.267  1.00  0.00    -0.206 F 
ATOM    117  C   UNL A   1      53.823  23.605  33.361  1.00  0.00     0.022 A 
BRANCH 114 118
ATOM    118  S   UNL A   1      51.801  21.702  33.196  1.00  0.00     0.124 S 
ATOM    119  O   UNL A   1      52.322  21.245  34.479  1.00  0.00    -0.237 OA
ATOM    120  O   UNL A   1      50.364  21.962  33.150  1.00  0.00    -0.237 OA
ATOM    121  O   UNL A   1      52.342  21.016  32.024  1.00  0.00    -0.744 OA
ENDBRANCH 114 118
ENDBRANCH  88 111
ENDBRANCH  62  63
ENDBRANCH  54  57
ENDBRANCH  52  53
ENDBRANCH  51  52
ENDBRANCH  50  51
ENDBRANCH  49  50
ENDBRANCH  48  49
ENDBRANCH   1  48
TORSDOF 25
ENDMDL
MODEL 3
REMARK VINA RESULT:     -11.6      6.896      9.873
REMARK SMILES Cc1ccc(S(=O)(=O)n2cc(C(=O)C(=O)N[C@@H](Cc3c[nH]c4ccccc34)C(=O)NCC(=O)NCCCCCCNC(=O)c3ccc(-c4c5nc(c(-c6cc(S(=O)(=O)[O-])ccc6F)c6ccc([nH]6)c(-c6cc(S(=O)(=O)[O-])ccc6F)c6nc(c(-c7cc(S(=O)(=O)[O-])ccc7F)c7ccc4[nH]7)C=C6)C=C5)cc3)c3ccccc32)cc1
REMARK SMILES IDX 35 1 34 2 32 3 33 4 31 6 30 7 28 8 29 9 17 11 16 12 14 13
REMARK SMILES IDX 15 14 12 16 13 17 11 18 9 19 10 20 112 21 107 22 111 23
REMARK SMILES IDX 108 24 110 25 109 26 6 27 7 28 8 29 5 30 1 31 2 32 3 33
REMARK SMILES IDX 114 34 4 35 113 36 18 37 19 38 20 39 27 40 21 41 22 42 26 43
REMARK SMILES IDX 23 45 25 46 24 47 36 48 37 49 38 50 39 51 40 52 41 53 42 54
REMARK SMILES IDX 43 56 44 57 45 58 106 59 46 60 105 61 47 62 48 63 49 64
REMARK SMILES IDX 99 65 50 66 104 67 98 68 100 69 51 70 103 71 97 72 96 73
REMARK SMILES IDX 52 75 84 76 64 77 83 78 65 79 68 80 82 81 101 82 66 83 67 84
REMARK SMILES IDX 81 86 102 87 69 88 53 89 54 90 62 91 55 92 61 93 63 94 60 95
REMARK SMILES IDX 56 96 57 97 58 98 59 99 85 100 86 101 94 102 87 103 93 104
REMARK SMILES IDX 95 105 92 106 88 107 89 108 90 109 91 110 70 111 71 112
REMARK SMILES IDX 79 113 72 114 78 115 80 116 77 117 73 118 74 119 75 120
REMARK SMILES IDX 76 121
REMARK H PARENT 34 5 30 10 16 15 21 44 41 55 100 74 68 85
REMARK Flexibility Score: inf
ROOT
ATOM      1  C   UNL A   1      35.662  30.329  28.201  1.00  0.00     0.116 C 
ENDROOT
BRANCH   1   2
ATOM      2  N   UNL A   1      34.642  30.789  27.287  1.00  0.00    -0.355 N 
ATOM      3  C   UNL A   1      33.621  30.062  26.751  1.00  0.00     0.239 C 
ATOM      4  O   UNL A   1      32.752  30.632  26.086  1.00  0.00    -0.273 OA
ATOM      5  H   UNL A   1      34.690  31.735  27.019  1.00  0.00     0.163 HD
BRANCH   3   6
ATOM      6  C   UNL A   1      33.464  28.601  27.166  1.00  0.00     0.216 C 
BRANCH   6   7
ATOM      7  N   UNL A   1      34.016  27.546  26.335  1.00  0.00    -0.345 N 
ATOM      8  C   UNL A   1      33.391  26.737  25.430  1.00  0.00     0.243 C 
ATOM      9  O   UNL A   1      34.095  26.304  24.508  1.00  0.00    -0.273 OA
ATOM     10  H   UNL A   1      34.982  27.391  26.440  1.00  0.00     0.164 HD
BRANCH   8  11
ATOM     11  C   UNL A   1      31.854  26.462  25.406  1.00  0.00     0.176 C 
BRANCH  11  12
ATOM     12  N   UNL A   1      31.294  25.523  26.406  1.00  0.00    -0.337 N 
ATOM     13  C   UNL A   1      30.971  24.171  26.308  1.00  0.00     0.293 C 
ATOM     14  O   UNL A   1      30.277  23.642  27.172  1.00  0.00    -0.265 OA
ATOM     15  H   UNL A   1      31.121  25.922  27.290  1.00  0.00     0.164 HD
BRANCH  13  16
ATOM     16  C   UNL A   1      31.523  23.308  25.166  1.00  0.00     0.252 C 
ATOM     17  O   UNL A   1      30.788  23.212  24.183  1.00  0.00    -0.283 OA
BRANCH  16  18
ATOM     18  C   UNL A   1      32.787  22.541  25.257  1.00  0.00     0.054 A 
ATOM     19  N   UNL A   1      34.872  21.730  25.653  1.00  0.00    -0.240 N 
ATOM     20  C   UNL A   1      34.055  22.856  25.777  1.00  0.00     0.117 A 
ATOM     21  C   UNL A   1      34.077  20.674  25.176  1.00  0.00     0.065 A 
ATOM     22  C   UNL A   1      32.942  21.263  24.631  1.00  0.00     0.012 A 
ATOM     23  C   UNL A   1      34.384  19.317  24.941  1.00  0.00     0.028 A 
ATOM     24  C   UNL A   1      32.203  20.536  23.671  1.00  0.00     0.011 A 
ATOM     25  C   UNL A   1      33.676  18.641  23.951  1.00  0.00     0.002 A 
ATOM     26  C   UNL A   1      32.626  19.259  23.289  1.00  0.00     0.001 A 
BRANCH  19  27
ATOM     27  S   UNL A   1      36.506  21.614  25.059  1.00  0.00     0.268 S 
ATOM     28  O   UNL A   1      36.436  22.335  23.798  1.00  0.00    -0.201 OA
ATOM     29  O   UNL A   1      36.728  20.172  25.086  1.00  0.00    -0.201 OA
BRANCH  27  30
ATOM     30  C   UNL A   1      37.994  22.178  25.803  1.00  0.00     0.088 A 
ATOM     31  C   UNL A   1      41.350  24.562  27.139  1.00  0.00     0.044 C 
ATOM     32  C   UNL A   1      40.191  23.698  26.727  1.00  0.00    -0.051 A 
ATOM     33  C   UNL A   1      38.973  24.325  26.511  1.00  0.00     0.005 A 
ATOM     34  C   UNL A   1      40.292  22.306  26.501  1.00  0.00     0.005 A 
ATOM     35  C   UNL A   1      37.898  23.571  26.071  1.00  0.00     0.022 A 
ATOM     36  C   UNL A   1      39.195  21.533  26.031  1.00  0.00     0.022 A 
ENDBRANCH  27  30
ENDBRANCH  19  27
ENDBRANCH  16  18
ENDBRANCH  13  16
ENDBRANCH  11  12
BRANCH  11  37
ATOM     37  C   UNL A   1      31.021  27.781  25.266  1.00  0.00     0.072 C 
BRANCH  37  38
ATOM     38  C   UNL A   1      30.943  28.428  23.901  1.00  0.00    -0.020 A 
ATOM     39  C   UNL A   1      32.020  28.882  23.157  1.00  0.00     0.087 A 
ATOM     40  C   UNL A   1      29.766  28.766  23.145  1.00  0.00     0.003 A 
ATOM     41  N   UNL A   1      31.543  29.593  22.085  1.00  0.00    -0.361 N 
ATOM     42  C   UNL A   1      30.169  29.624  22.120  1.00  0.00     0.046 A 
ATOM     43  C   UNL A   1      28.383  28.548  23.322  1.00  0.00     0.010 A 
ATOM     44  H   UNL A   1      32.101  30.016  21.394  1.00  0.00     0.166 HD
ATOM     45  C   UNL A   1      29.265  30.377  21.359  1.00  0.00     0.026 A 
ATOM     46  C   UNL A   1      27.467  29.310  22.588  1.00  0.00     0.001 A 
ATOM     47  C   UNL A   1      27.905  30.231  21.642  1.00  0.00     0.002 A 
ENDBRANCH  37  38
ENDBRANCH  11  37
ENDBRANCH   8  11
ENDBRANCH   6   7
ENDBRANCH   3   6
ENDBRANCH   1   2
BRANCH   1  48
ATOM     48  C   UNL A   1      36.932  29.918  27.480  1.00  0.00     0.021 C 
BRANCH  48  49
ATOM     49  C   UNL A   1      37.993  29.291  28.387  1.00  0.00     0.002 C 
BRANCH  49  50
ATOM     50  C   UNL A   1      37.505  28.788  29.755  1.00  0.00     0.002 C 
BRANCH  50  51
ATOM     51  C   UNL A   1      38.593  28.367  30.745  1.00  0.00     0.021 C 
BRANCH  51  52
ATOM     52  C   UNL A   1      38.211  28.540  32.206  1.00  0.00     0.116 C 
BRANCH  52  53
ATOM     53  N   UNL A   1      37.289  29.633  32.468  1.00  0.00    -0.352 N 
ATOM     54  C   UNL A   1      37.519  30.819  33.157  1.00  0.00     0.251 C 
ATOM     55  H   UNL A   1      36.380  29.518  32.108  1.00  0.00     0.163 HD
ATOM     56  O   UNL A   1      36.618  31.583  33.414  1.00  0.00    -0.269 OA
BRANCH  54  57
ATOM     57  C   UNL A   1      38.928  31.192  33.463  1.00  0.00     0.039 A 
ATOM     58  C   UNL A   1      39.518  30.587  34.581  1.00  0.00     0.014 A 
ATOM     59  C   UNL A   1      39.549  32.266  32.836  1.00  0.00     0.014 A 
ATOM     60  C   UNL A   1      40.599  31.207  35.204  1.00  0.00     0.010 A 
ATOM     61  C   UNL A   1      40.548  32.939  33.511  1.00  0.00     0.010 A 
ATOM     62  C   UNL A   1      41.032  32.442  34.726  1.00  0.00    -0.014 A 
BRANCH  62  63
ATOM     63  C   UNL A   1      41.908  33.339  35.472  1.00  0.00     0.031 A 
ATOM     64  C   UNL A   1      41.343  34.365  36.369  1.00  0.00     0.074 A 
ATOM     65  C   UNL A   1      43.247  33.165  35.421  1.00  0.00     0.049 A 
ATOM     66  N   UNL A   1      41.996  35.385  36.808  1.00  0.00    -0.248 NA
ATOM     67  C   UNL A   1      39.956  34.337  36.817  1.00  0.00     0.031 C 
ATOM     68  C   UNL A   1      44.256  33.746  36.303  1.00  0.00     0.029 A 
ATOM     69  N   UNL A   1      43.981  32.619  34.369  1.00  0.00    -0.354 N 
ATOM     70  C   UNL A   1      41.240  35.984  37.787  1.00  0.00     0.074 A 
ATOM     71  C   UNL A   1      39.956  35.324  37.719  1.00  0.00     0.031 C 
ATOM     72  C   UNL A   1      45.428  33.784  35.652  1.00  0.00     0.029 A 
ATOM     73  C   UNL A   1      45.179  33.363  34.287  1.00  0.00     0.049 A 
ATOM     74  H   UNL A   1      43.717  31.862  33.797  1.00  0.00     0.167 HD
ATOM     75  C   UNL A   1      41.822  36.894  38.617  1.00  0.00     0.034 A 
ATOM     76  C   UNL A   1      45.472  34.080  33.161  1.00  0.00     0.034 A 
ATOM     77  C   UNL A   1      43.203  37.180  38.227  1.00  0.00     0.049 A 
ATOM     78  C   UNL A   1      45.582  35.576  33.392  1.00  0.00     0.074 A 
ATOM     79  C   UNL A   1      44.451  36.776  38.672  1.00  0.00     0.029 A 
ATOM     80  N   UNL A   1      43.420  37.818  37.021  1.00  0.00    -0.354 N 
ATOM     81  N   UNL A   1      45.384  36.162  34.542  1.00  0.00    -0.248 NA
ATOM     82  C   UNL A   1      45.846  36.542  32.325  1.00  0.00     0.031 C 
ATOM     83  C   UNL A   1      45.415  37.158  37.690  1.00  0.00     0.029 A 
ATOM     84  C   UNL A   1      44.753  37.813  36.667  1.00  0.00     0.049 A 
ATOM     85  H   UNL A   1      42.707  38.228  36.480  1.00  0.00     0.167 HD
ATOM     86  C   UNL A   1      45.410  37.522  34.378  1.00  0.00     0.074 A 
ATOM     87  C   UNL A   1      45.717  37.714  32.972  1.00  0.00     0.031 C 
ATOM     88  C   UNL A   1      45.129  38.396  35.389  1.00  0.00     0.034 A 
BRANCH  75  89
ATOM     89  C   UNL A   1      41.218  37.375  39.912  1.00  0.00     0.023 A 
ATOM     90  C   UNL A   1      41.146  38.763  40.157  1.00  0.00     0.031 A 
ATOM     91  C   UNL A   1      40.724  36.554  40.943  1.00  0.00     0.131 A 
ATOM     92  C   UNL A   1      40.705  39.268  41.392  1.00  0.00     0.055 A 
ATOM     93  C   UNL A   1      40.347  37.052  42.198  1.00  0.00     0.041 A 
ATOM     94  F   UNL A   1      40.525  35.241  40.765  1.00  0.00    -0.206 F 
ATOM     95  C   UNL A   1      40.347  38.417  42.432  1.00  0.00     0.022 A 
BRANCH  92  96
ATOM     96  S   UNL A   1      40.590  41.064  41.614  1.00  0.00     0.124 S 
ATOM     97  O   UNL A   1      41.049  41.239  42.988  1.00  0.00    -0.237 OA
ATOM     98  O   UNL A   1      41.478  41.561  40.568  1.00  0.00    -0.237 OA
ATOM     99  O   UNL A   1      39.170  41.342  41.397  1.00  0.00    -0.744 OA
ENDBRANCH  92  96
ENDBRANCH  75  89
BRANCH  76 100
ATOM    100  C   UNL A   1      44.971  33.403  31.924  1.00  0.00     0.023 A 
ATOM    101  C   UNL A   1      44.068  34.141  31.125  1.00  0.00     0.031 A 
ATOM    102  C   UNL A   1      45.656  32.338  31.323  1.00  0.00     0.131 A 
ATOM    103  C   UNL A   1      44.042  33.956  29.736  1.00  0.00     0.055 A 
ATOM    104  C   UNL A   1      45.543  32.088  29.949  1.00  0.00     0.041 A 
ATOM    105  F   UNL A   1      46.546  31.614  32.018  1.00  0.00    -0.206 F 
ATOM    106  C   UNL A   1      44.781  32.934  29.141  1.00  0.00     0.022 A 
BRANCH 103 107
ATOM    107  S   UNL A   1      43.313  35.268  28.702  1.00  0.00     0.124 S 
ATOM    108  O   UNL A   1      43.230  34.619  27.399  1.00  0.00    -0.237 OA
ATOM    109  O   UNL A   1      42.037  35.533  29.364  1.00  0.00    -0.237 OA
ATOM    110  O   UNL A   1      44.279  36.361  28.804  1.00  0.00    -0.744 OA
ENDBRANCH 103 107
ENDBRANCH  76 100
BRANCH  88 111
ATOM    111  C   UNL A   1      45.157  39.893  35.225  1.00  0.00     0.023 A 
ATOM    112  C   UNL A   1      44.175  40.574  34.489  1.00  0.00     0.031 A 
ATOM    113  C   UNL A   1      46.217  40.678  35.732  1.00  0.00     0.131 A 
ATOM    114  C   UNL A   1      44.236  41.971  34.336  1.00  0.00     0.055 A 
ATOM    115  C   UNL A   1      46.322  42.051  35.501  1.00  0.00     0.041 A 
ATOM    116  F   UNL A   1      47.173  40.154  36.513  1.00  0.00    -0.206 F 
ATOM    117  C   UNL A   1      45.319  42.710  34.807  1.00  0.00     0.022 A 
BRANCH 114 118
ATOM    118  S   UNL A   1      42.825  42.820  33.582  1.00  0.00     0.124 S 
ATOM    119  O   UNL A   1      43.303  43.101  32.234  1.00  0.00    -0.237 OA
ATOM    120  O   UNL A   1      41.779  41.805  33.688  1.00  0.00    -0.237 OA
ATOM    121  O   UNL A   1      42.633  43.994  34.432  1.00  0.00    -0.744 OA
ENDBRANCH 114 118
ENDBRANCH  88 111
ENDBRANCH  62  63
ENDBRANCH  54  57
ENDBRANCH  52  53
ENDBRANCH  51  52
ENDBRANCH  50  51
ENDBRANCH  49  50
ENDBRANCH  48  49
ENDBRANCH   1  48
TORSDOF 25
ENDMDL
