MODEL 1
REMARK VINA RESULT:     -10.5      0.000      0.000
REMARK SMILES CC[NH2+][C@]1(C(=O)NCCCCCCNC(=O)c2ccc(-c3c4nc(c(-c5cc(S(=O)(=O)[O-])ccc5F)c5ccc([nH]5)c(-c5cc(S(=O)(=O)[O-])ccc5F)c5nc(c(-c6cc(S(=O)(=O)[O-])ccc6F)c6ccc3[nH]6)C=C5)C=C4)cc2)CC[C@@H](Sc2ccc(OC)cc2)C1
REMARK SMILES IDX 10 1 9 2 8 3 7 4 5 5 6 6 4 8 80 9 92 10 81 11 82 12 3 13
REMARK SMILES IDX 2 16 1 17 83 18 84 19 85 20 91 21 86 22 90 23 87 24 88 25
REMARK SMILES IDX 89 26 11 27 12 28 13 29 14 30 15 31 16 33 17 34 18 35 79 36
REMARK SMILES IDX 19 37 78 38 20 39 21 40 22 41 72 42 23 43 77 44 71 45 73 46
REMARK SMILES IDX 24 47 76 48 70 49 69 50 25 52 57 53 37 54 56 55 38 56 41 57
REMARK SMILES IDX 55 58 74 59 39 60 40 61 54 63 75 64 42 65 26 66 27 67 35 68
REMARK SMILES IDX 28 69 34 70 36 71 33 72 29 73 30 74 31 75 32 76 58 77 59 78
REMARK SMILES IDX 67 79 60 80 66 81 68 82 65 83 61 84 62 85 63 86 64 87 43 88
REMARK SMILES IDX 44 89 52 90 45 91 51 92 53 93 50 94 46 95 47 96 48 97 49 98
REMARK H PARENT 7 7 3 14 3 15 14 32 73 51 41 62
REMARK Flexibility Score: inf
ROOT
ATOM      1  C   UNL A   1      34.964  30.398  28.026  1.00  0.00     0.002 C 
ENDROOT
BRANCH   1   2
ATOM      2  C   UNL A   1      33.776  29.915  27.186  1.00  0.00     0.021 C 
BRANCH   2   3
ATOM      3  C   UNL A   1      34.140  28.798  26.212  1.00  0.00     0.116 C 
BRANCH   3   4
ATOM      4  N   UNL A   1      33.994  29.251  24.846  1.00  0.00    -0.351 N 
ATOM      5  C   UNL A   1      33.544  28.630  23.722  1.00  0.00     0.281 C 
ATOM      6  O   UNL A   1      33.616  29.301  22.684  1.00  0.00    -0.268 OA
ATOM      7  H   UNL A   1      34.274  30.185  24.702  1.00  0.00     0.163 HD
BRANCH   5   8
ATOM      8  C   UNL A   1      32.901  27.201  23.726  1.00  0.00     0.176 C 
ATOM      9  C   UNL A   1      33.023  26.686  22.263  1.00  0.00     0.080 C 
ATOM     10  C   UNL A   1      33.656  26.090  24.475  1.00  0.00     0.094 C 
ATOM     11  C   UNL A   1      32.938  25.167  22.316  1.00  0.00     0.022 C 
ATOM     12  C   UNL A   1      33.457  24.790  23.698  1.00  0.00     0.058 C 
BRANCH   8  13
ATOM     13  N   UNL A   1      31.462  27.300  24.088  1.00  0.00    -0.334 N 
ATOM     14  H   UNL A   1      31.214  26.467  24.623  1.00  0.00     0.347 HD
ATOM     15  H   UNL A   1      31.362  28.168  24.615  1.00  0.00     0.347 HD
BRANCH  13  16
ATOM     16  C   UNL A   1      30.542  27.403  22.957  1.00  0.00     0.257 C 
ATOM     17  C   UNL A   1      29.099  27.300  23.430  1.00  0.00     0.071 C 
ENDBRANCH  13  16
ENDBRANCH   8  13
BRANCH  12  18
ATOM     18  S   UNL A   1      34.898  23.646  23.761  1.00  0.00    -0.122 SA
BRANCH  18  19
ATOM     19  C   UNL A   1      34.186  22.042  24.085  1.00  0.00     0.008 A 
ATOM     20  C   UNL A   1      32.857  21.804  23.731  1.00  0.00     0.019 A 
ATOM     21  C   UNL A   1      34.865  21.056  24.805  1.00  0.00     0.019 A 
ATOM     22  C   UNL A   1      32.249  20.580  24.035  1.00  0.00     0.047 A 
ATOM     23  C   UNL A   1      34.273  19.817  25.077  1.00  0.00     0.047 A 
ATOM     24  C   UNL A   1      32.961  19.570  24.684  1.00  0.00     0.118 A 
BRANCH  24  25
ATOM     25  O   UNL A   1      32.262  18.417  24.908  1.00  0.00    -0.497 OA
ATOM     26  C   UNL A   1      32.788  17.232  24.321  1.00  0.00     0.278 C 
ENDBRANCH  24  25
ENDBRANCH  18  19
ENDBRANCH  12  18
ENDBRANCH   5   8
ENDBRANCH   3   4
ENDBRANCH   2   3
ENDBRANCH   1   2
BRANCH   1  27
ATOM     27  C   UNL A   1      35.169  31.917  28.030  1.00  0.00     0.002 C 
BRANCH  27  28
ATOM     28  C   UNL A   1      33.878  32.741  28.002  1.00  0.00     0.021 C 
BRANCH  28  29
ATOM     29  C   UNL A   1      34.099  34.250  27.982  1.00  0.00     0.116 C 
BRANCH  29  30
ATOM     30  N   UNL A   1      33.401  34.905  29.075  1.00  0.00    -0.352 N 
ATOM     31  C   UNL A   1      33.563  34.743  30.428  1.00  0.00     0.251 C 
ATOM     32  H   UNL A   1      32.714  35.557  28.807  1.00  0.00     0.163 HD
ATOM     33  O   UNL A   1      32.715  35.177  31.200  1.00  0.00    -0.269 OA
BRANCH  31  34
ATOM     34  C   UNL A   1      34.752  34.030  30.941  1.00  0.00     0.039 A 
ATOM     35  C   UNL A   1      34.577  32.839  31.649  1.00  0.00     0.014 A 
ATOM     36  C   UNL A   1      36.035  34.545  30.732  1.00  0.00     0.014 A 
ATOM     37  C   UNL A   1      35.695  32.137  32.103  1.00  0.00     0.010 A 
ATOM     38  C   UNL A   1      37.150  33.805  31.120  1.00  0.00     0.010 A 
ATOM     39  C   UNL A   1      36.990  32.597  31.816  1.00  0.00    -0.014 A 
BRANCH  39  40
ATOM     40  C   UNL A   1      38.191  31.833  32.245  1.00  0.00     0.031 A 
ATOM     41  C   UNL A   1      38.866  32.161  33.548  1.00  0.00     0.074 A 
ATOM     42  C   UNL A   1      38.701  30.885  31.434  1.00  0.00     0.049 A 
ATOM     43  N   UNL A   1      39.959  31.659  34.063  1.00  0.00    -0.248 NA
ATOM     44  C   UNL A   1      38.245  33.214  34.366  1.00  0.00     0.031 C 
ATOM     45  C   UNL A   1      38.153  30.505  30.130  1.00  0.00     0.029 A 
ATOM     46  N   UNL A   1      39.797  30.072  31.580  1.00  0.00    -0.354 N 
ATOM     47  C   UNL A   1      40.162  32.340  35.259  1.00  0.00     0.074 A 
ATOM     48  C   UNL A   1      39.115  33.334  35.357  1.00  0.00     0.031 C 
ATOM     49  C   UNL A   1      38.898  29.517  29.610  1.00  0.00     0.029 A 
ATOM     50  C   UNL A   1      40.005  29.228  30.515  1.00  0.00     0.049 A 
ATOM     51  H   UNL A   1      40.380  30.093  32.373  1.00  0.00     0.167 HD
ATOM     52  C   UNL A   1      41.118  32.137  36.199  1.00  0.00     0.034 A 
ATOM     53  C   UNL A   1      40.984  28.330  30.287  1.00  0.00     0.034 A 
ATOM     54  C   UNL A   1      42.151  31.134  36.087  1.00  0.00     0.049 A 
ATOM     55  C   UNL A   1      42.058  28.146  31.331  1.00  0.00     0.074 A 
ATOM     56  C   UNL A   1      43.139  30.808  37.000  1.00  0.00     0.029 A 
ATOM     57  N   UNL A   1      42.336  30.301  34.990  1.00  0.00    -0.354 N 
ATOM     58  N   UNL A   1      42.208  28.764  32.481  1.00  0.00    -0.248 NA
ATOM     59  C   UNL A   1      43.088  27.138  31.050  1.00  0.00     0.031 C 
ATOM     60  C   UNL A   1      43.962  29.834  36.426  1.00  0.00     0.029 A 
ATOM     61  C   UNL A   1      43.441  29.488  35.190  1.00  0.00     0.049 A 
ATOM     62  H   UNL A   1      41.765  30.290  34.188  1.00  0.00     0.167 HD
ATOM     63  C   UNL A   1      43.331  28.194  33.074  1.00  0.00     0.074 A 
ATOM     64  C   UNL A   1      43.808  27.175  32.161  1.00  0.00     0.031 C 
ATOM     65  C   UNL A   1      43.914  28.483  34.265  1.00  0.00     0.034 A 
BRANCH  52  66
ATOM     66  C   UNL A   1      41.102  33.036  37.414  1.00  0.00     0.023 A 
ATOM     67  C   UNL A   1      40.369  32.708  38.567  1.00  0.00     0.031 A 
ATOM     68  C   UNL A   1      41.808  34.252  37.410  1.00  0.00     0.131 A 
ATOM     69  C   UNL A   1      40.292  33.618  39.633  1.00  0.00     0.055 A 
ATOM     70  C   UNL A   1      41.799  35.114  38.509  1.00  0.00     0.041 A 
ATOM     71  F   UNL A   1      42.509  34.633  36.331  1.00  0.00    -0.206 F 
ATOM     72  C   UNL A   1      41.024  34.807  39.624  1.00  0.00     0.022 A 
BRANCH  69  73
ATOM     73  S   UNL A   1      39.103  33.293  40.964  1.00  0.00     0.124 S 
ATOM     74  O   UNL A   1      38.996  31.836  40.913  1.00  0.00    -0.237 OA
ATOM     75  O   UNL A   1      39.778  33.843  42.132  1.00  0.00    -0.237 OA
ATOM     76  O   UNL A   1      37.905  34.013  40.536  1.00  0.00    -0.744 OA
ENDBRANCH  69  73
ENDBRANCH  52  66
BRANCH  53  77
ATOM     77  C   UNL A   1      41.010  27.542  29.021  1.00  0.00     0.023 A 
ATOM     78  C   UNL A   1      41.972  27.795  28.031  1.00  0.00     0.031 A 
ATOM     79  C   UNL A   1      40.045  26.551  28.763  1.00  0.00     0.131 A 
ATOM     80  C   UNL A   1      41.919  27.104  26.809  1.00  0.00     0.055 A 
ATOM     81  C   UNL A   1      40.030  25.827  27.569  1.00  0.00     0.041 A 
ATOM     82  F   UNL A   1      39.104  26.265  29.676  1.00  0.00    -0.206 F 
ATOM     83  C   UNL A   1      40.963  26.113  26.578  1.00  0.00     0.022 A 
BRANCH  80  84
ATOM     84  S   UNL A   1      43.062  27.590  25.487  1.00  0.00     0.124 S 
ATOM     85  O   UNL A   1      43.490  26.293  24.975  1.00  0.00    -0.237 OA
ATOM     86  O   UNL A   1      42.195  28.372  24.611  1.00  0.00    -0.237 OA
ATOM     87  O   UNL A   1      44.088  28.355  26.190  1.00  0.00    -0.744 OA
ENDBRANCH  80  84
ENDBRANCH  53  77
BRANCH  65  88
ATOM     88  C   UNL A   1      45.107  27.649  34.666  1.00  0.00     0.023 A 
ATOM     89  C   UNL A   1      44.960  26.383  35.259  1.00  0.00     0.031 A 
ATOM     90  C   UNL A   1      46.410  28.137  34.463  1.00  0.00     0.131 A 
ATOM     91  C   UNL A   1      46.095  25.673  35.680  1.00  0.00     0.055 A 
ATOM     92  C   UNL A   1      47.537  27.398  34.824  1.00  0.00     0.041 A 
ATOM     93  F   UNL A   1      46.610  29.342  33.905  1.00  0.00    -0.206 F 
ATOM     94  C   UNL A   1      47.383  26.164  35.450  1.00  0.00     0.022 A 
BRANCH  91  95
ATOM     95  S   UNL A   1      45.863  24.142  36.626  1.00  0.00     0.124 S 
ATOM     96  O   UNL A   1      46.877  23.269  36.043  1.00  0.00    -0.237 OA
ATOM     97  O   UNL A   1      46.110  24.581  37.996  1.00  0.00    -0.237 OA
ATOM     98  O   UNL A   1      44.481  23.767  36.336  1.00  0.00    -0.744 OA
ENDBRANCH  91  95
ENDBRANCH  65  88
ENDBRANCH  39  40
ENDBRANCH  31  34
ENDBRANCH  29  30
ENDBRANCH  28  29
ENDBRANCH  27  28
ENDBRANCH   1  27
TORSDOF 21
ENDMDL
MODEL 2
REMARK VINA RESULT:     -10.4      1.799      7.892
REMARK SMILES CC[NH2+][C@]1(C(=O)NCCCCCCNC(=O)c2ccc(-c3c4nc(c(-c5cc(S(=O)(=O)[O-])ccc5F)c5ccc([nH]5)c(-c5cc(S(=O)(=O)[O-])ccc5F)c5nc(c(-c6cc(S(=O)(=O)[O-])ccc6F)c6ccc3[nH]6)C=C5)C=C4)cc2)CC[C@@H](Sc2ccc(OC)cc2)C1
REMARK SMILES IDX 10 1 9 2 8 3 7 4 5 5 6 6 4 8 80 9 92 10 81 11 82 12 3 13
REMARK SMILES IDX 2 16 1 17 83 18 84 19 85 20 91 21 86 22 90 23 87 24 88 25
REMARK SMILES IDX 89 26 11 27 12 28 13 29 14 30 15 31 16 33 17 34 18 35 79 36
REMARK SMILES IDX 19 37 78 38 20 39 21 40 22 41 72 42 23 43 77 44 71 45 73 46
REMARK SMILES IDX 24 47 76 48 70 49 69 50 25 52 57 53 37 54 56 55 38 56 41 57
REMARK SMILES IDX 55 58 74 59 39 60 40 61 54 63 75 64 42 65 26 66 27 67 35 68
REMARK SMILES IDX 28 69 34 70 36 71 33 72 29 73 30 74 31 75 32 76 58 77 59 78
REMARK SMILES IDX 67 79 60 80 66 81 68 82 65 83 61 84 62 85 63 86 64 87 43 88
REMARK SMILES IDX 44 89 52 90 45 91 51 92 53 93 50 94 46 95 47 96 48 97 49 98
REMARK H PARENT 7 7 3 14 3 15 14 32 73 51 41 62
REMARK Flexibility Score: inf
ROOT
ATOM      1  C   UNL A   1      33.895  29.650  27.351  1.00  0.00     0.002 C 
ENDROOT
BRANCH   1   2
ATOM      2  C   UNL A   1      33.407  29.654  25.899  1.00  0.00     0.021 C 
BRANCH   2   3
ATOM      3  C   UNL A   1      33.544  28.298  25.211  1.00  0.00     0.116 C 
BRANCH   3   4
ATOM      4  N   UNL A   1      34.051  28.462  23.867  1.00  0.00    -0.351 N 
ATOM      5  C   UNL A   1      33.704  27.886  22.684  1.00  0.00     0.281 C 
ATOM      6  O   UNL A   1      34.401  28.210  21.714  1.00  0.00    -0.268 OA
ATOM      7  H   UNL A   1      34.787  29.113  23.793  1.00  0.00     0.163 HD
BRANCH   5   8
ATOM      8  C   UNL A   1      32.465  26.940  22.517  1.00  0.00     0.176 C 
ATOM      9  C   UNL A   1      32.907  25.852  21.498  1.00  0.00     0.080 C 
ATOM     10  C   UNL A   1      32.085  26.058  23.718  1.00  0.00     0.094 C 
ATOM     11  C   UNL A   1      32.002  24.647  21.711  1.00  0.00     0.022 C 
ATOM     12  C   UNL A   1      31.573  24.727  23.171  1.00  0.00     0.058 C 
BRANCH   8  13
ATOM     13  N   UNL A   1      31.325  27.705  21.946  1.00  0.00    -0.334 N 
ATOM     14  H   UNL A   1      31.692  28.572  21.554  1.00  0.00     0.347 HD
ATOM     15  H   UNL A   1      30.894  27.094  21.252  1.00  0.00     0.347 HD
BRANCH  13  16
ATOM     16  C   UNL A   1      30.268  28.049  22.895  1.00  0.00     0.257 C 
ATOM     17  C   UNL A   1      30.301  29.537  23.217  1.00  0.00     0.071 C 
ENDBRANCH  13  16
ENDBRANCH   8  13
BRANCH  12  18
ATOM     18  S   UNL A   1      31.967  23.275  24.233  1.00  0.00    -0.122 SA
BRANCH  18  19
ATOM     19  C   UNL A   1      33.727  23.380  24.504  1.00  0.00     0.008 A 
ATOM     20  C   UNL A   1      34.200  23.830  25.738  1.00  0.00     0.019 A 
ATOM     21  C   UNL A   1      34.654  23.158  23.482  1.00  0.00     0.019 A 
ATOM     22  C   UNL A   1      35.573  23.990  25.958  1.00  0.00     0.047 A 
ATOM     23  C   UNL A   1      36.030  23.279  23.710  1.00  0.00     0.047 A 
ATOM     24  C   UNL A   1      36.497  23.689  24.955  1.00  0.00     0.118 A 
BRANCH  24  25
ATOM     25  O   UNL A   1      37.808  23.868  25.300  1.00  0.00    -0.497 OA
ATOM     26  C   UNL A   1      38.457  22.767  25.925  1.00  0.00     0.278 C 
ENDBRANCH  24  25
ENDBRANCH  18  19
ENDBRANCH  12  18
ENDBRANCH   5   8
ENDBRANCH   3   4
ENDBRANCH   2   3
ENDBRANCH   1   2
BRANCH   1  27
ATOM     27  C   UNL A   1      34.224  31.035  27.919  1.00  0.00     0.002 C 
BRANCH  27  28
ATOM     28  C   UNL A   1      33.634  32.210  27.134  1.00  0.00     0.021 C 
BRANCH  28  29
ATOM     29  C   UNL A   1      32.413  32.849  27.787  1.00  0.00     0.116 C 
BRANCH  29  30
ATOM     30  N   UNL A   1      32.582  34.284  27.943  1.00  0.00    -0.352 N 
ATOM     31  C   UNL A   1      33.446  34.972  28.759  1.00  0.00     0.251 C 
ATOM     32  H   UNL A   1      31.994  34.842  27.387  1.00  0.00     0.163 HD
ATOM     33  O   UNL A   1      33.274  36.169  28.957  1.00  0.00    -0.269 OA
BRANCH  31  34
ATOM     34  C   UNL A   1      34.567  34.256  29.404  1.00  0.00     0.039 A 
ATOM     35  C   UNL A   1      35.851  34.379  28.868  1.00  0.00     0.014 A 
ATOM     36  C   UNL A   1      34.347  33.455  30.529  1.00  0.00     0.014 A 
ATOM     37  C   UNL A   1      36.924  33.741  29.492  1.00  0.00     0.010 A 
ATOM     38  C   UNL A   1      35.428  32.881  31.193  1.00  0.00     0.010 A 
ATOM     39  C   UNL A   1      36.727  33.012  30.677  1.00  0.00    -0.014 A 
BRANCH  39  40
ATOM     40  C   UNL A   1      37.866  32.371  31.385  1.00  0.00     0.031 A 
ATOM     41  C   UNL A   1      38.582  31.206  30.758  1.00  0.00     0.074 A 
ATOM     42  C   UNL A   1      38.215  32.805  32.612  1.00  0.00     0.049 A 
ATOM     43  N   UNL A   1      39.549  30.471  31.244  1.00  0.00    -0.248 NA
ATOM     44  C   UNL A   1      38.129  30.796  29.420  1.00  0.00     0.031 C 
ATOM     45  C   UNL A   1      37.571  33.903  33.335  1.00  0.00     0.029 A 
ATOM     46  N   UNL A   1      39.193  32.373  33.473  1.00  0.00    -0.354 N 
ATOM     47  C   UNL A   1      39.814  29.507  30.277  1.00  0.00     0.074 A 
ATOM     48  C   UNL A   1      38.860  29.712  29.208  1.00  0.00     0.031 C 
ATOM     49  C   UNL A   1      38.187  34.075  34.515  1.00  0.00     0.029 A 
ATOM     50  C   UNL A   1      39.235  33.070  34.657  1.00  0.00     0.049 A 
ATOM     51  H   UNL A   1      39.807  31.633  33.261  1.00  0.00     0.167 HD
ATOM     52  C   UNL A   1      40.780  28.554  30.271  1.00  0.00     0.034 A 
ATOM     53  C   UNL A   1      40.020  32.910  35.741  1.00  0.00     0.034 A 
ATOM     54  C   UNL A   1      41.728  28.369  31.344  1.00  0.00     0.049 A 
ATOM     55  C   UNL A   1      41.064  31.820  35.727  1.00  0.00     0.074 A 
ATOM     56  C   UNL A   1      42.777  27.471  31.422  1.00  0.00     0.029 A 
ATOM     57  N   UNL A   1      41.735  29.089  32.533  1.00  0.00    -0.354 N 
ATOM     58  N   UNL A   1      41.335  30.948  34.783  1.00  0.00    -0.248 NA
ATOM     59  C   UNL A   1      41.912  31.702  36.919  1.00  0.00     0.031 C 
ATOM     60  C   UNL A   1      43.370  27.596  32.683  1.00  0.00     0.029 A 
ATOM     61  C   UNL A   1      42.748  28.630  33.362  1.00  0.00     0.049 A 
ATOM     62  H   UNL A   1      41.112  29.818  32.755  1.00  0.00     0.167 HD
ATOM     63  C   UNL A   1      42.408  30.198  35.257  1.00  0.00     0.074 A 
ATOM     64  C   UNL A   1      42.742  30.733  36.562  1.00  0.00     0.031 C 
ATOM     65  C   UNL A   1      43.062  29.165  34.667  1.00  0.00     0.034 A 
BRANCH  52  66
ATOM     66  C   UNL A   1      40.837  27.628  29.078  1.00  0.00     0.023 A 
ATOM     67  C   UNL A   1      41.787  27.796  28.056  1.00  0.00     0.031 A 
ATOM     68  C   UNL A   1      39.911  26.578  28.946  1.00  0.00     0.131 A 
ATOM     69  C   UNL A   1      41.741  26.983  26.913  1.00  0.00     0.055 A 
ATOM     70  C   UNL A   1      39.926  25.716  27.847  1.00  0.00     0.041 A 
ATOM     71  F   UNL A   1      38.965  26.379  29.877  1.00  0.00    -0.206 F 
ATOM     72  C   UNL A   1      40.834  25.926  26.814  1.00  0.00     0.022 A 
BRANCH  69  73
ATOM     73  S   UNL A   1      42.782  27.423  25.496  1.00  0.00     0.124 S 
ATOM     74  O   UNL A   1      42.015  28.511  24.893  1.00  0.00    -0.237 OA
ATOM     75  O   UNL A   1      44.038  27.804  26.132  1.00  0.00    -0.237 OA
ATOM     76  O   UNL A   1      42.828  26.192  24.708  1.00  0.00    -0.744 OA
ENDBRANCH  69  73
ENDBRANCH  52  66
BRANCH  53  77
ATOM     77  C   UNL A   1      39.850  33.787  36.935  1.00  0.00     0.023 A 
ATOM     78  C   UNL A   1      39.202  33.319  38.090  1.00  0.00     0.031 A 
ATOM     79  C   UNL A   1      40.296  35.121  36.925  1.00  0.00     0.131 A 
ATOM     80  C   UNL A   1      38.972  34.192  39.166  1.00  0.00     0.055 A 
ATOM     81  C   UNL A   1      40.115  35.968  38.020  1.00  0.00     0.041 A 
ATOM     82  F   UNL A   1      40.925  35.619  35.850  1.00  0.00    -0.206 F 
ATOM     83  C   UNL A   1      39.437  35.508  39.144  1.00  0.00     0.022 A 
BRANCH  80  84
ATOM     84  S   UNL A   1      37.971  33.605  40.560  1.00  0.00     0.124 S 
ATOM     85  O   UNL A   1      38.816  32.553  41.110  1.00  0.00    -0.237 OA
ATOM     86  O   UNL A   1      37.841  34.814  41.368  1.00  0.00    -0.237 OA
ATOM     87  O   UNL A   1      36.738  33.149  39.923  1.00  0.00    -0.744 OA
ENDBRANCH  80  84
ENDBRANCH  53  77
BRANCH  65  88
ATOM     88  C   UNL A   1      44.235  28.578  35.415  1.00  0.00     0.023 A 
ATOM     89  C   UNL A   1      44.073  27.545  36.354  1.00  0.00     0.031 A 
ATOM     90  C   UNL A   1      45.533  29.070  35.191  1.00  0.00     0.131 A 
ATOM     91  C   UNL A   1      45.181  27.078  37.078  1.00  0.00     0.055 A 
ATOM     92  C   UNL A   1      46.641  28.557  35.865  1.00  0.00     0.041 A 
ATOM     93  F   UNL A   1      45.747  30.059  34.308  1.00  0.00    -0.206 F 
ATOM     94  C   UNL A   1      46.467  27.564  36.826  1.00  0.00     0.022 A 
BRANCH  91  95
ATOM     95  S   UNL A   1      44.906  25.895  38.425  1.00  0.00     0.124 S 
ATOM     96  O   UNL A   1      44.571  24.677  37.695  1.00  0.00    -0.237 OA
ATOM     97  O   UNL A   1      46.196  25.896  39.109  1.00  0.00    -0.237 OA
ATOM     98  O   UNL A   1      43.805  26.488  39.182  1.00  0.00    -0.744 OA
ENDBRANCH  91  95
ENDBRANCH  65  88
ENDBRANCH  39  40
ENDBRANCH  31  34
ENDBRANCH  29  30
ENDBRANCH  28  29
ENDBRANCH  27  28
ENDBRANCH   1  27
TORSDOF 21
ENDMDL
MODEL 3
REMARK VINA RESULT:     -10.2      5.713     11.495
REMARK SMILES CC[NH2+][C@]1(C(=O)NCCCCCCNC(=O)c2ccc(-c3c4nc(c(-c5cc(S(=O)(=O)[O-])ccc5F)c5ccc([nH]5)c(-c5cc(S(=O)(=O)[O-])ccc5F)c5nc(c(-c6cc(S(=O)(=O)[O-])ccc6F)c6ccc3[nH]6)C=C5)C=C4)cc2)CC[C@@H](Sc2ccc(OC)cc2)C1
REMARK SMILES IDX 10 1 9 2 8 3 7 4 5 5 6 6 4 8 80 9 92 10 81 11 82 12 3 13
REMARK SMILES IDX 2 16 1 17 83 18 84 19 85 20 91 21 86 22 90 23 87 24 88 25
REMARK SMILES IDX 89 26 11 27 12 28 13 29 14 30 15 31 16 33 17 34 18 35 79 36
REMARK SMILES IDX 19 37 78 38 20 39 21 40 22 41 72 42 23 43 77 44 71 45 73 46
REMARK SMILES IDX 24 47 76 48 70 49 69 50 25 52 57 53 37 54 56 55 38 56 41 57
REMARK SMILES IDX 55 58 74 59 39 60 40 61 54 63 75 64 42 65 26 66 27 67 35 68
REMARK SMILES IDX 28 69 34 70 36 71 33 72 29 73 30 74 31 75 32 76 58 77 59 78
REMARK SMILES IDX 67 79 60 80 66 81 68 82 65 83 61 84 62 85 63 86 64 87 43 88
REMARK SMILES IDX 44 89 52 90 45 91 51 92 53 93 50 94 46 95 47 96 48 97 49 98
REMARK H PARENT 7 7 3 14 3 15 14 32 73 51 41 62
REMARK Flexibility Score: inf
ROOT
ATOM      1  C   UNL A   1      37.414  22.258  25.657  1.00  0.00     0.002 C 
ENDROOT
BRANCH   1   2
ATOM      2  C   UNL A   1      36.941  23.716  25.644  1.00  0.00     0.021 C 
BRANCH   2   3
ATOM      3  C   UNL A   1      35.430  23.862  25.805  1.00  0.00     0.116 C 
BRANCH   3   4
ATOM      4  N   UNL A   1      34.924  22.881  26.739  1.00  0.00    -0.351 N 
ATOM      5  C   UNL A   1      33.794  22.123  26.743  1.00  0.00     0.281 C 
ATOM      6  O   UNL A   1      33.633  21.419  27.749  1.00  0.00    -0.268 OA
ATOM      7  H   UNL A   1      35.506  22.733  27.520  1.00  0.00     0.163 HD
BRANCH   5   8
ATOM      8  C   UNL A   1      32.792  22.065  25.539  1.00  0.00     0.176 C 
ATOM      9  C   UNL A   1      31.743  23.179  25.817  1.00  0.00     0.080 C 
ATOM     10  C   UNL A   1      33.314  22.512  24.164  1.00  0.00     0.094 C 
ATOM     11  C   UNL A   1      31.106  23.535  24.481  1.00  0.00     0.022 C 
ATOM     12  C   UNL A   1      32.167  23.211  23.437  1.00  0.00     0.058 C 
BRANCH   8  13
ATOM     13  N   UNL A   1      32.105  20.746  25.522  1.00  0.00    -0.334 N 
ATOM     14  H   UNL A   1      31.986  20.440  26.489  1.00  0.00     0.347 HD
ATOM     15  H   UNL A   1      31.224  20.891  25.030  1.00  0.00     0.347 HD
BRANCH  13  16
ATOM     16  C   UNL A   1      32.806  19.688  24.798  1.00  0.00     0.257 C 
ATOM     17  C   UNL A   1      32.754  18.380  25.575  1.00  0.00     0.071 C 
ENDBRANCH  13  16
ENDBRANCH   8  13
BRANCH  12  18
ATOM     18  S   UNL A   1      32.699  24.589  22.339  1.00  0.00    -0.122 SA
BRANCH  18  19
ATOM     19  C   UNL A   1      32.442  26.064  23.309  1.00  0.00     0.008 A 
ATOM     20  C   UNL A   1      33.366  26.395  24.301  1.00  0.00     0.019 A 
ATOM     21  C   UNL A   1      31.278  26.830  23.208  1.00  0.00     0.019 A 
ATOM     22  C   UNL A   1      33.156  27.507  25.125  1.00  0.00     0.047 A 
ATOM     23  C   UNL A   1      31.082  27.964  24.004  1.00  0.00     0.047 A 
ATOM     24  C   UNL A   1      32.028  28.313  24.964  1.00  0.00     0.118 A 
BRANCH  24  25
ATOM     25  O   UNL A   1      31.946  29.378  25.818  1.00  0.00    -0.497 OA
ATOM     26  C   UNL A   1      31.861  29.076  27.205  1.00  0.00     0.278 C 
ENDBRANCH  24  25
ENDBRANCH  18  19
ENDBRANCH  12  18
ENDBRANCH   5   8
ENDBRANCH   3   4
ENDBRANCH   2   3
ENDBRANCH   1   2
BRANCH   1  27
ATOM     27  C   UNL A   1      38.891  22.068  26.021  1.00  0.00     0.002 C 
BRANCH  27  28
ATOM     28  C   UNL A   1      39.453  20.675  25.724  1.00  0.00     0.021 C 
BRANCH  28  29
ATOM     29  C   UNL A   1      40.449  20.168  26.763  1.00  0.00     0.116 C 
BRANCH  29  30
ATOM     30  N   UNL A   1      41.564  19.475  26.139  1.00  0.00    -0.352 N 
ATOM     31  C   UNL A   1      42.732  19.992  25.635  1.00  0.00     0.251 C 
ATOM     32  H   UNL A   1      41.468  18.499  26.066  1.00  0.00     0.163 HD
ATOM     33  O   UNL A   1      43.441  19.301  24.912  1.00  0.00    -0.269 OA
BRANCH  31  34
ATOM     34  C   UNL A   1      43.115  21.383  25.957  1.00  0.00     0.039 A 
ATOM     35  C   UNL A   1      43.050  22.354  24.956  1.00  0.00     0.014 A 
ATOM     36  C   UNL A   1      43.548  21.723  27.243  1.00  0.00     0.014 A 
ATOM     37  C   UNL A   1      43.369  23.679  25.259  1.00  0.00     0.010 A 
ATOM     38  C   UNL A   1      43.794  23.055  27.561  1.00  0.00     0.010 A 
ATOM     39  C   UNL A   1      43.714  24.046  26.570  1.00  0.00    -0.014 A 
BRANCH  39  40
ATOM     40  C   UNL A   1      44.005  25.461  26.921  1.00  0.00     0.031 A 
ATOM     41  C   UNL A   1      45.402  26.001  26.778  1.00  0.00     0.074 A 
ATOM     42  C   UNL A   1      43.023  26.238  27.420  1.00  0.00     0.049 A 
ATOM     43  N   UNL A   1      45.869  27.181  27.095  1.00  0.00    -0.248 NA
ATOM     44  C   UNL A   1      46.411  25.081  26.232  1.00  0.00     0.031 C 
ATOM     45  C   UNL A   1      41.638  25.813  27.638  1.00  0.00     0.029 A 
ATOM     46  N   UNL A   1      43.037  27.544  27.841  1.00  0.00    -0.354 N 
ATOM     47  C   UNL A   1      47.228  27.142  26.797  1.00  0.00     0.074 A 
ATOM     48  C   UNL A   1      47.517  25.801  26.336  1.00  0.00     0.031 C 
ATOM     49  C   UNL A   1      40.933  26.846  28.126  1.00  0.00     0.029 A 
ATOM     50  C   UNL A   1      41.821  27.989  28.304  1.00  0.00     0.049 A 
ATOM     51  H   UNL A   1      43.843  28.109  27.814  1.00  0.00     0.167 HD
ATOM     52  C   UNL A   1      48.142  28.141  26.877  1.00  0.00     0.034 A 
ATOM     53  C   UNL A   1      41.465  29.180  28.825  1.00  0.00     0.034 A 
ATOM     54  C   UNL A   1      47.832  29.475  27.332  1.00  0.00     0.049 A 
ATOM     55  C   UNL A   1      42.508  30.264  28.938  1.00  0.00     0.074 A 
ATOM     56  C   UNL A   1      48.667  30.576  27.406  1.00  0.00     0.029 A 
ATOM     57  N   UNL A   1      46.591  29.888  27.801  1.00  0.00    -0.354 N 
ATOM     58  N   UNL A   1      43.778  30.228  28.605  1.00  0.00    -0.248 NA
ATOM     59  C   UNL A   1      42.066  31.552  29.488  1.00  0.00     0.031 C 
ATOM     60  C   UNL A   1      47.954  31.630  27.987  1.00  0.00     0.029 A 
ATOM     61  C   UNL A   1      46.649  31.216  28.198  1.00  0.00     0.049 A 
ATOM     62  H   UNL A   1      45.787  29.321  27.845  1.00  0.00     0.167 HD
ATOM     63  C   UNL A   1      44.277  31.499  28.875  1.00  0.00     0.074 A 
ATOM     64  C   UNL A   1      43.167  32.280  29.383  1.00  0.00     0.031 C 
ATOM     65  C   UNL A   1      45.537  31.980  28.715  1.00  0.00     0.034 A 
BRANCH  52  66
ATOM     66  C   UNL A   1      49.566  27.814  26.487  1.00  0.00     0.023 A 
ATOM     67  C   UNL A   1      50.020  27.950  25.164  1.00  0.00     0.031 A 
ATOM     68  C   UNL A   1      50.475  27.334  27.446  1.00  0.00     0.131 A 
ATOM     69  C   UNL A   1      51.316  27.535  24.819  1.00  0.00     0.055 A 
ATOM     70  C   UNL A   1      51.791  27.005  27.114  1.00  0.00     0.041 A 
ATOM     71  F   UNL A   1      50.096  27.161  28.722  1.00  0.00    -0.206 F 
ATOM     72  C   UNL A   1      52.214  27.090  25.791  1.00  0.00     0.022 A 
BRANCH  69  73
ATOM     73  S   UNL A   1      51.757  27.445  23.063  1.00  0.00     0.124 S 
ATOM     74  O   UNL A   1      52.189  28.815  22.798  1.00  0.00    -0.237 OA
ATOM     75  O   UNL A   1      52.806  26.432  23.052  1.00  0.00    -0.237 OA
ATOM     76  O   UNL A   1      50.506  27.057  22.414  1.00  0.00    -0.744 OA
ENDBRANCH  69  73
ENDBRANCH  52  66
BRANCH  53  77
ATOM     77  C   UNL A   1      40.068  29.415  29.292  1.00  0.00     0.023 A 
ATOM     78  C   UNL A   1      39.757  29.439  30.661  1.00  0.00     0.031 A 
ATOM     79  C   UNL A   1      39.014  29.576  28.375  1.00  0.00     0.131 A 
ATOM     80  C   UNL A   1      38.421  29.568  31.074  1.00  0.00     0.055 A 
ATOM     81  C   UNL A   1      37.694  29.761  28.792  1.00  0.00     0.041 A 
ATOM     82  F   UNL A   1      39.254  29.565  27.055  1.00  0.00    -0.206 F 
ATOM     83  C   UNL A   1      37.390  29.744  30.149  1.00  0.00     0.022 A 
BRANCH  80  84
ATOM     84  S   UNL A   1      38.039  29.408  32.840  1.00  0.00     0.124 S 
ATOM     85  O   UNL A   1      37.003  30.420  33.012  1.00  0.00    -0.237 OA
ATOM     86  O   UNL A   1      37.601  28.019  32.929  1.00  0.00    -0.237 OA
ATOM     87  O   UNL A   1      39.314  29.701  33.490  1.00  0.00    -0.744 OA
ENDBRANCH  80  84
ENDBRANCH  53  77
BRANCH  65  88
ATOM     88  C   UNL A   1      45.765  33.434  29.051  1.00  0.00     0.023 A 
ATOM     89  C   UNL A   1      45.586  34.451  28.098  1.00  0.00     0.031 A 
ATOM     90  C   UNL A   1      46.179  33.803  30.343  1.00  0.00     0.131 A 
ATOM     91  C   UNL A   1      45.878  35.783  28.434  1.00  0.00     0.055 A 
ATOM     92  C   UNL A   1      46.404  35.136  30.691  1.00  0.00     0.041 A 
ATOM     93  F   UNL A   1      46.370  32.873  31.292  1.00  0.00    -0.206 F 
ATOM     94  C   UNL A   1      46.268  36.133  29.729  1.00  0.00     0.022 A 
BRANCH  91  95
ATOM     95  S   UNL A   1      45.837  37.040  27.127  1.00  0.00     0.124 S 
ATOM     96  O   UNL A   1      46.491  36.348  26.021  1.00  0.00    -0.237 OA
ATOM     97  O   UNL A   1      44.406  37.282  26.972  1.00  0.00    -0.237 OA
ATOM     98  O   UNL A   1      46.595  38.152  27.697  1.00  0.00    -0.744 OA
ENDBRANCH  91  95
ENDBRANCH  65  88
ENDBRANCH  39  40
ENDBRANCH  31  34
ENDBRANCH  29  30
ENDBRANCH  28  29
ENDBRANCH  27  28
ENDBRANCH   1  27
TORSDOF 21
ENDMDL
