MODEL 1
REMARK VINA RESULT:     -10.9      0.000      0.000
REMARK SMILES CCOc1ccc(-c2csc3ncn([C@H](C)C(=O)NCCCCCCNC(=O)c4ccc(-c5c6nc(c(-c7cc(S(=O)(=O)[O-])ccc7F)c7ccc([nH]7)c(-c7cc(S(=O)(=O)[O-])ccc7F)c7nc(c(-c8cc(S(=O)(=O)[O-])ccc8F)c8ccc5[nH]8)C=C7)C=C6)cc4)c(=O)c23)cc1
REMARK SMILES IDX 22 1 21 2 20 3 19 4 17 5 18 6 15 8 16 9 14 10 8 11 9 12
REMARK SMILES IDX 94 13 10 14 11 15 92 16 12 17 93 18 13 19 7 20 4 21 5 22
REMARK SMILES IDX 96 23 6 24 95 25 3 26 2 27 1 28 23 29 24 30 25 31 26 32
REMARK SMILES IDX 27 33 28 35 29 36 30 37 91 38 31 39 90 40 32 41 33 42 34 43
REMARK SMILES IDX 84 44 35 45 89 46 83 47 85 48 36 49 88 50 82 51 81 52 37 54
REMARK SMILES IDX 69 55 49 56 68 57 50 58 53 59 67 60 86 61 51 62 52 63 66 65
REMARK SMILES IDX 87 66 54 67 38 68 39 69 47 70 40 71 46 72 48 73 45 74 41 75
REMARK SMILES IDX 42 76 43 77 44 78 70 79 71 80 79 81 72 82 78 83 80 84 77 85
REMARK SMILES IDX 73 86 74 87 75 88 76 89 55 90 56 91 64 92 57 93 63 94 65 95
REMARK SMILES IDX 62 96 58 97 59 98 60 99 61 100
REMARK H PARENT 19 7 26 34 85 53 53 64
REMARK Flexibility Score: inf
ROOT
ATOM      1  C   UNL A   1      35.284  33.612  27.771  1.00  0.00     0.002 C 
ENDROOT
BRANCH   1   2
ATOM      2  C   UNL A   1      34.063  33.967  28.618  1.00  0.00     0.021 C 
BRANCH   2   3
ATOM      3  C   UNL A   1      34.371  34.649  29.944  1.00  0.00     0.116 C 
BRANCH   3   4
ATOM      4  N   UNL A   1      33.677  34.058  31.066  1.00  0.00    -0.354 N 
ATOM      5  C   UNL A   1      33.832  34.240  32.408  1.00  0.00     0.242 C 
ATOM      6  O   UNL A   1      33.107  33.563  33.144  1.00  0.00    -0.273 OA
ATOM      7  H   UNL A   1      32.974  33.416  30.819  1.00  0.00     0.163 HD
BRANCH   5   8
ATOM      8  C   UNL A   1      34.878  35.209  33.011  1.00  0.00     0.177 C 
ATOM      9  C   UNL A   1      34.239  36.477  33.581  1.00  0.00     0.042 C 
BRANCH   8  10
ATOM     10  N   UNL A   1      35.836  34.507  33.889  1.00  0.00    -0.286 N 
ATOM     11  C   UNL A   1      39.258  32.884  33.963  1.00  0.00     0.007 A 
ATOM     12  C   UNL A   1      39.722  32.183  35.062  1.00  0.00     0.076 A 
ATOM     13  C   UNL A   1      37.918  33.345  34.177  1.00  0.00     0.085 A 
ATOM     14  S   UNL A   1      38.580  32.127  36.333  1.00  0.00    -0.123 S 
ATOM     15  C   UNL A   1      37.473  33.075  35.452  1.00  0.00     0.131 A 
ATOM     16  C   UNL A   1      37.021  34.062  33.290  1.00  0.00     0.263 A 
ATOM     17  N   UNL A   1      36.322  33.515  36.009  1.00  0.00    -0.227 NA
ATOM     18  O   UNL A   1      37.292  34.260  32.105  1.00  0.00    -0.268 OA
ATOM     19  C   UNL A   1      35.593  34.238  35.221  1.00  0.00     0.204 A 
BRANCH  11  20
ATOM     20  C   UNL A   1      40.119  33.110  32.809  1.00  0.00    -0.016 A 
ATOM     21  C   UNL A   1      41.751  33.559  30.580  1.00  0.00     0.119 A 
ATOM     22  C   UNL A   1      40.934  32.433  30.620  1.00  0.00     0.047 A 
ATOM     23  C   UNL A   1      41.723  34.480  31.626  1.00  0.00     0.047 A 
ATOM     24  C   UNL A   1      40.117  32.209  31.733  1.00  0.00     0.012 A 
ATOM     25  C   UNL A   1      40.928  34.247  32.746  1.00  0.00     0.012 A 
BRANCH  21  26
ATOM     26  O   UNL A   1      42.476  33.795  29.445  1.00  0.00    -0.494 OA
BRANCH  26  27
ATOM     27  C   UNL A   1      43.646  34.591  29.673  1.00  0.00     0.226 C 
ATOM     28  C   UNL A   1      44.866  33.739  29.988  1.00  0.00     0.049 C 
ENDBRANCH  26  27
ENDBRANCH  21  26
ENDBRANCH  11  20
ENDBRANCH   8  10
ENDBRANCH   5   8
ENDBRANCH   3   4
ENDBRANCH   2   3
ENDBRANCH   1   2
BRANCH   1  29
ATOM     29  C   UNL A   1      35.931  32.251  28.059  1.00  0.00     0.002 C 
BRANCH  29  30
ATOM     30  C   UNL A   1      35.144  31.003  27.635  1.00  0.00     0.021 C 
BRANCH  30  31
ATOM     31  C   UNL A   1      35.515  29.732  28.387  1.00  0.00     0.116 C 
BRANCH  31  32
ATOM     32  N   UNL A   1      35.729  29.964  29.809  1.00  0.00    -0.352 N 
ATOM     33  C   UNL A   1      36.722  29.437  30.610  1.00  0.00     0.251 C 
ATOM     34  H   UNL A   1      35.090  30.568  30.251  1.00  0.00     0.163 HD
ATOM     35  O   UNL A   1      36.558  29.371  31.824  1.00  0.00    -0.269 OA
BRANCH  33  36
ATOM     36  C   UNL A   1      37.975  28.959  29.990  1.00  0.00     0.039 A 
ATOM     37  C   UNL A   1      38.609  29.702  28.993  1.00  0.00     0.014 A 
ATOM     38  C   UNL A   1      38.515  27.742  30.412  1.00  0.00     0.014 A 
ATOM     39  C   UNL A   1      39.827  29.249  28.486  1.00  0.00     0.010 A 
ATOM     40  C   UNL A   1      39.770  27.353  29.996  1.00  0.00     0.010 A 
ATOM     41  C   UNL A   1      40.419  28.085  29.010  1.00  0.00    -0.014 A 
BRANCH  41  42
ATOM     42  C   UNL A   1      41.804  27.743  28.678  1.00  0.00     0.031 A 
ATOM     43  C   UNL A   1      41.913  26.476  27.911  1.00  0.00     0.074 A 
ATOM     44  C   UNL A   1      42.876  28.551  28.854  1.00  0.00     0.049 A 
ATOM     45  N   UNL A   1      42.282  25.327  28.370  1.00  0.00    -0.248 NA
ATOM     46  C   UNL A   1      41.349  26.412  26.553  1.00  0.00     0.031 C 
ATOM     47  C   UNL A   1      42.894  29.930  29.346  1.00  0.00     0.029 A 
ATOM     48  N   UNL A   1      44.189  28.332  28.545  1.00  0.00    -0.354 N 
ATOM     49  C   UNL A   1      42.293  24.473  27.276  1.00  0.00     0.074 A 
ATOM     50  C   UNL A   1      41.476  25.111  26.281  1.00  0.00     0.031 C 
ATOM     51  C   UNL A   1      44.103  30.489  29.099  1.00  0.00     0.029 A 
ATOM     52  C   UNL A   1      44.998  29.471  28.573  1.00  0.00     0.049 A 
ATOM     53  H   UNL A   1      44.538  27.440  28.319  1.00  0.00     0.167 HD
ATOM     54  C   UNL A   1      43.223  23.479  27.194  1.00  0.00     0.034 A 
ATOM     55  C   UNL A   1      46.306  29.580  28.195  1.00  0.00     0.034 A 
ATOM     56  C   UNL A   1      43.848  23.261  28.487  1.00  0.00     0.049 A 
ATOM     57  C   UNL A   1      46.888  28.220  28.287  1.00  0.00     0.074 A 
ATOM     58  C   UNL A   1      43.376  22.984  29.758  1.00  0.00     0.029 A 
ATOM     59  N   UNL A   1      45.130  23.735  28.674  1.00  0.00    -0.354 N 
ATOM     60  N   UNL A   1      47.039  27.589  29.418  1.00  0.00    -0.248 NA
ATOM     61  C   UNL A   1      46.831  27.370  27.109  1.00  0.00     0.031 C 
ATOM     62  C   UNL A   1      44.175  23.782  30.630  1.00  0.00     0.029 A 
ATOM     63  C   UNL A   1      45.163  24.409  29.870  1.00  0.00     0.049 A 
ATOM     64  H   UNL A   1      45.888  23.610  28.058  1.00  0.00     0.167 HD
ATOM     65  C   UNL A   1      46.617  26.295  29.160  1.00  0.00     0.074 A 
ATOM     66  C   UNL A   1      46.602  26.192  27.700  1.00  0.00     0.031 C 
ATOM     67  C   UNL A   1      46.045  25.532  30.138  1.00  0.00     0.034 A 
BRANCH  54  68
ATOM     68  C   UNL A   1      43.880  23.018  25.906  1.00  0.00     0.023 A 
ATOM     69  C   UNL A   1      43.899  21.629  25.675  1.00  0.00     0.031 A 
ATOM     70  C   UNL A   1      44.731  23.783  25.076  1.00  0.00     0.131 A 
ATOM     71  C   UNL A   1      44.833  21.054  24.799  1.00  0.00     0.055 A 
ATOM     72  C   UNL A   1      45.608  23.209  24.151  1.00  0.00     0.041 A 
ATOM     73  F   UNL A   1      44.833  25.114  25.159  1.00  0.00    -0.206 F 
ATOM     74  C   UNL A   1      45.696  21.834  24.038  1.00  0.00     0.022 A 
BRANCH  71  75
ATOM     75  S   UNL A   1      45.033  19.256  24.837  1.00  0.00     0.124 S 
ATOM     76  O   UNL A   1      46.232  19.122  25.659  1.00  0.00    -0.237 OA
ATOM     77  O   UNL A   1      43.779  18.828  25.447  1.00  0.00    -0.237 OA
ATOM     78  O   UNL A   1      45.194  18.905  23.428  1.00  0.00    -0.744 OA
ENDBRANCH  71  75
ENDBRANCH  54  68
BRANCH  55  79
ATOM     79  C   UNL A   1      46.991  30.706  27.487  1.00  0.00     0.023 A 
ATOM     80  C   UNL A   1      46.298  31.758  26.836  1.00  0.00     0.031 A 
ATOM     81  C   UNL A   1      48.376  30.903  27.688  1.00  0.00     0.131 A 
ATOM     82  C   UNL A   1      46.984  32.935  26.437  1.00  0.00     0.055 A 
ATOM     83  C   UNL A   1      49.044  32.066  27.297  1.00  0.00     0.041 A 
ATOM     84  F   UNL A   1      49.114  30.003  28.359  1.00  0.00    -0.206 F 
ATOM     85  C   UNL A   1      48.349  33.092  26.681  1.00  0.00     0.022 A 
BRANCH  82  86
ATOM     86  S   UNL A   1      46.098  34.339  25.670  1.00  0.00     0.124 S 
ATOM     87  O   UNL A   1      47.162  35.021  24.943  1.00  0.00    -0.237 OA
ATOM     88  O   UNL A   1      45.081  33.672  24.865  1.00  0.00    -0.237 OA
ATOM     89  O   UNL A   1      45.571  35.079  26.820  1.00  0.00    -0.744 OA
ENDBRANCH  82  86
ENDBRANCH  55  79
BRANCH  67  90
ATOM     90  C   UNL A   1      46.193  25.975  31.584  1.00  0.00     0.023 A 
ATOM     91  C   UNL A   1      45.166  26.525  32.388  1.00  0.00     0.031 A 
ATOM     92  C   UNL A   1      47.444  25.761  32.193  1.00  0.00     0.131 A 
ATOM     93  C   UNL A   1      45.423  26.861  33.733  1.00  0.00     0.055 A 
ATOM     94  C   UNL A   1      47.686  26.068  33.530  1.00  0.00     0.041 A 
ATOM     95  F   UNL A   1      48.459  25.225  31.495  1.00  0.00    -0.206 F 
ATOM     96  C   UNL A   1      46.679  26.632  34.303  1.00  0.00     0.022 A 
BRANCH  93  97
ATOM     97  S   UNL A   1      44.147  27.658  34.763  1.00  0.00     0.124 S 
ATOM     98  O   UNL A   1      43.597  28.693  33.895  1.00  0.00    -0.237 OA
ATOM     99  O   UNL A   1      43.252  26.545  35.072  1.00  0.00    -0.237 OA
ATOM    100  O   UNL A   1      44.905  28.164  35.910  1.00  0.00    -0.744 OA
ENDBRANCH  93  97
ENDBRANCH  67  90
ENDBRANCH  41  42
ENDBRANCH  33  36
ENDBRANCH  31  32
ENDBRANCH  30  31
ENDBRANCH  29  30
ENDBRANCH   1  29
TORSDOF 20
ENDMDL
MODEL 2
REMARK VINA RESULT:     -10.7      5.510     12.443
REMARK SMILES CCOc1ccc(-c2csc3ncn([C@H](C)C(=O)NCCCCCCNC(=O)c4ccc(-c5c6nc(c(-c7cc(S(=O)(=O)[O-])ccc7F)c7ccc([nH]7)c(-c7cc(S(=O)(=O)[O-])ccc7F)c7nc(c(-c8cc(S(=O)(=O)[O-])ccc8F)c8ccc5[nH]8)C=C7)C=C6)cc4)c(=O)c23)cc1
REMARK SMILES IDX 22 1 21 2 20 3 19 4 17 5 18 6 15 8 16 9 14 10 8 11 9 12
REMARK SMILES IDX 94 13 10 14 11 15 92 16 12 17 93 18 13 19 7 20 4 21 5 22
REMARK SMILES IDX 96 23 6 24 95 25 3 26 2 27 1 28 23 29 24 30 25 31 26 32
REMARK SMILES IDX 27 33 28 35 29 36 30 37 91 38 31 39 90 40 32 41 33 42 34 43
REMARK SMILES IDX 84 44 35 45 89 46 83 47 85 48 36 49 88 50 82 51 81 52 37 54
REMARK SMILES IDX 69 55 49 56 68 57 50 58 53 59 67 60 86 61 51 62 52 63 66 65
REMARK SMILES IDX 87 66 54 67 38 68 39 69 47 70 40 71 46 72 48 73 45 74 41 75
REMARK SMILES IDX 42 76 43 77 44 78 70 79 71 80 79 81 72 82 78 83 80 84 77 85
REMARK SMILES IDX 73 86 74 87 75 88 76 89 55 90 56 91 64 92 57 93 63 94 65 95
REMARK SMILES IDX 62 96 58 97 59 98 60 99 61 100
REMARK H PARENT 19 7 26 34 85 53 53 64
REMARK Flexibility Score: inf
ROOT
ATOM      1  C   UNL A   1      36.790  21.023  25.274  1.00  0.00     0.002 C 
ENDROOT
BRANCH   1   2
ATOM      2  C   UNL A   1      35.440  21.382  24.654  1.00  0.00     0.021 C 
BRANCH   2   3
ATOM      3  C   UNL A   1      35.243  22.859  24.342  1.00  0.00     0.116 C 
BRANCH   3   4
ATOM      4  N   UNL A   1      34.793  23.103  22.990  1.00  0.00    -0.354 N 
ATOM      5  C   UNL A   1      33.540  23.289  22.486  1.00  0.00     0.242 C 
ATOM      6  O   UNL A   1      33.455  23.447  21.264  1.00  0.00    -0.273 OA
ATOM      7  H   UNL A   1      35.513  23.142  22.321  1.00  0.00     0.163 HD
BRANCH   5   8
ATOM      8  C   UNL A   1      32.267  23.271  23.368  1.00  0.00     0.177 C 
ATOM      9  C   UNL A   1      31.970  21.881  23.934  1.00  0.00     0.042 C 
BRANCH   8  10
ATOM     10  N   UNL A   1      32.251  24.388  24.332  1.00  0.00    -0.286 N 
ATOM     11  C   UNL A   1      31.238  28.013  24.761  1.00  0.00     0.007 A 
ATOM     12  C   UNL A   1      31.565  28.746  25.889  1.00  0.00     0.076 A 
ATOM     13  C   UNL A   1      31.789  26.692  24.830  1.00  0.00     0.085 A 
ATOM     14  S   UNL A   1      32.475  27.840  27.018  1.00  0.00    -0.123 S 
ATOM     15  C   UNL A   1      32.403  26.448  26.038  1.00  0.00     0.131 A 
ATOM     16  C   UNL A   1      31.753  25.610  23.864  1.00  0.00     0.263 A 
ATOM     17  N   UNL A   1      32.879  25.258  26.469  1.00  0.00    -0.227 NA
ATOM     18  O   UNL A   1      31.315  25.766  22.724  1.00  0.00    -0.268 OA
ATOM     19  C   UNL A   1      32.739  24.290  25.620  1.00  0.00     0.204 A 
BRANCH  11  20
ATOM     20  C   UNL A   1      30.395  28.589  23.721  1.00  0.00    -0.016 A 
ATOM     21  C   UNL A   1      28.773  29.717  21.739  1.00  0.00     0.119 A 
ATOM     22  C   UNL A   1      28.198  28.942  22.742  1.00  0.00     0.047 A 
ATOM     23  C   UNL A   1      30.144  29.965  21.748  1.00  0.00     0.047 A 
ATOM     24  C   UNL A   1      29.008  28.380  23.733  1.00  0.00     0.012 A 
ATOM     25  C   UNL A   1      30.956  29.387  22.721  1.00  0.00     0.012 A 
BRANCH  21  26
ATOM     26  O   UNL A   1      27.947  30.321  20.832  1.00  0.00    -0.494 OA
BRANCH  26  27
ATOM     27  C   UNL A   1      28.297  31.685  20.564  1.00  0.00     0.226 C 
ATOM     28  C   UNL A   1      27.940  32.606  21.721  1.00  0.00     0.049 C 
ENDBRANCH  26  27
ENDBRANCH  21  26
ENDBRANCH  11  20
ENDBRANCH   8  10
ENDBRANCH   5   8
ENDBRANCH   3   4
ENDBRANCH   2   3
ENDBRANCH   1   2
BRANCH   1  29
ATOM     29  C   UNL A   1      37.888  22.089  25.160  1.00  0.00     0.002 C 
BRANCH  29  30
ATOM     30  C   UNL A   1      38.615  22.480  26.454  1.00  0.00     0.021 C 
BRANCH  30  31
ATOM     31  C   UNL A   1      38.962  23.959  26.567  1.00  0.00     0.116 C 
BRANCH  31  32
ATOM     32  N   UNL A   1      40.247  24.281  25.961  1.00  0.00    -0.352 N 
ATOM     33  C   UNL A   1      40.881  25.507  25.927  1.00  0.00     0.251 C 
ATOM     34  H   UNL A   1      40.719  23.537  25.522  1.00  0.00     0.163 HD
ATOM     35  O   UNL A   1      41.718  25.739  25.061  1.00  0.00    -0.269 OA
BRANCH  33  36
ATOM     36  C   UNL A   1      40.539  26.527  26.940  1.00  0.00     0.039 A 
ATOM     37  C   UNL A   1      40.023  26.155  28.183  1.00  0.00     0.014 A 
ATOM     38  C   UNL A   1      40.733  27.875  26.633  1.00  0.00     0.014 A 
ATOM     39  C   UNL A   1      39.783  27.145  29.136  1.00  0.00     0.010 A 
ATOM     40  C   UNL A   1      40.605  28.839  27.609  1.00  0.00     0.010 A 
ATOM     41  C   UNL A   1      40.100  28.486  28.854  1.00  0.00    -0.014 A 
BRANCH  41  42
ATOM     42  C   UNL A   1      40.099  29.489  29.922  1.00  0.00     0.031 A 
ATOM     43  C   UNL A   1      38.773  30.133  30.101  1.00  0.00     0.074 A 
ATOM     44  C   UNL A   1      41.106  29.701  30.801  1.00  0.00     0.049 A 
ATOM     45  N   UNL A   1      38.428  31.310  29.699  1.00  0.00    -0.248 NA
ATOM     46  C   UNL A   1      37.642  29.319  30.576  1.00  0.00     0.031 C 
ATOM     47  C   UNL A   1      42.366  28.963  30.923  1.00  0.00     0.029 A 
ATOM     48  N   UNL A   1      41.180  30.583  31.843  1.00  0.00    -0.354 N 
ATOM     49  C   UNL A   1      37.129  31.495  30.153  1.00  0.00     0.074 A 
ATOM     50  C   UNL A   1      36.629  30.178  30.435  1.00  0.00     0.031 C 
ATOM     51  C   UNL A   1      42.969  29.278  32.094  1.00  0.00     0.029 A 
ATOM     52  C   UNL A   1      42.226  30.349  32.739  1.00  0.00     0.049 A 
ATOM     53  H   UNL A   1      40.544  31.326  31.952  1.00  0.00     0.167 HD
ATOM     54  C   UNL A   1      36.710  32.733  30.539  1.00  0.00     0.034 A 
ATOM     55  C   UNL A   1      42.472  30.982  33.924  1.00  0.00     0.034 A 
ATOM     56  C   UNL A   1      37.628  33.753  30.062  1.00  0.00     0.049 A 
ATOM     57  C   UNL A   1      41.810  32.305  33.842  1.00  0.00     0.074 A 
ATOM     58  C   UNL A   1      38.135  34.096  28.821  1.00  0.00     0.029 A 
ATOM     59  N   UNL A   1      38.487  34.328  30.975  1.00  0.00    -0.354 N 
ATOM     60  N   UNL A   1      42.189  33.237  33.013  1.00  0.00    -0.248 NA
ATOM     61  C   UNL A   1      40.435  32.412  34.305  1.00  0.00     0.031 C 
ATOM     62  C   UNL A   1      39.512  34.391  29.056  1.00  0.00     0.029 A 
ATOM     63  C   UNL A   1      39.747  34.330  30.429  1.00  0.00     0.049 A 
ATOM     64  H   UNL A   1      38.239  34.677  31.862  1.00  0.00     0.167 HD
ATOM     65  C   UNL A   1      41.012  33.742  32.486  1.00  0.00     0.074 A 
ATOM     66  C   UNL A   1      39.964  33.272  33.394  1.00  0.00     0.031 C 
ATOM     67  C   UNL A   1      40.966  34.242  31.215  1.00  0.00     0.034 A 
BRANCH  54  68
ATOM     68  C   UNL A   1      35.755  32.999  31.689  1.00  0.00     0.023 A 
ATOM     69  C   UNL A   1      34.662  33.843  31.413  1.00  0.00     0.031 A 
ATOM     70  C   UNL A   1      36.000  32.753  33.060  1.00  0.00     0.131 A 
ATOM     71  C   UNL A   1      33.988  34.516  32.444  1.00  0.00     0.055 A 
ATOM     72  C   UNL A   1      35.278  33.372  34.084  1.00  0.00     0.041 A 
ATOM     73  F   UNL A   1      36.995  31.975  33.497  1.00  0.00    -0.206 F 
ATOM     74  C   UNL A   1      34.292  34.293  33.781  1.00  0.00     0.022 A 
BRANCH  71  75
ATOM     75  S   UNL A   1      32.849  35.845  31.983  1.00  0.00     0.124 S 
ATOM     76  O   UNL A   1      33.517  37.005  32.568  1.00  0.00    -0.237 OA
ATOM     77  O   UNL A   1      32.862  35.759  30.528  1.00  0.00    -0.237 OA
ATOM     78  O   UNL A   1      31.596  35.452  32.623  1.00  0.00    -0.744 OA
ENDBRANCH  71  75
ENDBRANCH  54  68
BRANCH  55  79
ATOM     79  C   UNL A   1      42.979  30.409  35.210  1.00  0.00     0.023 A 
ATOM     80  C   UNL A   1      42.713  29.082  35.634  1.00  0.00     0.031 A 
ATOM     81  C   UNL A   1      43.985  31.101  35.921  1.00  0.00     0.131 A 
ATOM     82  C   UNL A   1      43.445  28.508  36.706  1.00  0.00     0.055 A 
ATOM     83  C   UNL A   1      44.707  30.528  36.971  1.00  0.00     0.041 A 
ATOM     84  F   UNL A   1      44.368  32.335  35.556  1.00  0.00    -0.206 F 
ATOM     85  C   UNL A   1      44.449  29.224  37.360  1.00  0.00     0.022 A 
BRANCH  82  86
ATOM     86  S   UNL A   1      43.178  26.773  37.218  1.00  0.00     0.124 S 
ATOM     87  O   UNL A   1      43.739  26.027  36.098  1.00  0.00    -0.237 OA
ATOM     88  O   UNL A   1      43.905  26.698  38.480  1.00  0.00    -0.237 OA
ATOM     89  O   UNL A   1      41.722  26.676  37.350  1.00  0.00    -0.744 OA
ENDBRANCH  82  86
ENDBRANCH  55  79
BRANCH  67  90
ATOM     90  C   UNL A   1      42.275  34.563  30.514  1.00  0.00     0.023 A 
ATOM     91  C   UNL A   1      43.008  35.767  30.646  1.00  0.00     0.031 A 
ATOM     92  C   UNL A   1      42.837  33.551  29.716  1.00  0.00     0.131 A 
ATOM     93  C   UNL A   1      44.235  35.927  29.970  1.00  0.00     0.055 A 
ATOM     94  C   UNL A   1      44.063  33.701  29.072  1.00  0.00     0.041 A 
ATOM     95  F   UNL A   1      42.206  32.375  29.561  1.00  0.00    -0.206 F 
ATOM     96  C   UNL A   1      44.762  34.896  29.186  1.00  0.00     0.022 A 
BRANCH  93  97
ATOM     97  S   UNL A   1      45.152  37.501  30.046  1.00  0.00     0.124 S 
ATOM     98  O   UNL A   1      45.506  37.629  31.455  1.00  0.00    -0.237 OA
ATOM     99  O   UNL A   1      46.264  37.261  29.129  1.00  0.00    -0.237 OA
ATOM    100  O   UNL A   1      44.175  38.485  29.571  1.00  0.00    -0.744 OA
ENDBRANCH  93  97
ENDBRANCH  67  90
ENDBRANCH  41  42
ENDBRANCH  33  36
ENDBRANCH  31  32
ENDBRANCH  30  31
ENDBRANCH  29  30
ENDBRANCH   1  29
TORSDOF 20
ENDMDL
MODEL 3
REMARK VINA RESULT:      -9.9      4.419     10.273
REMARK SMILES CCOc1ccc(-c2csc3ncn([C@H](C)C(=O)NCCCCCCNC(=O)c4ccc(-c5c6nc(c(-c7cc(S(=O)(=O)[O-])ccc7F)c7ccc([nH]7)c(-c7cc(S(=O)(=O)[O-])ccc7F)c7nc(c(-c8cc(S(=O)(=O)[O-])ccc8F)c8ccc5[nH]8)C=C7)C=C6)cc4)c(=O)c23)cc1
REMARK SMILES IDX 22 1 21 2 20 3 19 4 17 5 18 6 15 8 16 9 14 10 8 11 9 12
REMARK SMILES IDX 94 13 10 14 11 15 92 16 12 17 93 18 13 19 7 20 4 21 5 22
REMARK SMILES IDX 96 23 6 24 95 25 3 26 2 27 1 28 23 29 24 30 25 31 26 32
REMARK SMILES IDX 27 33 28 35 29 36 30 37 91 38 31 39 90 40 32 41 33 42 34 43
REMARK SMILES IDX 84 44 35 45 89 46 83 47 85 48 36 49 88 50 82 51 81 52 37 54
REMARK SMILES IDX 69 55 49 56 68 57 50 58 53 59 67 60 86 61 51 62 52 63 66 65
REMARK SMILES IDX 87 66 54 67 38 68 39 69 47 70 40 71 46 72 48 73 45 74 41 75
REMARK SMILES IDX 42 76 43 77 44 78 70 79 71 80 79 81 72 82 78 83 80 84 77 85
REMARK SMILES IDX 73 86 74 87 75 88 76 89 55 90 56 91 64 92 57 93 63 94 65 95
REMARK SMILES IDX 62 96 58 97 59 98 60 99 61 100
REMARK H PARENT 19 7 26 34 85 53 53 64
REMARK Flexibility Score: inf
ROOT
ATOM      1  C   UNL A   1      36.338  31.874  28.222  1.00  0.00     0.002 C 
ENDROOT
BRANCH   1   2
ATOM      2  C   UNL A   1      35.629  30.533  28.401  1.00  0.00     0.021 C 
BRANCH   2   3
ATOM      3  C   UNL A   1      35.147  29.877  27.114  1.00  0.00     0.116 C 
BRANCH   3   4
ATOM      4  N   UNL A   1      33.920  30.448  26.606  1.00  0.00    -0.354 N 
ATOM      5  C   UNL A   1      32.713  29.874  26.336  1.00  0.00     0.242 C 
ATOM      6  O   UNL A   1      31.841  30.616  25.871  1.00  0.00    -0.273 OA
ATOM      7  H   UNL A   1      33.963  31.414  26.426  1.00  0.00     0.163 HD
BRANCH   5   8
ATOM      8  C   UNL A   1      32.430  28.367  26.553  1.00  0.00     0.177 C 
ATOM      9  C   UNL A   1      31.368  28.121  27.626  1.00  0.00     0.042 C 
BRANCH   8  10
ATOM     10  N   UNL A   1      32.246  27.653  25.274  1.00  0.00    -0.286 N 
ATOM     11  C   UNL A   1      33.504  24.728  23.221  1.00  0.00     0.007 A 
ATOM     12  C   UNL A   1      33.091  24.504  21.920  1.00  0.00     0.076 A 
ATOM     13  C   UNL A   1      32.921  25.928  23.745  1.00  0.00     0.085 A 
ATOM     14  S   UNL A   1      31.992  25.691  21.367  1.00  0.00    -0.123 S 
ATOM     15  C   UNL A   1      32.018  26.491  22.871  1.00  0.00     0.131 A 
ATOM     16  C   UNL A   1      33.110  26.579  25.028  1.00  0.00     0.263 A 
ATOM     17  N   UNL A   1      31.193  27.531  23.130  1.00  0.00    -0.227 NA
ATOM     18  O   UNL A   1      33.966  26.207  25.830  1.00  0.00    -0.268 OA
ATOM     19  C   UNL A   1      31.317  28.023  24.321  1.00  0.00     0.204 A 
BRANCH  11  20
ATOM     20  C   UNL A   1      34.379  23.778  23.897  1.00  0.00    -0.016 A 
ATOM     21  C   UNL A   1      36.052  21.935  25.175  1.00  0.00     0.119 A 
ATOM     22  C   UNL A   1      34.729  22.066  25.587  1.00  0.00     0.047 A 
ATOM     23  C   UNL A   1      36.528  22.686  24.102  1.00  0.00     0.047 A 
ATOM     24  C   UNL A   1      33.892  22.986  24.947  1.00  0.00     0.012 A 
ATOM     25  C   UNL A   1      35.703  23.621  23.479  1.00  0.00     0.012 A 
BRANCH  21  26
ATOM     26  O   UNL A   1      36.822  20.970  25.763  1.00  0.00    -0.494 OA
BRANCH  26  27
ATOM     27  C   UNL A   1      37.244  19.945  24.853  1.00  0.00     0.226 C 
ATOM     28  C   UNL A   1      36.199  18.849  24.701  1.00  0.00     0.049 C 
ENDBRANCH  26  27
ENDBRANCH  21  26
ENDBRANCH  11  20
ENDBRANCH   8  10
ENDBRANCH   5   8
ENDBRANCH   3   4
ENDBRANCH   2   3
ENDBRANCH   1   2
BRANCH   1  29
ATOM     29  C   UNL A   1      35.434  33.114  28.180  1.00  0.00     0.002 C 
BRANCH  29  30
ATOM     30  C   UNL A   1      34.458  33.302  29.351  1.00  0.00     0.021 C 
BRANCH  30  31
ATOM     31  C   UNL A   1      34.525  34.668  30.020  1.00  0.00     0.116 C 
BRANCH  31  32
ATOM     32  N   UNL A   1      34.361  34.593  31.466  1.00  0.00    -0.352 N 
ATOM     33  C   UNL A   1      34.882  33.648  32.327  1.00  0.00     0.251 C 
ATOM     34  H   UNL A   1      33.812  35.298  31.878  1.00  0.00     0.163 HD
ATOM     35  O   UNL A   1      34.351  33.453  33.416  1.00  0.00    -0.269 OA
BRANCH  33  36
ATOM     36  C   UNL A   1      36.079  32.881  31.922  1.00  0.00     0.039 A 
ATOM     37  C   UNL A   1      37.273  33.533  31.610  1.00  0.00     0.014 A 
ATOM     38  C   UNL A   1      35.995  31.489  31.848  1.00  0.00     0.014 A 
ATOM     39  C   UNL A   1      38.398  32.767  31.303  1.00  0.00     0.010 A 
ATOM     40  C   UNL A   1      37.130  30.731  31.657  1.00  0.00     0.010 A 
ATOM     41  C   UNL A   1      38.329  31.362  31.353  1.00  0.00    -0.014 A 
BRANCH  41  42
ATOM     42  C   UNL A   1      39.551  30.557  31.290  1.00  0.00     0.031 A 
ATOM     43  C   UNL A   1      40.155  30.327  32.627  1.00  0.00     0.074 A 
ATOM     44  C   UNL A   1      40.008  29.909  30.193  1.00  0.00     0.049 A 
ATOM     45  N   UNL A   1      41.189  30.925  33.117  1.00  0.00    -0.248 NA
ATOM     46  C   UNL A   1      39.420  29.519  33.614  1.00  0.00     0.031 C 
ATOM     47  C   UNL A   1      39.381  29.816  28.873  1.00  0.00     0.029 A 
ATOM     48  N   UNL A   1      41.110  29.112  30.050  1.00  0.00    -0.354 N 
ATOM     49  C   UNL A   1      41.412  30.334  34.353  1.00  0.00     0.074 A 
ATOM     50  C   UNL A   1      40.173  29.694  34.703  1.00  0.00     0.031 C 
ATOM     51  C   UNL A   1      39.986  28.849  28.144  1.00  0.00     0.029 A 
ATOM     52  C   UNL A   1      41.141  28.354  28.877  1.00  0.00     0.049 A 
ATOM     53  H   UNL A   1      41.827  29.077  30.724  1.00  0.00     0.167 HD
ATOM     54  C   UNL A   1      42.684  30.174  34.816  1.00  0.00     0.034 A 
ATOM     55  C   UNL A   1      42.043  27.391  28.525  1.00  0.00     0.034 A 
ATOM     56  C   UNL A   1      43.607  30.998  34.056  1.00  0.00     0.049 A 
ATOM     57  C   UNL A   1      43.278  27.664  29.297  1.00  0.00     0.074 A 
ATOM     58  C   UNL A   1      43.677  32.346  33.751  1.00  0.00     0.029 A 
ATOM     59  N   UNL A   1      44.420  30.376  33.131  1.00  0.00    -0.354 N 
ATOM     60  N   UNL A   1      44.009  28.727  29.110  1.00  0.00    -0.248 NA
ATOM     61  C   UNL A   1      43.423  27.035  30.601  1.00  0.00     0.031 C 
ATOM     62  C   UNL A   1      44.084  32.393  32.383  1.00  0.00     0.029 A 
ATOM     63  C   UNL A   1      44.355  31.091  31.961  1.00  0.00     0.049 A 
ATOM     64  H   UNL A   1      44.953  29.562  33.284  1.00  0.00     0.167 HD
ATOM     65  C   UNL A   1      44.321  29.170  30.385  1.00  0.00     0.074 A 
ATOM     66  C   UNL A   1      44.025  28.033  31.258  1.00  0.00     0.031 C 
ATOM     67  C   UNL A   1      44.510  30.498  30.643  1.00  0.00     0.034 A 
BRANCH  54  68
ATOM     68  C   UNL A   1      43.163  28.981  35.624  1.00  0.00     0.023 A 
ATOM     69  C   UNL A   1      43.899  29.271  36.789  1.00  0.00     0.031 A 
ATOM     70  C   UNL A   1      43.221  27.638  35.187  1.00  0.00     0.131 A 
ATOM     71  C   UNL A   1      44.759  28.318  37.358  1.00  0.00     0.055 A 
ATOM     72  C   UNL A   1      44.025  26.673  35.801  1.00  0.00     0.041 A 
ATOM     73  F   UNL A   1      42.581  27.193  34.102  1.00  0.00    -0.206 F 
ATOM     74  C   UNL A   1      44.834  27.019  36.868  1.00  0.00     0.022 A 
BRANCH  71  75
ATOM     75  S   UNL A   1      45.929  28.879  38.619  1.00  0.00     0.124 S 
ATOM     76  O   UNL A   1      45.019  29.368  39.651  1.00  0.00    -0.237 OA
ATOM     77  O   UNL A   1      46.652  27.650  38.925  1.00  0.00    -0.237 OA
ATOM     78  O   UNL A   1      46.704  29.906  37.927  1.00  0.00    -0.744 OA
ENDBRANCH  71  75
ENDBRANCH  54  68
BRANCH  55  79
ATOM     79  C   UNL A   1      41.809  26.100  27.804  1.00  0.00     0.023 A 
ATOM     80  C   UNL A   1      42.783  25.474  26.986  1.00  0.00     0.031 A 
ATOM     81  C   UNL A   1      40.684  25.317  28.146  1.00  0.00     0.131 A 
ATOM     82  C   UNL A   1      42.613  24.129  26.565  1.00  0.00     0.055 A 
ATOM     83  C   UNL A   1      40.526  23.991  27.733  1.00  0.00     0.041 A 
ATOM     84  F   UNL A   1      39.738  25.786  28.975  1.00  0.00    -0.206 F 
ATOM     85  C   UNL A   1      41.496  23.387  26.951  1.00  0.00     0.022 A 
BRANCH  82  86
ATOM     86  S   UNL A   1      43.893  23.272  25.579  1.00  0.00     0.124 S 
ATOM     87  O   UNL A   1      44.923  22.999  26.573  1.00  0.00    -0.237 OA
ATOM     88  O   UNL A   1      43.171  22.119  25.053  1.00  0.00    -0.237 OA
ATOM     89  O   UNL A   1      44.267  24.266  24.569  1.00  0.00    -0.744 OA
ENDBRANCH  82  86
ENDBRANCH  55  79
BRANCH  67  90
ATOM     90  C   UNL A   1      44.722  31.442  29.472  1.00  0.00     0.023 A 
ATOM     91  C   UNL A   1      45.951  31.668  28.806  1.00  0.00     0.031 A 
ATOM     92  C   UNL A   1      43.585  32.098  28.966  1.00  0.00     0.131 A 
ATOM     93  C   UNL A   1      46.008  32.543  27.701  1.00  0.00     0.055 A 
ATOM     94  C   UNL A   1      43.639  32.939  27.857  1.00  0.00     0.041 A 
ATOM     95  F   UNL A   1      42.382  31.915  29.536  1.00  0.00    -0.206 F 
ATOM     96  C   UNL A   1      44.855  33.176  27.227  1.00  0.00     0.022 A 
BRANCH  93  97
ATOM     97  S   UNL A   1      47.593  32.926  26.886  1.00  0.00     0.124 S 
ATOM     98  O   UNL A   1      48.156  31.614  26.589  1.00  0.00    -0.237 OA
ATOM     99  O   UNL A   1      47.170  33.714  25.731  1.00  0.00    -0.237 OA
ATOM    100  O   UNL A   1      48.323  33.685  27.905  1.00  0.00    -0.744 OA
ENDBRANCH  93  97
ENDBRANCH  67  90
ENDBRANCH  41  42
ENDBRANCH  33  36
ENDBRANCH  31  32
ENDBRANCH  30  31
ENDBRANCH  29  30
ENDBRANCH   1  29
TORSDOF 20
ENDMDL
