MODEL 1
REMARK VINA RESULT:      -9.9      0.000      0.000
REMARK SMILES CN(CC(C)(C)O)C(=O)N1CCCC[C@H]1CC(=O)NCCCCCCNC(=O)c1ccc(-c2c3nc(c(-c4cc(S(=O)(=O)[O-])ccc4F)c4ccc([nH]4)c(-c4cc(S(=O)(=O)[O-])ccc4F)c4nc(c(-c5cc(S(=O)(=O)[O-])ccc5F)c5ccc2[nH]5)C=C4)C=C3)cc1
REMARK SMILES IDX 21 1 20 2 19 3 17 4 18 5 16 7 15 8 10 9 11 10 12 11 14 12
REMARK SMILES IDX 13 13 8 14 9 15 2 16 1 17 3 18 4 19 5 20 6 21 7 22 22 24
REMARK SMILES IDX 23 25 24 26 25 27 26 28 27 29 28 31 29 32 30 33 91 34 31 35
REMARK SMILES IDX 90 36 32 37 33 38 34 39 84 40 35 41 89 42 83 43 85 44 36 45
REMARK SMILES IDX 88 46 82 47 81 48 37 50 69 51 49 52 68 53 50 54 53 55 67 56
REMARK SMILES IDX 86 57 51 58 52 59 66 61 87 62 54 63 38 64 39 65 47 66 40 67
REMARK SMILES IDX 46 68 48 69 45 70 41 71 42 72 43 73 44 74 70 75 71 76 79 77
REMARK SMILES IDX 72 78 78 79 80 80 77 81 73 82 74 83 75 84 76 85 55 86 56 87
REMARK SMILES IDX 64 88 57 89 63 90 65 91 62 92 58 93 59 94 60 95 61 96
REMARK H PARENT 19 6 7 23 26 30 85 49 53 60
REMARK Flexibility Score: inf
ROOT
ATOM      1  C   UNL A   1      35.428  29.864  28.012  1.00  0.00     0.021 C 
ENDROOT
BRANCH   1   2
ATOM      2  C   UNL A   1      34.475  29.338  26.938  1.00  0.00     0.116 C 
BRANCH   2   3
ATOM      3  N   UNL A   1      33.392  28.575  27.539  1.00  0.00    -0.356 N 
ATOM      4  C   UNL A   1      32.061  28.522  27.239  1.00  0.00     0.222 C 
ATOM      5  O   UNL A   1      31.325  27.854  27.970  1.00  0.00    -0.275 OA
ATOM      6  H   UNL A   1      33.666  27.998  28.289  1.00  0.00     0.163 HD
BRANCH   4   7
ATOM      7  C   UNL A   1      31.519  29.202  26.000  1.00  0.00     0.125 C 
BRANCH   7   8
ATOM      8  C   UNL A   1      31.790  28.606  24.594  1.00  0.00     0.096 C 
ATOM      9  N   UNL A   1      31.676  27.164  24.365  1.00  0.00    -0.321 N 
ATOM     10  C   UNL A   1      30.314  26.659  24.469  1.00  0.00     0.121 C 
ATOM     11  C   UNL A   1      29.364  27.362  23.494  1.00  0.00     0.022 C 
ATOM     12  C   UNL A   1      30.991  29.333  23.493  1.00  0.00     0.026 C 
ATOM     13  C   UNL A   1      29.535  28.882  23.433  1.00  0.00     0.004 C 
BRANCH   9  14
ATOM     14  C   UNL A   1      32.432  26.495  23.406  1.00  0.00     0.320 C 
ATOM     15  O   UNL A   1      32.354  26.828  22.218  1.00  0.00    -0.248 OA
BRANCH  14  16
ATOM     16  N   UNL A   1      33.139  25.357  23.749  1.00  0.00    -0.325 N 
ATOM     17  C   UNL A   1      33.752  25.428  25.075  1.00  0.00     0.148 C 
BRANCH  16  18
ATOM     18  C   UNL A   1      33.604  24.255  22.890  1.00  0.00     0.155 C 
BRANCH  18  19
ATOM     19  C   UNL A   1      32.723  22.963  22.985  1.00  0.00     0.077 C 
ATOM     20  C   UNL A   1      33.296  21.869  23.889  1.00  0.00     0.043 C 
ATOM     21  C   UNL A   1      31.325  23.334  23.488  1.00  0.00     0.043 C 
BRANCH  19  22
ATOM     22  O   UNL A   1      32.550  22.376  21.687  1.00  0.00    -0.389 OA
ATOM     23  H   UNL A   1      32.326  23.069  21.045  1.00  0.00     0.211 HD
ENDBRANCH  19  22
ENDBRANCH  18  19
ENDBRANCH  16  18
ENDBRANCH  14  16
ENDBRANCH   9  14
ENDBRANCH   7   8
ENDBRANCH   4   7
ENDBRANCH   2   3
ENDBRANCH   1   2
BRANCH   1  24
ATOM     24  C   UNL A   1      35.061  31.214  28.618  1.00  0.00     0.002 C 
BRANCH  24  25
ATOM     25  C   UNL A   1      35.766  32.421  27.998  1.00  0.00     0.002 C 
BRANCH  25  26
ATOM     26  C   UNL A   1      34.937  33.706  27.904  1.00  0.00     0.021 C 
BRANCH  26  27
ATOM     27  C   UNL A   1      33.485  33.590  28.367  1.00  0.00     0.116 C 
BRANCH  27  28
ATOM     28  N   UNL A   1      33.097  34.694  29.225  1.00  0.00    -0.352 N 
ATOM     29  C   UNL A   1      33.482  34.958  30.516  1.00  0.00     0.251 C 
ATOM     30  H   UNL A   1      32.474  35.343  28.826  1.00  0.00     0.163 HD
ATOM     31  O   UNL A   1      32.872  35.777  31.189  1.00  0.00    -0.269 OA
BRANCH  29  32
ATOM     32  C   UNL A   1      34.631  34.221  31.077  1.00  0.00     0.039 A 
ATOM     33  C   UNL A   1      34.409  33.024  31.759  1.00  0.00     0.014 A 
ATOM     34  C   UNL A   1      35.928  34.715  30.905  1.00  0.00     0.014 A 
ATOM     35  C   UNL A   1      35.501  32.289  32.225  1.00  0.00     0.010 A 
ATOM     36  C   UNL A   1      37.015  33.946  31.305  1.00  0.00     0.010 A 
ATOM     37  C   UNL A   1      36.812  32.729  31.977  1.00  0.00    -0.014 A 
BRANCH  37  38
ATOM     38  C   UNL A   1      37.990  31.955  32.443  1.00  0.00     0.031 A 
ATOM     39  C   UNL A   1      38.616  32.290  33.769  1.00  0.00     0.074 A 
ATOM     40  C   UNL A   1      38.529  31.003  31.656  1.00  0.00     0.049 A 
ATOM     41  N   UNL A   1      39.718  31.833  34.306  1.00  0.00    -0.248 NA
ATOM     42  C   UNL A   1      37.922  33.298  34.587  1.00  0.00     0.031 C 
ATOM     43  C   UNL A   1      38.019  30.604  30.342  1.00  0.00     0.029 A 
ATOM     44  N   UNL A   1      39.633  30.206  31.837  1.00  0.00    -0.354 N 
ATOM     45  C   UNL A   1      39.850  32.496  35.521  1.00  0.00     0.074 A 
ATOM     46  C   UNL A   1      38.756  33.441  35.604  1.00  0.00     0.031 C 
ATOM     47  C   UNL A   1      38.800  29.632  29.843  1.00  0.00     0.029 A 
ATOM     48  C   UNL A   1      39.898  29.376  30.771  1.00  0.00     0.049 A 
ATOM     49  H   UNL A   1      40.183  30.227  32.653  1.00  0.00     0.167 HD
ATOM     50  C   UNL A   1      40.779  32.313  36.490  1.00  0.00     0.034 A 
ATOM     51  C   UNL A   1      40.925  28.528  30.555  1.00  0.00     0.034 A 
ATOM     52  C   UNL A   1      41.861  31.366  36.389  1.00  0.00     0.049 A 
ATOM     53  C   UNL A   1      41.986  28.388  31.621  1.00  0.00     0.074 A 
ATOM     54  C   UNL A   1      42.852  31.088  37.314  1.00  0.00     0.029 A 
ATOM     55  N   UNL A   1      42.097  30.544  35.295  1.00  0.00    -0.354 N 
ATOM     56  N   UNL A   1      42.083  29.008  32.776  1.00  0.00    -0.248 NA
ATOM     57  C   UNL A   1      43.069  27.430  31.363  1.00  0.00     0.031 C 
ATOM     58  C   UNL A   1      43.723  30.149  36.754  1.00  0.00     0.029 A 
ATOM     59  C   UNL A   1      43.229  29.775  35.514  1.00  0.00     0.049 A 
ATOM     60  H   UNL A   1      41.541  30.511  34.483  1.00  0.00     0.167 HD
ATOM     61  C   UNL A   1      43.214  28.480  33.397  1.00  0.00     0.074 A 
ATOM     62  C   UNL A   1      43.757  27.487  32.494  1.00  0.00     0.031 C 
ATOM     63  C   UNL A   1      43.752  28.783  34.605  1.00  0.00     0.034 A 
BRANCH  50  64
ATOM     64  C   UNL A   1      40.665  33.164  37.731  1.00  0.00     0.023 A 
ATOM     65  C   UNL A   1      39.965  32.716  38.865  1.00  0.00     0.031 A 
ATOM     66  C   UNL A   1      41.243  34.444  37.780  1.00  0.00     0.131 A 
ATOM     67  C   UNL A   1      39.798  33.565  39.968  1.00  0.00     0.055 A 
ATOM     68  C   UNL A   1      41.148  35.252  38.915  1.00  0.00     0.041 A 
ATOM     69  F   UNL A   1      41.905  34.937  36.720  1.00  0.00    -0.206 F 
ATOM     70  C   UNL A   1      40.409  34.820  40.012  1.00  0.00     0.022 A 
BRANCH  67  71
ATOM     71  S   UNL A   1      38.652  33.063  41.280  1.00  0.00     0.124 S 
ATOM     72  O   UNL A   1      38.875  31.620  41.328  1.00  0.00    -0.237 OA
ATOM     73  O   UNL A   1      39.132  33.823  42.428  1.00  0.00    -0.237 OA
ATOM     74  O   UNL A   1      37.344  33.467  40.766  1.00  0.00    -0.744 OA
ENDBRANCH  67  71
ENDBRANCH  50  64
BRANCH  51  75
ATOM     75  C   UNL A   1      41.030  27.768  29.274  1.00  0.00     0.023 A 
ATOM     76  C   UNL A   1      42.020  28.074  28.327  1.00  0.00     0.031 A 
ATOM     77  C   UNL A   1      40.095  26.771  28.944  1.00  0.00     0.131 A 
ATOM     78  C   UNL A   1      42.009  27.445  27.072  1.00  0.00     0.055 A 
ATOM     79  C   UNL A   1      40.131  26.097  27.722  1.00  0.00     0.041 A 
ATOM     80  F   UNL A   1      39.126  26.433  29.810  1.00  0.00    -0.206 F 
ATOM     81  C   UNL A   1      41.082  26.447  26.769  1.00  0.00     0.022 A 
BRANCH  78  82
ATOM     82  S   UNL A   1      43.146  28.045  25.792  1.00  0.00     0.124 S 
ATOM     83  O   UNL A   1      44.179  27.014  25.809  1.00  0.00    -0.237 OA
ATOM     84  O   UNL A   1      42.286  28.074  24.614  1.00  0.00    -0.237 OA
ATOM     85  O   UNL A   1      43.561  29.354  26.293  1.00  0.00    -0.744 OA
ENDBRANCH  78  82
ENDBRANCH  51  75
BRANCH  63  86
ATOM     86  C   UNL A   1      44.951  27.982  35.052  1.00  0.00     0.023 A 
ATOM     87  C   UNL A   1      44.820  26.791  35.785  1.00  0.00     0.031 A 
ATOM     88  C   UNL A   1      46.246  28.415  34.717  1.00  0.00     0.131 A 
ATOM     89  C   UNL A   1      45.968  26.098  36.199  1.00  0.00     0.055 A 
ATOM     90  C   UNL A   1      47.381  27.688  35.077  1.00  0.00     0.041 A 
ATOM     91  F   UNL A   1      46.429  29.549  34.021  1.00  0.00    -0.206 F 
ATOM     92  C   UNL A   1      47.246  26.527  35.831  1.00  0.00     0.022 A 
BRANCH  89  93
ATOM     93  S   UNL A   1      45.774  24.663  37.292  1.00  0.00     0.124 S 
ATOM     94  O   UNL A   1      46.935  23.852  36.936  1.00  0.00    -0.237 OA
ATOM     95  O   UNL A   1      45.805  25.273  38.617  1.00  0.00    -0.237 OA
ATOM     96  O   UNL A   1      44.482  24.103  36.899  1.00  0.00    -0.744 OA
ENDBRANCH  89  93
ENDBRANCH  63  86
ENDBRANCH  37  38
ENDBRANCH  29  32
ENDBRANCH  27  28
ENDBRANCH  26  27
ENDBRANCH  25  26
ENDBRANCH  24  25
ENDBRANCH   1  24
TORSDOF 22
ENDMDL
MODEL 2
REMARK VINA RESULT:      -9.6      2.315      8.120
REMARK SMILES CN(CC(C)(C)O)C(=O)N1CCCC[C@H]1CC(=O)NCCCCCCNC(=O)c1ccc(-c2c3nc(c(-c4cc(S(=O)(=O)[O-])ccc4F)c4ccc([nH]4)c(-c4cc(S(=O)(=O)[O-])ccc4F)c4nc(c(-c5cc(S(=O)(=O)[O-])ccc5F)c5ccc2[nH]5)C=C4)C=C3)cc1
REMARK SMILES IDX 21 1 20 2 19 3 17 4 18 5 16 7 15 8 10 9 11 10 12 11 14 12
REMARK SMILES IDX 13 13 8 14 9 15 2 16 1 17 3 18 4 19 5 20 6 21 7 22 22 24
REMARK SMILES IDX 23 25 24 26 25 27 26 28 27 29 28 31 29 32 30 33 91 34 31 35
REMARK SMILES IDX 90 36 32 37 33 38 34 39 84 40 35 41 89 42 83 43 85 44 36 45
REMARK SMILES IDX 88 46 82 47 81 48 37 50 69 51 49 52 68 53 50 54 53 55 67 56
REMARK SMILES IDX 86 57 51 58 52 59 66 61 87 62 54 63 38 64 39 65 47 66 40 67
REMARK SMILES IDX 46 68 48 69 45 70 41 71 42 72 43 73 44 74 70 75 71 76 79 77
REMARK SMILES IDX 72 78 78 79 80 80 77 81 73 82 74 83 75 84 76 85 55 86 56 87
REMARK SMILES IDX 64 88 57 89 63 90 65 91 62 92 58 93 59 94 60 95 61 96
REMARK H PARENT 19 6 7 23 26 30 85 49 53 60
REMARK Flexibility Score: inf
ROOT
ATOM      1  C   UNL A   1      31.251  27.517  26.802  1.00  0.00     0.021 C 
ENDROOT
BRANCH   1   2
ATOM      2  C   UNL A   1      31.584  26.262  25.993  1.00  0.00     0.116 C 
BRANCH   2   3
ATOM      3  N   UNL A   1      31.221  25.063  26.731  1.00  0.00    -0.356 N 
ATOM      4  C   UNL A   1      31.900  23.894  26.928  1.00  0.00     0.222 C 
ATOM      5  O   UNL A   1      31.326  22.981  27.527  1.00  0.00    -0.275 OA
ATOM      6  H   UNL A   1      30.336  25.099  27.163  1.00  0.00     0.163 HD
BRANCH   4   7
ATOM      7  C   UNL A   1      33.342  23.754  26.491  1.00  0.00     0.125 C 
BRANCH   7   8
ATOM      8  C   UNL A   1      33.741  22.707  25.420  1.00  0.00     0.096 C 
ATOM      9  N   UNL A   1      32.713  22.022  24.632  1.00  0.00    -0.321 N 
ATOM     10  C   UNL A   1      31.999  22.897  23.712  1.00  0.00     0.121 C 
ATOM     11  C   UNL A   1      32.947  23.597  22.732  1.00  0.00     0.022 C 
ATOM     12  C   UNL A   1      34.808  23.250  24.448  1.00  0.00     0.026 C 
ATOM     13  C   UNL A   1      34.216  24.159  23.377  1.00  0.00     0.004 C 
BRANCH   9  14
ATOM     14  C   UNL A   1      32.883  20.733  24.134  1.00  0.00     0.320 C 
ATOM     15  O   UNL A   1      32.352  20.410  23.066  1.00  0.00    -0.248 OA
BRANCH  14  16
ATOM     16  N   UNL A   1      33.501  19.767  24.907  1.00  0.00    -0.325 N 
ATOM     17  C   UNL A   1      34.937  19.648  24.654  1.00  0.00     0.148 C 
BRANCH  16  18
ATOM     18  C   UNL A   1      32.899  18.675  25.689  1.00  0.00     0.155 C 
BRANCH  18  19
ATOM     19  C   UNL A   1      32.862  17.302  24.937  1.00  0.00     0.077 C 
ATOM     20  C   UNL A   1      33.196  17.385  23.446  1.00  0.00     0.043 C 
ATOM     21  C   UNL A   1      33.836  16.327  25.606  1.00  0.00     0.043 C 
BRANCH  19  22
ATOM     22  O   UNL A   1      31.558  16.710  25.034  1.00  0.00    -0.389 OA
ATOM     23  H   UNL A   1      30.882  17.398  24.925  1.00  0.00     0.211 HD
ENDBRANCH  19  22
ENDBRANCH  18  19
ENDBRANCH  16  18
ENDBRANCH  14  16
ENDBRANCH   9  14
ENDBRANCH   7   8
ENDBRANCH   4   7
ENDBRANCH   2   3
ENDBRANCH   1   2
BRANCH   1  24
ATOM     24  C   UNL A   1      31.659  28.841  26.165  1.00  0.00     0.002 C 
BRANCH  24  25
ATOM     25  C   UNL A   1      32.375  29.820  27.096  1.00  0.00     0.002 C 
BRANCH  25  26
ATOM     26  C   UNL A   1      31.971  31.291  26.960  1.00  0.00     0.021 C 
BRANCH  26  27
ATOM     27  C   UNL A   1      33.127  32.287  26.872  1.00  0.00     0.116 C 
BRANCH  27  28
ATOM     28  N   UNL A   1      32.744  33.608  27.335  1.00  0.00    -0.352 N 
ATOM     29  C   UNL A   1      33.157  34.280  28.458  1.00  0.00     0.251 C 
ATOM     30  H   UNL A   1      32.100  34.088  26.765  1.00  0.00     0.163 HD
ATOM     31  O   UNL A   1      32.552  35.270  28.845  1.00  0.00    -0.269 OA
BRANCH  29  32
ATOM     32  C   UNL A   1      34.332  33.775  29.195  1.00  0.00     0.039 A 
ATOM     33  C   UNL A   1      34.158  32.784  30.161  1.00  0.00     0.014 A 
ATOM     34  C   UNL A   1      35.605  34.275  28.905  1.00  0.00     0.014 A 
ATOM     35  C   UNL A   1      35.277  32.251  30.805  1.00  0.00     0.010 A 
ATOM     36  C   UNL A   1      36.722  33.694  29.495  1.00  0.00     0.010 A 
ATOM     37  C   UNL A   1      36.569  32.681  30.457  1.00  0.00    -0.014 A 
BRANCH  37  38
ATOM     38  C   UNL A   1      37.776  32.116  31.111  1.00  0.00     0.031 A 
ATOM     39  C   UNL A   1      38.597  31.088  30.381  1.00  0.00     0.074 A 
ATOM     40  C   UNL A   1      38.096  32.477  32.369  1.00  0.00     0.049 A 
ATOM     41  N   UNL A   1      39.606  30.375  30.811  1.00  0.00    -0.248 NA
ATOM     42  C   UNL A   1      38.209  30.803  28.990  1.00  0.00     0.031 C 
ATOM     43  C   UNL A   1      37.364  33.452  33.181  1.00  0.00     0.029 A 
ATOM     44  N   UNL A   1      39.112  32.058  33.192  1.00  0.00    -0.354 N 
ATOM     45  C   UNL A   1      39.973  29.559  29.747  1.00  0.00     0.074 A 
ATOM     46  C   UNL A   1      39.029  29.812  28.679  1.00  0.00     0.031 C 
ATOM     47  C   UNL A   1      37.960  33.563  34.379  1.00  0.00     0.029 A 
ATOM     48  C   UNL A   1      39.081  32.630  34.445  1.00  0.00     0.049 A 
ATOM     49  H   UNL A   1      39.797  31.409  32.914  1.00  0.00     0.167 HD
ATOM     50  C   UNL A   1      41.018  28.701  29.657  1.00  0.00     0.034 A 
ATOM     51  C   UNL A   1      39.851  32.405  35.529  1.00  0.00     0.034 A 
ATOM     52  C   UNL A   1      41.949  28.462  30.732  1.00  0.00     0.049 A 
ATOM     53  C   UNL A   1      40.970  31.395  35.428  1.00  0.00     0.074 A 
ATOM     54  C   UNL A   1      43.050  27.625  30.748  1.00  0.00     0.029 A 
ATOM     55  N   UNL A   1      41.885  29.060  31.984  1.00  0.00    -0.354 N 
ATOM     56  N   UNL A   1      41.318  30.648  34.404  1.00  0.00    -0.248 NA
ATOM     57  C   UNL A   1      41.807  31.205  36.620  1.00  0.00     0.031 C 
ATOM     58  C   UNL A   1      43.612  27.664  32.028  1.00  0.00     0.029 A 
ATOM     59  C   UNL A   1      42.914  28.592  32.786  1.00  0.00     0.049 A 
ATOM     60  H   UNL A   1      41.209  29.719  32.261  1.00  0.00     0.167 HD
ATOM     61  C   UNL A   1      42.439  29.933  34.819  1.00  0.00     0.074 A 
ATOM     62  C   UNL A   1      42.714  30.345  36.180  1.00  0.00     0.031 C 
ATOM     63  C   UNL A   1      43.179  29.022  34.138  1.00  0.00     0.034 A 
BRANCH  50  64
ATOM     64  C   UNL A   1      41.195  27.954  28.357  1.00  0.00     0.023 A 
ATOM     65  C   UNL A   1      40.787  26.616  28.221  1.00  0.00     0.031 A 
ATOM     66  C   UNL A   1      41.794  28.575  27.248  1.00  0.00     0.131 A 
ATOM     67  C   UNL A   1      41.048  25.920  27.032  1.00  0.00     0.055 A 
ATOM     68  C   UNL A   1      41.973  27.903  26.037  1.00  0.00     0.041 A 
ATOM     69  F   UNL A   1      42.226  29.843  27.324  1.00  0.00    -0.206 F 
ATOM     70  C   UNL A   1      41.613  26.563  25.928  1.00  0.00     0.022 A 
BRANCH  67  71
ATOM     71  S   UNL A   1      40.771  24.129  27.000  1.00  0.00     0.124 S 
ATOM     72  O   UNL A   1      41.863  23.678  26.140  1.00  0.00    -0.237 OA
ATOM     73  O   UNL A   1      40.877  23.768  28.409  1.00  0.00    -0.237 OA
ATOM     74  O   UNL A   1      39.436  23.998  26.420  1.00  0.00    -0.744 OA
ENDBRANCH  67  71
ENDBRANCH  50  64
BRANCH  51  75
ATOM     75  C   UNL A   1      39.583  33.116  36.816  1.00  0.00     0.023 A 
ATOM     76  C   UNL A   1      38.724  32.569  37.781  1.00  0.00     0.031 A 
ATOM     77  C   UNL A   1      40.125  34.389  37.067  1.00  0.00     0.131 A 
ATOM     78  C   UNL A   1      38.374  33.319  38.915  1.00  0.00     0.055 A 
ATOM     79  C   UNL A   1      39.830  35.102  38.231  1.00  0.00     0.041 A 
ATOM     80  F   UNL A   1      40.955  34.963  36.180  1.00  0.00    -0.206 F 
ATOM     81  C   UNL A   1      38.935  34.575  39.155  1.00  0.00     0.022 A 
BRANCH  78  82
ATOM     82  S   UNL A   1      37.074  32.683  40.009  1.00  0.00     0.124 S 
ATOM     83  O   UNL A   1      35.928  32.637  39.107  1.00  0.00    -0.237 OA
ATOM     84  O   UNL A   1      37.625  31.395  40.415  1.00  0.00    -0.237 OA
ATOM     85  O   UNL A   1      36.998  33.690  41.065  1.00  0.00    -0.744 OA
ENDBRANCH  78  82
ENDBRANCH  51  75
BRANCH  63  86
ATOM     86  C   UNL A   1      44.399  28.462  34.828  1.00  0.00     0.023 A 
ATOM     87  C   UNL A   1      44.305  27.497  35.844  1.00  0.00     0.031 A 
ATOM     88  C   UNL A   1      45.681  28.895  34.442  1.00  0.00     0.131 A 
ATOM     89  C   UNL A   1      45.470  27.029  36.471  1.00  0.00     0.055 A 
ATOM     90  C   UNL A   1      46.838  28.379  35.026  1.00  0.00     0.041 A 
ATOM     91  F   UNL A   1      45.829  29.819  33.479  1.00  0.00    -0.206 F 
ATOM     92  C   UNL A   1      46.736  27.448  36.054  1.00  0.00     0.022 A 
BRANCH  89  93
ATOM     93  S   UNL A   1      45.307  25.918  37.895  1.00  0.00     0.124 S 
ATOM     94  O   UNL A   1      46.554  26.163  38.614  1.00  0.00    -0.237 OA
ATOM     95  O   UNL A   1      44.094  26.410  38.539  1.00  0.00    -0.237 OA
ATOM     96  O   UNL A   1      45.191  24.593  37.287  1.00  0.00    -0.744 OA
ENDBRANCH  89  93
ENDBRANCH  63  86
ENDBRANCH  37  38
ENDBRANCH  29  32
ENDBRANCH  27  28
ENDBRANCH  26  27
ENDBRANCH  25  26
ENDBRANCH  24  25
ENDBRANCH   1  24
TORSDOF 22
ENDMDL
MODEL 3
REMARK VINA RESULT:      -9.5      1.706      2.113
REMARK SMILES CN(CC(C)(C)O)C(=O)N1CCCC[C@H]1CC(=O)NCCCCCCNC(=O)c1ccc(-c2c3nc(c(-c4cc(S(=O)(=O)[O-])ccc4F)c4ccc([nH]4)c(-c4cc(S(=O)(=O)[O-])ccc4F)c4nc(c(-c5cc(S(=O)(=O)[O-])ccc5F)c5ccc2[nH]5)C=C4)C=C3)cc1
REMARK SMILES IDX 21 1 20 2 19 3 17 4 18 5 16 7 15 8 10 9 11 10 12 11 14 12
REMARK SMILES IDX 13 13 8 14 9 15 2 16 1 17 3 18 4 19 5 20 6 21 7 22 22 24
REMARK SMILES IDX 23 25 24 26 25 27 26 28 27 29 28 31 29 32 30 33 91 34 31 35
REMARK SMILES IDX 90 36 32 37 33 38 34 39 84 40 35 41 89 42 83 43 85 44 36 45
REMARK SMILES IDX 88 46 82 47 81 48 37 50 69 51 49 52 68 53 50 54 53 55 67 56
REMARK SMILES IDX 86 57 51 58 52 59 66 61 87 62 54 63 38 64 39 65 47 66 40 67
REMARK SMILES IDX 46 68 48 69 45 70 41 71 42 72 43 73 44 74 70 75 71 76 79 77
REMARK SMILES IDX 72 78 78 79 80 80 77 81 73 82 74 83 75 84 76 85 55 86 56 87
REMARK SMILES IDX 64 88 57 89 63 90 65 91 62 92 58 93 59 94 60 95 61 96
REMARK H PARENT 19 6 7 23 26 30 85 49 53 60
REMARK Flexibility Score: inf
ROOT
ATOM      1  C   UNL A   1      35.700  30.723  27.914  1.00  0.00     0.021 C 
ENDROOT
BRANCH   1   2
ATOM      2  C   UNL A   1      34.602  29.891  27.250  1.00  0.00     0.116 C 
BRANCH   2   3
ATOM      3  N   UNL A   1      33.415  30.698  27.015  1.00  0.00    -0.356 N 
ATOM      4  C   UNL A   1      32.160  30.346  26.607  1.00  0.00     0.222 C 
ATOM      5  O   UNL A   1      31.343  31.245  26.392  1.00  0.00    -0.275 OA
ATOM      6  H   UNL A   1      33.536  31.662  27.179  1.00  0.00     0.163 HD
BRANCH   4   7
ATOM      7  C   UNL A   1      31.763  28.890  26.496  1.00  0.00     0.125 C 
BRANCH   7   8
ATOM      8  C   UNL A   1      32.127  28.069  25.231  1.00  0.00     0.096 C 
ATOM      9  N   UNL A   1      31.467  26.790  24.961  1.00  0.00    -0.321 N 
ATOM     10  C   UNL A   1      30.051  26.916  24.642  1.00  0.00     0.121 C 
ATOM     11  C   UNL A   1      29.814  27.827  23.432  1.00  0.00     0.022 C 
ATOM     12  C   UNL A   1      32.064  28.923  23.948  1.00  0.00     0.026 C 
ATOM     13  C   UNL A   1      30.638  29.117  23.444  1.00  0.00     0.004 C 
BRANCH   9  14
ATOM     14  C   UNL A   1      32.090  25.755  24.269  1.00  0.00     0.320 C 
ATOM     15  O   UNL A   1      32.907  26.014  23.378  1.00  0.00    -0.248 OA
BRANCH  14  16
ATOM     16  N   UNL A   1      31.679  24.448  24.457  1.00  0.00    -0.325 N 
ATOM     17  C   UNL A   1      31.453  23.722  23.208  1.00  0.00     0.148 C 
BRANCH  16  18
ATOM     18  C   UNL A   1      31.161  23.801  25.674  1.00  0.00     0.155 C 
BRANCH  18  19
ATOM     19  C   UNL A   1      32.211  22.900  26.408  1.00  0.00     0.077 C 
ATOM     20  C   UNL A   1      32.401  21.513  25.790  1.00  0.00     0.043 C 
ATOM     21  C   UNL A   1      33.565  23.615  26.438  1.00  0.00     0.043 C 
BRANCH  19  22
ATOM     22  O   UNL A   1      31.827  22.692  27.776  1.00  0.00    -0.389 OA
ATOM     23  H   UNL A   1      31.034  23.216  27.972  1.00  0.00     0.211 HD
ENDBRANCH  19  22
ENDBRANCH  18  19
ENDBRANCH  16  18
ENDBRANCH  14  16
ENDBRANCH   9  14
ENDBRANCH   7   8
ENDBRANCH   4   7
ENDBRANCH   2   3
ENDBRANCH   1   2
BRANCH   1  24
ATOM     24  C   UNL A   1      35.230  31.984  28.632  1.00  0.00     0.002 C 
BRANCH  24  25
ATOM     25  C   UNL A   1      35.596  33.300  27.944  1.00  0.00     0.002 C 
BRANCH  25  26
ATOM     26  C   UNL A   1      34.603  34.452  28.131  1.00  0.00     0.021 C 
BRANCH  26  27
ATOM     27  C   UNL A   1      33.325  34.105  28.893  1.00  0.00     0.116 C 
BRANCH  27  28
ATOM     28  N   UNL A   1      33.072  35.031  29.981  1.00  0.00    -0.352 N 
ATOM     29  C   UNL A   1      33.613  35.046  31.243  1.00  0.00     0.251 C 
ATOM     30  H   UNL A   1      32.424  35.747  29.788  1.00  0.00     0.163 HD
ATOM     31  O   UNL A   1      33.110  35.729  32.124  1.00  0.00    -0.269 OA
BRANCH  29  32
ATOM     32  C   UNL A   1      34.800  34.212  31.515  1.00  0.00     0.039 A 
ATOM     33  C   UNL A   1      36.067  34.706  31.207  1.00  0.00     0.014 A 
ATOM     34  C   UNL A   1      34.646  32.949  32.095  1.00  0.00     0.014 A 
ATOM     35  C   UNL A   1      37.195  33.949  31.532  1.00  0.00     0.010 A 
ATOM     36  C   UNL A   1      35.771  32.231  32.484  1.00  0.00     0.010 A 
ATOM     37  C   UNL A   1      37.057  32.720  32.199  1.00  0.00    -0.014 A 
BRANCH  37  38
ATOM     38  C   UNL A   1      38.241  31.906  32.575  1.00  0.00     0.031 A 
ATOM     39  C   UNL A   1      38.989  32.232  33.839  1.00  0.00     0.074 A 
ATOM     40  C   UNL A   1      38.674  30.924  31.761  1.00  0.00     0.049 A 
ATOM     41  N   UNL A   1      40.113  31.739  34.288  1.00  0.00    -0.248 NA
ATOM     42  C   UNL A   1      38.405  33.277  34.697  1.00  0.00     0.031 C 
ATOM     43  C   UNL A   1      38.040  30.529  30.501  1.00  0.00     0.029 A 
ATOM     44  N   UNL A   1      39.758  30.087  31.861  1.00  0.00    -0.354 N 
ATOM     45  C   UNL A   1      40.373  32.411  35.478  1.00  0.00     0.074 A 
ATOM     46  C   UNL A   1      39.327  33.399  35.638  1.00  0.00     0.031 C 
ATOM     47  C   UNL A   1      38.739  29.522  29.953  1.00  0.00     0.029 A 
ATOM     48  C   UNL A   1      39.901  29.235  30.789  1.00  0.00     0.049 A 
ATOM     49  H   UNL A   1      40.376  30.096  32.627  1.00  0.00     0.167 HD
ATOM     50  C   UNL A   1      41.373  32.203  36.368  1.00  0.00     0.034 A 
ATOM     51  C   UNL A   1      40.873  28.345  30.500  1.00  0.00     0.034 A 
ATOM     52  C   UNL A   1      42.407  31.213  36.191  1.00  0.00     0.049 A 
ATOM     53  C   UNL A   1      42.014  28.176  31.476  1.00  0.00     0.074 A 
ATOM     54  C   UNL A   1      43.460  30.908  37.034  1.00  0.00     0.029 A 
ATOM     55  N   UNL A   1      42.517  30.369  35.094  1.00  0.00    -0.354 N 
ATOM     56  N   UNL A   1      42.232  28.805  32.609  1.00  0.00    -0.248 NA
ATOM     57  C   UNL A   1      43.034  27.173  31.142  1.00  0.00     0.031 C 
ATOM     58  C   UNL A   1      44.245  29.929  36.416  1.00  0.00     0.029 A 
ATOM     59  C   UNL A   1      43.634  29.560  35.228  1.00  0.00     0.049 A 
ATOM     60  H   UNL A   1      41.894  30.349  34.332  1.00  0.00     0.167 HD
ATOM     61  C   UNL A   1      43.390  28.241  33.140  1.00  0.00     0.074 A 
ATOM     62  C   UNL A   1      43.817  27.217  32.210  1.00  0.00     0.031 C 
ATOM     63  C   UNL A   1      44.040  28.537  34.294  1.00  0.00     0.034 A 
BRANCH  50  64
ATOM     64  C   UNL A   1      41.397  33.073  37.601  1.00  0.00     0.023 A 
ATOM     65  C   UNL A   1      40.670  32.730  38.754  1.00  0.00     0.031 A 
ATOM     66  C   UNL A   1      42.137  34.268  37.623  1.00  0.00     0.131 A 
ATOM     67  C   UNL A   1      40.638  33.603  39.850  1.00  0.00     0.055 A 
ATOM     68  C   UNL A   1      42.171  35.092  38.750  1.00  0.00     0.041 A 
ATOM     69  F   UNL A   1      42.832  34.662  36.544  1.00  0.00    -0.206 F 
ATOM     70  C   UNL A   1      41.406  34.769  39.867  1.00  0.00     0.022 A 
BRANCH  67  71
ATOM     71  S   UNL A   1      39.465  33.265  41.191  1.00  0.00     0.124 S 
ATOM     72  O   UNL A   1      39.054  31.897  40.883  1.00  0.00    -0.237 OA
ATOM     73  O   UNL A   1      40.291  33.431  42.382  1.00  0.00    -0.237 OA
ATOM     74  O   UNL A   1      38.428  34.277  41.003  1.00  0.00    -0.744 OA
ENDBRANCH  67  71
ENDBRANCH  50  64
BRANCH  51  75
ATOM     75  C   UNL A   1      40.840  27.565  29.227  1.00  0.00     0.023 A 
ATOM     76  C   UNL A   1      41.749  27.830  28.191  1.00  0.00     0.031 A 
ATOM     77  C   UNL A   1      39.850  26.592  28.998  1.00  0.00     0.131 A 
ATOM     78  C   UNL A   1      41.607  27.186  26.951  1.00  0.00     0.055 A 
ATOM     79  C   UNL A   1      39.757  25.903  27.787  1.00  0.00     0.041 A 
ATOM     80  F   UNL A   1      38.954  26.295  29.952  1.00  0.00    -0.206 F 
ATOM     81  C   UNL A   1      40.628  26.212  26.748  1.00  0.00     0.022 A 
BRANCH  78  82
ATOM     82  S   UNL A   1      42.641  27.735  25.565  1.00  0.00     0.124 S 
ATOM     83  O   UNL A   1      41.902  28.900  25.090  1.00  0.00    -0.237 OA
ATOM     84  O   UNL A   1      43.913  28.007  26.227  1.00  0.00    -0.237 OA
ATOM     85  O   UNL A   1      42.640  26.584  24.665  1.00  0.00    -0.744 OA
ENDBRANCH  78  82
ENDBRANCH  51  75
BRANCH  63  86
ATOM     86  C   UNL A   1      45.241  27.695  34.651  1.00  0.00     0.023 A 
ATOM     87  C   UNL A   1      46.544  28.055  34.271  1.00  0.00     0.031 A 
ATOM     88  C   UNL A   1      45.071  26.519  35.404  1.00  0.00     0.131 A 
ATOM     89  C   UNL A   1      47.623  27.223  34.606  1.00  0.00     0.055 A 
ATOM     90  C   UNL A   1      46.155  25.729  35.788  1.00  0.00     0.041 A 
ATOM     91  F   UNL A   1      43.847  26.126  35.791  1.00  0.00    -0.206 F 
ATOM     92  C   UNL A   1      47.439  26.074  35.380  1.00  0.00     0.022 A 
BRANCH  89  93
ATOM     93  S   UNL A   1      49.267  27.620  33.951  1.00  0.00     0.124 S 
ATOM     94  O   UNL A   1      49.235  29.079  33.916  1.00  0.00    -0.237 OA
ATOM     95  O   UNL A   1      50.152  27.026  34.947  1.00  0.00    -0.237 OA
ATOM     96  O   UNL A   1      49.282  26.969  32.642  1.00  0.00    -0.744 OA
ENDBRANCH  89  93
ENDBRANCH  63  86
ENDBRANCH  37  38
ENDBRANCH  29  32
ENDBRANCH  27  28
ENDBRANCH  26  27
ENDBRANCH  25  26
ENDBRANCH  24  25
ENDBRANCH   1  24
TORSDOF 22
ENDMDL
