MODEL 1
REMARK VINA RESULT:     -12.1      0.000      0.000
REMARK SMILES Cc1ccccc1C(=O)Nc1cc(C(=O)NCCCCCCNC(=O)c2ccc(-c3c4nc(c(-c5cc(S(=O)(=O)[O-])ccc5F)c5ccc([nH]5)c(-c5cc(S(=O)(=O)[O-])ccc5F)c5nc(c(-c6cc(S(=O)(=O)[O-])ccc6F)c6ccc3[nH]6)C=C5)C=C4)cc2)ccc1N1CC[NH+](CC(=O)Nc2ccc(F)cc2)CC1
REMARK SMILES IDX 19 1 18 2 17 3 16 4 14 5 15 6 13 8 11 9 12 10 91 11 90 12
REMARK SMILES IDX 89 13 10 14 8 15 9 16 7 18 1 19 2 20 3 21 4 22 6 23 5 24
REMARK SMILES IDX 92 25 93 26 108 27 94 28 107 29 95 30 96 32 97 33 98 34
REMARK SMILES IDX 99 35 100 37 101 38 106 39 102 40 105 41 103 42 104 43 20 44
REMARK SMILES IDX 21 45 22 46 23 47 24 48 25 50 26 51 27 52 88 53 28 54 87 55
REMARK SMILES IDX 29 56 30 57 31 58 81 59 32 60 86 61 80 62 82 63 33 64 85 65
REMARK SMILES IDX 79 66 78 67 34 69 66 70 46 71 65 72 47 73 50 74 64 75 83 76
REMARK SMILES IDX 48 77 49 78 63 80 84 81 51 82 35 83 36 84 44 85 37 86 43 87
REMARK SMILES IDX 45 88 42 89 38 90 39 91 40 92 41 93 67 94 68 95 76 96 69 97
REMARK SMILES IDX 75 98 77 99 74 100 70 101 71 102 72 103 73 104 52 105 53 106
REMARK SMILES IDX 61 107 54 108 60 109 62 110 59 111 55 112 56 113 57 114
REMARK SMILES IDX 58 115
REMARK H PARENT 16 7 10 17 95 31 99 36 23 49 82 68 50 79
REMARK Flexibility Score: inf
ROOT
ATOM      1  C   UNL A   1      40.938  24.248  27.409  1.00  0.00     0.002 C 
ENDROOT
BRANCH   1   2
ATOM      2  C   UNL A   1      39.996  23.043  27.530  1.00  0.00     0.021 C 
BRANCH   2   3
ATOM      3  C   UNL A   1      38.888  23.019  26.474  1.00  0.00     0.116 C 
BRANCH   3   4
ATOM      4  N   UNL A   1      38.699  21.691  25.918  1.00  0.00    -0.352 N 
ATOM      5  C   UNL A   1      37.744  21.133  25.104  1.00  0.00     0.251 C 
ATOM      6  O   UNL A   1      37.924  19.970  24.736  1.00  0.00    -0.269 OA
ATOM      7  H   UNL A   1      39.405  21.056  26.180  1.00  0.00     0.163 HD
BRANCH   5   8
ATOM      8  C   UNL A   1      36.549  21.863  24.585  1.00  0.00     0.042 A 
ATOM      9  C   UNL A   1      34.203  22.465  24.595  1.00  0.00     0.065 A 
ATOM     10  C   UNL A   1      35.244  21.614  24.977  1.00  0.00     0.042 A 
ATOM     11  C   UNL A   1      34.380  23.513  23.644  1.00  0.00     0.061 A 
ATOM     12  C   UNL A   1      35.689  23.673  23.169  1.00  0.00     0.029 A 
ATOM     13  C   UNL A   1      36.755  22.893  23.654  1.00  0.00     0.016 A 
BRANCH   9  14
ATOM     14  N   UNL A   1      32.947  22.242  25.175  1.00  0.00    -0.320 N 
ATOM     15  C   UNL A   1      32.184  21.085  25.175  1.00  0.00     0.255 C 
ATOM     16  O   UNL A   1      31.272  21.006  26.005  1.00  0.00    -0.269 OA
ATOM     17  H   UNL A   1      32.553  23.011  25.644  1.00  0.00     0.170 HD
BRANCH  15  18
ATOM     18  C   UNL A   1      32.379  19.914  24.265  1.00  0.00     0.043 A 
ATOM     19  C   UNL A   1      31.902  21.012  21.963  1.00  0.00     0.045 C 
ATOM     20  C   UNL A   1      32.241  19.858  22.861  1.00  0.00    -0.038 A 
ATOM     21  C   UNL A   1      32.461  18.624  22.206  1.00  0.00     0.004 A 
ATOM     22  C   UNL A   1      32.911  17.501  22.896  1.00  0.00     0.000 A 
ATOM     23  C   UNL A   1      32.876  18.776  24.935  1.00  0.00     0.014 A 
ATOM     24  C   UNL A   1      33.149  17.586  24.259  1.00  0.00     0.001 A 
ENDBRANCH  15  18
ENDBRANCH   9  14
BRANCH  11  25
ATOM     25  N   UNL A   1      33.354  24.366  23.238  1.00  0.00    -0.359 N 
ATOM     26  C   UNL A   1      33.587  25.601  22.439  1.00  0.00     0.178 C 
ATOM     27  C   UNL A   1      32.121  24.463  24.016  1.00  0.00     0.178 C 
ATOM     28  C   UNL A   1      32.269  26.189  21.794  1.00  0.00     0.284 C 
ATOM     29  C   UNL A   1      30.963  24.607  23.027  1.00  0.00     0.284 C 
ATOM     30  N   UNL A   1      30.957  25.944  22.442  1.00  0.00    -0.324 N 
ATOM     31  H   UNL A   1      30.270  26.000  21.690  1.00  0.00     0.348 HD
BRANCH  30  32
ATOM     32  C   UNL A   1      30.403  26.993  23.324  1.00  0.00     0.364 C 
BRANCH  32  33
ATOM     33  C   UNL A   1      30.602  28.452  22.919  1.00  0.00     0.279 C 
ATOM     34  O   UNL A   1      30.127  28.859  21.847  1.00  0.00    -0.268 OA
ATOM     35  N   UNL A   1      31.214  29.402  23.691  1.00  0.00    -0.321 N 
ATOM     36  H   UNL A   1      30.970  30.310  23.399  1.00  0.00     0.170 HD
BRANCH  35  37
ATOM     37  C   UNL A   1      32.098  29.438  24.790  1.00  0.00     0.041 A 
ATOM     38  C   UNL A   1      33.301  28.724  24.640  1.00  0.00     0.029 A 
ATOM     39  C   UNL A   1      31.842  30.008  26.033  1.00  0.00     0.029 A 
ATOM     40  C   UNL A   1      34.183  28.542  25.714  1.00  0.00     0.041 A 
ATOM     41  C   UNL A   1      32.691  29.784  27.128  1.00  0.00     0.041 A 
ATOM     42  C   UNL A   1      33.854  29.051  26.959  1.00  0.00     0.123 A 
ATOM     43  F   UNL A   1      34.670  28.841  28.000  1.00  0.00    -0.207 F 
ENDBRANCH  35  37
ENDBRANCH  32  33
ENDBRANCH  30  32
ENDBRANCH  11  25
ENDBRANCH   5   8
ENDBRANCH   3   4
ENDBRANCH   2   3
ENDBRANCH   1   2
BRANCH   1  44
ATOM     44  C   UNL A   1      41.107  24.830  25.995  1.00  0.00     0.002 C 
BRANCH  44  45
ATOM     45  C   UNL A   1      41.348  26.338  25.924  1.00  0.00     0.021 C 
BRANCH  45  46
ATOM     46  C   UNL A   1      41.029  27.060  27.227  1.00  0.00     0.116 C 
BRANCH  46  47
ATOM     47  N   UNL A   1      39.726  27.710  27.237  1.00  0.00    -0.352 N 
ATOM     48  C   UNL A   1      39.102  28.414  28.258  1.00  0.00     0.251 C 
ATOM     49  H   UNL A   1      39.213  27.638  26.400  1.00  0.00     0.163 HD
ATOM     50  O   UNL A   1      37.956  28.801  28.153  1.00  0.00    -0.269 OA
BRANCH  48  51
ATOM     51  C   UNL A   1      39.913  28.806  29.438  1.00  0.00     0.039 A 
ATOM     52  C   UNL A   1      39.416  28.452  30.699  1.00  0.00     0.014 A 
ATOM     53  C   UNL A   1      40.977  29.694  29.321  1.00  0.00     0.014 A 
ATOM     54  C   UNL A   1      39.825  29.169  31.820  1.00  0.00     0.010 A 
ATOM     55  C   UNL A   1      41.308  30.473  30.412  1.00  0.00     0.010 A 
ATOM     56  C   UNL A   1      40.688  30.249  31.646  1.00  0.00    -0.014 A 
BRANCH  56  57
ATOM     57  C   UNL A   1      40.910  31.270  32.662  1.00  0.00     0.031 A 
ATOM     58  C   UNL A   1      41.824  31.018  33.791  1.00  0.00     0.074 A 
ATOM     59  C   UNL A   1      40.335  32.486  32.529  1.00  0.00     0.049 A 
ATOM     60  N   UNL A   1      41.781  31.654  34.911  1.00  0.00    -0.248 NA
ATOM     61  C   UNL A   1      42.849  29.983  33.761  1.00  0.00     0.031 C 
ATOM     62  C   UNL A   1      40.646  33.702  33.275  1.00  0.00     0.029 A 
ATOM     63  N   UNL A   1      39.154  32.785  31.853  1.00  0.00    -0.354 N 
ATOM     64  C   UNL A   1      42.919  31.343  35.616  1.00  0.00     0.074 A 
ATOM     65  C   UNL A   1      43.517  30.248  34.888  1.00  0.00     0.031 C 
ATOM     66  C   UNL A   1      39.576  34.510  33.252  1.00  0.00     0.029 A 
ATOM     67  C   UNL A   1      38.501  33.782  32.603  1.00  0.00     0.049 A 
ATOM     68  H   UNL A   1      38.837  32.379  31.014  1.00  0.00     0.167 HD
ATOM     69  C   UNL A   1      43.293  32.137  36.658  1.00  0.00     0.034 A 
ATOM     70  C   UNL A   1      37.259  33.571  33.126  1.00  0.00     0.034 A 
ATOM     71  C   UNL A   1      42.313  33.194  36.910  1.00  0.00     0.049 A 
ATOM     72  C   UNL A   1      37.209  33.693  34.633  1.00  0.00     0.074 A 
ATOM     73  C   UNL A   1      42.269  34.545  36.604  1.00  0.00     0.029 A 
ATOM     74  N   UNL A   1      41.034  32.849  37.331  1.00  0.00    -0.354 N 
ATOM     75  N   UNL A   1      38.261  33.693  35.406  1.00  0.00    -0.248 NA
ATOM     76  C   UNL A   1      35.970  33.816  35.391  1.00  0.00     0.031 C 
ATOM     77  C   UNL A   1      40.943  35.004  36.822  1.00  0.00     0.029 A 
ATOM     78  C   UNL A   1      40.188  33.939  37.284  1.00  0.00     0.049 A 
ATOM     79  H   UNL A   1      40.767  31.948  37.625  1.00  0.00     0.167 HD
ATOM     80  C   UNL A   1      37.880  33.810  36.723  1.00  0.00     0.074 A 
ATOM     81  C   UNL A   1      36.431  33.896  36.652  1.00  0.00     0.031 C 
ATOM     82  C   UNL A   1      38.805  33.818  37.736  1.00  0.00     0.034 A 
BRANCH  69  83
ATOM     83  C   UNL A   1      44.677  32.133  37.267  1.00  0.00     0.023 A 
ATOM     84  C   UNL A   1      45.006  31.155  38.230  1.00  0.00     0.031 A 
ATOM     85  C   UNL A   1      45.695  33.064  36.982  1.00  0.00     0.131 A 
ATOM     86  C   UNL A   1      46.226  31.191  38.929  1.00  0.00     0.055 A 
ATOM     87  C   UNL A   1      46.885  33.137  37.719  1.00  0.00     0.041 A 
ATOM     88  F   UNL A   1      45.606  33.906  35.944  1.00  0.00    -0.206 F 
ATOM     89  C   UNL A   1      47.152  32.205  38.710  1.00  0.00     0.022 A 
BRANCH  86  90
ATOM     90  S   UNL A   1      46.593  29.880  40.130  1.00  0.00     0.124 S 
ATOM     91  O   UNL A   1      45.264  29.359  40.436  1.00  0.00    -0.237 OA
ATOM     92  O   UNL A   1      47.473  29.001  39.369  1.00  0.00    -0.237 OA
ATOM     93  O   UNL A   1      47.241  30.598  41.227  1.00  0.00    -0.744 OA
ENDBRANCH  86  90
ENDBRANCH  69  83
BRANCH  70  94
ATOM     94  C   UNL A   1      36.420  32.681  32.269  1.00  0.00     0.023 A 
ATOM     95  C   UNL A   1      35.806  33.289  31.150  1.00  0.00     0.031 A 
ATOM     96  C   UNL A   1      36.578  31.290  32.252  1.00  0.00     0.131 A 
ATOM     97  C   UNL A   1      35.573  32.550  29.983  1.00  0.00     0.055 A 
ATOM     98  C   UNL A   1      36.249  30.538  31.116  1.00  0.00     0.041 A 
ATOM     99  F   UNL A   1      37.175  30.657  33.273  1.00  0.00    -0.206 F 
ATOM    100  C   UNL A   1      35.798  31.173  29.956  1.00  0.00     0.022 A 
BRANCH  97 101
ATOM    101  S   UNL A   1      35.303  33.462  28.430  1.00  0.00     0.124 S 
ATOM    102  O   UNL A   1      34.203  32.720  27.827  1.00  0.00    -0.237 OA
ATOM    103  O   UNL A   1      34.983  34.808  28.901  1.00  0.00    -0.237 OA
ATOM    104  O   UNL A   1      36.588  33.358  27.740  1.00  0.00    -0.744 OA
ENDBRANCH  97 101
ENDBRANCH  70  94
BRANCH  82 105
ATOM    105  C   UNL A   1      38.549  33.777  39.239  1.00  0.00     0.023 A 
ATOM    106  C   UNL A   1      38.125  32.642  39.941  1.00  0.00     0.031 A 
ATOM    107  C   UNL A   1      38.776  34.925  40.049  1.00  0.00     0.131 A 
ATOM    108  C   UNL A   1      37.910  32.670  41.335  1.00  0.00     0.055 A 
ATOM    109  C   UNL A   1      38.613  34.939  41.439  1.00  0.00     0.041 A 
ATOM    110  F   UNL A   1      39.180  36.095  39.535  1.00  0.00    -0.206 F 
ATOM    111  C   UNL A   1      38.170  33.806  42.094  1.00  0.00     0.022 A 
BRANCH 108 112
ATOM    112  S   UNL A   1      37.246  31.183  42.132  1.00  0.00     0.124 S 
ATOM    113  O   UNL A   1      37.486  31.465  43.544  1.00  0.00    -0.237 OA
ATOM    114  O   UNL A   1      35.849  31.203  41.712  1.00  0.00    -0.237 OA
ATOM    115  O   UNL A   1      38.049  30.099  41.569  1.00  0.00    -0.744 OA
ENDBRANCH 108 112
ENDBRANCH  82 105
ENDBRANCH  56  57
ENDBRANCH  48  51
ENDBRANCH  46  47
ENDBRANCH  45  46
ENDBRANCH  44  45
ENDBRANCH   1  44
TORSDOF 22
ENDMDL
MODEL 2
REMARK VINA RESULT:     -11.6      1.726      2.049
REMARK SMILES Cc1ccccc1C(=O)Nc1cc(C(=O)NCCCCCCNC(=O)c2ccc(-c3c4nc(c(-c5cc(S(=O)(=O)[O-])ccc5F)c5ccc([nH]5)c(-c5cc(S(=O)(=O)[O-])ccc5F)c5nc(c(-c6cc(S(=O)(=O)[O-])ccc6F)c6ccc3[nH]6)C=C5)C=C4)cc2)ccc1N1CC[NH+](CC(=O)Nc2ccc(F)cc2)CC1
REMARK SMILES IDX 19 1 18 2 17 3 16 4 14 5 15 6 13 8 11 9 12 10 91 11 90 12
REMARK SMILES IDX 89 13 10 14 8 15 9 16 7 18 1 19 2 20 3 21 4 22 6 23 5 24
REMARK SMILES IDX 92 25 93 26 108 27 94 28 107 29 95 30 96 32 97 33 98 34
REMARK SMILES IDX 99 35 100 37 101 38 106 39 102 40 105 41 103 42 104 43 20 44
REMARK SMILES IDX 21 45 22 46 23 47 24 48 25 50 26 51 27 52 88 53 28 54 87 55
REMARK SMILES IDX 29 56 30 57 31 58 81 59 32 60 86 61 80 62 82 63 33 64 85 65
REMARK SMILES IDX 79 66 78 67 34 69 66 70 46 71 65 72 47 73 50 74 64 75 83 76
REMARK SMILES IDX 48 77 49 78 63 80 84 81 51 82 35 83 36 84 44 85 37 86 43 87
REMARK SMILES IDX 45 88 42 89 38 90 39 91 40 92 41 93 67 94 68 95 76 96 69 97
REMARK SMILES IDX 75 98 77 99 74 100 70 101 71 102 72 103 73 104 52 105 53 106
REMARK SMILES IDX 61 107 54 108 60 109 62 110 59 111 55 112 56 113 57 114
REMARK SMILES IDX 58 115
REMARK H PARENT 16 7 10 17 95 31 99 36 23 49 82 68 50 79
REMARK Flexibility Score: inf
ROOT
ATOM      1  C   UNL A   1      40.785  24.408  27.362  1.00  0.00     0.002 C 
ENDROOT
BRANCH   1   2
ATOM      2  C   UNL A   1      39.823  23.213  27.316  1.00  0.00     0.021 C 
BRANCH   2   3
ATOM      3  C   UNL A   1      39.005  23.132  26.025  1.00  0.00     0.116 C 
BRANCH   3   4
ATOM      4  N   UNL A   1      38.684  21.759  25.673  1.00  0.00    -0.352 N 
ATOM      5  C   UNL A   1      37.629  21.172  25.020  1.00  0.00     0.251 C 
ATOM      6  O   UNL A   1      37.702  19.960  24.803  1.00  0.00    -0.269 OA
ATOM      7  H   UNL A   1      39.367  21.113  25.965  1.00  0.00     0.163 HD
BRANCH   5   8
ATOM      8  C   UNL A   1      36.443  21.915  24.498  1.00  0.00     0.042 A 
ATOM      9  C   UNL A   1      34.104  22.543  24.504  1.00  0.00     0.065 A 
ATOM     10  C   UNL A   1      35.134  21.681  24.889  1.00  0.00     0.042 A 
ATOM     11  C   UNL A   1      34.293  23.587  23.551  1.00  0.00     0.061 A 
ATOM     12  C   UNL A   1      35.605  23.731  23.077  1.00  0.00     0.029 A 
ATOM     13  C   UNL A   1      36.662  22.940  23.565  1.00  0.00     0.016 A 
BRANCH   9  14
ATOM     14  N   UNL A   1      32.844  22.335  25.082  1.00  0.00    -0.320 N 
ATOM     15  C   UNL A   1      32.100  21.168  25.146  1.00  0.00     0.255 C 
ATOM     16  O   UNL A   1      31.180  21.126  25.970  1.00  0.00    -0.269 OA
ATOM     17  H   UNL A   1      32.433  23.126  25.499  1.00  0.00     0.170 HD
BRANCH  15  18
ATOM     18  C   UNL A   1      32.324  19.947  24.314  1.00  0.00     0.043 A 
ATOM     19  C   UNL A   1      31.908  20.903  21.939  1.00  0.00     0.045 C 
ATOM     20  C   UNL A   1      32.226  19.807  22.912  1.00  0.00    -0.038 A 
ATOM     21  C   UNL A   1      32.469  18.537  22.338  1.00  0.00     0.004 A 
ATOM     22  C   UNL A   1      32.903  17.459  23.106  1.00  0.00     0.000 A 
ATOM     23  C   UNL A   1      32.807  18.852  25.063  1.00  0.00     0.014 A 
ATOM     24  C   UNL A   1      33.103  17.626  24.467  1.00  0.00     0.001 A 
ENDBRANCH  15  18
ENDBRANCH   9  14
BRANCH  11  25
ATOM     25  N   UNL A   1      33.278  24.451  23.142  1.00  0.00    -0.359 N 
ATOM     26  C   UNL A   1      33.528  25.693  22.359  1.00  0.00     0.178 C 
ATOM     27  C   UNL A   1      32.036  24.547  23.906  1.00  0.00     0.178 C 
ATOM     28  C   UNL A   1      32.221  26.296  21.704  1.00  0.00     0.284 C 
ATOM     29  C   UNL A   1      30.891  24.709  22.905  1.00  0.00     0.284 C 
ATOM     30  N   UNL A   1      30.901  26.052  22.334  1.00  0.00    -0.324 N 
ATOM     31  H   UNL A   1      30.223  26.120  21.575  1.00  0.00     0.348 HD
BRANCH  30  32
ATOM     32  C   UNL A   1      30.343  27.095  23.221  1.00  0.00     0.364 C 
BRANCH  32  33
ATOM     33  C   UNL A   1      30.718  28.549  22.946  1.00  0.00     0.279 C 
ATOM     34  O   UNL A   1      30.318  29.098  21.906  1.00  0.00    -0.268 OA
ATOM     35  N   UNL A   1      31.418  29.354  23.804  1.00  0.00    -0.321 N 
ATOM     36  H   UNL A   1      31.288  30.305  23.588  1.00  0.00     0.170 HD
BRANCH  35  37
ATOM     37  C   UNL A   1      32.275  29.193  24.914  1.00  0.00     0.041 A 
ATOM     38  C   UNL A   1      31.966  29.961  26.052  1.00  0.00     0.029 A 
ATOM     39  C   UNL A   1      33.447  28.445  24.944  1.00  0.00     0.029 A 
ATOM     40  C   UNL A   1      32.830  30.018  27.153  1.00  0.00     0.041 A 
ATOM     41  C   UNL A   1      34.346  28.540  26.019  1.00  0.00     0.041 A 
ATOM     42  C   UNL A   1      34.030  29.327  27.114  1.00  0.00     0.123 A 
ATOM     43  F   UNL A   1      34.882  29.416  28.144  1.00  0.00    -0.207 F 
ENDBRANCH  35  37
ENDBRANCH  32  33
ENDBRANCH  30  32
ENDBRANCH  11  25
ENDBRANCH   5   8
ENDBRANCH   3   4
ENDBRANCH   2   3
ENDBRANCH   1   2
BRANCH   1  44
ATOM     44  C   UNL A   1      41.097  25.073  26.010  1.00  0.00     0.002 C 
BRANCH  44  45
ATOM     45  C   UNL A   1      41.596  26.517  26.082  1.00  0.00     0.021 C 
BRANCH  45  46
ATOM     46  C   UNL A   1      41.224  27.218  27.382  1.00  0.00     0.116 C 
BRANCH  46  47
ATOM     47  N   UNL A   1      39.938  27.899  27.337  1.00  0.00    -0.352 N 
ATOM     48  C   UNL A   1      39.311  28.660  28.314  1.00  0.00     0.251 C 
ATOM     49  H   UNL A   1      39.441  27.807  26.492  1.00  0.00     0.163 HD
ATOM     50  O   UNL A   1      38.178  29.071  28.169  1.00  0.00    -0.269 OA
BRANCH  48  51
ATOM     51  C   UNL A   1      40.107  29.079  29.496  1.00  0.00     0.039 A 
ATOM     52  C   UNL A   1      39.651  28.661  30.752  1.00  0.00     0.014 A 
ATOM     53  C   UNL A   1      41.105  30.043  29.391  1.00  0.00     0.014 A 
ATOM     54  C   UNL A   1      40.022  29.376  31.887  1.00  0.00     0.010 A 
ATOM     55  C   UNL A   1      41.393  30.816  30.497  1.00  0.00     0.010 A 
ATOM     56  C   UNL A   1      40.805  30.518  31.732  1.00  0.00    -0.014 A 
BRANCH  56  57
ATOM     57  C   UNL A   1      40.967  31.528  32.771  1.00  0.00     0.031 A 
ATOM     58  C   UNL A   1      41.907  31.311  33.886  1.00  0.00     0.074 A 
ATOM     59  C   UNL A   1      40.310  32.705  32.672  1.00  0.00     0.049 A 
ATOM     60  N   UNL A   1      41.831  31.915  35.022  1.00  0.00    -0.248 NA
ATOM     61  C   UNL A   1      42.999  30.348  33.823  1.00  0.00     0.031 C 
ATOM     62  C   UNL A   1      40.545  33.920  33.445  1.00  0.00     0.029 A 
ATOM     63  N   UNL A   1      39.105  32.940  32.013  1.00  0.00    -0.354 N 
ATOM     64  C   UNL A   1      42.994  31.665  35.710  1.00  0.00     0.074 A 
ATOM     65  C   UNL A   1      43.658  30.631  34.951  1.00  0.00     0.031 C 
ATOM     66  C   UNL A   1      39.423  34.655  33.450  1.00  0.00     0.029 A 
ATOM     67  C   UNL A   1      38.394  33.872  32.792  1.00  0.00     0.049 A 
ATOM     68  H   UNL A   1      38.809  32.533  31.166  1.00  0.00     0.167 HD
ATOM     69  C   UNL A   1      43.323  32.458  36.769  1.00  0.00     0.034 A 
ATOM     70  C   UNL A   1      37.173  33.565  33.319  1.00  0.00     0.034 A 
ATOM     71  C   UNL A   1      42.276  33.439  37.053  1.00  0.00     0.049 A 
ATOM     72  C   UNL A   1      37.129  33.647  34.829  1.00  0.00     0.074 A 
ATOM     73  C   UNL A   1      42.139  34.791  36.781  1.00  0.00     0.029 A 
ATOM     74  N   UNL A   1      41.028  32.998  37.476  1.00  0.00    -0.354 N 
ATOM     75  N   UNL A   1      38.186  33.699  35.594  1.00  0.00    -0.248 NA
ATOM     76  C   UNL A   1      35.892  33.667  35.599  1.00  0.00     0.031 C 
ATOM     77  C   UNL A   1      40.786  35.155  37.021  1.00  0.00     0.029 A 
ATOM     78  C   UNL A   1      40.110  34.030  37.462  1.00  0.00     0.049 A 
ATOM     79  H   UNL A   1      40.825  32.075  37.749  1.00  0.00     0.167 HD
ATOM     80  C   UNL A   1      37.810  33.758  36.915  1.00  0.00     0.074 A 
ATOM     81  C   UNL A   1      36.358  33.748  36.858  1.00  0.00     0.031 C 
ATOM     82  C   UNL A   1      38.742  33.805  37.921  1.00  0.00     0.034 A 
BRANCH  69  83
ATOM     83  C   UNL A   1      44.710  32.533  37.366  1.00  0.00     0.023 A 
ATOM     84  C   UNL A   1      45.756  33.111  36.615  1.00  0.00     0.031 A 
ATOM     85  C   UNL A   1      45.081  32.032  38.629  1.00  0.00     0.131 A 
ATOM     86  C   UNL A   1      47.089  33.079  37.063  1.00  0.00     0.055 A 
ATOM     87  C   UNL A   1      46.415  31.946  39.050  1.00  0.00     0.041 A 
ATOM     88  F   UNL A   1      44.166  31.657  39.533  1.00  0.00    -0.206 F 
ATOM     89  C   UNL A   1      47.432  32.459  38.259  1.00  0.00     0.022 A 
BRANCH  86  90
ATOM     90  S   UNL A   1      48.376  33.873  36.059  1.00  0.00     0.124 S 
ATOM     91  O   UNL A   1      47.679  34.118  34.799  1.00  0.00    -0.237 OA
ATOM     92  O   UNL A   1      48.706  35.050  36.853  1.00  0.00    -0.237 OA
ATOM     93  O   UNL A   1      49.428  32.859  35.994  1.00  0.00    -0.744 OA
ENDBRANCH  86  90
ENDBRANCH  69  83
BRANCH  70  94
ATOM     94  C   UNL A   1      36.389  32.641  32.446  1.00  0.00     0.023 A 
ATOM     95  C   UNL A   1      35.721  33.234  31.350  1.00  0.00     0.031 A 
ATOM     96  C   UNL A   1      36.643  31.265  32.391  1.00  0.00     0.131 A 
ATOM     97  C   UNL A   1      35.527  32.510  30.166  1.00  0.00     0.055 A 
ATOM     98  C   UNL A   1      36.354  30.521  31.238  1.00  0.00     0.041 A 
ATOM     99  F   UNL A   1      37.294  30.649  33.389  1.00  0.00    -0.206 F 
ATOM    100  C   UNL A   1      35.846  31.153  30.100  1.00  0.00     0.022 A 
BRANCH  97 101
ATOM    101  S   UNL A   1      35.176  33.441  28.641  1.00  0.00     0.124 S 
ATOM    102  O   UNL A   1      35.629  34.782  28.990  1.00  0.00    -0.237 OA
ATOM    103  O   UNL A   1      35.979  32.736  27.643  1.00  0.00    -0.237 OA
ATOM    104  O   UNL A   1      33.733  33.286  28.466  1.00  0.00    -0.744 OA
ENDBRANCH  97 101
ENDBRANCH  70  94
BRANCH  82 105
ATOM    105  C   UNL A   1      38.503  33.711  39.425  1.00  0.00     0.023 A 
ATOM    106  C   UNL A   1      38.891  34.686  40.352  1.00  0.00     0.031 A 
ATOM    107  C   UNL A   1      37.806  32.603  39.985  1.00  0.00     0.131 A 
ATOM    108  C   UNL A   1      38.634  34.540  41.732  1.00  0.00     0.055 A 
ATOM    109  C   UNL A   1      37.505  32.483  41.346  1.00  0.00     0.041 A 
ATOM    110  F   UNL A   1      37.368  31.581  39.237  1.00  0.00    -0.206 F 
ATOM    111  C   UNL A   1      37.926  33.454  42.235  1.00  0.00     0.022 A 
BRANCH 108 112
ATOM    112  S   UNL A   1      39.284  35.798  42.864  1.00  0.00     0.124 S 
ATOM    113  O   UNL A   1      40.531  35.186  43.311  1.00  0.00    -0.237 OA
ATOM    114  O   UNL A   1      39.426  36.959  41.991  1.00  0.00    -0.237 OA
ATOM    115  O   UNL A   1      38.246  35.913  43.887  1.00  0.00    -0.744 OA
ENDBRANCH 108 112
ENDBRANCH  82 105
ENDBRANCH  56  57
ENDBRANCH  48  51
ENDBRANCH  46  47
ENDBRANCH  45  46
ENDBRANCH  44  45
ENDBRANCH   1  44
TORSDOF 22
ENDMDL
MODEL 3
REMARK VINA RESULT:     -11.1      7.297     11.008
REMARK SMILES Cc1ccccc1C(=O)Nc1cc(C(=O)NCCCCCCNC(=O)c2ccc(-c3c4nc(c(-c5cc(S(=O)(=O)[O-])ccc5F)c5ccc([nH]5)c(-c5cc(S(=O)(=O)[O-])ccc5F)c5nc(c(-c6cc(S(=O)(=O)[O-])ccc6F)c6ccc3[nH]6)C=C5)C=C4)cc2)ccc1N1CC[NH+](CC(=O)Nc2ccc(F)cc2)CC1
REMARK SMILES IDX 19 1 18 2 17 3 16 4 14 5 15 6 13 8 11 9 12 10 91 11 90 12
REMARK SMILES IDX 89 13 10 14 8 15 9 16 7 18 1 19 2 20 3 21 4 22 6 23 5 24
REMARK SMILES IDX 92 25 93 26 108 27 94 28 107 29 95 30 96 32 97 33 98 34
REMARK SMILES IDX 99 35 100 37 101 38 106 39 102 40 105 41 103 42 104 43 20 44
REMARK SMILES IDX 21 45 22 46 23 47 24 48 25 50 26 51 27 52 88 53 28 54 87 55
REMARK SMILES IDX 29 56 30 57 31 58 81 59 32 60 86 61 80 62 82 63 33 64 85 65
REMARK SMILES IDX 79 66 78 67 34 69 66 70 46 71 65 72 47 73 50 74 64 75 83 76
REMARK SMILES IDX 48 77 49 78 63 80 84 81 51 82 35 83 36 84 44 85 37 86 43 87
REMARK SMILES IDX 45 88 42 89 38 90 39 91 40 92 41 93 67 94 68 95 76 96 69 97
REMARK SMILES IDX 75 98 77 99 74 100 70 101 71 102 72 103 73 104 52 105 53 106
REMARK SMILES IDX 61 107 54 108 60 109 62 110 59 111 55 112 56 113 57 114
REMARK SMILES IDX 58 115
REMARK H PARENT 16 7 10 17 95 31 99 36 23 49 82 68 50 79
REMARK Flexibility Score: inf
ROOT
ATOM      1  C   UNL A   1      41.348  22.673  27.452  1.00  0.00     0.002 C 
ENDROOT
BRANCH   1   2
ATOM      2  C   UNL A   1      39.855  22.998  27.598  1.00  0.00     0.021 C 
BRANCH   2   3
ATOM      3  C   UNL A   1      39.089  22.976  26.272  1.00  0.00     0.116 C 
BRANCH   3   4
ATOM      4  N   UNL A   1      38.803  21.621  25.835  1.00  0.00    -0.352 N 
ATOM      5  C   UNL A   1      37.779  21.056  25.115  1.00  0.00     0.251 C 
ATOM      6  O   UNL A   1      37.879  19.859  24.833  1.00  0.00    -0.269 OA
ATOM      7  H   UNL A   1      39.487  20.970  26.113  1.00  0.00     0.163 HD
BRANCH   5   8
ATOM      8  C   UNL A   1      36.598  21.809  24.595  1.00  0.00     0.042 A 
ATOM      9  C   UNL A   1      34.269  22.471  24.618  1.00  0.00     0.065 A 
ATOM     10  C   UNL A   1      35.291  21.599  25.004  1.00  0.00     0.042 A 
ATOM     11  C   UNL A   1      34.463  23.500  23.650  1.00  0.00     0.061 A 
ATOM     12  C   UNL A   1      35.772  23.619  23.160  1.00  0.00     0.029 A 
ATOM     13  C   UNL A   1      36.822  22.819  23.647  1.00  0.00     0.016 A 
BRANCH   9  14
ATOM     14  N   UNL A   1      33.013  22.289  25.212  1.00  0.00    -0.320 N 
ATOM     15  C   UNL A   1      32.228  21.148  25.251  1.00  0.00     0.255 C 
ATOM     16  O   UNL A   1      31.321  21.111  26.090  1.00  0.00    -0.269 OA
ATOM     17  H   UNL A   1      32.637  23.080  25.662  1.00  0.00     0.170 HD
BRANCH  15  18
ATOM     18  C   UNL A   1      32.393  19.948  24.375  1.00  0.00     0.043 A 
ATOM     19  C   UNL A   1      31.874  20.977  22.051  1.00  0.00     0.045 C 
ATOM     20  C   UNL A   1      32.224  19.849  22.977  1.00  0.00    -0.038 A 
ATOM     21  C   UNL A   1      32.420  18.594  22.356  1.00  0.00     0.004 A 
ATOM     22  C   UNL A   1      32.876  17.488  23.071  1.00  0.00     0.000 A 
ATOM     23  C   UNL A   1      32.897  18.827  25.069  1.00  0.00     0.014 A 
ATOM     24  C   UNL A   1      33.146  17.614  24.425  1.00  0.00     0.001 A 
ENDBRANCH  15  18
ENDBRANCH   9  14
BRANCH  11  25
ATOM     25  N   UNL A   1      33.456  24.373  23.240  1.00  0.00    -0.359 N 
ATOM     26  C   UNL A   1      33.723  25.645  22.512  1.00  0.00     0.178 C 
ATOM     27  C   UNL A   1      32.190  24.435  23.967  1.00  0.00     0.178 C 
ATOM     28  C   UNL A   1      32.435  26.265  21.838  1.00  0.00     0.284 C 
ATOM     29  C   UNL A   1      31.076  24.628  22.936  1.00  0.00     0.284 C 
ATOM     30  N   UNL A   1      31.096  25.991  22.415  1.00  0.00    -0.324 N 
ATOM     31  H   UNL A   1      30.443  26.084  21.638  1.00  0.00     0.348 HD
BRANCH  30  32
ATOM     32  C   UNL A   1      30.504  26.998  23.322  1.00  0.00     0.364 C 
BRANCH  32  33
ATOM     33  C   UNL A   1      30.631  28.471  22.942  1.00  0.00     0.279 C 
ATOM     34  O   UNL A   1      30.101  28.881  21.896  1.00  0.00    -0.268 OA
ATOM     35  N   UNL A   1      31.235  29.429  23.711  1.00  0.00    -0.321 N 
ATOM     36  H   UNL A   1      30.946  30.333  23.447  1.00  0.00     0.170 HD
BRANCH  35  37
ATOM     37  C   UNL A   1      32.157  29.477  24.777  1.00  0.00     0.041 A 
ATOM     38  C   UNL A   1      33.226  28.563  24.713  1.00  0.00     0.029 A 
ATOM     39  C   UNL A   1      32.045  30.252  25.927  1.00  0.00     0.029 A 
ATOM     40  C   UNL A   1      34.110  28.395  25.787  1.00  0.00     0.041 A 
ATOM     41  C   UNL A   1      32.892  30.052  27.028  1.00  0.00     0.041 A 
ATOM     42  C   UNL A   1      33.917  29.124  26.949  1.00  0.00     0.123 A 
ATOM     43  F   UNL A   1      34.731  28.934  27.995  1.00  0.00    -0.207 F 
ENDBRANCH  35  37
ENDBRANCH  32  33
ENDBRANCH  30  32
ENDBRANCH  11  25
ENDBRANCH   5   8
ENDBRANCH   3   4
ENDBRANCH   2   3
ENDBRANCH   1   2
BRANCH   1  44
ATOM     44  C   UNL A   1      41.829  22.345  26.028  1.00  0.00     0.002 C 
BRANCH  44  45
ATOM     45  C   UNL A   1      42.557  23.475  25.300  1.00  0.00     0.021 C 
BRANCH  45  46
ATOM     46  C   UNL A   1      43.715  22.988  24.438  1.00  0.00     0.116 C 
BRANCH  46  47
ATOM     47  N   UNL A   1      44.908  22.639  25.198  1.00  0.00    -0.352 N 
ATOM     48  C   UNL A   1      45.798  23.468  25.867  1.00  0.00     0.251 C 
ATOM     49  H   UNL A   1      45.114  21.678  25.243  1.00  0.00     0.163 HD
ATOM     50  O   UNL A   1      46.818  23.035  26.362  1.00  0.00    -0.269 OA
BRANCH  48  51
ATOM     51  C   UNL A   1      45.409  24.884  26.086  1.00  0.00     0.039 A 
ATOM     52  C   UNL A   1      45.918  25.831  25.187  1.00  0.00     0.014 A 
ATOM     53  C   UNL A   1      44.784  25.290  27.260  1.00  0.00     0.014 A 
ATOM     54  C   UNL A   1      46.013  27.163  25.579  1.00  0.00     0.010 A 
ATOM     55  C   UNL A   1      44.970  26.588  27.692  1.00  0.00     0.010 A 
ATOM     56  C   UNL A   1      45.637  27.508  26.875  1.00  0.00    -0.014 A 
BRANCH  56  57
ATOM     57  C   UNL A   1      46.006  28.768  27.509  1.00  0.00     0.031 A 
ATOM     58  C   UNL A   1      45.178  29.973  27.319  1.00  0.00     0.074 A 
ATOM     59  C   UNL A   1      47.070  28.815  28.341  1.00  0.00     0.049 A 
ATOM     60  N   UNL A   1      45.607  31.177  27.481  1.00  0.00    -0.248 NA
ATOM     61  C   UNL A   1      43.788  29.916  26.883  1.00  0.00     0.031 C 
ATOM     62  C   UNL A   1      47.429  29.887  29.264  1.00  0.00     0.029 A 
ATOM     63  N   UNL A   1      48.192  27.990  28.313  1.00  0.00    -0.354 N 
ATOM     64  C   UNL A   1      44.520  32.017  27.471  1.00  0.00     0.074 A 
ATOM     65  C   UNL A   1      43.419  31.193  27.029  1.00  0.00     0.031 C 
ATOM     66  C   UNL A   1      48.747  29.828  29.505  1.00  0.00     0.029 A 
ATOM     67  C   UNL A   1      49.297  28.799  28.643  1.00  0.00     0.049 A 
ATOM     68  H   UNL A   1      48.210  27.028  28.104  1.00  0.00     0.167 HD
ATOM     69  C   UNL A   1      44.651  33.279  27.969  1.00  0.00     0.034 A 
ATOM     70  C   UNL A   1      50.334  28.965  27.772  1.00  0.00     0.034 A 
ATOM     71  C   UNL A   1      46.029  33.560  28.371  1.00  0.00     0.049 A 
ATOM     72  C   UNL A   1      50.561  30.406  27.372  1.00  0.00     0.074 A 
ATOM     73  C   UNL A   1      46.675  33.595  29.597  1.00  0.00     0.029 A 
ATOM     74  N   UNL A   1      47.026  33.590  27.404  1.00  0.00    -0.354 N 
ATOM     75  N   UNL A   1      49.700  31.369  27.568  1.00  0.00    -0.248 NA
ATOM     76  C   UNL A   1      51.771  30.878  26.711  1.00  0.00     0.031 C 
ATOM     77  C   UNL A   1      48.075  33.621  29.357  1.00  0.00     0.029 A 
ATOM     78  C   UNL A   1      48.278  33.627  27.988  1.00  0.00     0.049 A 
ATOM     79  H   UNL A   1      46.864  33.586  26.434  1.00  0.00     0.167 HD
ATOM     80  C   UNL A   1      50.200  32.555  27.084  1.00  0.00     0.074 A 
ATOM     81  C   UNL A   1      51.508  32.189  26.568  1.00  0.00     0.031 C 
ATOM     82  C   UNL A   1      49.475  33.717  27.156  1.00  0.00     0.034 A 
BRANCH  69  83
ATOM     83  C   UNL A   1      43.482  34.158  28.354  1.00  0.00     0.023 A 
ATOM     84  C   UNL A   1      42.601  33.730  29.370  1.00  0.00     0.031 A 
ATOM     85  C   UNL A   1      43.156  35.389  27.754  1.00  0.00     0.131 A 
ATOM     86  C   UNL A   1      41.422  34.438  29.670  1.00  0.00     0.055 A 
ATOM     87  C   UNL A   1      41.954  36.064  28.008  1.00  0.00     0.041 A 
ATOM     88  F   UNL A   1      44.010  36.021  26.937  1.00  0.00    -0.206 F 
ATOM     89  C   UNL A   1      41.071  35.582  28.962  1.00  0.00     0.022 A 
BRANCH  86  90
ATOM     90  S   UNL A   1      40.354  33.845  31.012  1.00  0.00     0.124 S 
ATOM     91  O   UNL A   1      39.338  34.891  31.085  1.00  0.00    -0.237 OA
ATOM     92  O   UNL A   1      39.913  32.550  30.507  1.00  0.00    -0.237 OA
ATOM     93  O   UNL A   1      41.258  33.782  32.160  1.00  0.00    -0.744 OA
ENDBRANCH  86  90
ENDBRANCH  69  83
BRANCH  70  94
ATOM     94  C   UNL A   1      50.582  27.751  26.938  1.00  0.00     0.023 A 
ATOM     95  C   UNL A   1      50.315  27.878  25.556  1.00  0.00     0.031 A 
ATOM     96  C   UNL A   1      51.441  26.724  27.347  1.00  0.00     0.131 A 
ATOM     97  C   UNL A   1      51.059  27.145  24.622  1.00  0.00     0.055 A 
ATOM     98  C   UNL A   1      52.108  25.923  26.410  1.00  0.00     0.041 A 
ATOM     99  F   UNL A   1      51.752  26.567  28.642  1.00  0.00    -0.206 F 
ATOM    100  C   UNL A   1      51.962  26.168  25.042  1.00  0.00     0.022 A 
BRANCH  97 101
ATOM    101  S   UNL A   1      51.072  27.720  22.895  1.00  0.00     0.124 S 
ATOM    102  O   UNL A   1      52.313  27.146  22.390  1.00  0.00    -0.237 OA
ATOM    103  O   UNL A   1      49.839  27.147  22.356  1.00  0.00    -0.237 OA
ATOM    104  O   UNL A   1      51.053  29.176  23.015  1.00  0.00    -0.744 OA
ENDBRANCH  97 101
ENDBRANCH  70  94
BRANCH  82 105
ATOM    105  C   UNL A   1      49.807  35.069  26.532  1.00  0.00     0.023 A 
ATOM    106  C   UNL A   1      50.756  35.966  27.039  1.00  0.00     0.031 A 
ATOM    107  C   UNL A   1      49.177  35.491  25.327  1.00  0.00     0.131 A 
ATOM    108  C   UNL A   1      51.020  37.200  26.410  1.00  0.00     0.055 A 
ATOM    109  C   UNL A   1      49.476  36.692  24.674  1.00  0.00     0.041 A 
ATOM    110  F   UNL A   1      48.243  34.753  24.712  1.00  0.00    -0.206 F 
ATOM    111  C   UNL A   1      50.400  37.563  25.218  1.00  0.00     0.022 A 
BRANCH 108 112
ATOM    112  S   UNL A   1      52.176  38.344  27.211  1.00  0.00     0.124 S 
ATOM    113  O   UNL A   1      53.026  38.745  26.095  1.00  0.00    -0.237 OA
ATOM    114  O   UNL A   1      51.284  39.376  27.729  1.00  0.00    -0.237 OA
ATOM    115  O   UNL A   1      52.830  37.520  28.226  1.00  0.00    -0.744 OA
ENDBRANCH 108 112
ENDBRANCH  82 105
ENDBRANCH  56  57
ENDBRANCH  48  51
ENDBRANCH  46  47
ENDBRANCH  45  46
ENDBRANCH  44  45
ENDBRANCH   1  44
TORSDOF 22
ENDMDL
