MODEL 1
REMARK VINA RESULT:     -12.9      0.000      0.000
REMARK SMILES CC1=C([C@H](NC(=O)c2cccc3ccccc23)C(=O)NCCCCCCNC(=O)c2ccc(-c3c4nc(c(-c5cc(S(=O)(=O)[O-])ccc5F)c5ccc([nH]5)c(-c5cc(S(=O)(=O)[O-])ccc5F)c5nc(c(-c6cc(S(=O)(=O)[O-])ccc6F)c6ccc3[nH]6)C=C5)C=C4)cc2)[C@H](C)N=N1
REMARK SMILES IDX 24 1 23 2 22 3 21 4 20 5 18 6 19 7 4 9 3 10 1 11 2 12 96 13
REMARK SMILES IDX 93 14 95 15 94 16 5 17 6 18 7 20 8 21 9 22 17 23 10 24 12 25
REMARK SMILES IDX 16 26 11 27 13 28 15 29 14 30 25 31 26 32 27 33 28 34 29 36
REMARK SMILES IDX 30 37 31 38 92 39 32 40 91 41 33 42 34 43 35 44 85 45 36 46
REMARK SMILES IDX 90 47 84 48 86 49 37 50 89 51 83 52 82 53 38 55 70 56 50 57
REMARK SMILES IDX 69 58 51 59 54 60 68 61 87 62 52 63 53 64 67 66 88 67 55 68
REMARK SMILES IDX 39 69 40 70 48 71 41 72 47 73 49 74 46 75 42 76 43 77 44 78
REMARK SMILES IDX 45 79 71 80 72 81 80 82 73 83 79 84 81 85 78 86 74 87 75 88
REMARK SMILES IDX 76 89 77 90 56 91 57 92 65 93 58 94 64 95 66 96 63 97 59 98
REMARK SMILES IDX 60 99 61 100 62 101
REMARK H PARENT 20 8 5 19 27 35 86 54 54 65
REMARK Flexibility Score: inf
ROOT
ATOM      1  C   UNL A   1      36.175  20.813  25.009  1.00  0.00     0.002 C 
ENDROOT
BRANCH   1   2
ATOM      2  C   UNL A   1      34.828  20.098  24.973  1.00  0.00     0.002 C 
BRANCH   2   3
ATOM      3  C   UNL A   1      33.790  20.586  25.988  1.00  0.00     0.021 C 
BRANCH   3   4
ATOM      4  C   UNL A   1      32.407  20.982  25.451  1.00  0.00     0.116 C 
BRANCH   4   5
ATOM      5  N   UNL A   1      32.205  20.944  24.013  1.00  0.00    -0.354 N 
ATOM      6  C   UNL A   1      31.732  21.885  23.131  1.00  0.00     0.247 C 
ATOM      7  O   UNL A   1      31.655  21.543  21.943  1.00  0.00    -0.272 OA
ATOM      8  H   UNL A   1      32.452  20.088  23.594  1.00  0.00     0.163 HD
BRANCH   6   9
ATOM      9  C   UNL A   1      31.326  23.326  23.569  1.00  0.00     0.202 C 
BRANCH   9  10
ATOM     10  C   UNL A   1      32.624  24.106  23.367  1.00  0.00     0.011 C 
ATOM     11  C   UNL A   1      31.779  25.885  21.705  1.00  0.00     0.069 C 
ATOM     12  C   UNL A   1      32.798  25.110  22.481  1.00  0.00     0.064 C 
ATOM     13  N   UNL A   1      34.115  25.318  22.160  1.00  0.00    -0.160 NA
ATOM     14  C   UNL A   1      34.023  23.712  23.734  1.00  0.00     0.156 C 
ATOM     15  N   UNL A   1      34.842  24.477  22.749  1.00  0.00    -0.181 NA
ATOM     16  C   UNL A   1      34.509  24.156  25.106  1.00  0.00     0.040 C 
ENDBRANCH   9  10
BRANCH   9  17
ATOM     17  N   UNL A   1      30.692  23.496  24.906  1.00  0.00    -0.337 N 
ATOM     18  C   UNL A   1      30.856  24.446  25.943  1.00  0.00     0.252 C 
ATOM     19  H   UNL A   1      30.021  22.805  25.110  1.00  0.00     0.165 HD
ATOM     20  O   UNL A   1      30.638  24.011  27.075  1.00  0.00    -0.269 OA
BRANCH  18  21
ATOM     21  C   UNL A   1      31.174  25.933  25.759  1.00  0.00     0.047 A 
ATOM     22  C   UNL A   1      32.386  26.369  26.252  1.00  0.00     0.014 A 
ATOM     23  C   UNL A   1      30.501  26.891  24.943  1.00  0.00    -0.006 A 
ATOM     24  C   UNL A   1      32.895  27.656  26.241  1.00  0.00     0.001 A 
ATOM     25  C   UNL A   1      31.062  28.219  24.838  1.00  0.00    -0.018 A 
ATOM     26  C   UNL A   1      29.367  26.644  24.136  1.00  0.00     0.009 A 
ATOM     27  C   UNL A   1      32.207  28.598  25.535  1.00  0.00     0.009 A 
ATOM     28  C   UNL A   1      30.537  29.176  23.974  1.00  0.00     0.009 A 
ATOM     29  C   UNL A   1      28.864  27.617  23.256  1.00  0.00     0.001 A 
ATOM     30  C   UNL A   1      29.452  28.873  23.169  1.00  0.00     0.001 A 
ENDBRANCH  18  21
ENDBRANCH   9  17
ENDBRANCH   6   9
ENDBRANCH   4   5
ENDBRANCH   3   4
ENDBRANCH   2   3
ENDBRANCH   1   2
BRANCH   1  31
ATOM     31  C   UNL A   1      37.385  19.904  24.787  1.00  0.00     0.021 C 
BRANCH  31  32
ATOM     32  C   UNL A   1      38.649  20.413  25.461  1.00  0.00     0.116 C 
BRANCH  32  33
ATOM     33  N   UNL A   1      39.606  19.336  25.696  1.00  0.00    -0.352 N 
ATOM     34  C   UNL A   1      40.951  19.464  25.945  1.00  0.00     0.251 C 
ATOM     35  H   UNL A   1      39.248  18.419  25.674  1.00  0.00     0.163 HD
ATOM     36  O   UNL A   1      41.724  18.537  25.685  1.00  0.00    -0.269 OA
BRANCH  34  37
ATOM     37  C   UNL A   1      41.441  20.712  26.548  1.00  0.00     0.039 A 
ATOM     38  C   UNL A   1      42.030  21.716  25.776  1.00  0.00     0.014 A 
ATOM     39  C   UNL A   1      41.295  20.862  27.929  1.00  0.00     0.014 A 
ATOM     40  C   UNL A   1      42.424  22.895  26.404  1.00  0.00     0.010 A 
ATOM     41  C   UNL A   1      41.564  22.069  28.521  1.00  0.00     0.010 A 
ATOM     42  C   UNL A   1      42.181  23.067  27.779  1.00  0.00    -0.014 A 
BRANCH  42  43
ATOM     43  C   UNL A   1      42.408  24.355  28.428  1.00  0.00     0.031 A 
ATOM     44  C   UNL A   1      41.340  25.347  28.133  1.00  0.00     0.074 A 
ATOM     45  C   UNL A   1      43.347  24.557  29.382  1.00  0.00     0.049 A 
ATOM     46  N   UNL A   1      41.423  26.393  27.380  1.00  0.00    -0.248 NA
ATOM     47  C   UNL A   1      39.961  25.037  28.552  1.00  0.00     0.031 C 
ATOM     48  C   UNL A   1      44.258  23.581  29.986  1.00  0.00     0.029 A 
ATOM     49  N   UNL A   1      43.623  25.684  30.094  1.00  0.00    -0.354 N 
ATOM     50  C   UNL A   1      40.187  27.022  27.470  1.00  0.00     0.074 A 
ATOM     51  C   UNL A   1      39.280  26.031  27.978  1.00  0.00     0.031 C 
ATOM     52  C   UNL A   1      44.803  24.098  31.113  1.00  0.00     0.029 A 
ATOM     53  C   UNL A   1      44.413  25.492  31.230  1.00  0.00     0.049 A 
ATOM     54  H   UNL A   1      43.291  26.572  29.826  1.00  0.00     0.167 HD
ATOM     55  C   UNL A   1      40.091  28.380  27.395  1.00  0.00     0.034 A 
ATOM     56  C   UNL A   1      44.703  26.409  32.201  1.00  0.00     0.034 A 
ATOM     57  C   UNL A   1      41.300  28.946  26.828  1.00  0.00     0.049 A 
ATOM     58  C   UNL A   1      44.469  27.744  31.594  1.00  0.00     0.074 A 
ATOM     59  C   UNL A   1      41.996  28.742  25.650  1.00  0.00     0.029 A 
ATOM     60  N   UNL A   1      42.203  29.537  27.685  1.00  0.00    -0.354 N 
ATOM     61  N   UNL A   1      45.183  28.210  30.604  1.00  0.00    -0.248 NA
ATOM     62  C   UNL A   1      43.136  28.313  31.719  1.00  0.00     0.031 C 
ATOM     63  C   UNL A   1      43.369  28.707  26.043  1.00  0.00     0.029 A 
ATOM     64  C   UNL A   1      43.443  29.013  27.402  1.00  0.00     0.049 A 
ATOM     65  H   UNL A   1      42.000  30.211  28.373  1.00  0.00     0.167 HD
ATOM     66  C   UNL A   1      44.262  28.776  29.736  1.00  0.00     0.074 A 
ATOM     67  C   UNL A   1      43.024  28.874  30.511  1.00  0.00     0.031 C 
ATOM     68  C   UNL A   1      44.493  28.835  28.391  1.00  0.00     0.034 A 
BRANCH  55  69
ATOM     69  C   UNL A   1      39.103  29.216  28.183  1.00  0.00     0.023 A 
ATOM     70  C   UNL A   1      39.243  29.221  29.584  1.00  0.00     0.031 A 
ATOM     71  C   UNL A   1      37.892  29.756  27.691  1.00  0.00     0.131 A 
ATOM     72  C   UNL A   1      38.187  29.633  30.418  1.00  0.00     0.055 A 
ATOM     73  C   UNL A   1      36.871  30.227  28.523  1.00  0.00     0.041 A 
ATOM     74  F   UNL A   1      37.577  29.782  26.392  1.00  0.00    -0.206 F 
ATOM     75  C   UNL A   1      37.000  30.135  29.896  1.00  0.00     0.022 A 
BRANCH  72  76
ATOM     76  S   UNL A   1      38.329  29.326  32.196  1.00  0.00     0.124 S 
ATOM     77  O   UNL A   1      38.716  30.644  32.688  1.00  0.00    -0.237 OA
ATOM     78  O   UNL A   1      36.980  28.883  32.531  1.00  0.00    -0.237 OA
ATOM     79  O   UNL A   1      39.362  28.297  32.280  1.00  0.00    -0.744 OA
ENDBRANCH  72  76
ENDBRANCH  55  69
BRANCH  56  80
ATOM     80  C   UNL A   1      44.816  26.203  33.680  1.00  0.00     0.023 A 
ATOM     81  C   UNL A   1      43.746  26.429  34.582  1.00  0.00     0.031 A 
ATOM     82  C   UNL A   1      45.929  25.503  34.198  1.00  0.00     0.131 A 
ATOM     83  C   UNL A   1      43.817  25.960  35.921  1.00  0.00     0.055 A 
ATOM     84  C   UNL A   1      45.990  25.036  35.514  1.00  0.00     0.041 A 
ATOM     85  F   UNL A   1      46.964  25.170  33.412  1.00  0.00    -0.206 F 
ATOM     86  C   UNL A   1      44.930  25.251  36.379  1.00  0.00     0.022 A 
BRANCH  83  87
ATOM     87  S   UNL A   1      42.422  26.183  37.081  1.00  0.00     0.124 S 
ATOM     88  O   UNL A   1      41.775  27.381  36.562  1.00  0.00    -0.237 OA
ATOM     89  O   UNL A   1      41.686  24.932  36.938  1.00  0.00    -0.237 OA
ATOM     90  O   UNL A   1      43.080  26.357  38.379  1.00  0.00    -0.744 OA
ENDBRANCH  83  87
ENDBRANCH  56  80
BRANCH  68  91
ATOM     91  C   UNL A   1      45.889  28.529  27.871  1.00  0.00     0.023 A 
ATOM     92  C   UNL A   1      46.352  27.264  27.431  1.00  0.00     0.031 A 
ATOM     93  C   UNL A   1      46.757  29.625  27.714  1.00  0.00     0.131 A 
ATOM     94  C   UNL A   1      47.643  27.140  26.872  1.00  0.00     0.055 A 
ATOM     95  C   UNL A   1      48.020  29.503  27.139  1.00  0.00     0.041 A 
ATOM     96  F   UNL A   1      46.374  30.855  28.094  1.00  0.00    -0.206 F 
ATOM     97  C   UNL A   1      48.471  28.258  26.720  1.00  0.00     0.022 A 
BRANCH  94  98
ATOM     98  S   UNL A   1      48.298  25.517  26.355  1.00  0.00     0.124 S 
ATOM     99  O   UNL A   1      49.702  25.788  26.070  1.00  0.00    -0.237 OA
ATOM    100  O   UNL A   1      48.032  24.681  27.522  1.00  0.00    -0.237 OA
ATOM    101  O   UNL A   1      47.493  25.186  25.177  1.00  0.00    -0.744 OA
ENDBRANCH  94  98
ENDBRANCH  68  91
ENDBRANCH  42  43
ENDBRANCH  34  37
ENDBRANCH  32  33
ENDBRANCH  31  32
ENDBRANCH   1  31
TORSDOF 19
ENDMDL
MODEL 2
REMARK VINA RESULT:     -12.2      1.243      1.827
REMARK SMILES CC1=C([C@H](NC(=O)c2cccc3ccccc23)C(=O)NCCCCCCNC(=O)c2ccc(-c3c4nc(c(-c5cc(S(=O)(=O)[O-])ccc5F)c5ccc([nH]5)c(-c5cc(S(=O)(=O)[O-])ccc5F)c5nc(c(-c6cc(S(=O)(=O)[O-])ccc6F)c6ccc3[nH]6)C=C5)C=C4)cc2)[C@H](C)N=N1
REMARK SMILES IDX 24 1 23 2 22 3 21 4 20 5 18 6 19 7 4 9 3 10 1 11 2 12 96 13
REMARK SMILES IDX 93 14 95 15 94 16 5 17 6 18 7 20 8 21 9 22 17 23 10 24 12 25
REMARK SMILES IDX 16 26 11 27 13 28 15 29 14 30 25 31 26 32 27 33 28 34 29 36
REMARK SMILES IDX 30 37 31 38 92 39 32 40 91 41 33 42 34 43 35 44 85 45 36 46
REMARK SMILES IDX 90 47 84 48 86 49 37 50 89 51 83 52 82 53 38 55 70 56 50 57
REMARK SMILES IDX 69 58 51 59 54 60 68 61 87 62 52 63 53 64 67 66 88 67 55 68
REMARK SMILES IDX 39 69 40 70 48 71 41 72 47 73 49 74 46 75 42 76 43 77 44 78
REMARK SMILES IDX 45 79 71 80 72 81 80 82 73 83 79 84 81 85 78 86 74 87 75 88
REMARK SMILES IDX 76 89 77 90 56 91 57 92 65 93 58 94 64 95 66 96 63 97 59 98
REMARK SMILES IDX 60 99 61 100 62 101
REMARK H PARENT 20 8 5 19 27 35 86 54 54 65
REMARK Flexibility Score: inf
ROOT
ATOM      1  C   UNL A   1      35.894  21.221  25.635  1.00  0.00     0.002 C 
ENDROOT
BRANCH   1   2
ATOM      2  C   UNL A   1      34.542  20.548  25.852  1.00  0.00     0.002 C 
BRANCH   2   3
ATOM      3  C   UNL A   1      33.497  21.384  26.598  1.00  0.00     0.021 C 
BRANCH   3   4
ATOM      4  C   UNL A   1      32.232  21.789  25.829  1.00  0.00     0.116 C 
BRANCH   4   5
ATOM      5  N   UNL A   1      32.165  21.454  24.417  1.00  0.00    -0.354 N 
ATOM      6  C   UNL A   1      31.724  22.165  23.328  1.00  0.00     0.247 C 
ATOM      7  O   UNL A   1      31.775  21.591  22.231  1.00  0.00    -0.272 OA
ATOM      8  H   UNL A   1      32.497  20.552  24.201  1.00  0.00     0.163 HD
BRANCH   6   9
ATOM      9  C   UNL A   1      31.201  23.631  23.430  1.00  0.00     0.202 C 
BRANCH   9  10
ATOM     10  C   UNL A   1      32.474  24.448  23.213  1.00  0.00     0.011 C 
ATOM     11  C   UNL A   1      31.688  25.914  21.245  1.00  0.00     0.069 C 
ATOM     12  C   UNL A   1      32.674  25.321  22.202  1.00  0.00     0.064 C 
ATOM     13  N   UNL A   1      34.002  25.556  21.955  1.00  0.00    -0.160 NA
ATOM     14  C   UNL A   1      33.854  24.193  23.739  1.00  0.00     0.156 C 
ATOM     15  N   UNL A   1      34.715  24.854  22.716  1.00  0.00    -0.181 NA
ATOM     16  C   UNL A   1      34.203  24.859  25.063  1.00  0.00     0.040 C 
ENDBRANCH   9  10
BRANCH   9  17
ATOM     17  N   UNL A   1      30.412  24.006  24.636  1.00  0.00    -0.337 N 
ATOM     18  C   UNL A   1      30.385  25.159  25.458  1.00  0.00     0.252 C 
ATOM     19  H   UNL A   1      29.778  23.308  24.921  1.00  0.00     0.165 HD
ATOM     20  O   UNL A   1      30.078  24.945  26.632  1.00  0.00    -0.269 OA
BRANCH  18  21
ATOM     21  C   UNL A   1      30.605  26.602  24.991  1.00  0.00     0.047 A 
ATOM     22  C   UNL A   1      29.745  27.072  24.020  1.00  0.00     0.014 A 
ATOM     23  C   UNL A   1      31.422  27.612  25.581  1.00  0.00    -0.006 A 
ATOM     24  C   UNL A   1      29.748  28.316  23.413  1.00  0.00     0.001 A 
ATOM     25  C   UNL A   1      31.376  28.944  25.023  1.00  0.00    -0.018 A 
ATOM     26  C   UNL A   1      32.224  27.462  26.735  1.00  0.00     0.009 A 
ATOM     27  C   UNL A   1      30.594  29.260  23.915  1.00  0.00     0.009 A 
ATOM     28  C   UNL A   1      32.051  30.013  25.609  1.00  0.00     0.009 A 
ATOM     29  C   UNL A   1      32.880  28.557  27.322  1.00  0.00     0.001 A 
ATOM     30  C   UNL A   1      32.786  29.827  26.766  1.00  0.00     0.001 A 
ENDBRANCH  18  21
ENDBRANCH   9  17
ENDBRANCH   6   9
ENDBRANCH   4   5
ENDBRANCH   3   4
ENDBRANCH   2   3
ENDBRANCH   1   2
BRANCH   1  31
ATOM     31  C   UNL A   1      36.933  20.347  24.930  1.00  0.00     0.021 C 
BRANCH  31  32
ATOM     32  C   UNL A   1      38.364  20.784  25.200  1.00  0.00     0.116 C 
BRANCH  32  33
ATOM     33  N   UNL A   1      39.222  19.648  25.526  1.00  0.00    -0.352 N 
ATOM     34  C   UNL A   1      40.551  19.687  25.873  1.00  0.00     0.251 C 
ATOM     35  H   UNL A   1      38.802  18.758  25.493  1.00  0.00     0.163 HD
ATOM     36  O   UNL A   1      41.273  18.703  25.689  1.00  0.00    -0.269 OA
BRANCH  34  37
ATOM     37  C   UNL A   1      41.082  20.912  26.490  1.00  0.00     0.039 A 
ATOM     38  C   UNL A   1      41.708  21.902  25.729  1.00  0.00     0.014 A 
ATOM     39  C   UNL A   1      40.936  21.053  27.872  1.00  0.00     0.014 A 
ATOM     40  C   UNL A   1      42.141  23.060  26.371  1.00  0.00     0.010 A 
ATOM     41  C   UNL A   1      41.245  22.245  28.477  1.00  0.00     0.010 A 
ATOM     42  C   UNL A   1      41.899  23.228  27.746  1.00  0.00    -0.014 A 
BRANCH  42  43
ATOM     43  C   UNL A   1      42.169  24.501  28.408  1.00  0.00     0.031 A 
ATOM     44  C   UNL A   1      41.061  25.480  28.252  1.00  0.00     0.074 A 
ATOM     45  C   UNL A   1      43.196  24.694  29.268  1.00  0.00     0.049 A 
ATOM     46  N   UNL A   1      41.050  26.548  27.527  1.00  0.00    -0.248 NA
ATOM     47  C   UNL A   1      39.736  25.130  28.798  1.00  0.00     0.031 C 
ATOM     48  C   UNL A   1      44.179  23.718  29.749  1.00  0.00     0.029 A 
ATOM     49  N   UNL A   1      43.524  25.805  29.984  1.00  0.00    -0.354 N 
ATOM     50  C   UNL A   1      39.818  27.150  27.760  1.00  0.00     0.074 A 
ATOM     51  C   UNL A   1      38.984  26.127  28.325  1.00  0.00     0.031 C 
ATOM     52  C   UNL A   1      44.827  24.213  30.830  1.00  0.00     0.029 A 
ATOM     53  C   UNL A   1      44.427  25.595  31.029  1.00  0.00     0.049 A 
ATOM     54  H   UNL A   1      43.151  26.693  29.778  1.00  0.00     0.167 HD
ATOM     55  C   UNL A   1      39.693  28.507  27.736  1.00  0.00     0.034 A 
ATOM     56  C   UNL A   1      44.799  26.490  31.993  1.00  0.00     0.034 A 
ATOM     57  C   UNL A   1      40.829  29.113  27.069  1.00  0.00     0.049 A 
ATOM     58  C   UNL A   1      44.482  27.837  31.453  1.00  0.00     0.074 A 
ATOM     59  C   UNL A   1      41.407  28.956  25.821  1.00  0.00     0.029 A 
ATOM     60  N   UNL A   1      41.804  29.697  27.849  1.00  0.00    -0.354 N 
ATOM     61  N   UNL A   1      45.085  28.345  30.412  1.00  0.00    -0.248 NA
ATOM     62  C   UNL A   1      43.159  28.376  31.729  1.00  0.00     0.031 C 
ATOM     63  C   UNL A   1      42.812  28.938  26.073  1.00  0.00     0.029 A 
ATOM     64  C   UNL A   1      43.018  29.206  27.427  1.00  0.00     0.049 A 
ATOM     65  H   UNL A   1      41.660  30.347  28.574  1.00  0.00     0.167 HD
ATOM     66  C   UNL A   1      44.072  28.918  29.658  1.00  0.00     0.074 A 
ATOM     67  C   UNL A   1      42.916  28.969  30.557  1.00  0.00     0.031 C 
ATOM     68  C   UNL A   1      44.165  29.020  28.299  1.00  0.00     0.034 A 
BRANCH  55  69
ATOM     69  C   UNL A   1      38.776  29.300  28.645  1.00  0.00     0.023 A 
ATOM     70  C   UNL A   1      39.038  29.244  30.027  1.00  0.00     0.031 A 
ATOM     71  C   UNL A   1      37.525  29.854  28.286  1.00  0.00     0.131 A 
ATOM     72  C   UNL A   1      38.058  29.611  30.967  1.00  0.00     0.055 A 
ATOM     73  C   UNL A   1      36.579  30.280  29.223  1.00  0.00     0.041 A 
ATOM     74  F   UNL A   1      37.097  29.935  27.022  1.00  0.00    -0.206 F 
ATOM     75  C   UNL A   1      36.829  30.129  30.574  1.00  0.00     0.022 A 
BRANCH  72  76
ATOM     76  S   UNL A   1      38.357  29.227  32.711  1.00  0.00     0.124 S 
ATOM     77  O   UNL A   1      39.815  29.190  32.755  1.00  0.00    -0.237 OA
ATOM     78  O   UNL A   1      37.719  30.356  33.379  1.00  0.00    -0.237 OA
ATOM     79  O   UNL A   1      37.691  27.939  32.891  1.00  0.00    -0.744 OA
ENDBRANCH  72  76
ENDBRANCH  55  69
BRANCH  56  80
ATOM     80  C   UNL A   1      45.063  26.243  33.447  1.00  0.00     0.023 A 
ATOM     81  C   UNL A   1      45.029  24.955  34.037  1.00  0.00     0.031 A 
ATOM     82  C   UNL A   1      45.633  27.272  34.230  1.00  0.00     0.131 A 
ATOM     83  C   UNL A   1      45.552  24.744  35.341  1.00  0.00     0.055 A 
ATOM     84  C   UNL A   1      46.155  27.056  35.508  1.00  0.00     0.041 A 
ATOM     85  F   UNL A   1      45.785  28.512  33.740  1.00  0.00    -0.206 F 
ATOM     86  C   UNL A   1      46.128  25.789  36.066  1.00  0.00     0.022 A 
BRANCH  83  87
ATOM     87  S   UNL A   1      45.577  23.078  36.096  1.00  0.00     0.124 S 
ATOM     88  O   UNL A   1      46.990  22.727  36.027  1.00  0.00    -0.237 OA
ATOM     89  O   UNL A   1      45.031  23.323  37.425  1.00  0.00    -0.237 OA
ATOM     90  O   UNL A   1      44.709  22.291  35.217  1.00  0.00    -0.744 OA
ENDBRANCH  83  87
ENDBRANCH  56  80
BRANCH  68  91
ATOM     91  C   UNL A   1      45.506  28.757  27.633  1.00  0.00     0.023 A 
ATOM     92  C   UNL A   1      45.923  27.528  27.064  1.00  0.00     0.031 A 
ATOM     93  C   UNL A   1      46.360  29.864  27.475  1.00  0.00     0.131 A 
ATOM     94  C   UNL A   1      47.157  27.448  26.381  1.00  0.00     0.055 A 
ATOM     95  C   UNL A   1      47.564  29.787  26.779  1.00  0.00     0.041 A 
ATOM     96  F   UNL A   1      46.017  31.063  27.975  1.00  0.00    -0.206 F 
ATOM     97  C   UNL A   1      47.970  28.577  26.234  1.00  0.00     0.022 A 
BRANCH  94  98
ATOM     98  S   UNL A   1      47.757  25.869  25.692  1.00  0.00     0.124 S 
ATOM     99  O   UNL A   1      46.945  24.867  26.371  1.00  0.00    -0.237 OA
ATOM    100  O   UNL A   1      47.509  26.032  24.262  1.00  0.00    -0.237 OA
ATOM    101  O   UNL A   1      49.174  25.853  26.061  1.00  0.00    -0.744 OA
ENDBRANCH  94  98
ENDBRANCH  68  91
ENDBRANCH  42  43
ENDBRANCH  34  37
ENDBRANCH  32  33
ENDBRANCH  31  32
ENDBRANCH   1  31
TORSDOF 19
ENDMDL
MODEL 3
REMARK VINA RESULT:     -12.1      1.594      2.208
REMARK SMILES CC1=C([C@H](NC(=O)c2cccc3ccccc23)C(=O)NCCCCCCNC(=O)c2ccc(-c3c4nc(c(-c5cc(S(=O)(=O)[O-])ccc5F)c5ccc([nH]5)c(-c5cc(S(=O)(=O)[O-])ccc5F)c5nc(c(-c6cc(S(=O)(=O)[O-])ccc6F)c6ccc3[nH]6)C=C5)C=C4)cc2)[C@H](C)N=N1
REMARK SMILES IDX 24 1 23 2 22 3 21 4 20 5 18 6 19 7 4 9 3 10 1 11 2 12 96 13
REMARK SMILES IDX 93 14 95 15 94 16 5 17 6 18 7 20 8 21 9 22 17 23 10 24 12 25
REMARK SMILES IDX 16 26 11 27 13 28 15 29 14 30 25 31 26 32 27 33 28 34 29 36
REMARK SMILES IDX 30 37 31 38 92 39 32 40 91 41 33 42 34 43 35 44 85 45 36 46
REMARK SMILES IDX 90 47 84 48 86 49 37 50 89 51 83 52 82 53 38 55 70 56 50 57
REMARK SMILES IDX 69 58 51 59 54 60 68 61 87 62 52 63 53 64 67 66 88 67 55 68
REMARK SMILES IDX 39 69 40 70 48 71 41 72 47 73 49 74 46 75 42 76 43 77 44 78
REMARK SMILES IDX 45 79 71 80 72 81 80 82 73 83 79 84 81 85 78 86 74 87 75 88
REMARK SMILES IDX 76 89 77 90 56 91 57 92 65 93 58 94 64 95 66 96 63 97 59 98
REMARK SMILES IDX 60 99 61 100 62 101
REMARK H PARENT 20 8 5 19 27 35 86 54 54 65
REMARK Flexibility Score: inf
ROOT
ATOM      1  C   UNL A   1      36.622  20.884  24.800  1.00  0.00     0.002 C 
ENDROOT
BRANCH   1   2
ATOM      2  C   UNL A   1      35.227  20.268  24.843  1.00  0.00     0.002 C 
BRANCH   2   3
ATOM      3  C   UNL A   1      34.254  20.896  25.846  1.00  0.00     0.021 C 
BRANCH   3   4
ATOM      4  C   UNL A   1      34.846  21.788  26.945  1.00  0.00     0.116 C 
BRANCH   4   5
ATOM      5  N   UNL A   1      34.584  23.215  26.871  1.00  0.00    -0.354 N 
ATOM      6  C   UNL A   1      33.615  23.934  26.216  1.00  0.00     0.247 C 
ATOM      7  O   UNL A   1      33.664  25.166  26.329  1.00  0.00    -0.272 OA
ATOM      8  H   UNL A   1      35.216  23.768  27.385  1.00  0.00     0.163 HD
BRANCH   6   9
ATOM      9  C   UNL A   1      32.481  23.260  25.381  1.00  0.00     0.202 C 
BRANCH   9  10
ATOM     10  C   UNL A   1      32.873  23.619  23.949  1.00  0.00     0.011 C 
ATOM     11  C   UNL A   1      31.646  21.727  22.702  1.00  0.00     0.069 C 
ATOM     12  C   UNL A   1      32.593  22.876  22.857  1.00  0.00     0.064 C 
ATOM     13  N   UNL A   1      33.424  23.145  21.800  1.00  0.00    -0.160 NA
ATOM     14  C   UNL A   1      33.944  24.555  23.475  1.00  0.00     0.156 C 
ATOM     15  N   UNL A   1      34.283  24.002  22.132  1.00  0.00    -0.181 NA
ATOM     16  C   UNL A   1      33.519  25.996  23.232  1.00  0.00     0.040 C 
ENDBRANCH   9  10
BRANCH   9  17
ATOM     17  N   UNL A   1      31.071  23.571  25.744  1.00  0.00    -0.337 N 
ATOM     18  C   UNL A   1      30.365  24.783  25.942  1.00  0.00     0.252 C 
ATOM     19  H   UNL A   1      30.515  22.769  25.874  1.00  0.00     0.165 HD
ATOM     20  O   UNL A   1      29.439  24.710  26.751  1.00  0.00    -0.269 OA
BRANCH  18  21
ATOM     21  C   UNL A   1      30.598  26.094  25.184  1.00  0.00     0.047 A 
ATOM     22  C   UNL A   1      30.034  26.187  23.928  1.00  0.00     0.014 A 
ATOM     23  C   UNL A   1      31.117  27.327  25.680  1.00  0.00    -0.006 A 
ATOM     24  C   UNL A   1      30.119  27.240  23.034  1.00  0.00     0.001 A 
ATOM     25  C   UNL A   1      31.133  28.470  24.795  1.00  0.00    -0.018 A 
ATOM     26  C   UNL A   1      31.544  27.576  27.003  1.00  0.00     0.009 A 
ATOM     27  C   UNL A   1      30.696  28.394  23.475  1.00  0.00     0.009 A 
ATOM     28  C   UNL A   1      31.512  29.737  25.233  1.00  0.00     0.009 A 
ATOM     29  C   UNL A   1      31.904  28.864  27.431  1.00  0.00     0.001 A 
ATOM     30  C   UNL A   1      31.879  29.941  26.552  1.00  0.00     0.001 A 
ENDBRANCH  18  21
ENDBRANCH   9  17
ENDBRANCH   6   9
ENDBRANCH   4   5
ENDBRANCH   3   4
ENDBRANCH   2   3
ENDBRANCH   1   2
BRANCH   1  31
ATOM     31  C   UNL A   1      37.767  19.877  24.928  1.00  0.00     0.021 C 
BRANCH  31  32
ATOM     32  C   UNL A   1      38.876  20.346  25.855  1.00  0.00     0.116 C 
BRANCH  32  33
ATOM     33  N   UNL A   1      39.985  19.397  25.892  1.00  0.00    -0.352 N 
ATOM     34  C   UNL A   1      41.325  19.692  25.962  1.00  0.00     0.251 C 
ATOM     35  H   UNL A   1      39.745  18.442  25.863  1.00  0.00     0.163 HD
ATOM     36  O   UNL A   1      42.163  18.888  25.544  1.00  0.00    -0.269 OA
BRANCH  34  37
ATOM     37  C   UNL A   1      41.735  20.966  26.569  1.00  0.00     0.039 A 
ATOM     38  C   UNL A   1      42.215  22.025  25.794  1.00  0.00     0.014 A 
ATOM     39  C   UNL A   1      41.624  21.086  27.956  1.00  0.00     0.014 A 
ATOM     40  C   UNL A   1      42.536  23.223  26.428  1.00  0.00     0.010 A 
ATOM     41  C   UNL A   1      41.817  22.303  28.559  1.00  0.00     0.010 A 
ATOM     42  C   UNL A   1      42.327  23.357  27.812  1.00  0.00    -0.014 A 
BRANCH  42  43
ATOM     43  C   UNL A   1      42.474  24.650  28.474  1.00  0.00     0.031 A 
ATOM     44  C   UNL A   1      41.324  25.560  28.225  1.00  0.00     0.074 A 
ATOM     45  C   UNL A   1      43.423  24.912  29.402  1.00  0.00     0.049 A 
ATOM     46  N   UNL A   1      41.303  26.618  27.486  1.00  0.00    -0.248 NA
ATOM     47  C   UNL A   1      39.986  25.138  28.680  1.00  0.00     0.031 C 
ATOM     48  C   UNL A   1      44.425  24.002  29.965  1.00  0.00     0.029 A 
ATOM     49  N   UNL A   1      43.633  26.048  30.123  1.00  0.00    -0.354 N 
ATOM     50  C   UNL A   1      40.025  27.149  27.622  1.00  0.00     0.074 A 
ATOM     51  C   UNL A   1      39.213  26.083  28.141  1.00  0.00     0.031 C 
ATOM     52  C   UNL A   1      44.962  24.545  31.083  1.00  0.00     0.029 A 
ATOM     53  C   UNL A   1      44.469  25.903  31.233  1.00  0.00     0.049 A 
ATOM     54  H   UNL A   1      43.225  26.911  29.879  1.00  0.00     0.167 HD
ATOM     55  C   UNL A   1      39.823  28.496  27.570  1.00  0.00     0.034 A 
ATOM     56  C   UNL A   1      44.718  26.827  32.208  1.00  0.00     0.034 A 
ATOM     57  C   UNL A   1      40.967  29.161  26.977  1.00  0.00     0.049 A 
ATOM     58  C   UNL A   1      44.362  28.149  31.628  1.00  0.00     0.074 A 
ATOM     59  C   UNL A   1      41.640  29.027  25.776  1.00  0.00     0.029 A 
ATOM     60  N   UNL A   1      41.847  29.809  27.816  1.00  0.00    -0.354 N 
ATOM     61  N   UNL A   1      45.008  28.681  30.626  1.00  0.00    -0.248 NA
ATOM     62  C   UNL A   1      42.993  28.610  31.802  1.00  0.00     0.031 C 
ATOM     63  C   UNL A   1      43.022  29.094  26.127  1.00  0.00     0.029 A 
ATOM     64  C   UNL A   1      43.115  29.387  27.489  1.00  0.00     0.049 A 
ATOM     65  H   UNL A   1      41.613  30.457  28.519  1.00  0.00     0.167 HD
ATOM     66  C   UNL A   1      44.020  29.185  29.793  1.00  0.00     0.074 A 
ATOM     67  C   UNL A   1      42.802  29.176  30.606  1.00  0.00     0.031 C 
ATOM     68  C   UNL A   1      44.205  29.279  28.443  1.00  0.00     0.034 A 
BRANCH  55  69
ATOM     69  C   UNL A   1      38.797  29.242  28.400  1.00  0.00     0.023 A 
ATOM     70  C   UNL A   1      38.944  29.189  29.799  1.00  0.00     0.031 A 
ATOM     71  C   UNL A   1      37.558  29.743  27.937  1.00  0.00     0.131 A 
ATOM     72  C   UNL A   1      37.873  29.507  30.653  1.00  0.00     0.055 A 
ATOM     73  C   UNL A   1      36.518  30.121  28.792  1.00  0.00     0.041 A 
ATOM     74  F   UNL A   1      37.235  29.813  26.641  1.00  0.00    -0.206 F 
ATOM     75  C   UNL A   1      36.659  29.972  30.159  1.00  0.00     0.022 A 
BRANCH  72  76
ATOM     76  S   UNL A   1      38.039  29.124  32.415  1.00  0.00     0.124 S 
ATOM     77  O   UNL A   1      39.209  29.918  32.776  1.00  0.00    -0.237 OA
ATOM     78  O   UNL A   1      36.759  29.585  32.942  1.00  0.00    -0.237 OA
ATOM     79  O   UNL A   1      38.235  27.677  32.429  1.00  0.00    -0.744 OA
ENDBRANCH  72  76
ENDBRANCH  55  69
BRANCH  56  80
ATOM     80  C   UNL A   1      44.891  26.612  33.680  1.00  0.00     0.023 A 
ATOM     81  C   UNL A   1      43.821  26.680  34.609  1.00  0.00     0.031 A 
ATOM     82  C   UNL A   1      46.097  26.054  34.160  1.00  0.00     0.131 A 
ATOM     83  C   UNL A   1      43.985  26.201  35.936  1.00  0.00     0.055 A 
ATOM     84  C   UNL A   1      46.250  25.576  35.465  1.00  0.00     0.041 A 
ATOM     85  F   UNL A   1      47.148  25.873  33.346  1.00  0.00    -0.206 F 
ATOM     86  C   UNL A   1      45.191  25.636  36.356  1.00  0.00     0.022 A 
BRANCH  83  87
ATOM     87  S   UNL A   1      42.600  26.220  37.130  1.00  0.00     0.124 S 
ATOM     88  O   UNL A   1      43.285  26.029  38.402  1.00  0.00    -0.237 OA
ATOM     89  O   UNL A   1      42.002  27.530  36.903  1.00  0.00    -0.237 OA
ATOM     90  O   UNL A   1      41.769  25.090  36.708  1.00  0.00    -0.744 OA
ENDBRANCH  83  87
ENDBRANCH  56  80
BRANCH  68  91
ATOM     91  C   UNL A   1      45.604  29.089  27.878  1.00  0.00     0.023 A 
ATOM     92  C   UNL A   1      46.618  30.076  27.826  1.00  0.00     0.031 A 
ATOM     93  C   UNL A   1      45.948  27.787  27.473  1.00  0.00     0.131 A 
ATOM     94  C   UNL A   1      47.912  29.736  27.370  1.00  0.00     0.055 A 
ATOM     95  C   UNL A   1      47.231  27.450  27.047  1.00  0.00     0.041 A 
ATOM     96  F   UNL A   1      45.038  26.799  27.513  1.00  0.00    -0.206 F 
ATOM     97  C   UNL A   1      48.217  28.425  26.989  1.00  0.00     0.022 A 
BRANCH  94  98
ATOM     98  S   UNL A   1      49.226  30.994  27.228  1.00  0.00     0.124 S 
ATOM     99  O   UNL A   1      50.251  30.332  26.431  1.00  0.00    -0.237 OA
ATOM    100  O   UNL A   1      48.532  32.106  26.582  1.00  0.00    -0.237 OA
ATOM    101  O   UNL A   1      49.607  31.247  28.619  1.00  0.00    -0.744 OA
ENDBRANCH  94  98
ENDBRANCH  68  91
ENDBRANCH  42  43
ENDBRANCH  34  37
ENDBRANCH  32  33
ENDBRANCH  31  32
ENDBRANCH   1  31
TORSDOF 19
ENDMDL
