MODEL 1
REMARK VINA RESULT:     -11.3      0.000      0.000
REMARK SMILES CC(C)(C)c1ccccc1[C@@H]1C[NH2+]C[C@@H]1C(=O)NCCCCCCNC(=O)c1ccc(-c2c3nc(c(-c4cc(S(=O)(=O)[O-])ccc4F)c4ccc([nH]4)c(-c4cc(S(=O)(=O)[O-])ccc4F)c4nc(c(-c5cc(S(=O)(=O)[O-])ccc5F)c5ccc2[nH]5)C=C4)C=C3)cc1
REMARK SMILES IDX 22 1 21 2 20 3 19 4 18 5 16 6 17 7 15 9 11 10 12 11 13 12
REMARK SMILES IDX 14 13 10 16 5 17 6 18 7 19 9 20 8 21 2 22 1 23 3 24 4 25
REMARK SMILES IDX 23 26 24 27 25 28 26 29 27 31 28 32 29 33 90 34 30 35 89 36
REMARK SMILES IDX 31 37 32 38 33 39 83 40 34 41 88 42 82 43 84 44 35 45 87 46
REMARK SMILES IDX 81 47 80 48 36 50 68 51 48 52 67 53 49 54 52 55 66 56 85 57
REMARK SMILES IDX 50 58 51 59 65 61 86 62 53 63 37 64 38 65 46 66 39 67 45 68
REMARK SMILES IDX 47 69 44 70 40 71 41 72 42 73 43 74 69 75 70 76 78 77 71 78
REMARK SMILES IDX 77 79 79 80 76 81 72 82 73 83 74 84 75 85 54 86 55 87 63 88
REMARK SMILES IDX 56 89 62 90 64 91 61 92 57 93 58 94 59 95 60 96
REMARK H PARENT 18 8 13 14 13 15 25 30 84 49 52 60
REMARK Flexibility Score: inf
ROOT
ATOM      1  C   UNL A   1      37.396  20.890  24.556  1.00  0.00     0.002 C 
ENDROOT
BRANCH   1   2
ATOM      2  C   UNL A   1      36.901  21.786  25.699  1.00  0.00     0.002 C 
BRANCH   2   3
ATOM      3  C   UNL A   1      37.040  23.296  25.455  1.00  0.00     0.021 C 
BRANCH   3   4
ATOM      4  C   UNL A   1      35.709  24.037  25.503  1.00  0.00     0.116 C 
BRANCH   4   5
ATOM      5  N   UNL A   1      35.222  24.310  24.163  1.00  0.00    -0.356 N 
ATOM      6  C   UNL A   1      33.999  24.341  23.586  1.00  0.00     0.229 C 
ATOM      7  O   UNL A   1      33.992  24.650  22.384  1.00  0.00    -0.275 OA
ATOM      8  H   UNL A   1      35.946  24.520  23.530  1.00  0.00     0.163 HD
BRANCH   6   9
ATOM      9  C   UNL A   1      32.675  24.023  24.252  1.00  0.00     0.146 C 
ATOM     10  C   UNL A   1      32.081  24.992  25.297  1.00  0.00     0.093 C 
ATOM     11  C   UNL A   1      31.947  24.191  26.602  1.00  0.00     0.269 C 
ATOM     12  N   UNL A   1      32.532  22.873  26.328  1.00  0.00    -0.345 N 
ATOM     13  C   UNL A   1      32.449  22.656  24.879  1.00  0.00     0.274 C 
ATOM     14  H   UNL A   1      32.011  22.149  26.821  1.00  0.00     0.346 HD
ATOM     15  H   UNL A   1      33.502  22.834  26.645  1.00  0.00     0.346 HD
BRANCH  10  16
ATOM     16  C   UNL A   1      32.305  26.512  25.329  1.00  0.00    -0.035 A 
ATOM     17  C   UNL A   1      31.645  27.581  24.649  1.00  0.00    -0.039 A 
ATOM     18  C   UNL A   1      31.995  28.909  25.050  1.00  0.00     0.004 A 
ATOM     19  C   UNL A   1      33.013  29.212  25.949  1.00  0.00     0.000 A 
ATOM     20  C   UNL A   1      33.364  26.875  26.227  1.00  0.00     0.004 A 
ATOM     21  C   UNL A   1      33.725  28.187  26.519  1.00  0.00     0.000 A 
BRANCH  17  22
ATOM     22  C   UNL A   1      30.563  27.540  23.531  1.00  0.00    -0.013 C 
ATOM     23  C   UNL A   1      29.867  28.870  23.254  1.00  0.00     0.016 C 
ATOM     24  C   UNL A   1      29.364  26.605  23.899  1.00  0.00     0.016 C 
ATOM     25  C   UNL A   1      31.182  26.959  22.240  1.00  0.00     0.016 C 
ENDBRANCH  17  22
ENDBRANCH  10  16
ENDBRANCH   6   9
ENDBRANCH   4   5
ENDBRANCH   3   4
ENDBRANCH   2   3
ENDBRANCH   1   2
BRANCH   1  26
ATOM     26  C   UNL A   1      38.282  19.718  24.982  1.00  0.00     0.021 C 
BRANCH  26  27
ATOM     27  C   UNL A   1      39.305  20.053  26.061  1.00  0.00     0.116 C 
BRANCH  27  28
ATOM     28  N   UNL A   1      40.463  19.177  26.013  1.00  0.00    -0.352 N 
ATOM     29  C   UNL A   1      41.795  19.510  26.048  1.00  0.00     0.251 C 
ATOM     30  H   UNL A   1      40.266  18.215  25.946  1.00  0.00     0.163 HD
ATOM     31  O   UNL A   1      42.645  18.662  25.808  1.00  0.00    -0.269 OA
BRANCH  29  32
ATOM     32  C   UNL A   1      42.184  20.906  26.346  1.00  0.00     0.039 A 
ATOM     33  C   UNL A   1      42.470  21.260  27.665  1.00  0.00     0.014 A 
ATOM     34  C   UNL A   1      42.281  21.855  25.324  1.00  0.00     0.014 A 
ATOM     35  C   UNL A   1      42.906  22.555  27.952  1.00  0.00     0.010 A 
ATOM     36  C   UNL A   1      42.791  23.121  25.601  1.00  0.00     0.010 A 
ATOM     37  C   UNL A   1      43.102  23.487  26.919  1.00  0.00    -0.014 A 
BRANCH  37  38
ATOM     38  C   UNL A   1      43.612  24.854  27.204  1.00  0.00     0.031 A 
ATOM     39  C   UNL A   1      42.673  25.914  27.716  1.00  0.00     0.074 A 
ATOM     40  C   UNL A   1      44.906  25.151  26.966  1.00  0.00     0.049 A 
ATOM     41  N   UNL A   1      42.906  27.177  27.961  1.00  0.00    -0.248 NA
ATOM     42  C   UNL A   1      41.282  25.503  27.962  1.00  0.00     0.031 C 
ATOM     43  C   UNL A   1      45.906  24.215  26.446  1.00  0.00     0.029 A 
ATOM     44  N   UNL A   1      45.606  26.321  27.128  1.00  0.00    -0.354 N 
ATOM     45  C   UNL A   1      41.695  27.712  28.389  1.00  0.00     0.074 A 
ATOM     46  C   UNL A   1      40.714  26.650  28.300  1.00  0.00     0.031 C 
ATOM     47  C   UNL A   1      47.092  24.838  26.363  1.00  0.00     0.029 A 
ATOM     48  C   UNL A   1      46.931  26.230  26.769  1.00  0.00     0.049 A 
ATOM     49  H   UNL A   1      45.196  27.150  27.468  1.00  0.00     0.167 HD
ATOM     50  C   UNL A   1      41.431  28.961  28.844  1.00  0.00     0.034 A 
ATOM     51  C   UNL A   1      47.903  27.165  26.757  1.00  0.00     0.034 A 
ATOM     52  C   UNL A   1      42.419  30.006  28.933  1.00  0.00     0.049 A 
ATOM     53  C   UNL A   1      47.566  28.566  27.214  1.00  0.00     0.074 A 
ATOM     54  C   UNL A   1      42.265  31.300  29.400  1.00  0.00     0.029 A 
ATOM     55  N   UNL A   1      43.748  29.881  28.547  1.00  0.00    -0.354 N 
ATOM     56  N   UNL A   1      46.421  29.042  27.648  1.00  0.00    -0.248 NA
ATOM     57  C   UNL A   1      48.654  29.551  27.189  1.00  0.00     0.031 C 
ATOM     58  C   UNL A   1      43.477  31.976  29.232  1.00  0.00     0.029 A 
ATOM     59  C   UNL A   1      44.414  31.082  28.741  1.00  0.00     0.049 A 
ATOM     60  H   UNL A   1      44.156  29.061  28.188  1.00  0.00     0.167 HD
ATOM     61  C   UNL A   1      46.669  30.369  27.991  1.00  0.00     0.074 A 
ATOM     62  C   UNL A   1      48.072  30.611  27.729  1.00  0.00     0.031 C 
ATOM     63  C   UNL A   1      45.816  31.304  28.482  1.00  0.00     0.034 A 
BRANCH  50  64
ATOM     64  C   UNL A   1      40.014  29.266  29.267  1.00  0.00     0.023 A 
ATOM     65  C   UNL A   1      39.640  29.287  30.622  1.00  0.00     0.031 A 
ATOM     66  C   UNL A   1      39.024  29.540  28.307  1.00  0.00     0.131 A 
ATOM     67  C   UNL A   1      38.302  29.516  30.976  1.00  0.00     0.055 A 
ATOM     68  C   UNL A   1      37.712  29.848  28.670  1.00  0.00     0.041 A 
ATOM     69  F   UNL A   1      39.316  29.511  26.996  1.00  0.00    -0.206 F 
ATOM     70  C   UNL A   1      37.342  29.825  30.011  1.00  0.00     0.022 A 
BRANCH  67  71
ATOM     71  S   UNL A   1      37.812  29.280  32.706  1.00  0.00     0.124 S 
ATOM     72  O   UNL A   1      36.544  30.004  32.753  1.00  0.00    -0.237 OA
ATOM     73  O   UNL A   1      37.723  27.828  32.814  1.00  0.00    -0.237 OA
ATOM     74  O   UNL A   1      38.903  29.897  33.458  1.00  0.00    -0.744 OA
ENDBRANCH  67  71
ENDBRANCH  50  64
BRANCH  51  75
ATOM     75  C   UNL A   1      49.282  26.836  26.290  1.00  0.00     0.023 A 
ATOM     76  C   UNL A   1      49.748  27.290  25.045  1.00  0.00     0.031 A 
ATOM     77  C   UNL A   1      50.122  25.991  27.035  1.00  0.00     0.131 A 
ATOM     78  C   UNL A   1      50.979  26.833  24.547  1.00  0.00     0.055 A 
ATOM     79  C   UNL A   1      51.379  25.599  26.569  1.00  0.00     0.041 A 
ATOM     80  F   UNL A   1      49.731  25.525  28.233  1.00  0.00    -0.206 F 
ATOM     81  C   UNL A   1      51.805  26.003  25.308  1.00  0.00     0.022 A 
BRANCH  78  82
ATOM     82  S   UNL A   1      51.417  27.225  22.831  1.00  0.00     0.124 S 
ATOM     83  O   UNL A   1      50.190  26.874  22.126  1.00  0.00    -0.237 OA
ATOM     84  O   UNL A   1      51.725  28.648  22.916  1.00  0.00    -0.237 OA
ATOM     85  O   UNL A   1      52.561  26.355  22.566  1.00  0.00    -0.744 OA
ENDBRANCH  78  82
ENDBRANCH  51  75
BRANCH  63  86
ATOM     86  C   UNL A   1      46.399  32.654  28.830  1.00  0.00     0.023 A 
ATOM     87  C   UNL A   1      46.498  33.689  27.884  1.00  0.00     0.031 A 
ATOM     88  C   UNL A   1      46.873  32.901  30.132  1.00  0.00     0.131 A 
ATOM     89  C   UNL A   1      47.115  34.899  28.235  1.00  0.00     0.055 A 
ATOM     90  C   UNL A   1      47.422  34.131  30.493  1.00  0.00     0.041 A 
ATOM     91  F   UNL A   1      46.807  31.949  31.076  1.00  0.00    -0.206 F 
ATOM     92  C   UNL A   1      47.559  35.134  29.538  1.00  0.00     0.022 A 
BRANCH  89  93
ATOM     93  S   UNL A   1      47.423  36.127  26.936  1.00  0.00     0.124 S 
ATOM     94  O   UNL A   1      47.619  35.283  25.761  1.00  0.00    -0.237 OA
ATOM     95  O   UNL A   1      46.196  36.916  26.955  1.00  0.00    -0.237 OA
ATOM     96  O   UNL A   1      48.619  36.828  27.403  1.00  0.00    -0.744 OA
ENDBRANCH  89  93
ENDBRANCH  63  86
ENDBRANCH  37  38
ENDBRANCH  29  32
ENDBRANCH  27  28
ENDBRANCH  26  27
ENDBRANCH   1  26
TORSDOF 18
ENDMDL
MODEL 2
REMARK VINA RESULT:     -11.3      2.221      7.763
REMARK SMILES CC(C)(C)c1ccccc1[C@@H]1C[NH2+]C[C@@H]1C(=O)NCCCCCCNC(=O)c1ccc(-c2c3nc(c(-c4cc(S(=O)(=O)[O-])ccc4F)c4ccc([nH]4)c(-c4cc(S(=O)(=O)[O-])ccc4F)c4nc(c(-c5cc(S(=O)(=O)[O-])ccc5F)c5ccc2[nH]5)C=C4)C=C3)cc1
REMARK SMILES IDX 22 1 21 2 20 3 19 4 18 5 16 6 17 7 15 9 11 10 12 11 13 12
REMARK SMILES IDX 14 13 10 16 5 17 6 18 7 19 9 20 8 21 2 22 1 23 3 24 4 25
REMARK SMILES IDX 23 26 24 27 25 28 26 29 27 31 28 32 29 33 90 34 30 35 89 36
REMARK SMILES IDX 31 37 32 38 33 39 83 40 34 41 88 42 82 43 84 44 35 45 87 46
REMARK SMILES IDX 81 47 80 48 36 50 68 51 48 52 67 53 49 54 52 55 66 56 85 57
REMARK SMILES IDX 50 58 51 59 65 61 86 62 53 63 37 64 38 65 46 66 39 67 45 68
REMARK SMILES IDX 47 69 44 70 40 71 41 72 42 73 43 74 69 75 70 76 78 77 71 78
REMARK SMILES IDX 77 79 79 80 76 81 72 82 73 83 74 84 75 85 54 86 55 87 63 88
REMARK SMILES IDX 56 89 62 90 64 91 61 92 57 93 58 94 59 95 60 96
REMARK H PARENT 18 8 13 14 13 15 25 30 84 49 52 60
REMARK Flexibility Score: inf
ROOT
ATOM      1  C   UNL A   1      36.559  20.480  24.988  1.00  0.00     0.002 C 
ENDROOT
BRANCH   1   2
ATOM      2  C   UNL A   1      35.283  19.646  24.812  1.00  0.00     0.002 C 
BRANCH   2   3
ATOM      3  C   UNL A   1      33.995  20.455  24.607  1.00  0.00     0.021 C 
BRANCH   3   4
ATOM      4  C   UNL A   1      32.891  20.087  25.592  1.00  0.00     0.116 C 
BRANCH   4   5
ATOM      5  N   UNL A   1      31.811  21.056  25.543  1.00  0.00    -0.356 N 
ATOM      6  C   UNL A   1      31.628  22.299  26.043  1.00  0.00     0.229 C 
ATOM      7  O   UNL A   1      30.544  22.828  25.754  1.00  0.00    -0.275 OA
ATOM      8  H   UNL A   1      31.034  20.734  25.031  1.00  0.00     0.163 HD
BRANCH   6   9
ATOM      9  C   UNL A   1      32.595  23.075  26.916  1.00  0.00     0.146 C 
ATOM     10  C   UNL A   1      33.623  24.031  26.273  1.00  0.00     0.093 C 
ATOM     11  C   UNL A   1      35.010  23.517  26.685  1.00  0.00     0.269 C 
ATOM     12  N   UNL A   1      34.773  22.276  27.434  1.00  0.00    -0.345 N 
ATOM     13  C   UNL A   1      33.412  22.351  27.975  1.00  0.00     0.274 C 
ATOM     14  H   UNL A   1      35.448  22.192  28.194  1.00  0.00     0.346 HD
ATOM     15  H   UNL A   1      34.878  21.462  26.828  1.00  0.00     0.346 HD
BRANCH  10  16
ATOM     16  C   UNL A   1      33.427  24.786  24.948  1.00  0.00    -0.035 A 
ATOM     17  C   UNL A   1      32.949  26.103  24.670  1.00  0.00    -0.039 A 
ATOM     18  C   UNL A   1      33.065  26.554  23.317  1.00  0.00     0.004 A 
ATOM     19  C   UNL A   1      33.483  25.754  22.258  1.00  0.00     0.000 A 
ATOM     20  C   UNL A   1      33.824  23.992  23.820  1.00  0.00     0.004 A 
ATOM     21  C   UNL A   1      33.836  24.452  22.507  1.00  0.00     0.000 A 
BRANCH  17  22
ATOM     22  C   UNL A   1      32.328  27.165  25.622  1.00  0.00    -0.013 C 
ATOM     23  C   UNL A   1      31.025  26.746  26.299  1.00  0.00     0.016 C 
ATOM     24  C   UNL A   1      31.907  28.468  24.865  1.00  0.00     0.016 C 
ATOM     25  C   UNL A   1      33.382  27.595  26.667  1.00  0.00     0.016 C 
ENDBRANCH  17  22
ENDBRANCH  10  16
ENDBRANCH   6   9
ENDBRANCH   4   5
ENDBRANCH   3   4
ENDBRANCH   2   3
ENDBRANCH   1   2
BRANCH   1  26
ATOM     26  C   UNL A   1      37.870  19.696  24.902  1.00  0.00     0.021 C 
BRANCH  26  27
ATOM     27  C   UNL A   1      38.997  20.244  25.770  1.00  0.00     0.116 C 
BRANCH  27  28
ATOM     28  N   UNL A   1      40.073  19.283  25.945  1.00  0.00    -0.352 N 
ATOM     29  C   UNL A   1      41.401  19.518  26.203  1.00  0.00     0.251 C 
ATOM     30  H   UNL A   1      39.813  18.336  25.868  1.00  0.00     0.163 HD
ATOM     31  O   UNL A   1      42.209  18.600  26.136  1.00  0.00    -0.269 OA
BRANCH  29  32
ATOM     32  C   UNL A   1      41.844  20.891  26.529  1.00  0.00     0.039 A 
ATOM     33  C   UNL A   1      42.092  21.786  25.488  1.00  0.00     0.014 A 
ATOM     34  C   UNL A   1      41.996  21.296  27.859  1.00  0.00     0.014 A 
ATOM     35  C   UNL A   1      42.443  23.105  25.781  1.00  0.00     0.010 A 
ATOM     36  C   UNL A   1      42.269  22.630  28.149  1.00  0.00     0.010 A 
ATOM     37  C   UNL A   1      42.502  23.547  27.114  1.00  0.00    -0.014 A 
BRANCH  37  38
ATOM     38  C   UNL A   1      42.826  24.961  27.440  1.00  0.00     0.031 A 
ATOM     39  C   UNL A   1      44.217  25.486  27.202  1.00  0.00     0.074 A 
ATOM     40  C   UNL A   1      41.883  25.757  27.985  1.00  0.00     0.049 A 
ATOM     41  N   UNL A   1      44.716  26.663  27.480  1.00  0.00    -0.248 NA
ATOM     42  C   UNL A   1      45.180  24.557  26.592  1.00  0.00     0.031 C 
ATOM     43  C   UNL A   1      40.507  25.354  28.286  1.00  0.00     0.029 A 
ATOM     44  N   UNL A   1      41.935  27.070  28.384  1.00  0.00    -0.354 N 
ATOM     45  C   UNL A   1      46.047  26.616  27.081  1.00  0.00     0.074 A 
ATOM     46  C   UNL A   1      46.295  25.270  26.607  1.00  0.00     0.031 C 
ATOM     47  C   UNL A   1      39.841  26.404  28.790  1.00  0.00     0.029 A 
ATOM     48  C   UNL A   1      40.749  27.540  28.901  1.00  0.00     0.049 A 
ATOM     49  H   UNL A   1      42.745  27.624  28.307  1.00  0.00     0.167 HD
ATOM     50  C   UNL A   1      46.969  27.609  27.078  1.00  0.00     0.034 A 
ATOM     51  C   UNL A   1      40.435  28.746  29.419  1.00  0.00     0.034 A 
ATOM     52  C   UNL A   1      46.706  28.947  27.546  1.00  0.00     0.049 A 
ATOM     53  C   UNL A   1      41.500  29.817  29.458  1.00  0.00     0.074 A 
ATOM     54  C   UNL A   1      47.561  30.036  27.567  1.00  0.00     0.029 A 
ATOM     55  N   UNL A   1      45.498  29.382  28.077  1.00  0.00    -0.354 N 
ATOM     56  N   UNL A   1      42.746  29.762  29.043  1.00  0.00    -0.248 NA
ATOM     57  C   UNL A   1      41.114  31.115  30.025  1.00  0.00     0.031 C 
ATOM     58  C   UNL A   1      46.896  31.106  28.173  1.00  0.00     0.029 A 
ATOM     59  C   UNL A   1      45.596  30.714  28.452  1.00  0.00     0.049 A 
ATOM     60  H   UNL A   1      44.692  28.826  28.174  1.00  0.00     0.167 HD
ATOM     61  C   UNL A   1      43.272  31.034  29.257  1.00  0.00     0.074 A 
ATOM     62  C   UNL A   1      42.206  31.835  29.822  1.00  0.00     0.031 C 
ATOM     63  C   UNL A   1      44.522  31.501  29.007  1.00  0.00     0.034 A 
BRANCH  50  64
ATOM     64  C   UNL A   1      48.350  27.281  26.564  1.00  0.00     0.023 A 
ATOM     65  C   UNL A   1      49.401  26.952  27.440  1.00  0.00     0.031 A 
ATOM     66  C   UNL A   1      48.622  27.294  25.185  1.00  0.00     0.131 A 
ATOM     67  C   UNL A   1      50.686  26.710  26.932  1.00  0.00     0.055 A 
ATOM     68  C   UNL A   1      49.884  26.972  24.681  1.00  0.00     0.041 A 
ATOM     69  F   UNL A   1      47.666  27.624  24.303  1.00  0.00    -0.206 F 
ATOM     70  C   UNL A   1      50.928  26.689  25.557  1.00  0.00     0.022 A 
BRANCH  67  71
ATOM     71  S   UNL A   1      52.062  26.546  28.100  1.00  0.00     0.124 S 
ATOM     72  O   UNL A   1      52.435  27.943  28.313  1.00  0.00    -0.237 OA
ATOM     73  O   UNL A   1      51.437  25.873  29.233  1.00  0.00    -0.237 OA
ATOM     74  O   UNL A   1      53.044  25.751  27.365  1.00  0.00    -0.744 OA
ENDBRANCH  67  71
ENDBRANCH  50  64
BRANCH  51  75
ATOM     75  C   UNL A   1      39.070  29.019  29.958  1.00  0.00     0.023 A 
ATOM     76  C   UNL A   1      38.132  29.748  29.209  1.00  0.00     0.031 A 
ATOM     77  C   UNL A   1      38.712  28.638  31.264  1.00  0.00     0.131 A 
ATOM     78  C   UNL A   1      36.919  30.142  29.795  1.00  0.00     0.055 A 
ATOM     79  C   UNL A   1      37.473  28.968  31.817  1.00  0.00     0.041 A 
ATOM     80  F   UNL A   1      39.567  27.940  32.028  1.00  0.00    -0.206 F 
ATOM     81  C   UNL A   1      36.576  29.742  31.089  1.00  0.00     0.022 A 
BRANCH  78  82
ATOM     82  S   UNL A   1      35.858  31.303  28.892  1.00  0.00     0.124 S 
ATOM     83  O   UNL A   1      34.970  31.774  29.949  1.00  0.00    -0.237 OA
ATOM     84  O   UNL A   1      36.829  32.271  28.391  1.00  0.00    -0.237 OA
ATOM     85  O   UNL A   1      35.230  30.467  27.873  1.00  0.00    -0.744 OA
ENDBRANCH  78  82
ENDBRANCH  51  75
BRANCH  63  86
ATOM     86  C   UNL A   1      44.780  32.964  29.281  1.00  0.00     0.023 A 
ATOM     87  C   UNL A   1      44.708  33.936  28.268  1.00  0.00     0.031 A 
ATOM     88  C   UNL A   1      45.117  33.387  30.580  1.00  0.00     0.131 A 
ATOM     89  C   UNL A   1      45.029  35.270  28.557  1.00  0.00     0.055 A 
ATOM     90  C   UNL A   1      45.368  34.727  30.874  1.00  0.00     0.041 A 
ATOM     91  F   UNL A   1      45.205  32.503  31.586  1.00  0.00    -0.206 F 
ATOM     92  C   UNL A   1      45.339  35.676  29.857  1.00  0.00     0.022 A 
BRANCH  89  93
ATOM     93  S   UNL A   1      45.138  36.455  27.186  1.00  0.00     0.124 S 
ATOM     94  O   UNL A   1      45.604  35.609  26.092  1.00  0.00    -0.237 OA
ATOM     95  O   UNL A   1      43.765  36.935  27.080  1.00  0.00    -0.237 OA
ATOM     96  O   UNL A   1      46.106  37.442  27.663  1.00  0.00    -0.744 OA
ENDBRANCH  89  93
ENDBRANCH  63  86
ENDBRANCH  37  38
ENDBRANCH  29  32
ENDBRANCH  27  28
ENDBRANCH  26  27
ENDBRANCH   1  26
TORSDOF 18
ENDMDL
MODEL 3
REMARK VINA RESULT:     -11.2      5.862      9.743
REMARK SMILES CC(C)(C)c1ccccc1[C@@H]1C[NH2+]C[C@@H]1C(=O)NCCCCCCNC(=O)c1ccc(-c2c3nc(c(-c4cc(S(=O)(=O)[O-])ccc4F)c4ccc([nH]4)c(-c4cc(S(=O)(=O)[O-])ccc4F)c4nc(c(-c5cc(S(=O)(=O)[O-])ccc5F)c5ccc2[nH]5)C=C4)C=C3)cc1
REMARK SMILES IDX 22 1 21 2 20 3 19 4 18 5 16 6 17 7 15 9 11 10 12 11 13 12
REMARK SMILES IDX 14 13 10 16 5 17 6 18 7 19 9 20 8 21 2 22 1 23 3 24 4 25
REMARK SMILES IDX 23 26 24 27 25 28 26 29 27 31 28 32 29 33 90 34 30 35 89 36
REMARK SMILES IDX 31 37 32 38 33 39 83 40 34 41 88 42 82 43 84 44 35 45 87 46
REMARK SMILES IDX 81 47 80 48 36 50 68 51 48 52 67 53 49 54 52 55 66 56 85 57
REMARK SMILES IDX 50 58 51 59 65 61 86 62 53 63 37 64 38 65 46 66 39 67 45 68
REMARK SMILES IDX 47 69 44 70 40 71 41 72 42 73 43 74 69 75 70 76 78 77 71 78
REMARK SMILES IDX 77 79 79 80 76 81 72 82 73 83 74 84 75 85 54 86 55 87 63 88
REMARK SMILES IDX 56 89 62 90 64 91 61 92 57 93 58 94 59 95 60 96
REMARK H PARENT 18 8 13 14 13 15 25 30 84 49 52 60
REMARK Flexibility Score: inf
ROOT
ATOM      1  C   UNL A   1      31.206  30.910  26.074  1.00  0.00     0.002 C 
ENDROOT
BRANCH   1   2
ATOM      2  C   UNL A   1      32.287  30.016  26.696  1.00  0.00     0.002 C 
BRANCH   2   3
ATOM      3  C   UNL A   1      31.783  28.686  27.275  1.00  0.00     0.021 C 
BRANCH   3   4
ATOM      4  C   UNL A   1      32.247  27.471  26.481  1.00  0.00     0.116 C 
BRANCH   4   5
ATOM      5  N   UNL A   1      31.453  26.302  26.815  1.00  0.00    -0.356 N 
ATOM      6  C   UNL A   1      30.908  25.291  26.103  1.00  0.00     0.229 C 
ATOM      7  O   UNL A   1      30.301  24.442  26.774  1.00  0.00    -0.275 OA
ATOM      8  H   UNL A   1      31.269  26.230  27.780  1.00  0.00     0.163 HD
BRANCH   6   9
ATOM      9  C   UNL A   1      30.954  25.116  24.598  1.00  0.00     0.146 C 
ATOM     10  C   UNL A   1      32.290  24.788  23.896  1.00  0.00     0.093 C 
ATOM     11  C   UNL A   1      32.552  25.933  22.906  1.00  0.00     0.269 C 
ATOM     12  N   UNL A   1      31.470  26.904  23.118  1.00  0.00    -0.345 N 
ATOM     13  C   UNL A   1      30.336  26.169  23.691  1.00  0.00     0.274 C 
ATOM     14  H   UNL A   1      31.201  27.327  22.230  1.00  0.00     0.346 HD
ATOM     15  H   UNL A   1      31.771  27.651  23.745  1.00  0.00     0.346 HD
BRANCH  10  16
ATOM     16  C   UNL A   1      33.457  24.013  24.526  1.00  0.00    -0.035 A 
ATOM     17  C   UNL A   1      33.687  22.612  24.688  1.00  0.00    -0.039 A 
ATOM     18  C   UNL A   1      34.980  22.226  25.166  1.00  0.00     0.004 A 
ATOM     19  C   UNL A   1      35.954  23.120  25.597  1.00  0.00     0.000 A 
ATOM     20  C   UNL A   1      34.482  24.894  25.009  1.00  0.00     0.004 A 
ATOM     21  C   UNL A   1      35.691  24.466  25.548  1.00  0.00     0.000 A 
BRANCH  17  22
ATOM     22  C   UNL A   1      32.749  21.404  24.402  1.00  0.00    -0.013 C 
ATOM     23  C   UNL A   1      33.418  20.033  24.473  1.00  0.00     0.016 C 
ATOM     24  C   UNL A   1      32.183  21.425  22.944  1.00  0.00     0.016 C 
ATOM     25  C   UNL A   1      31.525  21.472  25.342  1.00  0.00     0.016 C 
ENDBRANCH  17  22
ENDBRANCH  10  16
ENDBRANCH   6   9
ENDBRANCH   4   5
ENDBRANCH   3   4
ENDBRANCH   2   3
ENDBRANCH   1   2
BRANCH   1  26
ATOM     26  C   UNL A   1      31.250  32.380  26.498  1.00  0.00     0.021 C 
BRANCH  26  27
ATOM     27  C   UNL A   1      32.622  32.872  26.946  1.00  0.00     0.116 C 
BRANCH  27  28
ATOM     28  N   UNL A   1      32.552  34.154  27.624  1.00  0.00    -0.352 N 
ATOM     29  C   UNL A   1      33.285  34.602  28.696  1.00  0.00     0.251 C 
ATOM     30  H   UNL A   1      31.889  34.789  27.266  1.00  0.00     0.163 HD
ATOM     31  O   UNL A   1      32.970  35.640  29.262  1.00  0.00    -0.269 OA
BRANCH  29  32
ATOM     32  C   UNL A   1      34.433  33.800  29.172  1.00  0.00     0.039 A 
ATOM     33  C   UNL A   1      35.727  34.221  28.858  1.00  0.00     0.014 A 
ATOM     34  C   UNL A   1      34.233  32.648  29.938  1.00  0.00     0.014 A 
ATOM     35  C   UNL A   1      36.822  33.514  29.358  1.00  0.00     0.010 A 
ATOM     36  C   UNL A   1      35.325  31.992  30.500  1.00  0.00     0.010 A 
ATOM     37  C   UNL A   1      36.631  32.413  30.211  1.00  0.00    -0.014 A 
BRANCH  37  38
ATOM     38  C   UNL A   1      37.787  31.681  30.791  1.00  0.00     0.031 A 
ATOM     39  C   UNL A   1      38.269  32.017  32.177  1.00  0.00     0.074 A 
ATOM     40  C   UNL A   1      38.425  30.745  30.058  1.00  0.00     0.049 A 
ATOM     41  N   UNL A   1      39.296  31.543  32.834  1.00  0.00    -0.248 NA
ATOM     42  C   UNL A   1      37.509  33.039  32.913  1.00  0.00     0.031 C 
ATOM     43  C   UNL A   1      38.066  30.351  28.694  1.00  0.00     0.029 A 
ATOM     44  N   UNL A   1      39.509  29.955  30.354  1.00  0.00    -0.354 N 
ATOM     45  C   UNL A   1      39.306  32.207  34.056  1.00  0.00     0.074 A 
ATOM     46  C   UNL A   1      38.224  33.168  34.019  1.00  0.00     0.031 C 
ATOM     47  C   UNL A   1      38.892  29.374  28.286  1.00  0.00     0.029 A 
ATOM     48  C   UNL A   1      39.873  29.108  29.332  1.00  0.00     0.049 A 
ATOM     49  H   UNL A   1      39.981  29.991  31.217  1.00  0.00     0.167 HD
ATOM     50  C   UNL A   1      40.120  32.012  35.122  1.00  0.00     0.034 A 
ATOM     51  C   UNL A   1      40.891  28.227  29.245  1.00  0.00     0.034 A 
ATOM     52  C   UNL A   1      41.189  31.045  35.147  1.00  0.00     0.049 A 
ATOM     53  C   UNL A   1      41.819  28.072  30.428  1.00  0.00     0.074 A 
ATOM     54  C   UNL A   1      42.059  30.750  36.183  1.00  0.00     0.029 A 
ATOM     55  N   UNL A   1      41.538  30.216  34.089  1.00  0.00    -0.354 N 
ATOM     56  N   UNL A   1      41.790  28.686  31.589  1.00  0.00    -0.248 NA
ATOM     57  C   UNL A   1      42.910  27.099  30.291  1.00  0.00     0.031 C 
ATOM     58  C   UNL A   1      42.975  29.796  35.730  1.00  0.00     0.029 A 
ATOM     59  C   UNL A   1      42.626  29.431  34.440  1.00  0.00     0.049 A 
ATOM     60  H   UNL A   1      41.081  30.190  33.218  1.00  0.00     0.167 HD
ATOM     61  C   UNL A   1      42.830  28.135  32.334  1.00  0.00     0.074 A 
ATOM     62  C   UNL A   1      43.454  27.132  31.498  1.00  0.00     0.031 C 
ATOM     63  C   UNL A   1      43.232  28.428  33.597  1.00  0.00     0.034 A 
BRANCH  50  64
ATOM     64  C   UNL A   1      39.891  32.870  36.343  1.00  0.00     0.023 A 
ATOM     65  C   UNL A   1      40.629  34.047  36.563  1.00  0.00     0.031 A 
ATOM     66  C   UNL A   1      38.924  32.511  37.299  1.00  0.00     0.131 A 
ATOM     67  C   UNL A   1      40.432  34.788  37.737  1.00  0.00     0.055 A 
ATOM     68  C   UNL A   1      38.676  33.298  38.425  1.00  0.00     0.041 A 
ATOM     69  F   UNL A   1      38.205  31.387  37.155  1.00  0.00    -0.206 F 
ATOM     70  C   UNL A   1      39.440  34.438  38.656  1.00  0.00     0.022 A 
BRANCH  67  71
ATOM     71  S   UNL A   1      41.576  36.145  38.107  1.00  0.00     0.124 S 
ATOM     72  O   UNL A   1      42.063  36.491  36.773  1.00  0.00    -0.237 OA
ATOM     73  O   UNL A   1      40.706  37.128  38.744  1.00  0.00    -0.237 OA
ATOM     74  O   UNL A   1      42.568  35.528  38.984  1.00  0.00    -0.744 OA
ENDBRANCH  67  71
ENDBRANCH  50  64
BRANCH  51  75
ATOM     75  C   UNL A   1      41.112  27.427  28.004  1.00  0.00     0.023 A 
ATOM     76  C   UNL A   1      40.793  26.060  27.961  1.00  0.00     0.031 A 
ATOM     77  C   UNL A   1      41.728  27.992  26.873  1.00  0.00     0.131 A 
ATOM     78  C   UNL A   1      41.163  25.287  26.849  1.00  0.00     0.055 A 
ATOM     79  C   UNL A   1      42.026  27.235  25.738  1.00  0.00     0.041 A 
ATOM     80  F   UNL A   1      42.056  29.294  26.855  1.00  0.00    -0.206 F 
ATOM     81  C   UNL A   1      41.763  25.869  25.730  1.00  0.00     0.022 A 
BRANCH  78  82
ATOM     82  S   UNL A   1      40.977  23.486  26.946  1.00  0.00     0.124 S 
ATOM     83  O   UNL A   1      41.934  23.036  25.942  1.00  0.00    -0.237 OA
ATOM     84  O   UNL A   1      41.333  23.221  28.336  1.00  0.00    -0.237 OA
ATOM     85  O   UNL A   1      39.572  23.271  26.611  1.00  0.00    -0.744 OA
ENDBRANCH  78  82
ENDBRANCH  51  75
BRANCH  63  86
ATOM     86  C   UNL A   1      44.360  27.603  34.171  1.00  0.00     0.023 A 
ATOM     87  C   UNL A   1      44.128  26.391  34.843  1.00  0.00     0.031 A 
ATOM     88  C   UNL A   1      45.689  28.049  34.052  1.00  0.00     0.131 A 
ATOM     89  C   UNL A   1      45.201  25.698  35.424  1.00  0.00     0.055 A 
ATOM     90  C   UNL A   1      46.758  27.321  34.572  1.00  0.00     0.041 A 
ATOM     91  F   UNL A   1      45.970  29.202  33.424  1.00  0.00    -0.206 F 
ATOM     92  C   UNL A   1      46.517  26.145  35.276  1.00  0.00     0.022 A 
BRANCH  89  93
ATOM     93  S   UNL A   1      44.844  24.258  36.468  1.00  0.00     0.124 S 
ATOM     94  O   UNL A   1      46.176  23.704  36.687  1.00  0.00    -0.237 OA
ATOM     95  O   UNL A   1      44.209  24.867  37.632  1.00  0.00    -0.237 OA
ATOM     96  O   UNL A   1      43.961  23.441  35.636  1.00  0.00    -0.744 OA
ENDBRANCH  89  93
ENDBRANCH  63  86
ENDBRANCH  37  38
ENDBRANCH  29  32
ENDBRANCH  27  28
ENDBRANCH  26  27
ENDBRANCH   1  26
TORSDOF 18
ENDMDL
