MODEL 1
REMARK VINA RESULT:     -11.0      0.000      0.000
REMARK SMILES CCOc1cnc(C(=O)c2[nH]c3cc(Cl)ccc3c2CC(=O)NCCCCCCNC(=O)c2ccc(-c3c4nc(c(-c5cc(S(=O)(=O)[O-])ccc5F)c5ccc([nH]5)c(-c5cc(S(=O)(=O)[O-])ccc5F)c5nc(c(-c6cc(S(=O)(=O)[O-])ccc6F)c6ccc3[nH]6)C=C5)C=C4)cc2)cc1CC
REMARK SMILES IDX 25 1 24 2 23 3 21 4 22 5 20 7 19 8 10 9 11 10 12 11 18 13
REMARK SMILES IDX 13 14 17 15 14 16 16 17 15 18 8 19 9 20 7 21 4 22 5 23 97 24
REMARK SMILES IDX 6 25 96 26 3 27 2 28 1 29 98 30 99 31 26 32 27 33 28 34
REMARK SMILES IDX 29 35 30 36 31 37 32 39 33 40 34 41 95 42 35 43 94 44 36 45
REMARK SMILES IDX 37 46 38 47 88 48 39 49 93 50 87 51 89 52 40 53 92 54 86 55
REMARK SMILES IDX 85 56 41 58 73 59 53 60 72 61 54 62 57 63 71 64 90 65 55 66
REMARK SMILES IDX 56 67 70 69 91 70 58 71 42 72 43 73 51 74 44 75 50 76 52 77
REMARK SMILES IDX 49 78 45 79 46 80 47 81 48 82 74 83 75 84 83 85 76 86 82 87
REMARK SMILES IDX 84 88 81 89 77 90 78 91 79 92 80 93 59 94 60 95 68 96 61 97
REMARK SMILES IDX 67 98 69 99 66 100 62 101 63 102 64 103 65 104
REMARK H PARENT 23 6 11 12 30 38 89 57 57 68
REMARK Flexibility Score: inf
ROOT
ATOM      1  C   UNL A   1      38.762  22.276  26.132  1.00  0.00     0.021 C 
ENDROOT
BRANCH   1   2
ATOM      2  C   UNL A   1      37.961  23.578  26.084  1.00  0.00     0.116 C 
BRANCH   2   3
ATOM      3  N   UNL A   1      37.131  23.671  24.901  1.00  0.00    -0.356 N 
ATOM      4  C   UNL A   1      35.781  23.511  24.773  1.00  0.00     0.224 C 
ATOM      5  O   UNL A   1      35.269  23.783  23.683  1.00  0.00    -0.275 OA
ATOM      6  H   UNL A   1      37.610  23.879  24.067  1.00  0.00     0.163 HD
BRANCH   4   7
ATOM      7  C   UNL A   1      34.913  23.151  25.971  1.00  0.00     0.138 C 
BRANCH   7   8
ATOM      8  C   UNL A   1      33.817  22.161  25.697  1.00  0.00    -0.002 A 
ATOM      9  C   UNL A   1      32.453  22.331  25.911  1.00  0.00     0.093 A 
ATOM     10  N   UNL A   1      31.819  21.233  25.373  1.00  0.00    -0.351 N 
ATOM     11  C   UNL A   1      32.732  20.252  25.071  1.00  0.00     0.048 A 
ATOM     12  H   UNL A   1      30.849  21.161  25.226  1.00  0.00     0.167 HD
ATOM     13  C   UNL A   1      33.997  20.803  25.263  1.00  0.00     0.004 A 
ATOM     14  C   UNL A   1      32.532  18.935  24.638  1.00  0.00     0.047 A 
ATOM     15  C   UNL A   1      35.126  19.993  25.007  1.00  0.00     0.012 A 
ATOM     16  C   UNL A   1      33.668  18.156  24.404  1.00  0.00     0.043 A 
ATOM     17  C   UNL A   1      34.948  18.671  24.582  1.00  0.00     0.021 A 
ATOM     18  Cl  UNL A   1      33.476  16.523  23.897  1.00  0.00    -0.084 Cl
BRANCH   9  19
ATOM     19  C   UNL A   1      31.754  23.442  26.542  1.00  0.00     0.227 C 
ATOM     20  O   UNL A   1      31.181  23.314  27.617  1.00  0.00    -0.285 OA
BRANCH  19  21
ATOM     21  C   UNL A   1      31.746  24.773  25.814  1.00  0.00     0.113 A 
ATOM     22  C   UNL A   1      31.630  27.150  24.437  1.00  0.00     0.140 A 
ATOM     23  C   UNL A   1      31.487  25.913  23.820  1.00  0.00     0.158 A 
ATOM     24  C   UNL A   1      31.795  27.197  25.820  1.00  0.00    -0.002 A 
ATOM     25  N   UNL A   1      31.528  24.729  24.476  1.00  0.00    -0.249 NA
ATOM     26  C   UNL A   1      31.924  25.978  26.498  1.00  0.00     0.040 A 
BRANCH  22  27
ATOM     27  O   UNL A   1      31.523  28.299  23.707  1.00  0.00    -0.492 OA
BRANCH  27  28
ATOM     28  C   UNL A   1      30.560  28.174  22.651  1.00  0.00     0.226 C 
ATOM     29  C   UNL A   1      29.293  28.922  23.027  1.00  0.00     0.049 C 
ENDBRANCH  27  28
ENDBRANCH  22  27
BRANCH  24  30
ATOM     30  C   UNL A   1      31.835  28.492  26.594  1.00  0.00     0.036 C 
ATOM     31  C   UNL A   1      33.250  28.918  26.971  1.00  0.00     0.009 C 
ENDBRANCH  24  30
ENDBRANCH  19  21
ENDBRANCH   9  19
ENDBRANCH   7   8
ENDBRANCH   4   7
ENDBRANCH   2   3
ENDBRANCH   1   2
BRANCH   1  32
ATOM     32  C   UNL A   1      40.241  22.454  26.491  1.00  0.00     0.002 C 
BRANCH  32  33
ATOM     33  C   UNL A   1      40.747  21.594  27.654  1.00  0.00     0.002 C 
BRANCH  33  34
ATOM     34  C   UNL A   1      41.317  20.226  27.263  1.00  0.00     0.021 C 
BRANCH  34  35
ATOM     35  C   UNL A   1      41.361  19.948  25.763  1.00  0.00     0.116 C 
BRANCH  35  36
ATOM     36  N   UNL A   1      42.636  19.390  25.350  1.00  0.00    -0.352 N 
ATOM     37  C   UNL A   1      43.838  20.015  25.126  1.00  0.00     0.251 C 
ATOM     38  H   UNL A   1      42.639  18.416  25.208  1.00  0.00     0.163 HD
ATOM     39  O   UNL A   1      44.745  19.390  24.582  1.00  0.00    -0.269 OA
BRANCH  37  40
ATOM     40  C   UNL A   1      44.043  21.430  25.518  1.00  0.00     0.039 A 
ATOM     41  C   UNL A   1      44.423  21.712  26.834  1.00  0.00     0.014 A 
ATOM     42  C   UNL A   1      43.805  22.480  24.625  1.00  0.00     0.014 A 
ATOM     43  C   UNL A   1      44.592  23.037  27.245  1.00  0.00     0.010 A 
ATOM     44  C   UNL A   1      44.033  23.798  25.018  1.00  0.00     0.010 A 
ATOM     45  C   UNL A   1      44.410  24.092  26.338  1.00  0.00    -0.014 A 
BRANCH  45  46
ATOM     46  C   UNL A   1      44.553  25.506  26.771  1.00  0.00     0.031 A 
ATOM     47  C   UNL A   1      45.895  26.183  26.692  1.00  0.00     0.074 A 
ATOM     48  C   UNL A   1      43.492  26.166  27.273  1.00  0.00     0.049 A 
ATOM     49  N   UNL A   1      46.242  27.389  27.066  1.00  0.00    -0.248 NA
ATOM     50  C   UNL A   1      47.002  25.382  26.150  1.00  0.00     0.031 C 
ATOM     51  C   UNL A   1      42.150  25.605  27.443  1.00  0.00     0.029 A 
ATOM     52  N   UNL A   1      43.375  27.451  27.740  1.00  0.00    -0.354 N 
ATOM     53  C   UNL A   1      47.609  27.483  26.822  1.00  0.00     0.074 A 
ATOM     54  C   UNL A   1      48.034  26.191  26.325  1.00  0.00     0.031 C 
ATOM     55  C   UNL A   1      41.342  26.547  27.958  1.00  0.00     0.029 A 
ATOM     56  C   UNL A   1      42.112  27.766  28.182  1.00  0.00     0.049 A 
ATOM     57  H   UNL A   1      44.126  28.087  27.757  1.00  0.00     0.167 HD
ATOM     58  C   UNL A   1      48.431  28.553  26.978  1.00  0.00     0.034 A 
ATOM     59  C   UNL A   1      41.631  28.910  28.707  1.00  0.00     0.034 A 
ATOM     60  C   UNL A   1      47.987  29.841  27.458  1.00  0.00     0.049 A 
ATOM     61  C   UNL A   1      42.549  30.096  28.839  1.00  0.00     0.074 A 
ATOM     62  C   UNL A   1      48.721  31.004  27.622  1.00  0.00     0.029 A 
ATOM     63  N   UNL A   1      46.688  30.136  27.852  1.00  0.00    -0.354 N 
ATOM     64  N   UNL A   1      43.831  30.184  28.567  1.00  0.00    -0.248 NA
ATOM     65  C   UNL A   1      41.949  31.345  29.326  1.00  0.00     0.031 C 
ATOM     66  C   UNL A   1      47.878  31.986  28.157  1.00  0.00     0.029 A 
ATOM     67  C   UNL A   1      46.603  31.456  28.268  1.00  0.00     0.049 A 
ATOM     68  H   UNL A   1      45.937  29.500  27.837  1.00  0.00     0.167 HD
ATOM     69  C   UNL A   1      44.182  31.507  28.820  1.00  0.00     0.074 A 
ATOM     70  C   UNL A   1      42.974  32.181  29.251  1.00  0.00     0.031 C 
ATOM     71  C   UNL A   1      45.392  32.113  28.700  1.00  0.00     0.034 A 
BRANCH  58  72
ATOM     72  C   UNL A   1      49.892  28.354  26.649  1.00  0.00     0.023 A 
ATOM     73  C   UNL A   1      50.397  28.597  25.358  1.00  0.00     0.031 A 
ATOM     74  C   UNL A   1      50.783  27.862  27.619  1.00  0.00     0.131 A 
ATOM     75  C   UNL A   1      51.725  28.261  25.050  1.00  0.00     0.055 A 
ATOM     76  C   UNL A   1      52.126  27.613  27.328  1.00  0.00     0.041 A 
ATOM     77  F   UNL A   1      50.358  27.592  28.863  1.00  0.00    -0.206 F 
ATOM     78  C   UNL A   1      52.600  27.795  26.032  1.00  0.00     0.022 A 
BRANCH  75  79
ATOM     79  S   UNL A   1      52.242  28.288  23.311  1.00  0.00     0.124 S 
ATOM     80  O   UNL A   1      53.694  28.380  23.438  1.00  0.00    -0.237 OA
ATOM     81  O   UNL A   1      51.723  27.022  22.808  1.00  0.00    -0.237 OA
ATOM     82  O   UNL A   1      51.594  29.484  22.779  1.00  0.00    -0.744 OA
ENDBRANCH  75  79
ENDBRANCH  58  72
BRANCH  59  83
ATOM     83  C   UNL A   1      40.207  28.999  29.135  1.00  0.00     0.023 A 
ATOM     84  C   UNL A   1      39.855  28.951  30.494  1.00  0.00     0.031 A 
ATOM     85  C   UNL A   1      39.173  29.100  28.188  1.00  0.00     0.131 A 
ATOM     86  C   UNL A   1      38.503  28.958  30.867  1.00  0.00     0.055 A 
ATOM     87  C   UNL A   1      37.831  29.152  28.567  1.00  0.00     0.041 A 
ATOM     88  F   UNL A   1      39.458  29.161  26.877  1.00  0.00    -0.206 F 
ATOM     89  C   UNL A   1      37.488  29.068  29.913  1.00  0.00     0.022 A 
BRANCH  86  90
ATOM     90  S   UNL A   1      38.085  28.751  32.620  1.00  0.00     0.124 S 
ATOM     91  O   UNL A   1      38.155  27.302  32.774  1.00  0.00    -0.237 OA
ATOM     92  O   UNL A   1      39.141  29.517  33.274  1.00  0.00    -0.237 OA
ATOM     93  O   UNL A   1      36.746  29.328  32.720  1.00  0.00    -0.744 OA
ENDBRANCH  86  90
ENDBRANCH  59  83
BRANCH  71  94
ATOM     94  C   UNL A   1      45.442  33.592  28.992  1.00  0.00     0.023 A 
ATOM     95  C   UNL A   1      45.697  34.086  30.283  1.00  0.00     0.031 A 
ATOM     96  C   UNL A   1      45.196  34.521  27.965  1.00  0.00     0.131 A 
ATOM     97  C   UNL A   1      45.636  35.466  30.528  1.00  0.00     0.055 A 
ATOM     98  C   UNL A   1      45.194  35.896  28.202  1.00  0.00     0.041 A 
ATOM     99  F   UNL A   1      44.947  34.104  26.713  1.00  0.00    -0.206 F 
ATOM    100  C   UNL A   1      45.398  36.375  29.494  1.00  0.00     0.022 A 
BRANCH  97 101
ATOM    101  S   UNL A   1      45.762  36.054  32.240  1.00  0.00     0.124 S 
ATOM    102  O   UNL A   1      47.113  35.644  32.606  1.00  0.00    -0.237 OA
ATOM    103  O   UNL A   1      45.550  37.490  32.091  1.00  0.00    -0.237 OA
ATOM    104  O   UNL A   1      44.689  35.337  32.928  1.00  0.00    -0.744 OA
ENDBRANCH  97 101
ENDBRANCH  71  94
ENDBRANCH  45  46
ENDBRANCH  37  40
ENDBRANCH  35  36
ENDBRANCH  34  35
ENDBRANCH  33  34
ENDBRANCH  32  33
ENDBRANCH   1  32
TORSDOF 22
ENDMDL
MODEL 2
REMARK VINA RESULT:     -10.9      3.085      5.335
REMARK SMILES CCOc1cnc(C(=O)c2[nH]c3cc(Cl)ccc3c2CC(=O)NCCCCCCNC(=O)c2ccc(-c3c4nc(c(-c5cc(S(=O)(=O)[O-])ccc5F)c5ccc([nH]5)c(-c5cc(S(=O)(=O)[O-])ccc5F)c5nc(c(-c6cc(S(=O)(=O)[O-])ccc6F)c6ccc3[nH]6)C=C5)C=C4)cc2)cc1CC
REMARK SMILES IDX 25 1 24 2 23 3 21 4 22 5 20 7 19 8 10 9 11 10 12 11 18 13
REMARK SMILES IDX 13 14 17 15 14 16 16 17 15 18 8 19 9 20 7 21 4 22 5 23 97 24
REMARK SMILES IDX 6 25 96 26 3 27 2 28 1 29 98 30 99 31 26 32 27 33 28 34
REMARK SMILES IDX 29 35 30 36 31 37 32 39 33 40 34 41 95 42 35 43 94 44 36 45
REMARK SMILES IDX 37 46 38 47 88 48 39 49 93 50 87 51 89 52 40 53 92 54 86 55
REMARK SMILES IDX 85 56 41 58 73 59 53 60 72 61 54 62 57 63 71 64 90 65 55 66
REMARK SMILES IDX 56 67 70 69 91 70 58 71 42 72 43 73 51 74 44 75 50 76 52 77
REMARK SMILES IDX 49 78 45 79 46 80 47 81 48 82 74 83 75 84 83 85 76 86 82 87
REMARK SMILES IDX 84 88 81 89 77 90 78 91 79 92 80 93 59 94 60 95 68 96 61 97
REMARK SMILES IDX 67 98 69 99 66 100 62 101 63 102 64 103 65 104
REMARK H PARENT 23 6 11 12 30 38 89 57 57 68
REMARK Flexibility Score: inf
ROOT
ATOM      1  C   UNL A   1      32.892  23.201  26.169  1.00  0.00     0.021 C 
ENDROOT
BRANCH   1   2
ATOM      2  C   UNL A   1      31.419  23.589  26.302  1.00  0.00     0.116 C 
BRANCH   2   3
ATOM      3  N   UNL A   1      31.247  24.913  26.861  1.00  0.00    -0.356 N 
ATOM      4  C   UNL A   1      30.876  26.074  26.246  1.00  0.00     0.224 C 
ATOM      5  O   UNL A   1      30.652  27.058  26.958  1.00  0.00    -0.275 OA
ATOM      6  H   UNL A   1      31.423  24.988  27.827  1.00  0.00     0.163 HD
BRANCH   4   7
ATOM      7  C   UNL A   1      30.605  26.120  24.749  1.00  0.00     0.138 C 
BRANCH   7   8
ATOM      8  C   UNL A   1      30.870  27.443  24.087  1.00  0.00    -0.002 A 
ATOM      9  C   UNL A   1      32.039  28.194  24.141  1.00  0.00     0.093 A 
ATOM     10  N   UNL A   1      31.885  29.246  23.265  1.00  0.00    -0.351 N 
ATOM     11  C   UNL A   1      30.575  29.348  22.864  1.00  0.00     0.048 A 
ATOM     12  H   UNL A   1      32.610  29.841  22.968  1.00  0.00     0.167 HD
ATOM     13  C   UNL A   1      29.910  28.230  23.363  1.00  0.00     0.004 A 
ATOM     14  C   UNL A   1      29.940  30.332  22.097  1.00  0.00     0.047 A 
ATOM     15  C   UNL A   1      28.534  28.087  23.080  1.00  0.00     0.012 A 
ATOM     16  C   UNL A   1      28.575  30.168  21.843  1.00  0.00     0.043 A 
ATOM     17  C   UNL A   1      27.877  29.065  22.322  1.00  0.00     0.021 A 
ATOM     18  Cl  UNL A   1      27.742  31.364  20.928  1.00  0.00    -0.084 Cl
BRANCH   9  19
ATOM     19  C   UNL A   1      33.248  27.959  24.918  1.00  0.00     0.227 C 
ATOM     20  O   UNL A   1      33.927  26.952  24.762  1.00  0.00    -0.285 OA
BRANCH  19  21
ATOM     21  C   UNL A   1      33.639  29.004  25.945  1.00  0.00     0.113 A 
ATOM     22  C   UNL A   1      34.239  30.882  27.864  1.00  0.00     0.140 A 
ATOM     23  C   UNL A   1      33.022  30.850  27.193  1.00  0.00     0.158 A 
ATOM     24  C   UNL A   1      35.184  29.895  27.588  1.00  0.00    -0.002 A 
ATOM     25  N   UNL A   1      32.697  29.931  26.254  1.00  0.00    -0.249 NA
ATOM     26  C   UNL A   1      34.893  28.990  26.559  1.00  0.00     0.040 A 
BRANCH  22  27
ATOM     27  O   UNL A   1      34.465  31.814  28.835  1.00  0.00    -0.492 OA
BRANCH  27  28
ATOM     28  C   UNL A   1      34.444  33.149  28.310  1.00  0.00     0.226 C 
ATOM     29  C   UNL A   1      35.848  33.553  27.892  1.00  0.00     0.049 C 
ENDBRANCH  27  28
ENDBRANCH  22  27
BRANCH  24  30
ATOM     30  C   UNL A   1      36.481  29.772  28.350  1.00  0.00     0.036 C 
ATOM     31  C   UNL A   1      36.276  29.479  29.833  1.00  0.00     0.009 C 
ENDBRANCH  24  30
ENDBRANCH  19  21
ENDBRANCH   9  19
ENDBRANCH   7   8
ENDBRANCH   4   7
ENDBRANCH   2   3
ENDBRANCH   1   2
BRANCH   1  32
ATOM     32  C   UNL A   1      33.436  23.260  24.737  1.00  0.00     0.002 C 
BRANCH  32  33
ATOM     33  C   UNL A   1      34.963  23.227  24.608  1.00  0.00     0.002 C 
BRANCH  33  34
ATOM     34  C   UNL A   1      35.728  22.947  25.906  1.00  0.00     0.021 C 
BRANCH  34  35
ATOM     35  C   UNL A   1      37.202  23.343  25.887  1.00  0.00     0.116 C 
BRANCH  35  36
ATOM     36  N   UNL A   1      38.072  22.222  26.193  1.00  0.00    -0.352 N 
ATOM     37  C   UNL A   1      39.406  22.207  26.516  1.00  0.00     0.251 C 
ATOM     38  H   UNL A   1      37.639  21.337  26.163  1.00  0.00     0.163 HD
ATOM     39  O   UNL A   1      40.004  21.134  26.538  1.00  0.00    -0.269 OA
BRANCH  37  40
ATOM     40  C   UNL A   1      40.127  23.465  26.822  1.00  0.00     0.039 A 
ATOM     41  C   UNL A   1      40.871  23.539  28.005  1.00  0.00     0.014 A 
ATOM     42  C   UNL A   1      40.028  24.587  25.993  1.00  0.00     0.014 A 
ATOM     43  C   UNL A   1      41.536  24.722  28.340  1.00  0.00     0.010 A 
ATOM     44  C   UNL A   1      40.742  25.746  26.297  1.00  0.00     0.010 A 
ATOM     45  C   UNL A   1      41.487  25.833  27.483  1.00  0.00    -0.014 A 
BRANCH  45  46
ATOM     46  C   UNL A   1      42.161  27.107  27.845  1.00  0.00     0.031 A 
ATOM     47  C   UNL A   1      43.597  27.334  27.453  1.00  0.00     0.074 A 
ATOM     48  C   UNL A   1      41.500  28.039  28.558  1.00  0.00     0.049 A 
ATOM     49  N   UNL A   1      44.380  28.349  27.716  1.00  0.00    -0.248 NA
ATOM     50  C   UNL A   1      44.246  26.256  26.693  1.00  0.00     0.031 C 
ATOM     51  C   UNL A   1      40.121  27.917  29.035  1.00  0.00     0.029 A 
ATOM     52  N   UNL A   1      41.901  29.270  29.012  1.00  0.00    -0.354 N 
ATOM     53  C   UNL A   1      45.619  28.024  27.170  1.00  0.00     0.074 A 
ATOM     54  C   UNL A   1      45.493  26.692  26.617  1.00  0.00     0.031 C 
ATOM     55  C   UNL A   1      39.786  29.036  29.699  1.00  0.00     0.029 A 
ATOM     56  C   UNL A   1      40.931  29.940  29.720  1.00  0.00     0.049 A 
ATOM     57  H   UNL A   1      42.799  29.637  28.848  1.00  0.00     0.167 HD
ATOM     58  C   UNL A   1      46.750  28.774  27.116  1.00  0.00     0.034 A 
ATOM     59  C   UNL A   1      40.963  31.148  30.316  1.00  0.00     0.034 A 
ATOM     60  C   UNL A   1      46.852  30.109  27.657  1.00  0.00     0.049 A 
ATOM     61  C   UNL A   1      42.215  31.980  30.214  1.00  0.00     0.074 A 
ATOM     62  C   UNL A   1      47.933  30.975  27.628  1.00  0.00     0.029 A 
ATOM     63  N   UNL A   1      45.832  30.775  28.325  1.00  0.00    -0.354 N 
ATOM     64  N   UNL A   1      43.366  31.676  29.661  1.00  0.00    -0.248 NA
ATOM     65  C   UNL A   1      42.163  33.326  30.798  1.00  0.00     0.031 C 
ATOM     66  C   UNL A   1      47.583  32.142  28.318  1.00  0.00     0.029 A 
ATOM     67  C   UNL A   1      46.262  32.032  28.722  1.00  0.00     0.049 A 
ATOM     68  H   UNL A   1      44.934  30.407  28.492  1.00  0.00     0.167 HD
ATOM     69  C   UNL A   1      44.164  32.808  29.801  1.00  0.00     0.074 A 
ATOM     70  C   UNL A   1      43.356  33.803  30.478  1.00  0.00     0.031 C 
ATOM     71  C   UNL A   1      45.446  33.011  29.402  1.00  0.00     0.034 A 
BRANCH  58  72
ATOM     72  C   UNL A   1      47.963  28.146  26.472  1.00  0.00     0.023 A 
ATOM     73  C   UNL A   1      48.133  28.130  25.075  1.00  0.00     0.031 A 
ATOM     74  C   UNL A   1      48.938  27.505  27.257  1.00  0.00     0.131 A 
ATOM     75  C   UNL A   1      49.194  27.410  24.505  1.00  0.00     0.055 A 
ATOM     76  C   UNL A   1      50.040  26.865  26.686  1.00  0.00     0.041 A 
ATOM     77  F   UNL A   1      48.823  27.468  28.594  1.00  0.00    -0.206 F 
ATOM     78  C   UNL A   1      50.164  26.799  25.301  1.00  0.00     0.022 A 
BRANCH  75  79
ATOM     79  S   UNL A   1      49.196  27.148  22.710  1.00  0.00     0.124 S 
ATOM     80  O   UNL A   1      48.652  28.415  22.227  1.00  0.00    -0.237 OA
ATOM     81  O   UNL A   1      50.606  26.909  22.427  1.00  0.00    -0.237 OA
ATOM     82  O   UNL A   1      48.319  25.993  22.532  1.00  0.00    -0.744 OA
ENDBRANCH  75  79
ENDBRANCH  58  72
BRANCH  59  83
ATOM     83  C   UNL A   1      39.770  31.655  31.050  1.00  0.00     0.023 A 
ATOM     84  C   UNL A   1      39.646  31.479  32.438  1.00  0.00     0.031 A 
ATOM     85  C   UNL A   1      38.720  32.295  30.368  1.00  0.00     0.131 A 
ATOM     86  C   UNL A   1      38.479  31.896  33.094  1.00  0.00     0.055 A 
ATOM     87  C   UNL A   1      37.580  32.748  31.032  1.00  0.00     0.041 A 
ATOM     88  F   UNL A   1      38.797  32.497  29.043  1.00  0.00    -0.206 F 
ATOM     89  C   UNL A   1      37.448  32.539  32.402  1.00  0.00     0.022 A 
BRANCH  86  90
ATOM     90  S   UNL A   1      38.295  31.525  34.859  1.00  0.00     0.124 S 
ATOM     91  O   UNL A   1      37.026  32.172  35.170  1.00  0.00    -0.237 OA
ATOM     92  O   UNL A   1      38.288  30.065  34.861  1.00  0.00    -0.237 OA
ATOM     93  O   UNL A   1      39.476  32.140  35.461  1.00  0.00    -0.744 OA
ENDBRANCH  86  90
ENDBRANCH  59  83
BRANCH  71  94
ATOM     94  C   UNL A   1      46.024  34.383  29.645  1.00  0.00     0.023 A 
ATOM     95  C   UNL A   1      45.965  35.396  28.672  1.00  0.00     0.031 A 
ATOM     96  C   UNL A   1      46.674  34.669  30.859  1.00  0.00     0.131 A 
ATOM     97  C   UNL A   1      46.603  36.625  28.903  1.00  0.00     0.055 A 
ATOM     98  C   UNL A   1      47.257  35.912  31.106  1.00  0.00     0.041 A 
ATOM     99  F   UNL A   1      46.760  33.738  31.822  1.00  0.00    -0.206 F 
ATOM    100  C   UNL A   1      47.237  36.893  30.118  1.00  0.00     0.022 A 
BRANCH  97 101
ATOM    101  S   UNL A   1      46.687  37.830  27.549  1.00  0.00     0.124 S 
ATOM    102  O   UNL A   1      45.315  37.832  27.054  1.00  0.00    -0.237 OA
ATOM    103  O   UNL A   1      47.116  39.043  28.241  1.00  0.00    -0.237 OA
ATOM    104  O   UNL A   1      47.675  37.255  26.638  1.00  0.00    -0.744 OA
ENDBRANCH  97 101
ENDBRANCH  71  94
ENDBRANCH  45  46
ENDBRANCH  37  40
ENDBRANCH  35  36
ENDBRANCH  34  35
ENDBRANCH  33  34
ENDBRANCH  32  33
ENDBRANCH   1  32
TORSDOF 22
ENDMDL
MODEL 3
REMARK VINA RESULT:     -10.8      3.266      5.498
REMARK SMILES CCOc1cnc(C(=O)c2[nH]c3cc(Cl)ccc3c2CC(=O)NCCCCCCNC(=O)c2ccc(-c3c4nc(c(-c5cc(S(=O)(=O)[O-])ccc5F)c5ccc([nH]5)c(-c5cc(S(=O)(=O)[O-])ccc5F)c5nc(c(-c6cc(S(=O)(=O)[O-])ccc6F)c6ccc3[nH]6)C=C5)C=C4)cc2)cc1CC
REMARK SMILES IDX 25 1 24 2 23 3 21 4 22 5 20 7 19 8 10 9 11 10 12 11 18 13
REMARK SMILES IDX 13 14 17 15 14 16 16 17 15 18 8 19 9 20 7 21 4 22 5 23 97 24
REMARK SMILES IDX 6 25 96 26 3 27 2 28 1 29 98 30 99 31 26 32 27 33 28 34
REMARK SMILES IDX 29 35 30 36 31 37 32 39 33 40 34 41 95 42 35 43 94 44 36 45
REMARK SMILES IDX 37 46 38 47 88 48 39 49 93 50 87 51 89 52 40 53 92 54 86 55
REMARK SMILES IDX 85 56 41 58 73 59 53 60 72 61 54 62 57 63 71 64 90 65 55 66
REMARK SMILES IDX 56 67 70 69 91 70 58 71 42 72 43 73 51 74 44 75 50 76 52 77
REMARK SMILES IDX 49 78 45 79 46 80 47 81 48 82 74 83 75 84 83 85 76 86 82 87
REMARK SMILES IDX 84 88 81 89 77 90 78 91 79 92 80 93 59 94 60 95 68 96 61 97
REMARK SMILES IDX 67 98 69 99 66 100 62 101 63 102 64 103 65 104
REMARK H PARENT 23 6 11 12 30 38 89 57 57 68
REMARK Flexibility Score: inf
ROOT
ATOM      1  C   UNL A   1      33.421  23.642  25.890  1.00  0.00     0.021 C 
ENDROOT
BRANCH   1   2
ATOM      2  C   UNL A   1      31.956  23.576  26.322  1.00  0.00     0.116 C 
BRANCH   2   3
ATOM      3  N   UNL A   1      31.499  24.818  26.910  1.00  0.00    -0.356 N 
ATOM      4  C   UNL A   1      30.969  25.922  26.306  1.00  0.00     0.224 C 
ATOM      5  O   UNL A   1      30.512  26.812  27.030  1.00  0.00    -0.275 OA
ATOM      6  H   UNL A   1      31.582  24.874  27.889  1.00  0.00     0.163 HD
BRANCH   4   7
ATOM      7  C   UNL A   1      30.813  25.993  24.794  1.00  0.00     0.138 C 
BRANCH   7   8
ATOM      8  C   UNL A   1      30.994  27.358  24.192  1.00  0.00    -0.002 A 
ATOM      9  C   UNL A   1      32.101  28.191  24.308  1.00  0.00     0.093 A 
ATOM     10  N   UNL A   1      31.890  29.264  23.469  1.00  0.00    -0.351 N 
ATOM     11  C   UNL A   1      30.587  29.284  23.035  1.00  0.00     0.048 A 
ATOM     12  H   UNL A   1      32.576  29.923  23.217  1.00  0.00     0.167 HD
ATOM     13  C   UNL A   1      29.996  28.100  23.471  1.00  0.00     0.004 A 
ATOM     14  C   UNL A   1      29.899  30.249  22.290  1.00  0.00     0.047 A 
ATOM     15  C   UNL A   1      28.643  27.867  23.143  1.00  0.00     0.012 A 
ATOM     16  C   UNL A   1      28.558  29.994  21.990  1.00  0.00     0.043 A 
ATOM     17  C   UNL A   1      27.934  28.823  22.406  1.00  0.00     0.021 A 
ATOM     18  Cl  UNL A   1      27.660  31.161  21.099  1.00  0.00    -0.084 Cl
BRANCH   9  19
ATOM     19  C   UNL A   1      33.304  28.016  25.110  1.00  0.00     0.227 C 
ATOM     20  O   UNL A   1      34.001  27.014  25.012  1.00  0.00    -0.285 OA
BRANCH  19  21
ATOM     21  C   UNL A   1      33.665  29.117  26.087  1.00  0.00     0.113 A 
ATOM     22  C   UNL A   1      34.208  31.104  27.911  1.00  0.00     0.140 A 
ATOM     23  C   UNL A   1      33.034  31.060  27.169  1.00  0.00     0.158 A 
ATOM     24  C   UNL A   1      35.137  30.074  27.761  1.00  0.00    -0.002 A 
ATOM     25  N   UNL A   1      32.737  30.088  26.275  1.00  0.00    -0.249 NA
ATOM     26  C   UNL A   1      34.880  29.110  26.778  1.00  0.00     0.040 A 
BRANCH  22  27
ATOM     27  O   UNL A   1      34.406  32.093  28.830  1.00  0.00    -0.492 OA
BRANCH  27  28
ATOM     28  C   UNL A   1      34.528  33.382  28.211  1.00  0.00     0.226 C 
ATOM     29  C   UNL A   1      33.498  34.329  28.803  1.00  0.00     0.049 C 
ENDBRANCH  27  28
ENDBRANCH  22  27
BRANCH  24  30
ATOM     30  C   UNL A   1      36.381  29.968  28.608  1.00  0.00     0.036 C 
ATOM     31  C   UNL A   1      37.640  29.703  27.788  1.00  0.00     0.009 C 
ENDBRANCH  24  30
ENDBRANCH  19  21
ENDBRANCH   9  19
ENDBRANCH   7   8
ENDBRANCH   4   7
ENDBRANCH   2   3
ENDBRANCH   1   2
BRANCH   1  32
ATOM     32  C   UNL A   1      33.633  23.708  24.373  1.00  0.00     0.002 C 
BRANCH  32  33
ATOM     33  C   UNL A   1      34.845  22.935  23.841  1.00  0.00     0.002 C 
BRANCH  33  34
ATOM     34  C   UNL A   1      35.488  21.956  24.828  1.00  0.00     0.021 C 
BRANCH  34  35
ATOM     35  C   UNL A   1      36.838  22.394  25.388  1.00  0.00     0.116 C 
BRANCH  35  36
ATOM     36  N   UNL A   1      37.724  21.267  25.618  1.00  0.00    -0.352 N 
ATOM     37  C   UNL A   1      39.032  21.248  26.035  1.00  0.00     0.251 C 
ATOM     38  H   UNL A   1      37.327  20.382  25.449  1.00  0.00     0.163 HD
ATOM     39  O   UNL A   1      39.665  20.198  25.969  1.00  0.00    -0.269 OA
BRANCH  37  40
ATOM     40  C   UNL A   1      39.685  22.478  26.544  1.00  0.00     0.039 A 
ATOM     41  C   UNL A   1      39.301  23.711  26.007  1.00  0.00     0.014 A 
ATOM     42  C   UNL A   1      40.710  22.423  27.494  1.00  0.00     0.014 A 
ATOM     43  C   UNL A   1      39.922  24.887  26.441  1.00  0.00     0.010 A 
ATOM     44  C   UNL A   1      41.285  23.601  27.970  1.00  0.00     0.010 A 
ATOM     45  C   UNL A   1      40.911  24.843  27.435  1.00  0.00    -0.014 A 
BRANCH  45  46
ATOM     46  C   UNL A   1      41.602  26.082  27.880  1.00  0.00     0.031 A 
ATOM     47  C   UNL A   1      43.015  26.353  27.437  1.00  0.00     0.074 A 
ATOM     48  C   UNL A   1      40.978  26.939  28.710  1.00  0.00     0.049 A 
ATOM     49  N   UNL A   1      43.810  27.344  27.753  1.00  0.00    -0.248 NA
ATOM     50  C   UNL A   1      43.625  25.355  26.546  1.00  0.00     0.031 C 
ATOM     51  C   UNL A   1      39.625  26.764  29.245  1.00  0.00     0.029 A 
ATOM     52  N   UNL A   1      41.400  28.124  29.257  1.00  0.00    -0.354 N 
ATOM     53  C   UNL A   1      45.019  27.079  27.115  1.00  0.00     0.074 A 
ATOM     54  C   UNL A   1      44.866  25.804  26.447  1.00  0.00     0.031 C 
ATOM     55  C   UNL A   1      39.324  27.814  30.027  1.00  0.00     0.029 A 
ATOM     56  C   UNL A   1      40.468  28.719  30.074  1.00  0.00     0.049 A 
ATOM     57  H   UNL A   1      42.288  28.511  29.082  1.00  0.00     0.167 HD
ATOM     58  C   UNL A   1      46.144  27.838  27.074  1.00  0.00     0.034 A 
ATOM     59  C   UNL A   1      40.530  29.866  30.779  1.00  0.00     0.034 A 
ATOM     60  C   UNL A   1      46.274  29.117  27.732  1.00  0.00     0.049 A 
ATOM     61  C   UNL A   1      41.774  30.711  30.691  1.00  0.00     0.074 A 
ATOM     62  C   UNL A   1      47.350  29.987  27.728  1.00  0.00     0.029 A 
ATOM     63  N   UNL A   1      45.289  29.710  28.512  1.00  0.00    -0.354 N 
ATOM     64  N   UNL A   1      42.895  30.468  30.053  1.00  0.00    -0.248 NA
ATOM     65  C   UNL A   1      41.751  31.996  31.401  1.00  0.00     0.031 C 
ATOM     66  C   UNL A   1      47.035  31.082  28.543  1.00  0.00     0.029 A 
ATOM     67  C   UNL A   1      45.737  30.928  29.003  1.00  0.00     0.049 A 
ATOM     68  H   UNL A   1      44.401  29.323  28.689  1.00  0.00     0.167 HD
ATOM     69  C   UNL A   1      43.698  31.586  30.257  1.00  0.00     0.074 A 
ATOM     70  C   UNL A   1      42.925  32.508  31.066  1.00  0.00     0.031 C 
ATOM     71  C   UNL A   1      44.957  31.834  29.813  1.00  0.00     0.034 A 
BRANCH  58  72
ATOM     72  C   UNL A   1      47.324  27.280  26.311  1.00  0.00     0.023 A 
ATOM     73  C   UNL A   1      48.326  26.528  26.950  1.00  0.00     0.031 A 
ATOM     74  C   UNL A   1      47.480  27.548  24.940  1.00  0.00     0.131 A 
ATOM     75  C   UNL A   1      49.479  26.151  26.244  1.00  0.00     0.055 A 
ATOM     76  C   UNL A   1      48.588  27.094  24.222  1.00  0.00     0.041 A 
ATOM     77  F   UNL A   1      46.568  28.277  24.277  1.00  0.00    -0.206 F 
ATOM     78  C   UNL A   1      49.606  26.408  24.878  1.00  0.00     0.022 A 
BRANCH  75  79
ATOM     79  S   UNL A   1      50.879  25.469  27.174  1.00  0.00     0.124 S 
ATOM     80  O   UNL A   1      51.605  24.752  26.129  1.00  0.00    -0.237 OA
ATOM     81  O   UNL A   1      51.526  26.668  27.694  1.00  0.00    -0.237 OA
ATOM     82  O   UNL A   1      50.243  24.619  28.177  1.00  0.00    -0.744 OA
ENDBRANCH  75  79
ENDBRANCH  58  72
BRANCH  59  83
ATOM     83  C   UNL A   1      39.377  30.295  31.618  1.00  0.00     0.023 A 
ATOM     84  C   UNL A   1      38.590  31.400  31.256  1.00  0.00     0.031 A 
ATOM     85  C   UNL A   1      39.065  29.624  32.814  1.00  0.00     0.131 A 
ATOM     86  C   UNL A   1      37.558  31.831  32.103  1.00  0.00     0.055 A 
ATOM     87  C   UNL A   1      38.009  30.030  33.631  1.00  0.00     0.041 A 
ATOM     88  F   UNL A   1      39.781  28.555  33.198  1.00  0.00    -0.206 F 
ATOM     89  C   UNL A   1      37.256  31.147  33.283  1.00  0.00     0.022 A 
BRANCH  86  90
ATOM     90  S   UNL A   1      36.657  33.345  31.673  1.00  0.00     0.124 S 
ATOM     91  O   UNL A   1      35.270  32.922  31.830  1.00  0.00    -0.237 OA
ATOM     92  O   UNL A   1      37.157  34.287  32.668  1.00  0.00    -0.237 OA
ATOM     93  O   UNL A   1      37.078  33.612  30.299  1.00  0.00    -0.744 OA
ENDBRANCH  86  90
ENDBRANCH  59  83
BRANCH  71  94
ATOM     94  C   UNL A   1      45.545  33.180  30.153  1.00  0.00     0.023 A 
ATOM     95  C   UNL A   1      45.322  34.312  29.350  1.00  0.00     0.031 A 
ATOM     96  C   UNL A   1      46.371  33.322  31.283  1.00  0.00     0.131 A 
ATOM     97  C   UNL A   1      45.970  35.520  29.650  1.00  0.00     0.055 A 
ATOM     98  C   UNL A   1      46.967  34.541  31.610  1.00  0.00     0.041 A 
ATOM     99  F   UNL A   1      46.618  32.274  32.084  1.00  0.00    -0.206 F 
ATOM    100  C   UNL A   1      46.780  35.645  30.781  1.00  0.00     0.022 A 
BRANCH  97 101
ATOM    101  S   UNL A   1      45.827  36.899  28.480  1.00  0.00     0.124 S 
ATOM    102  O   UNL A   1      45.965  36.225  27.193  1.00  0.00    -0.237 OA
ATOM    103  O   UNL A   1      44.500  37.427  28.784  1.00  0.00    -0.237 OA
ATOM    104  O   UNL A   1      46.940  37.774  28.844  1.00  0.00    -0.744 OA
ENDBRANCH  97 101
ENDBRANCH  71  94
ENDBRANCH  45  46
ENDBRANCH  37  40
ENDBRANCH  35  36
ENDBRANCH  34  35
ENDBRANCH  33  34
ENDBRANCH  32  33
ENDBRANCH   1  32
TORSDOF 22
ENDMDL
