MODEL 1
REMARK VINA RESULT:      -9.9      0.000      0.000
REMARK SMILES CCC[C@@H](C)C[NH2+][C@@](C)(CC)C(=O)NCCCCCCNC(=O)c1ccc(-c2c3nc(c(-c4cc(S(=O)(=O)[O-])ccc4F)c4ccc([nH]4)c(-c4cc(S(=O)(=O)[O-])ccc4F)c4nc(c(-c5cc(S(=O)(=O)[O-])ccc5F)c5ccc2[nH]5)C=C4)C=C3)cc1
REMARK SMILES IDX 16 1 15 2 14 3 12 4 13 5 8 7 9 8 7 9 6 12 4 13 5 14 3 15
REMARK SMILES IDX 2 16 1 17 10 18 11 19 17 20 18 21 19 22 20 23 21 24 22 25
REMARK SMILES IDX 23 27 24 28 25 29 86 30 26 31 85 32 27 33 28 34 29 35 79 36
REMARK SMILES IDX 30 37 84 38 78 39 80 40 31 41 83 42 77 43 76 44 32 46 64 47
REMARK SMILES IDX 44 48 63 49 45 50 48 51 62 52 81 53 46 54 47 55 61 57 82 58
REMARK SMILES IDX 49 59 33 60 34 61 42 62 35 63 41 64 43 65 40 66 36 67 37 68
REMARK SMILES IDX 38 69 39 70 65 71 66 72 74 73 67 74 73 75 75 76 72 77 68 78
REMARK SMILES IDX 69 79 70 80 71 81 50 82 51 83 59 84 52 85 58 86 60 87 57 88
REMARK SMILES IDX 53 89 54 90 55 91 56 92
REMARK H PARENT 14 6 7 10 7 11 21 26 80 45 48 56
REMARK Flexibility Score: inf
ROOT
ATOM      1  C   UNL A   1      33.303  25.221  25.424  1.00  0.00     0.021 C 
ENDROOT
BRANCH   1   2
ATOM      2  C   UNL A   1      33.475  24.036  26.373  1.00  0.00     0.116 C 
BRANCH   2   3
ATOM      3  N   UNL A   1      32.270  23.237  26.413  1.00  0.00    -0.351 N 
ATOM      4  C   UNL A   1      31.907  22.100  25.762  1.00  0.00     0.281 C 
ATOM      5  O   UNL A   1      30.706  21.818  25.850  1.00  0.00    -0.268 OA
ATOM      6  H   UNL A   1      31.584  23.581  27.029  1.00  0.00     0.163 HD
BRANCH   4   7
ATOM      7  C   UNL A   1      32.944  21.225  24.967  1.00  0.00     0.172 C 
ATOM      8  C   UNL A   1      34.117  20.790  25.872  1.00  0.00     0.090 C 
BRANCH   7   9
ATOM      9  N   UNL A   1      32.286  19.994  24.429  1.00  0.00    -0.334 N 
ATOM     10  H   UNL A   1      31.322  19.981  24.764  1.00  0.00     0.347 HD
ATOM     11  H   UNL A   1      32.372  20.054  23.415  1.00  0.00     0.347 HD
BRANCH   9  12
ATOM     12  C   UNL A   1      32.909  18.722  24.806  1.00  0.00     0.264 C 
BRANCH  12  13
ATOM     13  C   UNL A   1      33.487  17.995  23.569  1.00  0.00     0.041 C 
ATOM     14  C   UNL A   1      32.503  18.150  22.404  1.00  0.00     0.013 C 
BRANCH  13  15
ATOM     15  C   UNL A   1      33.773  16.507  23.875  1.00  0.00     0.009 C 
BRANCH  15  16
ATOM     16  C   UNL A   1      33.618  16.086  25.337  1.00  0.00    -0.003 C 
ATOM     17  C   UNL A   1      32.558  15.015  25.543  1.00  0.00     0.004 C 
ENDBRANCH  15  16
ENDBRANCH  13  15
ENDBRANCH  12  13
ENDBRANCH   9  12
ENDBRANCH   7   9
BRANCH   7  18
ATOM     18  C   UNL A   1      33.485  21.991  23.728  1.00  0.00     0.075 C 
ATOM     19  C   UNL A   1      32.422  22.400  22.711  1.00  0.00     0.011 C 
ENDBRANCH   7  18
ENDBRANCH   4   7
ENDBRANCH   2   3
ENDBRANCH   1   2
BRANCH   1  20
ATOM     20  C   UNL A   1      33.356  26.587  26.119  1.00  0.00     0.002 C 
BRANCH  20  21
ATOM     21  C   UNL A   1      31.995  27.263  26.317  1.00  0.00     0.002 C 
BRANCH  21  22
ATOM     22  C   UNL A   1      31.785  28.543  25.504  1.00  0.00     0.021 C 
BRANCH  22  23
ATOM     23  C   UNL A   1      32.984  29.483  25.486  1.00  0.00     0.116 C 
BRANCH  23  24
ATOM     24  N   UNL A   1      32.620  30.828  25.894  1.00  0.00    -0.352 N 
ATOM     25  C   UNL A   1      33.124  31.580  26.921  1.00  0.00     0.251 C 
ATOM     26  H   UNL A   1      31.914  31.257  25.359  1.00  0.00     0.163 HD
ATOM     27  O   UNL A   1      32.540  32.610  27.262  1.00  0.00    -0.269 OA
BRANCH  25  28
ATOM     28  C   UNL A   1      34.349  31.147  27.625  1.00  0.00     0.039 A 
ATOM     29  C   UNL A   1      35.378  32.071  27.820  1.00  0.00     0.014 A 
ATOM     30  C   UNL A   1      34.495  29.830  28.073  1.00  0.00     0.014 A 
ATOM     31  C   UNL A   1      36.539  31.681  28.491  1.00  0.00     0.010 A 
ATOM     32  C   UNL A   1      35.618  29.466  28.810  1.00  0.00     0.010 A 
ATOM     33  C   UNL A   1      36.663  30.381  29.007  1.00  0.00    -0.014 A 
BRANCH  33  34
ATOM     34  C   UNL A   1      37.899  29.950  29.709  1.00  0.00     0.031 A 
ATOM     35  C   UNL A   1      38.214  30.501  31.075  1.00  0.00     0.074 A 
ATOM     36  C   UNL A   1      38.749  29.093  29.110  1.00  0.00     0.049 A 
ATOM     37  N   UNL A   1      39.262  30.295  31.831  1.00  0.00    -0.248 NA
ATOM     38  C   UNL A   1      37.231  31.431  31.654  1.00  0.00     0.031 C 
ATOM     39  C   UNL A   1      38.566  28.515  27.776  1.00  0.00     0.029 A 
ATOM     40  N   UNL A   1      39.937  28.557  29.541  1.00  0.00    -0.354 N 
ATOM     41  C   UNL A   1      39.070  31.075  32.967  1.00  0.00     0.074 A 
ATOM     42  C   UNL A   1      37.841  31.812  32.766  1.00  0.00     0.031 C 
ATOM     43  C   UNL A   1      39.587  27.683  27.513  1.00  0.00     0.029 A 
ATOM     44  C   UNL A   1      40.520  27.701  28.635  1.00  0.00     0.049 A 
ATOM     45  H   UNL A   1      40.334  28.766  30.417  1.00  0.00     0.167 HD
ATOM     46  C   UNL A   1      39.831  31.149  34.087  1.00  0.00     0.034 A 
ATOM     47  C   UNL A   1      41.678  27.014  28.701  1.00  0.00     0.034 A 
ATOM     48  C   UNL A   1      41.046  30.396  34.278  1.00  0.00     0.049 A 
ATOM     49  C   UNL A   1      42.521  27.132  29.948  1.00  0.00     0.074 A 
ATOM     50  C   UNL A   1      41.880  30.368  35.381  1.00  0.00     0.029 A 
ATOM     51  N   UNL A   1      41.604  29.536  33.339  1.00  0.00    -0.354 N 
ATOM     52  N   UNL A   1      42.306  27.847  31.028  1.00  0.00    -0.248 NA
ATOM     53  C   UNL A   1      43.753  26.333  29.990  1.00  0.00     0.031 C 
ATOM     54  C   UNL A   1      42.973  29.545  35.087  1.00  0.00     0.029 A 
ATOM     55  C   UNL A   1      42.781  28.991  33.832  1.00  0.00     0.049 A 
ATOM     56  H   UNL A   1      41.221  29.342  32.454  1.00  0.00     0.167 HD
ATOM     57  C   UNL A   1      43.355  27.548  31.895  1.00  0.00     0.074 A 
ATOM     58  C   UNL A   1      44.191  26.580  31.215  1.00  0.00     0.031 C 
ATOM     59  C   UNL A   1      43.602  28.025  33.142  1.00  0.00     0.034 A 
BRANCH  46  60
ATOM     60  C   UNL A   1      39.375  32.090  35.178  1.00  0.00     0.023 A 
ATOM     61  C   UNL A   1      39.898  33.390  35.298  1.00  0.00     0.031 A 
ATOM     62  C   UNL A   1      38.424  31.676  36.128  1.00  0.00     0.131 A 
ATOM     63  C   UNL A   1      39.528  34.199  36.383  1.00  0.00     0.055 A 
ATOM     64  C   UNL A   1      37.995  32.518  37.155  1.00  0.00     0.041 A 
ATOM     65  F   UNL A   1      37.904  30.440  36.081  1.00  0.00    -0.206 F 
ATOM     66  C   UNL A   1      38.559  33.782  37.298  1.00  0.00     0.022 A 
BRANCH  63  67
ATOM     67  S   UNL A   1      40.440  35.741  36.664  1.00  0.00     0.124 S 
ATOM     68  O   UNL A   1      39.652  36.693  35.884  1.00  0.00    -0.237 OA
ATOM     69  O   UNL A   1      40.372  35.889  38.112  1.00  0.00    -0.237 OA
ATOM     70  O   UNL A   1      41.769  35.456  36.126  1.00  0.00    -0.744 OA
ENDBRANCH  63  67
ENDBRANCH  46  60
BRANCH  47  71
ATOM     71  C   UNL A   1      42.118  26.153  27.565  1.00  0.00     0.023 A 
ATOM     72  C   UNL A   1      41.735  24.805  27.489  1.00  0.00     0.031 A 
ATOM     73  C   UNL A   1      42.979  26.650  26.569  1.00  0.00     0.131 A 
ATOM     74  C   UNL A   1      42.260  23.983  26.479  1.00  0.00     0.055 A 
ATOM     75  C   UNL A   1      43.449  25.842  25.531  1.00  0.00     0.041 A 
ATOM     76  F   UNL A   1      43.373  27.933  26.588  1.00  0.00    -0.206 F 
ATOM     77  C   UNL A   1      43.103  24.495  25.491  1.00  0.00     0.022 A 
BRANCH  74  78
ATOM     78  S   UNL A   1      41.909  22.204  26.540  1.00  0.00     0.124 S 
ATOM     79  O   UNL A   1      42.467  21.837  27.836  1.00  0.00    -0.237 OA
ATOM     80  O   UNL A   1      40.454  22.179  26.437  1.00  0.00    -0.237 OA
ATOM     81  O   UNL A   1      42.624  21.677  25.379  1.00  0.00    -0.744 OA
ENDBRANCH  74  78
ENDBRANCH  47  71
BRANCH  59  82
ATOM     82  C   UNL A   1      44.790  27.448  33.875  1.00  0.00     0.023 A 
ATOM     83  C   UNL A   1      44.682  26.306  34.687  1.00  0.00     0.031 A 
ATOM     84  C   UNL A   1      46.050  28.066  33.769  1.00  0.00     0.131 A 
ATOM     85  C   UNL A   1      45.796  25.859  35.415  1.00  0.00     0.055 A 
ATOM     86  C   UNL A   1      47.169  27.577  34.442  1.00  0.00     0.041 A 
ATOM     87  F   UNL A   1      46.212  29.161  33.008  1.00  0.00    -0.206 F 
ATOM     88  C   UNL A   1      47.042  26.476  35.284  1.00  0.00     0.022 A 
BRANCH  85  89
ATOM     89  S   UNL A   1      45.567  24.525  36.623  1.00  0.00     0.124 S 
ATOM     90  O   UNL A   1      46.431  24.953  37.718  1.00  0.00    -0.237 OA
ATOM     91  O   UNL A   1      44.132  24.584  36.884  1.00  0.00    -0.237 OA
ATOM     92  O   UNL A   1      46.017  23.332  35.907  1.00  0.00    -0.744 OA
ENDBRANCH  85  89
ENDBRANCH  59  82
ENDBRANCH  33  34
ENDBRANCH  25  28
ENDBRANCH  23  24
ENDBRANCH  22  23
ENDBRANCH  21  22
ENDBRANCH  20  21
ENDBRANCH   1  20
TORSDOF 22
ENDMDL
MODEL 2
REMARK VINA RESULT:      -9.7      3.795      5.443
REMARK SMILES CCC[C@@H](C)C[NH2+][C@@](C)(CC)C(=O)NCCCCCCNC(=O)c1ccc(-c2c3nc(c(-c4cc(S(=O)(=O)[O-])ccc4F)c4ccc([nH]4)c(-c4cc(S(=O)(=O)[O-])ccc4F)c4nc(c(-c5cc(S(=O)(=O)[O-])ccc5F)c5ccc2[nH]5)C=C4)C=C3)cc1
REMARK SMILES IDX 16 1 15 2 14 3 12 4 13 5 8 7 9 8 7 9 6 12 4 13 5 14 3 15
REMARK SMILES IDX 2 16 1 17 10 18 11 19 17 20 18 21 19 22 20 23 21 24 22 25
REMARK SMILES IDX 23 27 24 28 25 29 86 30 26 31 85 32 27 33 28 34 29 35 79 36
REMARK SMILES IDX 30 37 84 38 78 39 80 40 31 41 83 42 77 43 76 44 32 46 64 47
REMARK SMILES IDX 44 48 63 49 45 50 48 51 62 52 81 53 46 54 47 55 61 57 82 58
REMARK SMILES IDX 49 59 33 60 34 61 42 62 35 63 41 64 43 65 40 66 36 67 37 68
REMARK SMILES IDX 38 69 39 70 65 71 66 72 74 73 67 74 73 75 75 76 72 77 68 78
REMARK SMILES IDX 69 79 70 80 71 81 50 82 51 83 59 84 52 85 58 86 60 87 57 88
REMARK SMILES IDX 53 89 54 90 55 91 56 92
REMARK H PARENT 14 6 7 10 7 11 21 26 80 45 48 56
REMARK Flexibility Score: inf
ROOT
ATOM      1  C   UNL A   1      33.682  26.236  24.651  1.00  0.00     0.021 C 
ENDROOT
BRANCH   1   2
ATOM      2  C   UNL A   1      33.698  27.392  23.654  1.00  0.00     0.116 C 
BRANCH   2   3
ATOM      3  N   UNL A   1      32.886  27.080  22.499  1.00  0.00    -0.351 N 
ATOM      4  C   UNL A   1      31.559  27.237  22.246  1.00  0.00     0.281 C 
ATOM      5  O   UNL A   1      31.150  26.638  21.245  1.00  0.00    -0.268 OA
ATOM      6  H   UNL A   1      33.388  26.677  21.754  1.00  0.00     0.163 HD
BRANCH   4   7
ATOM      7  C   UNL A   1      30.634  28.117  23.163  1.00  0.00     0.172 C 
ATOM      8  C   UNL A   1      31.426  29.272  23.813  1.00  0.00     0.090 C 
BRANCH   7   9
ATOM      9  N   UNL A   1      29.515  28.708  22.365  1.00  0.00    -0.334 N 
ATOM     10  H   UNL A   1      29.867  29.550  21.907  1.00  0.00     0.347 HD
ATOM     11  H   UNL A   1      29.219  27.977  21.718  1.00  0.00     0.347 HD
BRANCH   9  12
ATOM     12  C   UNL A   1      28.316  29.077  23.123  1.00  0.00     0.264 C 
BRANCH  12  13
ATOM     13  C   UNL A   1      27.554  30.234  22.434  1.00  0.00     0.041 C 
ATOM     14  C   UNL A   1      28.147  30.451  21.037  1.00  0.00     0.013 C 
BRANCH  13  15
ATOM     15  C   UNL A   1      27.612  31.526  23.280  1.00  0.00     0.009 C 
BRANCH  15  16
ATOM     16  C   UNL A   1      29.012  32.026  23.641  1.00  0.00    -0.003 C 
ATOM     17  C   UNL A   1      29.233  33.491  23.297  1.00  0.00     0.004 C 
ENDBRANCH  15  16
ENDBRANCH  13  15
ENDBRANCH  12  13
ENDBRANCH   9  12
ENDBRANCH   7   9
BRANCH   7  18
ATOM     18  C   UNL A   1      29.957  27.253  24.264  1.00  0.00     0.075 C 
ATOM     19  C   UNL A   1      30.051  25.745  24.045  1.00  0.00     0.011 C 
ENDBRANCH   7  18
ENDBRANCH   4   7
ENDBRANCH   2   3
ENDBRANCH   1   2
BRANCH   1  20
ATOM     20  C   UNL A   1      33.836  26.673  26.113  1.00  0.00     0.002 C 
BRANCH  20  21
ATOM     21  C   UNL A   1      32.552  27.188  26.771  1.00  0.00     0.002 C 
BRANCH  21  22
ATOM     22  C   UNL A   1      32.632  28.618  27.311  1.00  0.00     0.021 C 
BRANCH  22  23
ATOM     23  C   UNL A   1      33.743  29.462  26.700  1.00  0.00     0.116 C 
BRANCH  23  24
ATOM     24  N   UNL A   1      33.646  30.854  27.103  1.00  0.00    -0.352 N 
ATOM     25  C   UNL A   1      34.435  31.551  27.978  1.00  0.00     0.251 C 
ATOM     26  H   UNL A   1      32.912  31.365  26.691  1.00  0.00     0.163 HD
ATOM     27  O   UNL A   1      34.069  32.660  28.372  1.00  0.00    -0.269 OA
BRANCH  25  28
ATOM     28  C   UNL A   1      35.705  30.968  28.457  1.00  0.00     0.039 A 
ATOM     29  C   UNL A   1      35.663  29.834  29.271  1.00  0.00     0.014 A 
ATOM     30  C   UNL A   1      36.934  31.547  28.124  1.00  0.00     0.014 A 
ATOM     31  C   UNL A   1      36.854  29.264  29.725  1.00  0.00     0.010 A 
ATOM     32  C   UNL A   1      38.121  30.931  28.511  1.00  0.00     0.010 A 
ATOM     33  C   UNL A   1      38.094  29.796  29.335  1.00  0.00    -0.014 A 
BRANCH  33  34
ATOM     34  C   UNL A   1      39.368  29.209  29.824  1.00  0.00     0.031 A 
ATOM     35  C   UNL A   1      40.066  29.822  31.011  1.00  0.00     0.074 A 
ATOM     36  C   UNL A   1      39.912  28.154  29.186  1.00  0.00     0.049 A 
ATOM     37  N   UNL A   1      41.209  29.496  31.559  1.00  0.00    -0.248 NA
ATOM     38  C   UNL A   1      39.403  30.972  31.645  1.00  0.00     0.031 C 
ATOM     39  C   UNL A   1      39.343  27.494  28.008  1.00  0.00     0.029 A 
ATOM     40  N   UNL A   1      41.062  27.448  29.437  1.00  0.00    -0.354 N 
ATOM     41  C   UNL A   1      41.404  30.405  32.595  1.00  0.00     0.074 A 
ATOM     42  C   UNL A   1      40.299  31.337  32.548  1.00  0.00     0.031 C 
ATOM     43  C   UNL A   1      40.130  26.463  27.659  1.00  0.00     0.029 A 
ATOM     44  C   UNL A   1      41.280  26.414  28.556  1.00  0.00     0.049 A 
ATOM     45  H   UNL A   1      41.673  27.663  30.178  1.00  0.00     0.167 HD
ATOM     46  C   UNL A   1      42.398  30.442  33.517  1.00  0.00     0.034 A 
ATOM     47  C   UNL A   1      42.296  25.530  28.479  1.00  0.00     0.034 A 
ATOM     48  C   UNL A   1      43.486  29.496  33.558  1.00  0.00     0.049 A 
ATOM     49  C   UNL A   1      43.404  25.607  29.501  1.00  0.00     0.074 A 
ATOM     50  C   UNL A   1      44.529  29.418  34.463  1.00  0.00     0.029 A 
ATOM     51  N   UNL A   1      43.672  28.459  32.650  1.00  0.00    -0.354 N 
ATOM     52  N   UNL A   1      43.555  26.452  30.496  1.00  0.00    -0.248 NA
ATOM     53  C   UNL A   1      44.467  24.599  29.402  1.00  0.00     0.031 C 
ATOM     54  C   UNL A   1      45.379  28.380  34.068  1.00  0.00     0.029 A 
ATOM     55  C   UNL A   1      44.824  27.753  32.964  1.00  0.00     0.049 A 
ATOM     56  H   UNL A   1      43.074  28.256  31.896  1.00  0.00     0.167 HD
ATOM     57  C   UNL A   1      44.708  26.046  31.166  1.00  0.00     0.074 A 
ATOM     58  C   UNL A   1      45.201  24.877  30.468  1.00  0.00     0.031 C 
ATOM     59  C   UNL A   1      45.302  26.587  32.260  1.00  0.00     0.034 A 
BRANCH  46  60
ATOM     60  C   UNL A   1      42.357  31.554  34.539  1.00  0.00     0.023 A 
ATOM     61  C   UNL A   1      41.328  31.644  35.493  1.00  0.00     0.031 A 
ATOM     62  C   UNL A   1      43.345  32.556  34.546  1.00  0.00     0.131 A 
ATOM     63  C   UNL A   1      41.265  32.746  36.358  1.00  0.00     0.055 A 
ATOM     64  C   UNL A   1      43.326  33.604  35.467  1.00  0.00     0.041 A 
ATOM     65  F   UNL A   1      44.341  32.540  33.646  1.00  0.00    -0.206 F 
ATOM     66  C   UNL A   1      42.273  33.713  36.371  1.00  0.00     0.022 A 
BRANCH  63  67
ATOM     67  S   UNL A   1      39.774  32.975  37.363  1.00  0.00     0.124 S 
ATOM     68  O   UNL A   1      39.246  31.612  37.418  1.00  0.00    -0.237 OA
ATOM     69  O   UNL A   1      40.310  33.502  38.611  1.00  0.00    -0.237 OA
ATOM     70  O   UNL A   1      38.972  33.913  36.580  1.00  0.00    -0.744 OA
ENDBRANCH  63  67
ENDBRANCH  46  60
BRANCH  47  71
ATOM     71  C   UNL A   1      42.325  24.496  27.404  1.00  0.00     0.023 A 
ATOM     72  C   UNL A   1      41.678  23.262  27.572  1.00  0.00     0.031 A 
ATOM     73  C   UNL A   1      43.052  24.702  26.218  1.00  0.00     0.131 A 
ATOM     74  C   UNL A   1      41.820  22.258  26.601  1.00  0.00     0.055 A 
ATOM     75  C   UNL A   1      43.139  23.722  25.227  1.00  0.00     0.041 A 
ATOM     76  F   UNL A   1      43.686  25.865  26.002  1.00  0.00    -0.206 F 
ATOM     77  C   UNL A   1      42.534  22.484  25.423  1.00  0.00     0.022 A 
BRANCH  74  78
ATOM     78  S   UNL A   1      41.146  20.610  26.951  1.00  0.00     0.124 S 
ATOM     79  O   UNL A   1      39.970  20.582  26.089  1.00  0.00    -0.237 OA
ATOM     80  O   UNL A   1      42.251  19.742  26.558  1.00  0.00    -0.237 OA
ATOM     81  O   UNL A   1      40.869  20.655  28.385  1.00  0.00    -0.744 OA
ENDBRANCH  74  78
ENDBRANCH  47  71
BRANCH  59  82
ATOM     82  C   UNL A   1      46.513  25.870  32.808  1.00  0.00     0.023 A 
ATOM     83  C   UNL A   1      47.798  26.060  32.271  1.00  0.00     0.031 A 
ATOM     84  C   UNL A   1      46.372  24.969  33.879  1.00  0.00     0.131 A 
ATOM     85  C   UNL A   1      48.877  25.307  32.759  1.00  0.00     0.055 A 
ATOM     86  C   UNL A   1      47.461  24.274  34.405  1.00  0.00     0.041 A 
ATOM     87  F   UNL A   1      45.168  24.747  34.432  1.00  0.00    -0.206 F 
ATOM     88  C   UNL A   1      48.721  24.430  33.834  1.00  0.00     0.022 A 
BRANCH  85  89
ATOM     89  S   UNL A   1      50.470  25.410  31.896  1.00  0.00     0.124 S 
ATOM     90  O   UNL A   1      51.320  26.041  32.899  1.00  0.00    -0.237 OA
ATOM     91  O   UNL A   1      50.758  24.009  31.606  1.00  0.00    -0.237 OA
ATOM     92  O   UNL A   1      50.173  26.235  30.726  1.00  0.00    -0.744 OA
ENDBRANCH  85  89
ENDBRANCH  59  82
ENDBRANCH  33  34
ENDBRANCH  25  28
ENDBRANCH  23  24
ENDBRANCH  22  23
ENDBRANCH  21  22
ENDBRANCH  20  21
ENDBRANCH   1  20
TORSDOF 22
ENDMDL
MODEL 3
REMARK VINA RESULT:      -9.7      2.762      8.499
REMARK SMILES CCC[C@@H](C)C[NH2+][C@@](C)(CC)C(=O)NCCCCCCNC(=O)c1ccc(-c2c3nc(c(-c4cc(S(=O)(=O)[O-])ccc4F)c4ccc([nH]4)c(-c4cc(S(=O)(=O)[O-])ccc4F)c4nc(c(-c5cc(S(=O)(=O)[O-])ccc5F)c5ccc2[nH]5)C=C4)C=C3)cc1
REMARK SMILES IDX 16 1 15 2 14 3 12 4 13 5 8 7 9 8 7 9 6 12 4 13 5 14 3 15
REMARK SMILES IDX 2 16 1 17 10 18 11 19 17 20 18 21 19 22 20 23 21 24 22 25
REMARK SMILES IDX 23 27 24 28 25 29 86 30 26 31 85 32 27 33 28 34 29 35 79 36
REMARK SMILES IDX 30 37 84 38 78 39 80 40 31 41 83 42 77 43 76 44 32 46 64 47
REMARK SMILES IDX 44 48 63 49 45 50 48 51 62 52 81 53 46 54 47 55 61 57 82 58
REMARK SMILES IDX 49 59 33 60 34 61 42 62 35 63 41 64 43 65 40 66 36 67 37 68
REMARK SMILES IDX 38 69 39 70 65 71 66 72 74 73 67 74 73 75 75 76 72 77 68 78
REMARK SMILES IDX 69 79 70 80 71 81 50 82 51 83 59 84 52 85 58 86 60 87 57 88
REMARK SMILES IDX 53 89 54 90 55 91 56 92
REMARK H PARENT 14 6 7 10 7 11 21 26 80 45 48 56
REMARK Flexibility Score: inf
ROOT
ATOM      1  C   UNL A   1      31.565  29.256  23.354  1.00  0.00     0.021 C 
ENDROOT
BRANCH   1   2
ATOM      2  C   UNL A   1      30.824  28.050  22.780  1.00  0.00     0.116 C 
BRANCH   2   3
ATOM      3  N   UNL A   1      31.713  27.241  21.976  1.00  0.00    -0.351 N 
ATOM      4  C   UNL A   1      32.588  26.251  22.297  1.00  0.00     0.281 C 
ATOM      5  O   UNL A   1      33.369  25.939  21.390  1.00  0.00    -0.268 OA
ATOM      6  H   UNL A   1      31.678  27.446  21.014  1.00  0.00     0.163 HD
BRANCH   4   7
ATOM      7  C   UNL A   1      32.591  25.566  23.712  1.00  0.00     0.172 C 
ATOM      8  C   UNL A   1      31.153  25.321  24.218  1.00  0.00     0.090 C 
BRANCH   7   9
ATOM      9  N   UNL A   1      33.298  24.249  23.655  1.00  0.00    -0.334 N 
ATOM     10  H   UNL A   1      32.866  23.631  24.343  1.00  0.00     0.347 HD
ATOM     11  H   UNL A   1      33.206  23.926  22.692  1.00  0.00     0.347 HD
BRANCH   9  12
ATOM     12  C   UNL A   1      34.738  24.285  23.926  1.00  0.00     0.264 C 
BRANCH  12  13
ATOM     13  C   UNL A   1      35.419  22.962  23.505  1.00  0.00     0.041 C 
ATOM     14  C   UNL A   1      34.726  21.801  24.225  1.00  0.00     0.013 C 
BRANCH  13  15
ATOM     15  C   UNL A   1      36.935  22.991  23.804  1.00  0.00     0.009 C 
BRANCH  15  16
ATOM     16  C   UNL A   1      37.343  22.585  25.222  1.00  0.00    -0.003 C 
ATOM     17  C   UNL A   1      37.646  23.774  26.121  1.00  0.00     0.004 C 
ENDBRANCH  15  16
ENDBRANCH  13  15
ENDBRANCH  12  13
ENDBRANCH   9  12
ENDBRANCH   7   9
BRANCH   7  18
ATOM     18  C   UNL A   1      33.378  26.423  24.744  1.00  0.00     0.075 C 
ATOM     19  C   UNL A   1      32.661  26.646  26.073  1.00  0.00     0.011 C 
ENDBRANCH   7  18
ENDBRANCH   4   7
ENDBRANCH   2   3
ENDBRANCH   1   2
BRANCH   1  20
ATOM     20  C   UNL A   1      30.862  29.906  24.552  1.00  0.00     0.002 C 
BRANCH  20  21
ATOM     21  C   UNL A   1      31.774  30.225  25.741  1.00  0.00     0.002 C 
BRANCH  21  22
ATOM     22  C   UNL A   1      31.544  31.596  26.382  1.00  0.00     0.021 C 
BRANCH  22  23
ATOM     23  C   UNL A   1      32.701  32.094  27.239  1.00  0.00     0.116 C 
BRANCH  23  24
ATOM     24  N   UNL A   1      32.606  33.519  27.496  1.00  0.00    -0.352 N 
ATOM     25  C   UNL A   1      33.254  34.266  28.443  1.00  0.00     0.251 C 
ATOM     26  H   UNL A   1      31.991  34.016  26.910  1.00  0.00     0.163 HD
ATOM     27  O   UNL A   1      32.882  35.420  28.665  1.00  0.00    -0.269 OA
BRANCH  25  28
ATOM     28  C   UNL A   1      34.379  33.684  29.203  1.00  0.00     0.039 A 
ATOM     29  C   UNL A   1      35.680  34.106  28.916  1.00  0.00     0.014 A 
ATOM     30  C   UNL A   1      34.160  32.709  30.182  1.00  0.00     0.014 A 
ATOM     31  C   UNL A   1      36.754  33.573  29.630  1.00  0.00     0.010 A 
ATOM     32  C   UNL A   1      35.223  32.238  30.946  1.00  0.00     0.010 A 
ATOM     33  C   UNL A   1      36.535  32.648  30.664  1.00  0.00    -0.014 A 
BRANCH  33  34
ATOM     34  C   UNL A   1      37.670  32.061  31.421  1.00  0.00     0.031 A 
ATOM     35  C   UNL A   1      38.522  30.993  30.783  1.00  0.00     0.074 A 
ATOM     36  C   UNL A   1      37.915  32.460  32.684  1.00  0.00     0.049 A 
ATOM     37  N   UNL A   1      39.521  30.318  31.289  1.00  0.00    -0.248 NA
ATOM     38  C   UNL A   1      38.182  30.618  29.401  1.00  0.00     0.031 C 
ATOM     39  C   UNL A   1      37.141  33.464  33.418  1.00  0.00     0.029 A 
ATOM     40  N   UNL A   1      38.883  32.073  33.577  1.00  0.00    -0.354 N 
ATOM     41  C   UNL A   1      39.923  29.433  30.294  1.00  0.00     0.074 A 
ATOM     42  C   UNL A   1      39.011  29.608  29.184  1.00  0.00     0.031 C 
ATOM     43  C   UNL A   1      37.684  33.635  34.635  1.00  0.00     0.029 A 
ATOM     44  C   UNL A   1      38.813  32.724  34.787  1.00  0.00     0.049 A 
ATOM     45  H   UNL A   1      39.564  31.393  33.370  1.00  0.00     0.167 HD
ATOM     46  C   UNL A   1      40.972  28.573  30.293  1.00  0.00     0.034 A 
ATOM     47  C   UNL A   1      39.572  32.595  35.895  1.00  0.00     0.034 A 
ATOM     48  C   UNL A   1      41.880  28.420  31.403  1.00  0.00     0.049 A 
ATOM     49  C   UNL A   1      40.718  31.613  35.879  1.00  0.00     0.074 A 
ATOM     50  C   UNL A   1      42.993  27.604  31.502  1.00  0.00     0.029 A 
ATOM     51  N   UNL A   1      41.779  29.099  32.612  1.00  0.00    -0.354 N 
ATOM     52  N   UNL A   1      41.106  30.809  34.916  1.00  0.00    -0.248 NA
ATOM     53  C   UNL A   1      41.540  31.537  37.093  1.00  0.00     0.031 C 
ATOM     54  C   UNL A   1      43.526  27.740  32.788  1.00  0.00     0.029 A 
ATOM     55  C   UNL A   1      42.798  28.703  33.467  1.00  0.00     0.049 A 
ATOM     56  H   UNL A   1      41.087  29.763  32.830  1.00  0.00     0.167 HD
ATOM     57  C   UNL A   1      42.245  30.165  35.395  1.00  0.00     0.074 A 
ATOM     58  C   UNL A   1      42.485  30.685  36.726  1.00  0.00     0.031 C 
ATOM     59  C   UNL A   1      43.025  29.234  34.791  1.00  0.00     0.034 A 
BRANCH  46  60
ATOM     60  C   UNL A   1      41.174  27.723  29.060  1.00  0.00     0.023 A 
ATOM     61  C   UNL A   1      42.173  28.019  28.115  1.00  0.00     0.031 A 
ATOM     62  C   UNL A   1      40.342  26.618  28.809  1.00  0.00     0.131 A 
ATOM     63  C   UNL A   1      42.264  27.271  26.931  1.00  0.00     0.055 A 
ATOM     64  C   UNL A   1      40.494  25.823  27.671  1.00  0.00     0.041 A 
ATOM     65  F   UNL A   1      39.355  26.297  29.661  1.00  0.00    -0.206 F 
ATOM     66  C   UNL A   1      41.449  26.157  26.716  1.00  0.00     0.022 A 
BRANCH  63  67
ATOM     67  S   UNL A   1      43.361  27.863  25.615  1.00  0.00     0.124 S 
ATOM     68  O   UNL A   1      44.418  26.853  25.638  1.00  0.00    -0.237 OA
ATOM     69  O   UNL A   1      42.490  27.849  24.447  1.00  0.00    -0.237 OA
ATOM     70  O   UNL A   1      43.768  29.188  26.077  1.00  0.00    -0.744 OA
ENDBRANCH  63  67
ENDBRANCH  46  60
BRANCH  47  71
ATOM     71  C   UNL A   1      39.284  33.407  37.113  1.00  0.00     0.023 A 
ATOM     72  C   UNL A   1      39.926  34.636  37.330  1.00  0.00     0.031 A 
ATOM     73  C   UNL A   1      38.407  32.938  38.108  1.00  0.00     0.131 A 
ATOM     74  C   UNL A   1      39.733  35.324  38.539  1.00  0.00     0.055 A 
ATOM     75  C   UNL A   1      38.171  33.657  39.282  1.00  0.00     0.041 A 
ATOM     76  F   UNL A   1      37.761  31.772  37.951  1.00  0.00    -0.206 F 
ATOM     77  C   UNL A   1      38.849  34.850  39.510  1.00  0.00     0.022 A 
BRANCH  74  78
ATOM     78  S   UNL A   1      40.741  36.796  38.869  1.00  0.00     0.124 S 
ATOM     79  O   UNL A   1      41.589  36.845  37.684  1.00  0.00    -0.237 OA
ATOM     80  O   UNL A   1      39.726  37.839  38.975  1.00  0.00    -0.237 OA
ATOM     81  O   UNL A   1      41.427  36.465  40.116  1.00  0.00    -0.744 OA
ENDBRANCH  74  78
ENDBRANCH  47  71
BRANCH  59  82
ATOM     82  C   UNL A   1      44.251  28.772  35.541  1.00  0.00     0.023 A 
ATOM     83  C   UNL A   1      44.187  27.785  36.540  1.00  0.00     0.031 A 
ATOM     84  C   UNL A   1      45.505  29.346  35.260  1.00  0.00     0.131 A 
ATOM     85  C   UNL A   1      45.340  27.452  37.268  1.00  0.00     0.055 A 
ATOM     86  C   UNL A   1      46.660  28.962  35.941  1.00  0.00     0.041 A 
ATOM     87  F   UNL A   1      45.626  30.295  34.317  1.00  0.00    -0.206 F 
ATOM     88  C   UNL A   1      46.579  28.020  36.963  1.00  0.00     0.022 A 
BRANCH  85  89
ATOM     89  S   UNL A   1      45.177  26.344  38.695  1.00  0.00     0.124 S 
ATOM     90  O   UNL A   1      45.565  25.057  38.127  1.00  0.00    -0.237 OA
ATOM     91  O   UNL A   1      46.113  26.927  39.650  1.00  0.00    -0.237 OA
ATOM     92  O   UNL A   1      43.766  26.461  39.061  1.00  0.00    -0.744 OA
ENDBRANCH  85  89
ENDBRANCH  59  82
ENDBRANCH  33  34
ENDBRANCH  25  28
ENDBRANCH  23  24
ENDBRANCH  22  23
ENDBRANCH  21  22
ENDBRANCH  20  21
ENDBRANCH   1  20
TORSDOF 22
ENDMDL
