MODEL 1
REMARK VINA RESULT:     -11.6      0.000      0.000
REMARK SMILES O=C(NCCCCCCNC(=O)[C@@H]1C=C[C@@H](NS(=O)(=O)c2ccc(F)c(F)c2F)C1)c1ccc(-c2c3nc(c(-c4cc(S(=O)(=O)[O-])ccc4F)c4ccc([nH]4)c(-c4cc(S(=O)(=O)[O-])ccc4F)c4nc(c(-c5cc(S(=O)(=O)[O-])ccc5F)c5ccc2[nH]5)C=C4)C=C3)cc1
REMARK SMILES IDX 6 1 5 2 4 3 3 4 1 5 2 6 31 8 32 9 93 10 33 11 92 12 34 13
REMARK SMILES IDX 35 14 36 15 86 16 37 17 91 18 85 19 87 20 38 21 90 22 84 23
REMARK SMILES IDX 83 24 39 26 71 27 51 28 70 29 52 30 55 31 69 32 88 33 53 34
REMARK SMILES IDX 54 35 68 37 89 38 56 39 40 40 41 41 49 42 42 43 48 44 50 45
REMARK SMILES IDX 47 46 43 47 44 48 45 49 46 50 72 51 73 52 81 53 74 54 80 55
REMARK SMILES IDX 82 56 79 57 75 58 76 59 77 60 78 61 57 62 58 63 66 64 59 65
REMARK SMILES IDX 65 66 67 67 64 68 60 69 61 70 62 71 63 72 7 73 8 74 9 75
REMARK SMILES IDX 10 76 11 77 12 79 13 80 14 81 30 82 15 83 16 84 17 85 18 87
REMARK SMILES IDX 19 88 20 89 21 90 22 91 28 92 23 93 26 94 29 95 24 96 27 97
REMARK SMILES IDX 25 98
REMARK H PARENT 3 7 87 25 55 36 10 78 17 86
REMARK Flexibility Score: inf
ROOT
ATOM      1  C   UNL A   1      31.786  29.892  27.250  1.00  0.00     0.002 C 
ENDROOT
BRANCH   1   2
ATOM      2  C   UNL A   1      31.801  31.324  26.710  1.00  0.00     0.021 C 
BRANCH   2   3
ATOM      3  C   UNL A   1      33.068  32.107  27.033  1.00  0.00     0.116 C 
BRANCH   3   4
ATOM      4  N   UNL A   1      32.769  33.446  27.512  1.00  0.00    -0.352 N 
ATOM      5  O   UNL A   1      32.788  35.164  28.970  1.00  0.00    -0.269 OA
ATOM      6  C   UNL A   1      33.311  34.125  28.574  1.00  0.00     0.251 C 
ATOM      7  H   UNL A   1      32.082  33.934  27.004  1.00  0.00     0.163 HD
BRANCH   6   8
ATOM      8  C   UNL A   1      34.520  33.599  29.242  1.00  0.00     0.039 A 
ATOM      9  C   UNL A   1      35.785  34.108  28.930  1.00  0.00     0.014 A 
ATOM     10  C   UNL A   1      34.381  32.604  30.212  1.00  0.00     0.014 A 
ATOM     11  C   UNL A   1      36.920  33.550  29.511  1.00  0.00     0.010 A 
ATOM     12  C   UNL A   1      35.517  32.095  30.846  1.00  0.00     0.010 A 
ATOM     13  C   UNL A   1      36.795  32.551  30.488  1.00  0.00    -0.014 A 
BRANCH  13  14
ATOM     14  C   UNL A   1      38.002  32.026  31.177  1.00  0.00     0.031 A 
ATOM     15  C   UNL A   1      38.822  30.933  30.559  1.00  0.00     0.074 A 
ATOM     16  C   UNL A   1      38.327  32.518  32.388  1.00  0.00     0.049 A 
ATOM     17  N   UNL A   1      39.840  30.280  31.057  1.00  0.00    -0.248 NA
ATOM     18  C   UNL A   1      38.435  30.509  29.207  1.00  0.00     0.031 C 
ATOM     19  C   UNL A   1      37.599  33.581  33.085  1.00  0.00     0.029 A 
ATOM     20  N   UNL A   1      39.334  32.180  33.255  1.00  0.00    -0.354 N 
ATOM     21  C   UNL A   1      40.207  29.350  30.090  1.00  0.00     0.074 A 
ATOM     22  C   UNL A   1      39.273  29.504  28.993  1.00  0.00     0.031 C 
ATOM     23  C   UNL A   1      38.182  33.807  34.270  1.00  0.00     0.029 A 
ATOM     24  C   UNL A   1      39.277  32.859  34.449  1.00  0.00     0.049 A 
ATOM     25  H   UNL A   1      40.030  31.517  33.043  1.00  0.00     0.167 HD
ATOM     26  C   UNL A   1      41.230  28.458  30.120  1.00  0.00     0.034 A 
ATOM     27  C   UNL A   1      39.989  32.707  35.583  1.00  0.00     0.034 A 
ATOM     28  C   UNL A   1      42.136  28.317  31.235  1.00  0.00     0.049 A 
ATOM     29  C   UNL A   1      41.074  31.667  35.625  1.00  0.00     0.074 A 
ATOM     30  C   UNL A   1      43.232  27.479  31.357  1.00  0.00     0.029 A 
ATOM     31  N   UNL A   1      42.037  29.012  32.437  1.00  0.00    -0.354 N 
ATOM     32  N   UNL A   1      41.433  30.814  34.692  1.00  0.00    -0.248 NA
ATOM     33  C   UNL A   1      41.855  31.571  36.863  1.00  0.00     0.031 C 
ATOM     34  C   UNL A   1      43.741  27.607  32.654  1.00  0.00     0.029 A 
ATOM     35  C   UNL A   1      43.024  28.592  33.316  1.00  0.00     0.049 A 
ATOM     36  H   UNL A   1      41.364  29.703  32.633  1.00  0.00     0.167 HD
ATOM     37  C   UNL A   1      42.500  30.098  35.223  1.00  0.00     0.074 A 
ATOM     38  C   UNL A   1      42.725  30.618  36.558  1.00  0.00     0.031 C 
ATOM     39  C   UNL A   1      43.233  29.109  34.651  1.00  0.00     0.034 A 
BRANCH  26  40
ATOM     40  C   UNL A   1      41.375  27.532  28.932  1.00  0.00     0.023 A 
ATOM     41  C   UNL A   1      42.378  27.719  27.964  1.00  0.00     0.031 A 
ATOM     42  C   UNL A   1      40.463  26.480  28.733  1.00  0.00     0.131 A 
ATOM     43  C   UNL A   1      42.382  26.939  26.796  1.00  0.00     0.055 A 
ATOM     44  C   UNL A   1      40.531  25.645  27.616  1.00  0.00     0.041 A 
ATOM     45  F   UNL A   1      39.471  26.260  29.609  1.00  0.00    -0.206 F 
ATOM     46  C   UNL A   1      41.480  25.886  26.627  1.00  0.00     0.022 A 
BRANCH  43  47
ATOM     47  S   UNL A   1      43.452  27.449  25.423  1.00  0.00     0.124 S 
ATOM     48  O   UNL A   1      44.233  28.521  26.036  1.00  0.00    -0.237 OA
ATOM     49  O   UNL A   1      44.181  26.222  25.120  1.00  0.00    -0.237 OA
ATOM     50  O   UNL A   1      42.509  27.887  24.396  1.00  0.00    -0.744 OA
ENDBRANCH  43  47
ENDBRANCH  26  40
BRANCH  27  51
ATOM     51  C   UNL A   1      39.643  33.526  36.777  1.00  0.00     0.023 A 
ATOM     52  C   UNL A   1      38.918  32.987  37.848  1.00  0.00     0.031 A 
ATOM     53  C   UNL A   1      40.070  34.864  36.870  1.00  0.00     0.131 A 
ATOM     54  C   UNL A   1      38.626  33.788  38.963  1.00  0.00     0.055 A 
ATOM     55  C   UNL A   1      39.818  35.642  38.000  1.00  0.00     0.041 A 
ATOM     56  F   UNL A   1      40.776  35.422  35.873  1.00  0.00    -0.206 F 
ATOM     57  C   UNL A   1      39.085  35.106  39.054  1.00  0.00     0.022 A 
BRANCH  54  58
ATOM     58  S   UNL A   1      37.597  33.096  40.286  1.00  0.00     0.124 S 
ATOM     59  O   UNL A   1      37.542  34.207  41.229  1.00  0.00    -0.237 OA
ATOM     60  O   UNL A   1      36.357  32.791  39.580  1.00  0.00    -0.237 OA
ATOM     61  O   UNL A   1      38.358  31.932  40.736  1.00  0.00    -0.744 OA
ENDBRANCH  54  58
ENDBRANCH  27  51
BRANCH  39  62
ATOM     62  C   UNL A   1      44.392  28.559  35.444  1.00  0.00     0.023 A 
ATOM     63  C   UNL A   1      44.261  27.439  36.284  1.00  0.00     0.031 A 
ATOM     64  C   UNL A   1      45.662  29.156  35.329  1.00  0.00     0.131 A 
ATOM     65  C   UNL A   1      45.374  26.969  36.996  1.00  0.00     0.055 A 
ATOM     66  C   UNL A   1      46.776  28.651  35.997  1.00  0.00     0.041 A 
ATOM     67  F   UNL A   1      45.841  30.232  34.545  1.00  0.00    -0.206 F 
ATOM     68  C   UNL A   1      46.635  27.554  36.843  1.00  0.00     0.022 A 
BRANCH  65  69
ATOM     69  S   UNL A   1      45.151  25.608  38.175  1.00  0.00     0.124 S 
ATOM     70  O   UNL A   1      45.012  26.324  39.439  1.00  0.00    -0.237 OA
ATOM     71  O   UNL A   1      43.945  24.955  37.675  1.00  0.00    -0.237 OA
ATOM     72  O   UNL A   1      46.379  24.827  38.036  1.00  0.00    -0.744 OA
ENDBRANCH  65  69
ENDBRANCH  39  62
ENDBRANCH  13  14
ENDBRANCH   6   8
ENDBRANCH   3   4
ENDBRANCH   2   3
ENDBRANCH   1   2
BRANCH   1  73
ATOM     73  C   UNL A   1      31.910  28.795  26.186  1.00  0.00     0.002 C 
BRANCH  73  74
ATOM     74  C   UNL A   1      33.280  28.706  25.499  1.00  0.00     0.021 C 
BRANCH  74  75
ATOM     75  C   UNL A   1      33.276  29.175  24.045  1.00  0.00     0.116 C 
BRANCH  75  76
ATOM     76  N   UNL A   1      32.110  28.673  23.340  1.00  0.00    -0.356 N 
ATOM     77  C   UNL A   1      31.954  27.521  22.626  1.00  0.00     0.226 C 
ATOM     78  H   UNL A   1      31.313  29.250  23.382  1.00  0.00     0.163 HD
ATOM     79  O   UNL A   1      30.875  27.319  22.065  1.00  0.00    -0.274 OA
BRANCH  77  80
ATOM     80  C   UNL A   1      33.086  26.494  22.628  1.00  0.00     0.103 C 
ATOM     81  C   UNL A   1      33.024  25.553  21.468  1.00  0.00    -0.016 C 
ATOM     82  C   UNL A   1      32.930  25.563  23.838  1.00  0.00     0.042 C 
ATOM     83  C   UNL A   1      32.639  24.328  21.840  1.00  0.00    -0.011 C 
ATOM     84  C   UNL A   1      32.328  24.253  23.294  1.00  0.00     0.093 C 
BRANCH  84  85
ATOM     85  N   UNL A   1      32.969  23.114  23.925  1.00  0.00    -0.204 NA
ATOM     86  H   UNL A   1      33.809  23.482  24.373  1.00  0.00     0.142 HD
BRANCH  85  87
ATOM     87  S   UNL A   1      32.235  22.150  25.064  1.00  0.00     0.244 S 
ATOM     88  O   UNL A   1      32.925  22.316  26.319  1.00  0.00    -0.207 OA
ATOM     89  O   UNL A   1      30.810  22.400  24.975  1.00  0.00    -0.207 OA
BRANCH  87  90
ATOM     90  C   UNL A   1      32.527  20.500  24.516  1.00  0.00     0.121 A 
ATOM     91  C   UNL A   1      32.970  19.537  25.435  1.00  0.00     0.028 A 
ATOM     92  C   UNL A   1      32.266  20.150  23.197  1.00  0.00     0.181 A 
ATOM     93  C   UNL A   1      33.157  18.219  25.019  1.00  0.00     0.044 A 
ATOM     94  C   UNL A   1      32.451  18.834  22.789  1.00  0.00     0.195 A 
ATOM     95  F   UNL A   1      31.862  21.062  22.303  1.00  0.00    -0.202 F 
ATOM     96  C   UNL A   1      32.892  17.875  23.696  1.00  0.00     0.161 A 
ATOM     97  F   UNL A   1      32.206  18.483  21.518  1.00  0.00    -0.200 F 
ATOM     98  F   UNL A   1      33.068  16.605  23.305  1.00  0.00    -0.204 F 
ENDBRANCH  87  90
ENDBRANCH  85  87
ENDBRANCH  84  85
ENDBRANCH  77  80
ENDBRANCH  75  76
ENDBRANCH  74  75
ENDBRANCH  73  74
ENDBRANCH   1  73
TORSDOF 19
ENDMDL
MODEL 2
REMARK VINA RESULT:     -11.5      5.564     11.605
REMARK SMILES O=C(NCCCCCCNC(=O)[C@@H]1C=C[C@@H](NS(=O)(=O)c2ccc(F)c(F)c2F)C1)c1ccc(-c2c3nc(c(-c4cc(S(=O)(=O)[O-])ccc4F)c4ccc([nH]4)c(-c4cc(S(=O)(=O)[O-])ccc4F)c4nc(c(-c5cc(S(=O)(=O)[O-])ccc5F)c5ccc2[nH]5)C=C4)C=C3)cc1
REMARK SMILES IDX 6 1 5 2 4 3 3 4 1 5 2 6 31 8 32 9 93 10 33 11 92 12 34 13
REMARK SMILES IDX 35 14 36 15 86 16 37 17 91 18 85 19 87 20 38 21 90 22 84 23
REMARK SMILES IDX 83 24 39 26 71 27 51 28 70 29 52 30 55 31 69 32 88 33 53 34
REMARK SMILES IDX 54 35 68 37 89 38 56 39 40 40 41 41 49 42 42 43 48 44 50 45
REMARK SMILES IDX 47 46 43 47 44 48 45 49 46 50 72 51 73 52 81 53 74 54 80 55
REMARK SMILES IDX 82 56 79 57 75 58 76 59 77 60 78 61 57 62 58 63 66 64 59 65
REMARK SMILES IDX 65 66 67 67 64 68 60 69 61 70 62 71 63 72 7 73 8 74 9 75
REMARK SMILES IDX 10 76 11 77 12 79 13 80 14 81 30 82 15 83 16 84 17 85 18 87
REMARK SMILES IDX 19 88 20 89 21 90 22 91 28 92 23 93 26 94 29 95 24 96 27 97
REMARK SMILES IDX 25 98
REMARK H PARENT 3 7 87 25 55 36 10 78 17 86
REMARK Flexibility Score: inf
ROOT
ATOM      1  C   UNL A   1      36.851  20.903  24.780  1.00  0.00     0.002 C 
ENDROOT
BRANCH   1   2
ATOM      2  C   UNL A   1      37.991  19.895  24.945  1.00  0.00     0.021 C 
BRANCH   2   3
ATOM      3  C   UNL A   1      39.137  20.377  25.826  1.00  0.00     0.116 C 
BRANCH   3   4
ATOM      4  N   UNL A   1      40.209  19.400  25.901  1.00  0.00    -0.352 N 
ATOM      5  O   UNL A   1      42.343  18.677  25.872  1.00  0.00    -0.269 OA
ATOM      6  C   UNL A   1      41.558  19.605  26.046  1.00  0.00     0.251 C 
ATOM      7  H   UNL A   1      39.929  18.458  25.841  1.00  0.00     0.163 HD
BRANCH   6   8
ATOM      8  C   UNL A   1      42.061  20.948  26.405  1.00  0.00     0.039 A 
ATOM      9  C   UNL A   1      42.320  21.279  27.739  1.00  0.00     0.014 A 
ATOM     10  C   UNL A   1      42.303  21.877  25.389  1.00  0.00     0.014 A 
ATOM     11  C   UNL A   1      42.719  22.571  28.068  1.00  0.00     0.010 A 
ATOM     12  C   UNL A   1      42.773  23.150  25.717  1.00  0.00     0.010 A 
ATOM     13  C   UNL A   1      42.967  23.513  27.060  1.00  0.00    -0.014 A 
BRANCH  13  14
ATOM     14  C   UNL A   1      43.488  24.860  27.407  1.00  0.00     0.031 A 
ATOM     15  C   UNL A   1      42.568  25.927  27.921  1.00  0.00     0.074 A 
ATOM     16  C   UNL A   1      44.795  25.124  27.214  1.00  0.00     0.049 A 
ATOM     17  N   UNL A   1      42.821  27.185  28.176  1.00  0.00    -0.248 NA
ATOM     18  C   UNL A   1      41.176  25.528  28.168  1.00  0.00     0.031 C 
ATOM     19  C   UNL A   1      45.781  24.161  26.716  1.00  0.00     0.029 A 
ATOM     20  N   UNL A   1      45.515  26.277  27.391  1.00  0.00    -0.354 N 
ATOM     21  C   UNL A   1      41.616  27.739  28.594  1.00  0.00     0.074 A 
ATOM     22  C   UNL A   1      40.627  26.682  28.520  1.00  0.00     0.031 C 
ATOM     23  C   UNL A   1      46.975  24.763  26.628  1.00  0.00     0.029 A 
ATOM     24  C   UNL A   1      46.826  26.168  26.991  1.00  0.00     0.049 A 
ATOM     25  H   UNL A   1      45.131  27.101  27.768  1.00  0.00     0.167 HD
ATOM     26  C   UNL A   1      41.366  29.010  29.003  1.00  0.00     0.034 A 
ATOM     27  C   UNL A   1      47.791  27.101  26.878  1.00  0.00     0.034 A 
ATOM     28  C   UNL A   1      42.370  30.046  29.051  1.00  0.00     0.049 A 
ATOM     29  C   UNL A   1      47.480  28.520  27.270  1.00  0.00     0.074 A 
ATOM     30  C   UNL A   1      42.241  31.354  29.488  1.00  0.00     0.029 A 
ATOM     31  N   UNL A   1      43.686  29.903  28.621  1.00  0.00    -0.354 N 
ATOM     32  N   UNL A   1      46.345  29.026  27.694  1.00  0.00    -0.248 NA
ATOM     33  C   UNL A   1      48.576  29.490  27.177  1.00  0.00     0.031 C 
ATOM     34  C   UNL A   1      43.448  32.020  29.246  1.00  0.00     0.029 A 
ATOM     35  C   UNL A   1      44.363  31.108  28.745  1.00  0.00     0.049 A 
ATOM     36  H   UNL A   1      44.079  29.068  28.280  1.00  0.00     0.167 HD
ATOM     37  C   UNL A   1      46.598  30.370  27.943  1.00  0.00     0.074 A 
ATOM     38  C   UNL A   1      47.993  30.596  27.621  1.00  0.00     0.031 C 
ATOM     39  C   UNL A   1      45.753  31.325  28.409  1.00  0.00     0.034 A 
BRANCH  26  40
ATOM     40  C   UNL A   1      39.939  29.350  29.369  1.00  0.00     0.023 A 
ATOM     41  C   UNL A   1      39.533  29.508  30.706  1.00  0.00     0.031 A 
ATOM     42  C   UNL A   1      38.953  29.462  28.371  1.00  0.00     0.131 A 
ATOM     43  C   UNL A   1      38.173  29.665  31.015  1.00  0.00     0.055 A 
ATOM     44  C   UNL A   1      37.615  29.715  28.679  1.00  0.00     0.041 A 
ATOM     45  F   UNL A   1      39.270  29.303  27.077  1.00  0.00    -0.206 F 
ATOM     46  C   UNL A   1      37.213  29.794  30.009  1.00  0.00     0.022 A 
BRANCH  43  47
ATOM     47  S   UNL A   1      37.657  29.499  32.746  1.00  0.00     0.124 S 
ATOM     48  O   UNL A   1      38.805  30.059  33.455  1.00  0.00    -0.237 OA
ATOM     49  O   UNL A   1      36.433  30.292  32.788  1.00  0.00    -0.237 OA
ATOM     50  O   UNL A   1      37.475  28.058  32.914  1.00  0.00    -0.744 OA
ENDBRANCH  43  47
ENDBRANCH  26  40
BRANCH  27  51
ATOM     51  C   UNL A   1      49.114  26.717  26.315  1.00  0.00     0.023 A 
ATOM     52  C   UNL A   1      49.524  27.155  25.047  1.00  0.00     0.031 A 
ATOM     53  C   UNL A   1      50.005  25.925  27.064  1.00  0.00     0.131 A 
ATOM     54  C   UNL A   1      50.786  26.783  24.559  1.00  0.00     0.055 A 
ATOM     55  C   UNL A   1      51.277  25.599  26.594  1.00  0.00     0.041 A 
ATOM     56  F   UNL A   1      49.661  25.491  28.288  1.00  0.00    -0.206 F 
ATOM     57  C   UNL A   1      51.672  26.023  25.329  1.00  0.00     0.022 A 
BRANCH  54  58
ATOM     58  S   UNL A   1      51.246  27.276  22.875  1.00  0.00     0.124 S 
ATOM     59  O   UNL A   1      51.356  28.724  23.011  1.00  0.00    -0.237 OA
ATOM     60  O   UNL A   1      52.498  26.552  22.678  1.00  0.00    -0.237 OA
ATOM     61  O   UNL A   1      50.124  26.808  22.065  1.00  0.00    -0.744 OA
ENDBRANCH  54  58
ENDBRANCH  27  51
BRANCH  39  62
ATOM     62  C   UNL A   1      46.329  32.697  28.657  1.00  0.00     0.023 A 
ATOM     63  C   UNL A   1      46.326  33.701  27.672  1.00  0.00     0.031 A 
ATOM     64  C   UNL A   1      46.866  33.011  29.920  1.00  0.00     0.131 A 
ATOM     65  C   UNL A   1      46.873  34.960  27.958  1.00  0.00     0.055 A 
ATOM     66  C   UNL A   1      47.359  34.281  30.215  1.00  0.00     0.041 A 
ATOM     67  F   UNL A   1      46.899  32.088  30.894  1.00  0.00    -0.206 F 
ATOM     68  C   UNL A   1      47.371  35.263  29.229  1.00  0.00     0.022 A 
BRANCH  65  69
ATOM     69  S   UNL A   1      46.979  36.193  26.632  1.00  0.00     0.124 S 
ATOM     70  O   UNL A   1      48.046  37.064  27.114  1.00  0.00    -0.237 OA
ATOM     71  O   UNL A   1      47.300  35.375  25.467  1.00  0.00    -0.237 OA
ATOM     72  O   UNL A   1      45.647  36.796  26.615  1.00  0.00    -0.744 OA
ENDBRANCH  65  69
ENDBRANCH  39  62
ENDBRANCH  13  14
ENDBRANCH   6   8
ENDBRANCH   3   4
ENDBRANCH   2   3
ENDBRANCH   1   2
BRANCH   1  73
ATOM     73  C   UNL A   1      35.513  20.479  25.397  1.00  0.00     0.002 C 
BRANCH  73  74
ATOM     74  C   UNL A   1      34.830  19.287  24.714  1.00  0.00     0.021 C 
BRANCH  74  75
ATOM     75  C   UNL A   1      33.309  19.281  24.853  1.00  0.00     0.116 C 
BRANCH  75  76
ATOM     76  N   UNL A   1      32.672  19.685  23.613  1.00  0.00    -0.356 N 
ATOM     77  C   UNL A   1      32.279  20.925  23.200  1.00  0.00     0.226 C 
ATOM     78  H   UNL A   1      32.496  18.956  22.974  1.00  0.00     0.163 HD
ATOM     79  O   UNL A   1      31.709  21.028  22.113  1.00  0.00    -0.274 OA
BRANCH  77  80
ATOM     80  C   UNL A   1      32.644  22.136  24.058  1.00  0.00     0.103 C 
ATOM     81  C   UNL A   1      31.477  23.032  24.330  1.00  0.00    -0.016 C 
ATOM     82  C   UNL A   1      33.603  23.046  23.278  1.00  0.00     0.042 C 
ATOM     83  C   UNL A   1      31.556  24.175  23.642  1.00  0.00    -0.011 C 
ATOM     84  C   UNL A   1      32.752  24.218  22.755  1.00  0.00     0.093 C 
BRANCH  84  85
ATOM     85  N   UNL A   1      33.483  25.463  22.898  1.00  0.00    -0.204 NA
ATOM     86  H   UNL A   1      34.381  25.313  22.435  1.00  0.00     0.142 HD
BRANCH  85  87
ATOM     87  S   UNL A   1      32.932  26.931  22.343  1.00  0.00     0.244 S 
ATOM     88  O   UNL A   1      34.012  27.600  21.661  1.00  0.00    -0.207 OA
ATOM     89  O   UNL A   1      31.679  26.682  21.659  1.00  0.00    -0.207 OA
BRANCH  87  90
ATOM     90  C   UNL A   1      32.574  27.858  23.799  1.00  0.00     0.121 A 
ATOM     91  C   UNL A   1      31.603  28.870  23.750  1.00  0.00     0.028 A 
ATOM     92  C   UNL A   1      33.211  27.550  24.994  1.00  0.00     0.181 A 
ATOM     93  C   UNL A   1      31.280  29.575  24.910  1.00  0.00     0.044 A 
ATOM     94  C   UNL A   1      32.882  28.254  26.147  1.00  0.00     0.195 A 
ATOM     95  F   UNL A   1      34.155  26.601  25.053  1.00  0.00    -0.202 F 
ATOM     96  C   UNL A   1      31.921  29.259  26.104  1.00  0.00     0.161 A 
ATOM     97  F   UNL A   1      33.493  27.967  27.307  1.00  0.00    -0.200 F 
ATOM     98  F   UNL A   1      31.601  29.936  27.215  1.00  0.00    -0.204 F 
ENDBRANCH  87  90
ENDBRANCH  85  87
ENDBRANCH  84  85
ENDBRANCH  77  80
ENDBRANCH  75  76
ENDBRANCH  74  75
ENDBRANCH  73  74
ENDBRANCH   1  73
TORSDOF 19
ENDMDL
MODEL 3
REMARK VINA RESULT:     -11.5      5.978     11.337
REMARK SMILES O=C(NCCCCCCNC(=O)[C@@H]1C=C[C@@H](NS(=O)(=O)c2ccc(F)c(F)c2F)C1)c1ccc(-c2c3nc(c(-c4cc(S(=O)(=O)[O-])ccc4F)c4ccc([nH]4)c(-c4cc(S(=O)(=O)[O-])ccc4F)c4nc(c(-c5cc(S(=O)(=O)[O-])ccc5F)c5ccc2[nH]5)C=C4)C=C3)cc1
REMARK SMILES IDX 6 1 5 2 4 3 3 4 1 5 2 6 31 8 32 9 93 10 33 11 92 12 34 13
REMARK SMILES IDX 35 14 36 15 86 16 37 17 91 18 85 19 87 20 38 21 90 22 84 23
REMARK SMILES IDX 83 24 39 26 71 27 51 28 70 29 52 30 55 31 69 32 88 33 53 34
REMARK SMILES IDX 54 35 68 37 89 38 56 39 40 40 41 41 49 42 42 43 48 44 50 45
REMARK SMILES IDX 47 46 43 47 44 48 45 49 46 50 72 51 73 52 81 53 74 54 80 55
REMARK SMILES IDX 82 56 79 57 75 58 76 59 77 60 78 61 57 62 58 63 66 64 59 65
REMARK SMILES IDX 65 66 67 67 64 68 60 69 61 70 62 71 63 72 7 73 8 74 9 75
REMARK SMILES IDX 10 76 11 77 12 79 13 80 14 81 30 82 15 83 16 84 17 85 18 87
REMARK SMILES IDX 19 88 20 89 21 90 22 91 28 92 23 93 26 94 29 95 24 96 27 97
REMARK SMILES IDX 25 98
REMARK H PARENT 3 7 87 25 55 36 10 78 17 86
REMARK Flexibility Score: inf
ROOT
ATOM      1  C   UNL A   1      35.168  21.445  24.620  1.00  0.00     0.002 C 
ENDROOT
BRANCH   1   2
ATOM      2  C   UNL A   1      36.224  21.553  25.723  1.00  0.00     0.021 C 
BRANCH   2   3
ATOM      3  C   UNL A   1      37.661  21.615  25.217  1.00  0.00     0.116 C 
BRANCH   3   4
ATOM      4  N   UNL A   1      38.473  20.541  25.762  1.00  0.00    -0.352 N 
ATOM      5  O   UNL A   1      40.351  19.572  26.545  1.00  0.00    -0.269 OA
ATOM      6  C   UNL A   1      39.718  20.603  26.336  1.00  0.00     0.251 C 
ATOM      7  H   UNL A   1      38.075  19.641  25.714  1.00  0.00     0.163 HD
BRANCH   6   8
ATOM      8  C   UNL A   1      40.295  21.916  26.694  1.00  0.00     0.039 A 
ATOM      9  C   UNL A   1      40.034  23.047  25.913  1.00  0.00     0.014 A 
ATOM     10  C   UNL A   1      41.085  22.021  27.841  1.00  0.00     0.014 A 
ATOM     11  C   UNL A   1      40.646  24.258  26.219  1.00  0.00     0.010 A 
ATOM     12  C   UNL A   1      41.641  23.255  28.186  1.00  0.00     0.010 A 
ATOM     13  C   UNL A   1      41.440  24.378  27.369  1.00  0.00    -0.014 A 
BRANCH  13  14
ATOM     14  C   UNL A   1      42.012  25.696  27.748  1.00  0.00     0.031 A 
ATOM     15  C   UNL A   1      41.183  26.706  28.486  1.00  0.00     0.074 A 
ATOM     16  C   UNL A   1      43.275  25.988  27.384  1.00  0.00     0.049 A 
ATOM     17  N   UNL A   1      41.475  27.941  28.806  1.00  0.00    -0.248 NA
ATOM     18  C   UNL A   1      39.843  26.274  28.904  1.00  0.00     0.031 C 
ATOM     19  C   UNL A   1      44.171  25.081  26.662  1.00  0.00     0.029 A 
ATOM     20  N   UNL A   1      44.017  27.129  27.549  1.00  0.00    -0.354 N 
ATOM     21  C   UNL A   1      40.349  28.445  29.447  1.00  0.00     0.074 A 
ATOM     22  C   UNL A   1      39.357  27.388  29.433  1.00  0.00     0.031 C 
ATOM     23  C   UNL A   1      45.340  25.700  26.447  1.00  0.00     0.029 A 
ATOM     24  C   UNL A   1      45.252  27.068  26.948  1.00  0.00     0.049 A 
ATOM     25  H   UNL A   1      43.697  27.914  28.049  1.00  0.00     0.167 HD
ATOM     26  C   UNL A   1      40.167  29.673  29.997  1.00  0.00     0.034 A 
ATOM     27  C   UNL A   1      46.192  28.017  26.772  1.00  0.00     0.034 A 
ATOM     28  C   UNL A   1      41.171  30.712  29.982  1.00  0.00     0.049 A 
ATOM     29  C   UNL A   1      45.949  29.393  27.327  1.00  0.00     0.074 A 
ATOM     30  C   UNL A   1      41.113  31.976  30.544  1.00  0.00     0.029 A 
ATOM     31  N   UNL A   1      42.406  30.619  29.348  1.00  0.00    -0.354 N 
ATOM     32  N   UNL A   1      44.891  29.850  27.958  1.00  0.00    -0.248 NA
ATOM     33  C   UNL A   1      47.021  30.379  27.152  1.00  0.00     0.031 C 
ATOM     34  C   UNL A   1      42.272  32.672  30.181  1.00  0.00     0.029 A 
ATOM     35  C   UNL A   1      43.098  31.815  29.471  1.00  0.00     0.049 A 
ATOM     36  H   UNL A   1      42.741  29.820  28.881  1.00  0.00     0.167 HD
ATOM     37  C   UNL A   1      45.184  31.171  28.281  1.00  0.00     0.074 A 
ATOM     38  C   UNL A   1      46.515  31.437  27.773  1.00  0.00     0.031 C 
ATOM     39  C   UNL A   1      44.422  32.074  28.949  1.00  0.00     0.034 A 
BRANCH  26  40
ATOM     40  C   UNL A   1      38.813  29.967  30.602  1.00  0.00     0.023 A 
ATOM     41  C   UNL A   1      37.868  30.777  29.949  1.00  0.00     0.031 A 
ATOM     42  C   UNL A   1      38.482  29.476  31.879  1.00  0.00     0.131 A 
ATOM     43  C   UNL A   1      36.690  31.157  30.612  1.00  0.00     0.055 A 
ATOM     44  C   UNL A   1      37.265  29.779  32.494  1.00  0.00     0.041 A 
ATOM     45  F   UNL A   1      39.347  28.714  32.564  1.00  0.00    -0.206 F 
ATOM     46  C   UNL A   1      36.370  30.643  31.870  1.00  0.00     0.022 A 
BRANCH  43  47
ATOM     47  S   UNL A   1      35.682  32.481  29.888  1.00  0.00     0.124 S 
ATOM     48  O   UNL A   1      34.455  32.386  30.675  1.00  0.00    -0.237 OA
ATOM     49  O   UNL A   1      36.501  33.665  30.124  1.00  0.00    -0.237 OA
ATOM     50  O   UNL A   1      35.546  32.084  28.488  1.00  0.00    -0.744 OA
ENDBRANCH  43  47
ENDBRANCH  26  40
BRANCH  27  51
ATOM     51  C   UNL A   1      47.414  27.695  25.984  1.00  0.00     0.023 A 
ATOM     52  C   UNL A   1      47.447  27.850  24.591  1.00  0.00     0.031 A 
ATOM     53  C   UNL A   1      48.583  27.255  26.632  1.00  0.00     0.131 A 
ATOM     54  C   UNL A   1      48.624  27.551  23.887  1.00  0.00     0.055 A 
ATOM     55  C   UNL A   1      49.764  27.005  25.934  1.00  0.00     0.041 A 
ATOM     56  F   UNL A   1      48.603  27.102  27.966  1.00  0.00    -0.206 F 
ATOM     57  C   UNL A   1      49.787  27.146  24.550  1.00  0.00     0.022 A 
BRANCH  54  58
ATOM     58  S   UNL A   1      48.606  27.659  22.077  1.00  0.00     0.124 S 
ATOM     59  O   UNL A   1      49.712  28.578  21.826  1.00  0.00    -0.237 OA
ATOM     60  O   UNL A   1      48.823  26.270  21.687  1.00  0.00    -0.237 OA
ATOM     61  O   UNL A   1      47.276  28.187  21.781  1.00  0.00    -0.744 OA
ENDBRANCH  54  58
ENDBRANCH  27  51
BRANCH  39  62
ATOM     62  C   UNL A   1      45.034  33.426  29.224  1.00  0.00     0.023 A 
ATOM     63  C   UNL A   1      44.908  34.501  28.328  1.00  0.00     0.031 A 
ATOM     64  C   UNL A   1      45.731  33.644  30.428  1.00  0.00     0.131 A 
ATOM     65  C   UNL A   1      45.495  35.737  28.636  1.00  0.00     0.055 A 
ATOM     66  C   UNL A   1      46.265  34.890  30.752  1.00  0.00     0.041 A 
ATOM     67  F   UNL A   1      45.885  32.649  31.316  1.00  0.00    -0.206 F 
ATOM     68  C   UNL A   1      46.155  35.945  29.851  1.00  0.00     0.022 A 
BRANCH  65  69
ATOM     69  S   UNL A   1      45.435  37.069  27.405  1.00  0.00     0.124 S 
ATOM     70  O   UNL A   1      46.002  36.417  26.228  1.00  0.00    -0.237 OA
ATOM     71  O   UNL A   1      44.010  37.374  27.342  1.00  0.00    -0.237 OA
ATOM     72  O   UNL A   1      46.266  38.119  27.993  1.00  0.00    -0.744 OA
ENDBRANCH  65  69
ENDBRANCH  39  62
ENDBRANCH  13  14
ENDBRANCH   6   8
ENDBRANCH   3   4
ENDBRANCH   2   3
ENDBRANCH   1   2
BRANCH   1  73
ATOM     73  C   UNL A   1      34.070  20.405  24.871  1.00  0.00     0.002 C 
BRANCH  73  74
ATOM     74  C   UNL A   1      32.702  20.983  25.256  1.00  0.00     0.021 C 
BRANCH  74  75
ATOM     75  C   UNL A   1      32.772  22.110  26.286  1.00  0.00     0.116 C 
BRANCH  75  76
ATOM     76  N   UNL A   1      31.447  22.615  26.596  1.00  0.00    -0.356 N 
ATOM     77  C   UNL A   1      30.953  23.883  26.492  1.00  0.00     0.226 C 
ATOM     78  H   UNL A   1      30.809  21.943  26.930  1.00  0.00     0.163 HD
ATOM     79  O   UNL A   1      29.796  24.094  26.860  1.00  0.00    -0.274 OA
BRANCH  77  80
ATOM     80  C   UNL A   1      31.821  24.960  25.844  1.00  0.00     0.103 C 
ATOM     81  C   UNL A   1      32.116  26.104  26.762  1.00  0.00    -0.016 C 
ATOM     82  C   UNL A   1      31.041  25.627  24.702  1.00  0.00     0.042 C 
ATOM     83  C   UNL A   1      31.441  27.205  26.420  1.00  0.00    -0.011 C 
ATOM     84  C   UNL A   1      30.542  26.976  25.255  1.00  0.00     0.093 C 
BRANCH  84  85
ATOM     85  N   UNL A   1      30.691  28.009  24.247  1.00  0.00    -0.204 NA
ATOM     86  H   UNL A   1      31.592  27.833  23.800  1.00  0.00     0.142 HD
BRANCH  85  87
ATOM     87  S   UNL A   1      29.612  28.255  23.006  1.00  0.00     0.244 S 
ATOM     88  O   UNL A   1      30.281  27.987  21.757  1.00  0.00    -0.207 OA
ATOM     89  O   UNL A   1      28.398  27.543  23.352  1.00  0.00    -0.207 OA
BRANCH  87  90
ATOM     90  C   UNL A   1      29.255  29.981  23.053  1.00  0.00     0.121 A 
ATOM     91  C   UNL A   1      29.761  30.760  24.105  1.00  0.00     0.028 A 
ATOM     92  C   UNL A   1      28.526  30.568  22.027  1.00  0.00     0.181 A 
ATOM     93  C   UNL A   1      29.523  32.135  24.123  1.00  0.00     0.044 A 
ATOM     94  C   UNL A   1      28.295  31.939  22.049  1.00  0.00     0.195 A 
ATOM     95  F   UNL A   1      28.019  29.835  21.028  1.00  0.00    -0.202 F 
ATOM     96  C   UNL A   1      28.793  32.716  23.091  1.00  0.00     0.161 A 
ATOM     97  F   UNL A   1      27.589  32.518  21.066  1.00  0.00    -0.200 F 
ATOM     98  F   UNL A   1      28.574  34.039  23.111  1.00  0.00    -0.204 F 
ENDBRANCH  87  90
ENDBRANCH  85  87
ENDBRANCH  84  85
ENDBRANCH  77  80
ENDBRANCH  75  76
ENDBRANCH  74  75
ENDBRANCH  73  74
ENDBRANCH   1  73
TORSDOF 19
ENDMDL
