MODEL 1
REMARK VINA RESULT:     -11.8      0.000      0.000
REMARK SMILES COc1c(N)cc(-c2ccccc2)cc1C(=O)NCCCCCCNC(=O)c1ccc(-c2c3nc(c(-c4cc(S(=O)(=O)[O-])ccc4F)c4ccc([nH]4)c(-c4cc(S(=O)(=O)[O-])ccc4F)c4nc(c(-c5cc(S(=O)(=O)[O-])ccc5F)c5ccc2[nH]5)C=C4)C=C3)cc1
REMARK SMILES IDX 22 1 21 2 20 3 19 4 18 5 16 6 17 7 15 9 3 10 4 11 6 12 14 13
REMARK SMILES IDX 7 14 2 15 1 16 5 17 8 20 9 21 13 22 10 23 12 24 11 25 23 26
REMARK SMILES IDX 24 27 25 28 26 29 27 31 28 32 29 33 90 34 30 35 89 36 31 37
REMARK SMILES IDX 32 38 33 39 83 40 34 41 88 42 82 43 84 44 35 45 87 46 81 47
REMARK SMILES IDX 80 48 36 50 68 51 48 52 67 53 49 54 52 55 66 56 85 57 50 58
REMARK SMILES IDX 51 59 65 61 86 62 53 63 37 64 38 65 46 66 39 67 45 68 47 69
REMARK SMILES IDX 44 70 40 71 41 72 42 73 43 74 69 75 70 76 78 77 71 78 77 79
REMARK SMILES IDX 79 80 76 81 72 82 73 83 74 84 75 85 54 86 55 87 63 88 56 89
REMARK SMILES IDX 62 90 64 91 61 92 57 93 58 94 59 95 60 96
REMARK H PARENT 18 8 5 18 5 19 25 30 84 49 52 60
REMARK Flexibility Score: inf
ROOT
ATOM      1  C   UNL A   1      31.404  30.806  26.461  1.00  0.00     0.002 C 
ENDROOT
BRANCH   1   2
ATOM      2  C   UNL A   1      32.534  30.029  27.146  1.00  0.00     0.002 C 
BRANCH   2   3
ATOM      3  C   UNL A   1      32.331  28.509  27.172  1.00  0.00     0.021 C 
BRANCH   3   4
ATOM      4  C   UNL A   1      33.579  27.720  26.761  1.00  0.00     0.116 C 
BRANCH   4   5
ATOM      5  N   UNL A   1      34.001  28.164  25.450  1.00  0.00    -0.352 N 
ATOM      6  C   UNL A   1      33.404  28.140  24.221  1.00  0.00     0.255 C 
ATOM      7  O   UNL A   1      34.138  28.427  23.267  1.00  0.00    -0.269 OA
ATOM      8  H   UNL A   1      34.901  28.563  25.442  1.00  0.00     0.163 HD
BRANCH   6   9
ATOM      9  C   UNL A   1      31.952  27.911  23.948  1.00  0.00     0.084 A 
ATOM     10  C   UNL A   1      31.225  26.712  23.958  1.00  0.00     0.154 A 
ATOM     11  C   UNL A   1      29.818  26.725  23.792  1.00  0.00     0.076 A 
ATOM     12  C   UNL A   1      29.187  27.903  23.386  1.00  0.00     0.038 A 
ATOM     13  C   UNL A   1      31.263  29.087  23.576  1.00  0.00     0.026 A 
ATOM     14  C   UNL A   1      29.899  29.099  23.253  1.00  0.00    -0.015 A 
BRANCH  10  15
ATOM     15  O   UNL A   1      31.824  25.495  24.159  1.00  0.00    -0.494 OA
ATOM     16  C   UNL A   1      31.670  25.052  25.510  1.00  0.00     0.278 C 
ENDBRANCH  10  15
BRANCH  11  17
ATOM     17  N   UNL A   1      29.065  25.552  23.881  1.00  0.00    -0.396 N 
ATOM     18  H   UNL A   1      29.468  24.689  23.629  1.00  0.00     0.156 HD
ATOM     19  H   UNL A   1      28.133  25.587  24.195  1.00  0.00     0.156 HD
ENDBRANCH  11  17
BRANCH  14  20
ATOM     20  C   UNL A   1      29.246  30.323  22.768  1.00  0.00    -0.018 A 
ATOM     21  C   UNL A   1      28.710  30.398  21.474  1.00  0.00     0.009 A 
ATOM     22  C   UNL A   1      29.161  31.461  23.588  1.00  0.00     0.009 A 
ATOM     23  C   UNL A   1      28.111  31.573  21.012  1.00  0.00     0.001 A 
ATOM     24  C   UNL A   1      28.567  32.639  23.127  1.00  0.00     0.001 A 
ATOM     25  C   UNL A   1      28.043  32.694  21.837  1.00  0.00     0.000 A 
ENDBRANCH  14  20
ENDBRANCH   6   9
ENDBRANCH   4   5
ENDBRANCH   3   4
ENDBRANCH   2   3
ENDBRANCH   1   2
BRANCH   1  26
ATOM     26  C   UNL A   1      31.457  32.326  26.642  1.00  0.00     0.021 C 
BRANCH  26  27
ATOM     27  C   UNL A   1      32.757  32.849  27.248  1.00  0.00     0.116 C 
BRANCH  27  28
ATOM     28  N   UNL A   1      32.613  34.220  27.711  1.00  0.00    -0.352 N 
ATOM     29  C   UNL A   1      33.184  34.827  28.799  1.00  0.00     0.251 C 
ATOM     30  H   UNL A   1      32.022  34.790  27.168  1.00  0.00     0.163 HD
ATOM     31  O   UNL A   1      32.738  35.902  29.200  1.00  0.00    -0.269 OA
BRANCH  29  32
ATOM     32  C   UNL A   1      34.328  34.192  29.489  1.00  0.00     0.039 A 
ATOM     33  C   UNL A   1      35.624  34.445  29.033  1.00  0.00     0.014 A 
ATOM     34  C   UNL A   1      34.119  33.317  30.560  1.00  0.00     0.014 A 
ATOM     35  C   UNL A   1      36.714  33.856  29.680  1.00  0.00     0.010 A 
ATOM     36  C   UNL A   1      35.210  32.779  31.241  1.00  0.00     0.010 A 
ATOM     37  C   UNL A   1      36.518  33.034  30.801  1.00  0.00    -0.014 A 
BRANCH  37  38
ATOM     38  C   UNL A   1      37.663  32.402  31.506  1.00  0.00     0.031 A 
ATOM     39  C   UNL A   1      38.395  31.254  30.863  1.00  0.00     0.074 A 
ATOM     40  C   UNL A   1      38.012  32.826  32.737  1.00  0.00     0.049 A 
ATOM     41  N   UNL A   1      39.356  30.509  31.345  1.00  0.00    -0.248 NA
ATOM     42  C   UNL A   1      37.967  30.880  29.507  1.00  0.00     0.031 C 
ATOM     43  C   UNL A   1      37.364  33.915  33.471  1.00  0.00     0.029 A 
ATOM     44  N   UNL A   1      38.992  32.388  33.592  1.00  0.00    -0.354 N 
ATOM     45  C   UNL A   1      39.645  29.575  30.355  1.00  0.00     0.074 A 
ATOM     46  C   UNL A   1      38.710  29.809  29.275  1.00  0.00     0.031 C 
ATOM     47  C   UNL A   1      37.975  34.069  34.657  1.00  0.00     0.029 A 
ATOM     48  C   UNL A   1      39.028  33.068  34.788  1.00  0.00     0.049 A 
ATOM     49  H   UNL A   1      39.611  31.656  33.370  1.00  0.00     0.167 HD
ATOM     50  C   UNL A   1      40.616  28.628  30.336  1.00  0.00     0.034 A 
ATOM     51  C   UNL A   1      39.813  32.893  35.870  1.00  0.00     0.034 A 
ATOM     52  C   UNL A   1      41.545  28.410  31.419  1.00  0.00     0.049 A 
ATOM     53  C   UNL A   1      40.863  31.809  35.840  1.00  0.00     0.074 A 
ATOM     54  C   UNL A   1      42.577  27.490  31.502  1.00  0.00     0.029 A 
ATOM     55  N   UNL A   1      41.557  29.125  32.611  1.00  0.00    -0.354 N 
ATOM     56  N   UNL A   1      41.138  30.949  34.885  1.00  0.00    -0.248 NA
ATOM     57  C   UNL A   1      41.718  31.683  37.027  1.00  0.00     0.031 C 
ATOM     58  C   UNL A   1      43.176  27.613  32.761  1.00  0.00     0.029 A 
ATOM     59  C   UNL A   1      42.565  28.656  33.438  1.00  0.00     0.049 A 
ATOM     60  H   UNL A   1      40.938  29.858  32.834  1.00  0.00     0.167 HD
ATOM     61  C   UNL A   1      42.223  30.208  35.344  1.00  0.00     0.074 A 
ATOM     62  C   UNL A   1      42.559  30.730  36.652  1.00  0.00     0.031 C 
ATOM     63  C   UNL A   1      42.887  29.191  34.739  1.00  0.00     0.034 A 
BRANCH  50  64
ATOM     64  C   UNL A   1      40.702  27.752  29.109  1.00  0.00     0.023 A 
ATOM     65  C   UNL A   1      41.640  28.005  28.092  1.00  0.00     0.031 A 
ATOM     66  C   UNL A   1      39.821  26.670  28.936  1.00  0.00     0.131 A 
ATOM     67  C   UNL A   1      41.623  27.240  26.917  1.00  0.00     0.055 A 
ATOM     68  C   UNL A   1      39.863  25.861  27.798  1.00  0.00     0.041 A 
ATOM     69  F   UNL A   1      38.890  26.391  29.862  1.00  0.00    -0.206 F 
ATOM     70  C   UNL A   1      40.758  26.154  26.772  1.00  0.00     0.022 A 
BRANCH  67  71
ATOM     71  S   UNL A   1      42.650  27.778  25.521  1.00  0.00     0.124 S 
ATOM     72  O   UNL A   1      41.898  28.930  25.030  1.00  0.00    -0.237 OA
ATOM     73  O   UNL A   1      43.926  28.073  26.163  1.00  0.00    -0.237 OA
ATOM     74  O   UNL A   1      42.652  26.618  24.631  1.00  0.00    -0.744 OA
ENDBRANCH  67  71
ENDBRANCH  50  64
BRANCH  51  75
ATOM     75  C   UNL A   1      39.644  33.749  37.080  1.00  0.00     0.023 A 
ATOM     76  C   UNL A   1      39.014  33.252  38.232  1.00  0.00     0.031 A 
ATOM     77  C   UNL A   1      40.052  35.095  37.081  1.00  0.00     0.131 A 
ATOM     78  C   UNL A   1      38.753  34.109  39.311  1.00  0.00     0.055 A 
ATOM     79  C   UNL A   1      39.842  35.928  38.181  1.00  0.00     0.041 A 
ATOM     80  F   UNL A   1      40.664  35.620  36.007  1.00  0.00    -0.206 F 
ATOM     81  C   UNL A   1      39.174  35.440  39.299  1.00  0.00     0.022 A 
BRANCH  78  82
ATOM     82  S   UNL A   1      37.756  33.484  40.692  1.00  0.00     0.124 S 
ATOM     83  O   UNL A   1      38.644  32.483  41.272  1.00  0.00    -0.237 OA
ATOM     84  O   UNL A   1      37.547  34.692  41.484  1.00  0.00    -0.237 OA
ATOM     85  O   UNL A   1      36.563  32.955  40.037  1.00  0.00    -0.744 OA
ENDBRANCH  78  82
ENDBRANCH  51  75
BRANCH  63  86
ATOM     86  C   UNL A   1      44.080  28.625  35.469  1.00  0.00     0.023 A 
ATOM     87  C   UNL A   1      43.955  27.570  36.390  1.00  0.00     0.031 A 
ATOM     88  C   UNL A   1      45.360  29.165  35.250  1.00  0.00     0.131 A 
ATOM     89  C   UNL A   1      45.080  27.129  37.102  1.00  0.00     0.055 A 
ATOM     90  C   UNL A   1      46.485  28.683  35.919  1.00  0.00     0.041 A 
ATOM     91  F   UNL A   1      45.535  30.174  34.381  1.00  0.00    -0.206 F 
ATOM     92  C   UNL A   1      46.346  27.669  36.861  1.00  0.00     0.022 A 
BRANCH  89  93
ATOM     93  S   UNL A   1      44.851  25.897  38.413  1.00  0.00     0.124 S 
ATOM     94  O   UNL A   1      43.771  26.486  39.199  1.00  0.00    -0.237 OA
ATOM     95  O   UNL A   1      44.508  24.697  37.659  1.00  0.00    -0.237 OA
ATOM     96  O   UNL A   1      46.152  25.859  39.079  1.00  0.00    -0.744 OA
ENDBRANCH  89  93
ENDBRANCH  63  86
ENDBRANCH  37  38
ENDBRANCH  29  32
ENDBRANCH  27  28
ENDBRANCH  26  27
ENDBRANCH   1  26
TORSDOF 19
ENDMDL
MODEL 2
REMARK VINA RESULT:     -11.5      1.810      7.765
REMARK SMILES COc1c(N)cc(-c2ccccc2)cc1C(=O)NCCCCCCNC(=O)c1ccc(-c2c3nc(c(-c4cc(S(=O)(=O)[O-])ccc4F)c4ccc([nH]4)c(-c4cc(S(=O)(=O)[O-])ccc4F)c4nc(c(-c5cc(S(=O)(=O)[O-])ccc5F)c5ccc2[nH]5)C=C4)C=C3)cc1
REMARK SMILES IDX 22 1 21 2 20 3 19 4 18 5 16 6 17 7 15 9 3 10 4 11 6 12 14 13
REMARK SMILES IDX 7 14 2 15 1 16 5 17 8 20 9 21 13 22 10 23 12 24 11 25 23 26
REMARK SMILES IDX 24 27 25 28 26 29 27 31 28 32 29 33 90 34 30 35 89 36 31 37
REMARK SMILES IDX 32 38 33 39 83 40 34 41 88 42 82 43 84 44 35 45 87 46 81 47
REMARK SMILES IDX 80 48 36 50 68 51 48 52 67 53 49 54 52 55 66 56 85 57 50 58
REMARK SMILES IDX 51 59 65 61 86 62 53 63 37 64 38 65 46 66 39 67 45 68 47 69
REMARK SMILES IDX 44 70 40 71 41 72 42 73 43 74 69 75 70 76 78 77 71 78 77 79
REMARK SMILES IDX 79 80 76 81 72 82 73 83 74 84 75 85 54 86 55 87 63 88 56 89
REMARK SMILES IDX 62 90 64 91 61 92 57 93 58 94 59 95 60 96
REMARK H PARENT 18 8 5 18 5 19 25 30 84 49 52 60
REMARK Flexibility Score: inf
ROOT
ATOM      1  C   UNL A   1      31.411  30.891  26.544  1.00  0.00     0.002 C 
ENDROOT
BRANCH   1   2
ATOM      2  C   UNL A   1      32.755  30.210  26.258  1.00  0.00     0.002 C 
BRANCH   2   3
ATOM      3  C   UNL A   1      33.126  29.102  27.251  1.00  0.00     0.021 C 
BRANCH   3   4
ATOM      4  C   UNL A   1      33.652  27.830  26.578  1.00  0.00     0.116 C 
BRANCH   4   5
ATOM      5  N   UNL A   1      32.673  26.777  26.738  1.00  0.00    -0.352 N 
ATOM      6  C   UNL A   1      31.621  26.359  25.971  1.00  0.00     0.255 C 
ATOM      7  O   UNL A   1      30.861  25.545  26.511  1.00  0.00    -0.269 OA
ATOM      8  H   UNL A   1      32.787  26.257  27.566  1.00  0.00     0.163 HD
BRANCH   6   9
ATOM      9  C   UNL A   1      31.377  26.708  24.538  1.00  0.00     0.084 A 
ATOM     10  C   UNL A   1      31.912  26.128  23.379  1.00  0.00     0.154 A 
ATOM     11  C   UNL A   1      31.454  26.527  22.099  1.00  0.00     0.076 A 
ATOM     12  C   UNL A   1      30.643  27.658  21.985  1.00  0.00     0.038 A 
ATOM     13  C   UNL A   1      30.523  27.822  24.374  1.00  0.00     0.026 A 
ATOM     14  C   UNL A   1      30.179  28.336  23.116  1.00  0.00    -0.015 A 
BRANCH  10  15
ATOM     15  O   UNL A   1      32.863  25.140  23.428  1.00  0.00    -0.494 OA
ATOM     16  C   UNL A   1      32.269  23.848  23.573  1.00  0.00     0.278 C 
ENDBRANCH  10  15
BRANCH  11  17
ATOM     17  N   UNL A   1      31.914  25.905  20.937  1.00  0.00    -0.396 N 
ATOM     18  H   UNL A   1      31.516  26.135  20.066  1.00  0.00     0.156 HD
ATOM     19  H   UNL A   1      32.636  25.238  20.987  1.00  0.00     0.156 HD
ENDBRANCH  11  17
BRANCH  14  20
ATOM     20  C   UNL A   1      29.375  29.560  22.994  1.00  0.00    -0.018 A 
ATOM     21  C   UNL A   1      28.425  29.707  21.972  1.00  0.00     0.009 A 
ATOM     22  C   UNL A   1      29.554  30.627  23.891  1.00  0.00     0.009 A 
ATOM     23  C   UNL A   1      27.680  30.883  21.849  1.00  0.00     0.001 A 
ATOM     24  C   UNL A   1      28.815  31.805  23.766  1.00  0.00     0.001 A 
ATOM     25  C   UNL A   1      27.878  31.932  22.744  1.00  0.00     0.000 A 
ENDBRANCH  14  20
ENDBRANCH   6   9
ENDBRANCH   4   5
ENDBRANCH   3   4
ENDBRANCH   2   3
ENDBRANCH   1   2
BRANCH   1  26
ATOM     26  C   UNL A   1      31.491  32.395  26.825  1.00  0.00     0.021 C 
BRANCH  26  27
ATOM     27  C   UNL A   1      32.895  32.911  27.132  1.00  0.00     0.116 C 
BRANCH  27  28
ATOM     28  N   UNL A   1      32.852  34.209  27.784  1.00  0.00    -0.352 N 
ATOM     29  C   UNL A   1      33.502  34.627  28.917  1.00  0.00     0.251 C 
ATOM     30  H   UNL A   1      32.275  34.880  27.353  1.00  0.00     0.163 HD
ATOM     31  O   UNL A   1      33.137  35.657  29.482  1.00  0.00    -0.269 OA
BRANCH  29  32
ATOM     32  C   UNL A   1      34.631  33.840  29.458  1.00  0.00     0.039 A 
ATOM     33  C   UNL A   1      35.938  34.207  29.125  1.00  0.00     0.014 A 
ATOM     34  C   UNL A   1      34.400  32.720  30.262  1.00  0.00     0.014 A 
ATOM     35  C   UNL A   1      37.014  33.476  29.634  1.00  0.00     0.010 A 
ATOM     36  C   UNL A   1      35.476  32.029  30.818  1.00  0.00     0.010 A 
ATOM     37  C   UNL A   1      36.794  32.393  30.501  1.00  0.00    -0.014 A 
BRANCH  37  38
ATOM     38  C   UNL A   1      37.925  31.606  31.057  1.00  0.00     0.031 A 
ATOM     39  C   UNL A   1      38.413  31.883  32.454  1.00  0.00     0.074 A 
ATOM     40  C   UNL A   1      38.541  30.682  30.293  1.00  0.00     0.049 A 
ATOM     41  N   UNL A   1      39.437  31.376  33.091  1.00  0.00    -0.248 NA
ATOM     42  C   UNL A   1      37.661  32.885  33.225  1.00  0.00     0.031 C 
ATOM     43  C   UNL A   1      38.172  30.341  28.918  1.00  0.00     0.029 A 
ATOM     44  N   UNL A   1      39.611  29.866  30.562  1.00  0.00    -0.354 N 
ATOM     45  C   UNL A   1      39.456  32.000  34.335  1.00  0.00     0.074 A 
ATOM     46  C   UNL A   1      38.381  32.969  34.333  1.00  0.00     0.031 C 
ATOM     47  C   UNL A   1      38.992  29.374  28.471  1.00  0.00     0.029 A 
ATOM     48  C   UNL A   1      39.968  29.057  29.507  1.00  0.00     0.049 A 
ATOM     49  H   UNL A   1      40.079  29.859  31.427  1.00  0.00     0.167 HD
ATOM     50  C   UNL A   1      40.277  31.767  35.390  1.00  0.00     0.034 A 
ATOM     51  C   UNL A   1      40.977  28.170  29.388  1.00  0.00     0.034 A 
ATOM     52  C   UNL A   1      41.341  30.793  35.379  1.00  0.00     0.049 A 
ATOM     53  C   UNL A   1      41.899  27.954  30.563  1.00  0.00     0.074 A 
ATOM     54  C   UNL A   1      42.224  30.464  36.394  1.00  0.00     0.029 A 
ATOM     55  N   UNL A   1      41.667  29.986  34.296  1.00  0.00    -0.354 N 
ATOM     56  N   UNL A   1      41.889  28.537  31.741  1.00  0.00    -0.248 NA
ATOM     57  C   UNL A   1      42.959  26.951  30.398  1.00  0.00     0.031 C 
ATOM     58  C   UNL A   1      43.113  29.499  35.909  1.00  0.00     0.029 A 
ATOM     59  C   UNL A   1      42.745  29.174  34.613  1.00  0.00     0.049 A 
ATOM     60  H   UNL A   1      41.199  29.990  33.429  1.00  0.00     0.167 HD
ATOM     61  C   UNL A   1      42.916  27.940  32.467  1.00  0.00     0.074 A 
ATOM     62  C   UNL A   1      43.514  26.946  31.600  1.00  0.00     0.031 C 
ATOM     63  C   UNL A   1      43.326  28.186  33.737  1.00  0.00     0.034 A 
BRANCH  50  64
ATOM     64  C   UNL A   1      40.057  32.598  36.632  1.00  0.00     0.023 A 
ATOM     65  C   UNL A   1      39.110  32.228  37.604  1.00  0.00     0.031 A 
ATOM     66  C   UNL A   1      40.776  33.789  36.836  1.00  0.00     0.131 A 
ATOM     67  C   UNL A   1      38.852  33.076  38.690  1.00  0.00     0.055 A 
ATOM     68  C   UNL A   1      40.573  34.589  37.963  1.00  0.00     0.041 A 
ATOM     69  F   UNL A   1      41.679  34.206  35.934  1.00  0.00    -0.206 F 
ATOM     70  C   UNL A   1      39.594  34.242  38.891  1.00  0.00     0.022 A 
BRANCH  67  71
ATOM     71  S   UNL A   1      37.433  32.706  39.758  1.00  0.00     0.124 S 
ATOM     72  O   UNL A   1      37.467  33.830  40.690  1.00  0.00    -0.237 OA
ATOM     73  O   UNL A   1      36.322  32.691  38.814  1.00  0.00    -0.237 OA
ATOM     74  O   UNL A   1      37.773  31.410  40.342  1.00  0.00    -0.744 OA
ENDBRANCH  67  71
ENDBRANCH  50  64
BRANCH  51  75
ATOM     75  C   UNL A   1      41.185  27.419  28.115  1.00  0.00     0.023 A 
ATOM     76  C   UNL A   1      40.894  26.049  28.032  1.00  0.00     0.031 A 
ATOM     77  C   UNL A   1      41.736  28.046  26.984  1.00  0.00     0.131 A 
ATOM     78  C   UNL A   1      41.214  25.335  26.867  1.00  0.00     0.055 A 
ATOM     79  C   UNL A   1      41.998  27.344  25.806  1.00  0.00     0.041 A 
ATOM     80  F   UNL A   1      42.028  29.357  27.008  1.00  0.00    -0.206 F 
ATOM     81  C   UNL A   1      41.752  25.976  25.749  1.00  0.00     0.022 A 
BRANCH  78  82
ATOM     82  S   UNL A   1      41.016  23.532  26.873  1.00  0.00     0.124 S 
ATOM     83  O   UNL A   1      41.456  23.189  28.220  1.00  0.00    -0.237 OA
ATOM     84  O   UNL A   1      39.587  23.385  26.609  1.00  0.00    -0.237 OA
ATOM     85  O   UNL A   1      41.896  23.090  25.796  1.00  0.00    -0.744 OA
ENDBRANCH  78  82
ENDBRANCH  51  75
BRANCH  63  86
ATOM     86  C   UNL A   1      44.437  27.319  34.275  1.00  0.00     0.023 A 
ATOM     87  C   UNL A   1      44.209  25.996  34.694  1.00  0.00     0.031 A 
ATOM     88  C   UNL A   1      45.741  27.834  34.387  1.00  0.00     0.131 A 
ATOM     89  C   UNL A   1      45.256  25.254  35.260  1.00  0.00     0.055 A 
ATOM     90  C   UNL A   1      46.791  27.071  34.898  1.00  0.00     0.041 A 
ATOM     91  F   UNL A   1      46.013  29.091  34.002  1.00  0.00    -0.206 F 
ATOM     92  C   UNL A   1      46.548  25.777  35.350  1.00  0.00     0.022 A 
BRANCH  89  93
ATOM     93  S   UNL A   1      44.885  23.621  35.958  1.00  0.00     0.124 S 
ATOM     94  O   UNL A   1      45.950  22.800  35.392  1.00  0.00    -0.237 OA
ATOM     95  O   UNL A   1      44.967  23.869  37.393  1.00  0.00    -0.237 OA
ATOM     96  O   UNL A   1      43.543  23.329  35.456  1.00  0.00    -0.744 OA
ENDBRANCH  89  93
ENDBRANCH  63  86
ENDBRANCH  37  38
ENDBRANCH  29  32
ENDBRANCH  27  28
ENDBRANCH  26  27
ENDBRANCH   1  26
TORSDOF 19
ENDMDL
MODEL 3
REMARK VINA RESULT:     -11.5      5.624     10.670
REMARK SMILES COc1c(N)cc(-c2ccccc2)cc1C(=O)NCCCCCCNC(=O)c1ccc(-c2c3nc(c(-c4cc(S(=O)(=O)[O-])ccc4F)c4ccc([nH]4)c(-c4cc(S(=O)(=O)[O-])ccc4F)c4nc(c(-c5cc(S(=O)(=O)[O-])ccc5F)c5ccc2[nH]5)C=C4)C=C3)cc1
REMARK SMILES IDX 22 1 21 2 20 3 19 4 18 5 16 6 17 7 15 9 3 10 4 11 6 12 14 13
REMARK SMILES IDX 7 14 2 15 1 16 5 17 8 20 9 21 13 22 10 23 12 24 11 25 23 26
REMARK SMILES IDX 24 27 25 28 26 29 27 31 28 32 29 33 90 34 30 35 89 36 31 37
REMARK SMILES IDX 32 38 33 39 83 40 34 41 88 42 82 43 84 44 35 45 87 46 81 47
REMARK SMILES IDX 80 48 36 50 68 51 48 52 67 53 49 54 52 55 66 56 85 57 50 58
REMARK SMILES IDX 51 59 65 61 86 62 53 63 37 64 38 65 46 66 39 67 45 68 47 69
REMARK SMILES IDX 44 70 40 71 41 72 42 73 43 74 69 75 70 76 78 77 71 78 77 79
REMARK SMILES IDX 79 80 76 81 72 82 73 83 74 84 75 85 54 86 55 87 63 88 56 89
REMARK SMILES IDX 62 90 64 91 61 92 57 93 58 94 59 95 60 96
REMARK H PARENT 18 8 5 18 5 19 25 30 84 49 52 60
REMARK Flexibility Score: inf
ROOT
ATOM      1  C   UNL A   1      34.840  22.903  23.363  1.00  0.00     0.002 C 
ENDROOT
BRANCH   1   2
ATOM      2  C   UNL A   1      33.468  23.067  22.697  1.00  0.00     0.002 C 
BRANCH   2   3
ATOM      3  C   UNL A   1      32.283  23.000  23.666  1.00  0.00     0.021 C 
BRANCH   3   4
ATOM      4  C   UNL A   1      31.182  24.020  23.356  1.00  0.00     0.116 C 
BRANCH   4   5
ATOM      5  N   UNL A   1      30.466  24.321  24.577  1.00  0.00    -0.352 N 
ATOM      6  C   UNL A   1      30.499  25.381  25.440  1.00  0.00     0.255 C 
ATOM      7  O   UNL A   1      29.889  25.219  26.504  1.00  0.00    -0.269 OA
ATOM      8  H   UNL A   1      29.825  23.621  24.839  1.00  0.00     0.163 HD
BRANCH   6   9
ATOM      9  C   UNL A   1      31.102  26.722  25.170  1.00  0.00     0.084 A 
ATOM     10  C   UNL A   1      32.333  27.243  25.592  1.00  0.00     0.154 A 
ATOM     11  C   UNL A   1      32.779  28.503  25.120  1.00  0.00     0.076 A 
ATOM     12  C   UNL A   1      31.891  29.326  24.425  1.00  0.00     0.038 A 
ATOM     13  C   UNL A   1      30.254  27.574  24.428  1.00  0.00     0.026 A 
ATOM     14  C   UNL A   1      30.609  28.886  24.083  1.00  0.00    -0.015 A 
BRANCH  10  15
ATOM     15  O   UNL A   1      33.167  26.557  26.438  1.00  0.00    -0.494 OA
ATOM     16  C   UNL A   1      33.981  25.621  25.726  1.00  0.00     0.278 C 
ENDBRANCH  10  15
BRANCH  11  17
ATOM     17  N   UNL A   1      34.037  29.004  25.462  1.00  0.00    -0.396 N 
ATOM     18  H   UNL A   1      34.828  28.748  24.934  1.00  0.00     0.156 HD
ATOM     19  H   UNL A   1      34.133  29.611  26.231  1.00  0.00     0.156 HD
ENDBRANCH  11  17
BRANCH  14  20
ATOM     20  C   UNL A   1      29.654  29.774  23.403  1.00  0.00    -0.018 A 
ATOM     21  C   UNL A   1      29.398  31.068  23.881  1.00  0.00     0.009 A 
ATOM     22  C   UNL A   1      28.957  29.338  22.264  1.00  0.00     0.009 A 
ATOM     23  C   UNL A   1      28.473  31.898  23.243  1.00  0.00     0.001 A 
ATOM     24  C   UNL A   1      28.028  30.164  21.628  1.00  0.00     0.001 A 
ATOM     25  C   UNL A   1      27.786  31.445  22.119  1.00  0.00     0.000 A 
ENDBRANCH  14  20
ENDBRANCH   6   9
ENDBRANCH   4   5
ENDBRANCH   3   4
ENDBRANCH   2   3
ENDBRANCH   1   2
BRANCH   1  26
ATOM     26  C   UNL A   1      34.851  22.028  24.621  1.00  0.00     0.021 C 
BRANCH  26  27
ATOM     27  C   UNL A   1      36.025  22.285  25.562  1.00  0.00     0.116 C 
BRANCH  27  28
ATOM     28  N   UNL A   1      36.914  21.136  25.626  1.00  0.00    -0.352 N 
ATOM     29  C   UNL A   1      38.282  21.109  25.726  1.00  0.00     0.251 C 
ATOM     30  H   UNL A   1      36.473  20.257  25.591  1.00  0.00     0.163 HD
ATOM     31  O   UNL A   1      38.888  20.064  25.486  1.00  0.00    -0.269 OA
BRANCH  29  32
ATOM     32  C   UNL A   1      39.023  22.328  26.115  1.00  0.00     0.039 A 
ATOM     33  C   UNL A   1      40.256  22.199  26.760  1.00  0.00     0.014 A 
ATOM     34  C   UNL A   1      38.484  23.596  25.878  1.00  0.00     0.014 A 
ATOM     35  C   UNL A   1      40.969  23.343  27.128  1.00  0.00     0.010 A 
ATOM     36  C   UNL A   1      39.225  24.735  26.190  1.00  0.00     0.010 A 
ATOM     37  C   UNL A   1      40.469  24.620  26.828  1.00  0.00    -0.014 A 
BRANCH  37  38
ATOM     38  C   UNL A   1      41.215  25.850  27.206  1.00  0.00     0.031 A 
ATOM     39  C   UNL A   1      40.544  26.902  28.048  1.00  0.00     0.074 A 
ATOM     40  C   UNL A   1      42.471  26.039  26.754  1.00  0.00     0.049 A 
ATOM     41  N   UNL A   1      40.983  28.080  28.409  1.00  0.00    -0.248 NA
ATOM     42  C   UNL A   1      39.186  26.595  28.521  1.00  0.00     0.031 C 
ATOM     43  C   UNL A   1      43.218  25.102  25.914  1.00  0.00     0.029 A 
ATOM     44  N   UNL A   1      43.338  27.088  26.931  1.00  0.00    -0.354 N 
ATOM     45  C   UNL A   1      39.955  28.658  29.148  1.00  0.00     0.074 A 
ATOM     46  C   UNL A   1      38.849  27.725  29.124  1.00  0.00     0.031 C 
ATOM     47  C   UNL A   1      44.436  25.610  25.664  1.00  0.00     0.029 A 
ATOM     48  C   UNL A   1      44.543  26.925  26.288  1.00  0.00     0.049 A 
ATOM     49  H   UNL A   1      43.119  27.883  27.469  1.00  0.00     0.167 HD
ATOM     50  C   UNL A   1      39.945  29.843  29.808  1.00  0.00     0.034 A 
ATOM     51  C   UNL A   1      45.607  27.748  26.201  1.00  0.00     0.034 A 
ATOM     52  C   UNL A   1      41.059  30.760  29.828  1.00  0.00     0.049 A 
ATOM     53  C   UNL A   1      45.559  29.077  26.914  1.00  0.00     0.074 A 
ATOM     54  C   UNL A   1      41.163  31.980  30.473  1.00  0.00     0.029 A 
ATOM     55  N   UNL A   1      42.267  30.555  29.172  1.00  0.00    -0.354 N 
ATOM     56  N   UNL A   1      44.586  29.598  27.628  1.00  0.00    -0.248 NA
ATOM     57  C   UNL A   1      46.756  29.923  26.822  1.00  0.00     0.031 C 
ATOM     58  C   UNL A   1      42.411  32.535  30.166  1.00  0.00     0.029 A 
ATOM     59  C   UNL A   1      43.113  31.633  29.384  1.00  0.00     0.049 A 
ATOM     60  H   UNL A   1      42.489  29.761  28.634  1.00  0.00     0.167 HD
ATOM     61  C   UNL A   1      45.073  30.814  28.101  1.00  0.00     0.074 A 
ATOM     62  C   UNL A   1      46.427  30.941  27.603  1.00  0.00     0.031 C 
ATOM     63  C   UNL A   1      44.461  31.741  28.881  1.00  0.00     0.034 A 
BRANCH  50  64
ATOM     64  C   UNL A   1      38.679  30.212  30.544  1.00  0.00     0.023 A 
ATOM     65  C   UNL A   1      37.630  30.894  29.902  1.00  0.00     0.031 A 
ATOM     66  C   UNL A   1      38.526  29.907  31.908  1.00  0.00     0.131 A 
ATOM     67  C   UNL A   1      36.515  31.319  30.638  1.00  0.00     0.055 A 
ATOM     68  C   UNL A   1      37.375  30.261  32.617  1.00  0.00     0.041 A 
ATOM     69  F   UNL A   1      39.500  29.276  32.581  1.00  0.00    -0.206 F 
ATOM     70  C   UNL A   1      36.368  30.985  31.986  1.00  0.00     0.022 A 
BRANCH  67  71
ATOM     71  S   UNL A   1      35.328  32.437  29.843  1.00  0.00     0.124 S 
ATOM     72  O   UNL A   1      34.402  32.709  30.939  1.00  0.00    -0.237 OA
ATOM     73  O   UNL A   1      36.173  33.551  29.427  1.00  0.00    -0.237 OA
ATOM     74  O   UNL A   1      34.776  31.632  28.754  1.00  0.00    -0.744 OA
ENDBRANCH  67  71
ENDBRANCH  50  64
BRANCH  51  75
ATOM     75  C   UNL A   1      46.810  27.358  25.410  1.00  0.00     0.023 A 
ATOM     76  C   UNL A   1      46.996  27.833  24.102  1.00  0.00     0.031 A 
ATOM     77  C   UNL A   1      47.757  26.455  25.924  1.00  0.00     0.131 A 
ATOM     78  C   UNL A   1      48.067  27.357  23.330  1.00  0.00     0.055 A 
ATOM     79  C   UNL A   1      48.854  26.029  25.172  1.00  0.00     0.041 A 
ATOM     80  F   UNL A   1      47.630  25.974  27.171  1.00  0.00    -0.206 F 
ATOM     81  C   UNL A   1      49.004  26.467  23.861  1.00  0.00     0.022 A 
BRANCH  78  82
ATOM     82  S   UNL A   1      48.155  27.834  21.583  1.00  0.00     0.124 S 
ATOM     83  O   UNL A   1      49.103  28.941  21.624  1.00  0.00    -0.237 OA
ATOM     84  O   UNL A   1      48.632  26.603  20.958  1.00  0.00    -0.237 OA
ATOM     85  O   UNL A   1      46.779  28.201  21.261  1.00  0.00    -0.744 OA
ENDBRANCH  78  82
ENDBRANCH  51  75
BRANCH  63  86
ATOM     86  C   UNL A   1      45.281  32.940  29.287  1.00  0.00     0.023 A 
ATOM     87  C   UNL A   1      45.323  34.109  28.507  1.00  0.00     0.031 A 
ATOM     88  C   UNL A   1      46.047  32.902  30.466  1.00  0.00     0.131 A 
ATOM     89  C   UNL A   1      46.160  35.169  28.884  1.00  0.00     0.055 A 
ATOM     90  C   UNL A   1      46.833  33.983  30.866  1.00  0.00     0.041 A 
ATOM     91  F   UNL A   1      46.043  31.810  31.247  1.00  0.00    -0.206 F 
ATOM     92  C   UNL A   1      46.904  35.119  30.066  1.00  0.00     0.022 A 
BRANCH  89  93
ATOM     93  S   UNL A   1      46.332  36.583  27.761  1.00  0.00     0.124 S 
ATOM     94  O   UNL A   1      45.082  37.302  27.983  1.00  0.00    -0.237 OA
ATOM     95  O   UNL A   1      47.538  37.235  28.261  1.00  0.00    -0.237 OA
ATOM     96  O   UNL A   1      46.465  35.962  26.444  1.00  0.00    -0.744 OA
ENDBRANCH  89  93
ENDBRANCH  63  86
ENDBRANCH  37  38
ENDBRANCH  29  32
ENDBRANCH  27  28
ENDBRANCH  26  27
ENDBRANCH   1  26
TORSDOF 19
ENDMDL
