MODEL 1
REMARK VINA RESULT:     -11.7      0.000      0.000
REMARK SMILES CCc1ccc2c(CC(=O)NCCCCCCNC(=O)c3ccc(-c4c5nc(c(-c6cc(S(=O)(=O)[O-])ccc6F)c6ccc([nH]6)c(-c6cc(S(=O)(=O)[O-])ccc6F)c6nc(c(-c7cc(S(=O)(=O)[O-])ccc7F)c7ccc4[nH]7)C=C6)C=C5)cc3)c(C(=O)c3cc(C)ccn3)[nH]c2c1
REMARK SMILES IDX 14 1 13 2 12 3 11 4 9 5 10 6 8 8 7 9 3 10 4 11 96 12 5 13
REMARK SMILES IDX 95 14 6 15 94 16 84 17 2 19 1 20 85 21 86 22 87 23 88 24
REMARK SMILES IDX 93 25 89 26 92 27 90 28 91 29 15 30 16 31 17 32 18 33 19 34
REMARK SMILES IDX 20 36 21 37 22 38 83 39 23 40 82 41 24 42 25 43 26 44 76 45
REMARK SMILES IDX 27 46 81 47 75 48 77 49 28 50 80 51 74 52 73 53 29 55 61 56
REMARK SMILES IDX 41 57 60 58 42 59 45 60 59 61 78 62 43 63 44 64 58 66 79 67
REMARK SMILES IDX 46 68 30 69 31 70 39 71 32 72 38 73 40 74 37 75 33 76 34 77
REMARK SMILES IDX 35 78 36 79 62 80 63 81 71 82 64 83 70 84 72 85 69 86 65 87
REMARK SMILES IDX 66 88 67 89 68 90 47 91 48 92 56 93 49 94 55 95 57 96 54 97
REMARK SMILES IDX 50 98 51 99 52 100 53 101
REMARK H PARENT 11 7 94 18 18 35 77 54 45 65
REMARK Flexibility Score: inf
ROOT
ATOM      1  C   UNL A   1      33.485  22.954  23.392  1.00  0.00     0.002 C 
ENDROOT
BRANCH   1   2
ATOM      2  C   UNL A   1      32.488  22.648  24.517  1.00  0.00     0.021 C 
BRANCH   2   3
ATOM      3  C   UNL A   1      31.071  23.161  24.260  1.00  0.00     0.116 C 
BRANCH   3   4
ATOM      4  N   UNL A   1      30.623  24.071  25.292  1.00  0.00    -0.356 N 
ATOM      5  C   UNL A   1      30.646  25.435  25.329  1.00  0.00     0.224 C 
ATOM      6  O   UNL A   1      30.041  25.977  26.260  1.00  0.00    -0.275 OA
ATOM      7  H   UNL A   1      30.243  23.640  26.091  1.00  0.00     0.163 HD
BRANCH   5   8
ATOM      8  C   UNL A   1      31.256  26.256  24.199  1.00  0.00     0.138 C 
BRANCH   8   9
ATOM      9  C   UNL A   1      31.585  27.689  24.529  1.00  0.00    -0.002 A 
ATOM     10  C   UNL A   1      34.330  29.562  27.161  1.00  0.00    -0.046 A 
ATOM     11  C   UNL A   1      34.419  28.168  27.066  1.00  0.00     0.004 A 
ATOM     12  C   UNL A   1      33.395  30.246  26.366  1.00  0.00     0.030 A 
ATOM     13  C   UNL A   1      33.574  27.437  26.220  1.00  0.00     0.011 A 
ATOM     14  C   UNL A   1      32.554  29.496  25.529  1.00  0.00     0.046 A 
ATOM     15  C   UNL A   1      32.613  28.112  25.441  1.00  0.00     0.004 A 
ATOM     16  N   UNL A   1      31.554  29.907  24.682  1.00  0.00    -0.352 N 
ATOM     17  C   UNL A   1      31.015  28.842  23.987  1.00  0.00     0.093 A 
ATOM     18  H   UNL A   1      31.260  30.842  24.581  1.00  0.00     0.167 HD
BRANCH  10  19
ATOM     19  C   UNL A   1      35.299  30.279  28.077  1.00  0.00     0.032 C 
ATOM     20  C   UNL A   1      36.777  30.084  27.767  1.00  0.00     0.009 C 
ENDBRANCH  10  19
BRANCH  17  21
ATOM     21  C   UNL A   1      30.027  28.951  22.920  1.00  0.00     0.227 C 
ATOM     22  O   UNL A   1      29.752  28.027  22.154  1.00  0.00    -0.285 OA
BRANCH  21  23
ATOM     23  C   UNL A   1      29.361  30.259  22.679  1.00  0.00     0.113 A 
ATOM     24  C   UNL A   1      28.993  30.618  21.385  1.00  0.00     0.036 A 
ATOM     25  N   UNL A   1      29.133  31.028  23.772  1.00  0.00    -0.253 NA
ATOM     26  C   UNL A   1      28.359  31.847  21.194  1.00  0.00    -0.047 A 
ATOM     27  C   UNL A   1      28.494  32.197  23.563  1.00  0.00     0.112 A 
ATOM     28  C   UNL A   1      27.939  32.304  19.829  1.00  0.00     0.044 C 
ATOM     29  C   UNL A   1      28.098  32.645  22.312  1.00  0.00     0.023 A 
ENDBRANCH  21  23
ENDBRANCH  17  21
ENDBRANCH   8   9
ENDBRANCH   5   8
ENDBRANCH   3   4
ENDBRANCH   2   3
ENDBRANCH   1   2
BRANCH   1  30
ATOM     30  C   UNL A   1      34.964  22.772  23.751  1.00  0.00     0.002 C 
BRANCH  30  31
ATOM     31  C   UNL A   1      35.489  23.678  24.870  1.00  0.00     0.021 C 
BRANCH  31  32
ATOM     32  C   UNL A   1      35.910  22.954  26.147  1.00  0.00     0.116 C 
BRANCH  32  33
ATOM     33  N   UNL A   1      36.722  21.781  25.868  1.00  0.00    -0.352 N 
ATOM     34  C   UNL A   1      38.088  21.642  25.851  1.00  0.00     0.251 C 
ATOM     35  H   UNL A   1      36.216  20.962  25.662  1.00  0.00     0.163 HD
ATOM     36  O   UNL A   1      38.580  20.609  25.403  1.00  0.00    -0.269 OA
BRANCH  34  37
ATOM     37  C   UNL A   1      38.966  22.728  26.344  1.00  0.00     0.039 A 
ATOM     38  C   UNL A   1      38.789  24.018  25.833  1.00  0.00     0.014 A 
ATOM     39  C   UNL A   1      39.983  22.480  27.270  1.00  0.00     0.014 A 
ATOM     40  C   UNL A   1      39.596  25.065  26.288  1.00  0.00     0.010 A 
ATOM     41  C   UNL A   1      40.748  23.536  27.766  1.00  0.00     0.010 A 
ATOM     42  C   UNL A   1      40.567  24.838  27.276  1.00  0.00    -0.014 A 
BRANCH  42  43
ATOM     43  C   UNL A   1      41.404  25.951  27.797  1.00  0.00     0.031 A 
ATOM     44  C   UNL A   1      40.815  26.968  28.737  1.00  0.00     0.074 A 
ATOM     45  C   UNL A   1      42.680  26.075  27.381  1.00  0.00     0.049 A 
ATOM     46  N   UNL A   1      41.368  28.035  29.258  1.00  0.00    -0.248 NA
ATOM     47  C   UNL A   1      39.407  26.775  29.114  1.00  0.00     0.031 C 
ATOM     48  C   UNL A   1      43.352  25.177  26.440  1.00  0.00     0.029 A 
ATOM     49  N   UNL A   1      43.638  27.007  27.690  1.00  0.00    -0.354 N 
ATOM     50  C   UNL A   1      40.373  28.649  30.012  1.00  0.00     0.074 A 
ATOM     51  C   UNL A   1      39.169  27.863  29.831  1.00  0.00     0.031 C 
ATOM     52  C   UNL A   1      44.619  25.587  26.268  1.00  0.00     0.029 A 
ATOM     53  C   UNL A   1      44.839  26.796  27.056  1.00  0.00     0.049 A 
ATOM     54  H   UNL A   1      43.480  27.757  28.309  1.00  0.00     0.167 HD
ATOM     55  C   UNL A   1      40.461  29.752  30.796  1.00  0.00     0.034 A 
ATOM     56  C   UNL A   1      45.988  27.499  27.100  1.00  0.00     0.034 A 
ATOM     57  C   UNL A   1      41.673  30.514  30.980  1.00  0.00     0.049 A 
ATOM     58  C   UNL A   1      46.062  28.723  27.977  1.00  0.00     0.074 A 
ATOM     59  C   UNL A   1      41.891  31.607  31.802  1.00  0.00     0.029 A 
ATOM     60  N   UNL A   1      42.874  30.268  30.325  1.00  0.00    -0.354 N 
ATOM     61  N   UNL A   1      45.128  29.259  28.728  1.00  0.00    -0.248 NA
ATOM     62  C   UNL A   1      47.349  29.426  28.020  1.00  0.00     0.031 C 
ATOM     63  C   UNL A   1      43.202  32.057  31.600  1.00  0.00     0.029 A 
ATOM     64  C   UNL A   1      43.826  31.205  30.702  1.00  0.00     0.049 A 
ATOM     65  H   UNL A   1      43.028  29.535  29.687  1.00  0.00     0.167 HD
ATOM     66  C   UNL A   1      45.728  30.347  29.357  1.00  0.00     0.074 A 
ATOM     67  C   UNL A   1      47.104  30.380  28.907  1.00  0.00     0.031 C 
ATOM     68  C   UNL A   1      45.191  31.235  30.232  1.00  0.00     0.034 A 
BRANCH  55  69
ATOM     69  C   UNL A   1      39.197  30.214  31.487  1.00  0.00     0.023 A 
ATOM     70  C   UNL A   1      38.338  31.160  30.902  1.00  0.00     0.031 A 
ATOM     71  C   UNL A   1      38.868  29.729  32.765  1.00  0.00     0.131 A 
ATOM     72  C   UNL A   1      37.242  31.654  31.626  1.00  0.00     0.055 A 
ATOM     73  C   UNL A   1      37.728  30.163  33.446  1.00  0.00     0.041 A 
ATOM     74  F   UNL A   1      39.659  28.839  33.385  1.00  0.00    -0.206 F 
ATOM     75  C   UNL A   1      36.916  31.144  32.884  1.00  0.00     0.022 A 
BRANCH  72  76
ATOM     76  S   UNL A   1      36.339  33.081  30.963  1.00  0.00     0.124 S 
ATOM     77  O   UNL A   1      37.117  33.390  29.765  1.00  0.00    -0.237 OA
ATOM     78  O   UNL A   1      35.006  32.535  30.737  1.00  0.00    -0.237 OA
ATOM     79  O   UNL A   1      36.436  34.074  32.032  1.00  0.00    -0.744 OA
ENDBRANCH  72  76
ENDBRANCH  55  69
BRANCH  56  80
ATOM     80  C   UNL A   1      47.167  27.069  26.299  1.00  0.00     0.023 A 
ATOM     81  C   UNL A   1      47.346  27.520  24.981  1.00  0.00     0.031 A 
ATOM     82  C   UNL A   1      48.113  26.171  26.825  1.00  0.00     0.131 A 
ATOM     83  C   UNL A   1      48.419  27.037  24.218  1.00  0.00     0.055 A 
ATOM     84  C   UNL A   1      49.205  25.729  26.076  1.00  0.00     0.041 A 
ATOM     85  F   UNL A   1      47.991  25.716  28.082  1.00  0.00    -0.206 F 
ATOM     86  C   UNL A   1      49.356  26.153  24.759  1.00  0.00     0.022 A 
BRANCH  83  87
ATOM     87  S   UNL A   1      48.533  27.527  22.474  1.00  0.00     0.124 S 
ATOM     88  O   UNL A   1      48.578  26.231  21.805  1.00  0.00    -0.237 OA
ATOM     89  O   UNL A   1      47.308  28.298  22.297  1.00  0.00    -0.237 OA
ATOM     90  O   UNL A   1      49.770  28.303  22.419  1.00  0.00    -0.744 OA
ENDBRANCH  83  87
ENDBRANCH  56  80
BRANCH  68  91
ATOM     91  C   UNL A   1      46.119  32.289  30.785  1.00  0.00     0.023 A 
ATOM     92  C   UNL A   1      46.297  33.527  30.143  1.00  0.00     0.031 A 
ATOM     93  C   UNL A   1      46.861  32.035  31.952  1.00  0.00     0.131 A 
ATOM     94  C   UNL A   1      47.240  34.441  30.637  1.00  0.00     0.055 A 
ATOM     95  C   UNL A   1      47.756  32.972  32.471  1.00  0.00     0.041 A 
ATOM     96  F   UNL A   1      46.732  30.869  32.603  1.00  0.00    -0.206 F 
ATOM     97  C   UNL A   1      47.961  34.177  31.804  1.00  0.00     0.022 A 
BRANCH  94  98
ATOM     98  S   UNL A   1      47.587  35.940  29.674  1.00  0.00     0.124 S 
ATOM     99  O   UNL A   1      47.278  36.996  30.635  1.00  0.00    -0.237 OA
ATOM    100  O   UNL A   1      48.997  35.777  29.339  1.00  0.00    -0.237 OA
ATOM    101  O   UNL A   1      46.665  35.842  28.544  1.00  0.00    -0.744 OA
ENDBRANCH  94  98
ENDBRANCH  68  91
ENDBRANCH  42  43
ENDBRANCH  34  37
ENDBRANCH  32  33
ENDBRANCH  31  32
ENDBRANCH  30  31
ENDBRANCH   1  30
TORSDOF 20
ENDMDL
MODEL 2
REMARK VINA RESULT:     -11.7      2.820      8.698
REMARK SMILES CCc1ccc2c(CC(=O)NCCCCCCNC(=O)c3ccc(-c4c5nc(c(-c6cc(S(=O)(=O)[O-])ccc6F)c6ccc([nH]6)c(-c6cc(S(=O)(=O)[O-])ccc6F)c6nc(c(-c7cc(S(=O)(=O)[O-])ccc7F)c7ccc4[nH]7)C=C6)C=C5)cc3)c(C(=O)c3cc(C)ccn3)[nH]c2c1
REMARK SMILES IDX 14 1 13 2 12 3 11 4 9 5 10 6 8 8 7 9 3 10 4 11 96 12 5 13
REMARK SMILES IDX 95 14 6 15 94 16 84 17 2 19 1 20 85 21 86 22 87 23 88 24
REMARK SMILES IDX 93 25 89 26 92 27 90 28 91 29 15 30 16 31 17 32 18 33 19 34
REMARK SMILES IDX 20 36 21 37 22 38 83 39 23 40 82 41 24 42 25 43 26 44 76 45
REMARK SMILES IDX 27 46 81 47 75 48 77 49 28 50 80 51 74 52 73 53 29 55 61 56
REMARK SMILES IDX 41 57 60 58 42 59 45 60 59 61 78 62 43 63 44 64 58 66 79 67
REMARK SMILES IDX 46 68 30 69 31 70 39 71 32 72 38 73 40 74 37 75 33 76 34 77
REMARK SMILES IDX 35 78 36 79 62 80 63 81 71 82 64 83 70 84 72 85 69 86 65 87
REMARK SMILES IDX 66 88 67 89 68 90 47 91 48 92 56 93 49 94 55 95 57 96 54 97
REMARK SMILES IDX 50 98 51 99 52 100 53 101
REMARK H PARENT 11 7 94 18 18 35 77 54 45 65
REMARK Flexibility Score: inf
ROOT
ATOM      1  C   UNL A   1      40.006  22.356  26.943  1.00  0.00     0.002 C 
ENDROOT
BRANCH   1   2
ATOM      2  C   UNL A   1      39.045  23.525  26.693  1.00  0.00     0.021 C 
BRANCH   2   3
ATOM      3  C   UNL A   1      37.857  23.181  25.794  1.00  0.00     0.116 C 
BRANCH   3   4
ATOM      4  N   UNL A   1      36.599  23.624  26.357  1.00  0.00    -0.356 N 
ATOM      5  C   UNL A   1      35.440  23.987  25.734  1.00  0.00     0.224 C 
ATOM      6  O   UNL A   1      34.452  24.161  26.456  1.00  0.00    -0.275 OA
ATOM      7  H   UNL A   1      36.576  23.670  27.340  1.00  0.00     0.163 HD
BRANCH   5   8
ATOM      8  C   UNL A   1      35.326  24.030  24.215  1.00  0.00     0.138 C 
BRANCH   8   9
ATOM      9  C   UNL A   1      34.191  23.239  23.618  1.00  0.00    -0.002 A 
ATOM     10  C   UNL A   1      32.848  19.237  24.000  1.00  0.00    -0.046 A 
ATOM     11  C   UNL A   1      33.905  19.617  24.838  1.00  0.00     0.004 A 
ATOM     12  C   UNL A   1      32.278  20.190  23.140  1.00  0.00     0.030 A 
ATOM     13  C   UNL A   1      34.428  20.917  24.813  1.00  0.00     0.011 A 
ATOM     14  C   UNL A   1      32.819  21.485  23.125  1.00  0.00     0.046 A 
ATOM     15  C   UNL A   1      33.881  21.871  23.931  1.00  0.00     0.004 A 
ATOM     16  N   UNL A   1      32.469  22.581  22.374  1.00  0.00    -0.352 N 
ATOM     17  C   UNL A   1      33.219  23.687  22.721  1.00  0.00     0.093 A 
ATOM     18  H   UNL A   1      31.773  22.578  21.677  1.00  0.00     0.167 HD
BRANCH  10  19
ATOM     19  C   UNL A   1      32.324  17.821  24.110  1.00  0.00     0.032 C 
ATOM     20  C   UNL A   1      33.331  16.714  23.825  1.00  0.00     0.009 C 
ENDBRANCH  10  19
BRANCH  17  21
ATOM     21  C   UNL A   1      33.012  25.036  22.206  1.00  0.00     0.227 C 
ATOM     22  O   UNL A   1      33.614  25.490  21.233  1.00  0.00    -0.285 OA
BRANCH  21  23
ATOM     23  C   UNL A   1      32.086  25.952  22.925  1.00  0.00     0.113 A 
ATOM     24  C   UNL A   1      32.151  26.049  24.312  1.00  0.00     0.036 A 
ATOM     25  N   UNL A   1      31.228  26.665  22.155  1.00  0.00    -0.253 NA
ATOM     26  C   UNL A   1      31.276  26.927  24.956  1.00  0.00    -0.047 A 
ATOM     27  C   UNL A   1      30.414  27.526  22.799  1.00  0.00     0.112 A 
ATOM     28  C   UNL A   1      31.285  27.081  26.447  1.00  0.00     0.044 C 
ATOM     29  C   UNL A   1      30.398  27.686  24.176  1.00  0.00     0.023 A 
ENDBRANCH  21  23
ENDBRANCH  17  21
ENDBRANCH   8   9
ENDBRANCH   5   8
ENDBRANCH   3   4
ENDBRANCH   2   3
ENDBRANCH   1   2
BRANCH   1  30
ATOM     30  C   UNL A   1      40.164  21.368  25.782  1.00  0.00     0.002 C 
BRANCH  30  31
ATOM     31  C   UNL A   1      40.346  19.900  26.182  1.00  0.00     0.021 C 
BRANCH  31  32
ATOM     32  C   UNL A   1      41.702  19.560  26.797  1.00  0.00     0.116 C 
BRANCH  32  33
ATOM     33  N   UNL A   1      42.699  19.251  25.786  1.00  0.00    -0.352 N 
ATOM     34  C   UNL A   1      43.569  20.084  25.127  1.00  0.00     0.251 C 
ATOM     35  H   UNL A   1      42.762  18.300  25.538  1.00  0.00     0.163 HD
ATOM     36  O   UNL A   1      44.203  19.652  24.166  1.00  0.00    -0.269 OA
BRANCH  34  37
ATOM     37  C   UNL A   1      43.731  21.495  25.547  1.00  0.00     0.039 A 
ATOM     38  C   UNL A   1      44.053  21.765  26.881  1.00  0.00     0.014 A 
ATOM     39  C   UNL A   1      43.530  22.550  24.653  1.00  0.00     0.014 A 
ATOM     40  C   UNL A   1      44.222  23.087  27.304  1.00  0.00     0.010 A 
ATOM     41  C   UNL A   1      43.757  23.865  25.061  1.00  0.00     0.010 A 
ATOM     42  C   UNL A   1      44.100  24.147  26.392  1.00  0.00    -0.014 A 
BRANCH  42  43
ATOM     43  C   UNL A   1      44.318  25.554  26.821  1.00  0.00     0.031 A 
ATOM     44  C   UNL A   1      45.686  26.173  26.728  1.00  0.00     0.074 A 
ATOM     45  C   UNL A   1      43.293  26.257  27.344  1.00  0.00     0.049 A 
ATOM     46  N   UNL A   1      46.085  27.364  27.096  1.00  0.00    -0.248 NA
ATOM     47  C   UNL A   1      46.753  25.326  26.175  1.00  0.00     0.031 C 
ATOM     48  C   UNL A   1      41.930  25.753  27.525  1.00  0.00     0.029 A 
ATOM     49  N   UNL A   1      43.239  27.541  27.824  1.00  0.00    -0.354 N 
ATOM     50  C   UNL A   1      47.451  27.405  26.834  1.00  0.00     0.074 A 
ATOM     51  C   UNL A   1      47.818  26.098  26.330  1.00  0.00     0.031 C 
ATOM     52  C   UNL A   1      41.168  26.725  28.053  1.00  0.00     0.029 A 
ATOM     53  C   UNL A   1      41.995  27.907  28.283  1.00  0.00     0.049 A 
ATOM     54  H   UNL A   1      44.016  28.144  27.839  1.00  0.00     0.167 HD
ATOM     55  C   UNL A   1      48.313  28.442  26.983  1.00  0.00     0.034 A 
ATOM     56  C   UNL A   1      41.568  29.062  28.830  1.00  0.00     0.034 A 
ATOM     57  C   UNL A   1      47.928  29.745  27.471  1.00  0.00     0.049 A 
ATOM     58  C   UNL A   1      42.544  30.199  28.987  1.00  0.00     0.074 A 
ATOM     59  C   UNL A   1      48.704  30.885  27.599  1.00  0.00     0.029 A 
ATOM     60  N   UNL A   1      46.657  30.082  27.922  1.00  0.00    -0.354 N 
ATOM     61  N   UNL A   1      43.821  30.241  28.683  1.00  0.00    -0.248 NA
ATOM     62  C   UNL A   1      42.016  31.448  29.549  1.00  0.00     0.031 C 
ATOM     63  C   UNL A   1      47.921  31.890  28.180  1.00  0.00     0.029 A 
ATOM     64  C   UNL A   1      46.636  31.400  28.354  1.00  0.00     0.049 A 
ATOM     65  H   UNL A   1      45.884  29.474  27.932  1.00  0.00     0.167 HD
ATOM     66  C   UNL A   1      44.240  31.533  28.990  1.00  0.00     0.074 A 
ATOM     67  C   UNL A   1      43.078  32.239  29.489  1.00  0.00     0.031 C 
ATOM     68  C   UNL A   1      45.473  32.087  28.865  1.00  0.00     0.034 A 
BRANCH  55  69
ATOM     69  C   UNL A   1      49.764  28.191  26.641  1.00  0.00     0.023 A 
ATOM     70  C   UNL A   1      50.260  28.371  25.338  1.00  0.00     0.031 A 
ATOM     71  C   UNL A   1      50.657  27.727  27.624  1.00  0.00     0.131 A 
ATOM     72  C   UNL A   1      51.581  28.010  25.033  1.00  0.00     0.055 A 
ATOM     73  C   UNL A   1      51.994  27.450  27.333  1.00  0.00     0.041 A 
ATOM     74  F   UNL A   1      50.240  27.517  28.883  1.00  0.00    -0.206 F 
ATOM     75  C   UNL A   1      52.460  27.574  26.026  1.00  0.00     0.022 A 
BRANCH  72  76
ATOM     76  S   UNL A   1      52.088  27.972  23.292  1.00  0.00     0.124 S 
ATOM     77  O   UNL A   1      53.456  27.469  23.396  1.00  0.00    -0.237 OA
ATOM     78  O   UNL A   1      51.116  27.064  22.698  1.00  0.00    -0.237 OA
ATOM     79  O   UNL A   1      51.978  29.368  22.873  1.00  0.00    -0.744 OA
ENDBRANCH  72  76
ENDBRANCH  55  69
BRANCH  56  80
ATOM     80  C   UNL A   1      40.152  29.213  29.266  1.00  0.00     0.023 A 
ATOM     81  C   UNL A   1      39.798  29.088  30.619  1.00  0.00     0.031 A 
ATOM     82  C   UNL A   1      39.127  29.445  28.333  1.00  0.00     0.131 A 
ATOM     83  C   UNL A   1      38.449  29.152  30.997  1.00  0.00     0.055 A 
ATOM     84  C   UNL A   1      37.790  29.554  28.720  1.00  0.00     0.041 A 
ATOM     85  F   UNL A   1      39.414  29.579  27.028  1.00  0.00    -0.206 F 
ATOM     86  C   UNL A   1      37.444  29.394  30.058  1.00  0.00     0.022 A 
BRANCH  83  87
ATOM     87  S   UNL A   1      38.018  28.839  32.731  1.00  0.00     0.124 S 
ATOM     88  O   UNL A   1      36.709  29.475  32.831  1.00  0.00    -0.237 OA
ATOM     89  O   UNL A   1      38.030  27.381  32.786  1.00  0.00    -0.237 OA
ATOM     90  O   UNL A   1      39.092  29.497  33.472  1.00  0.00    -0.744 OA
ENDBRANCH  83  87
ENDBRANCH  56  80
BRANCH  68  91
ATOM     91  C   UNL A   1      45.604  33.543  29.240  1.00  0.00     0.023 A 
ATOM     92  C   UNL A   1      45.286  34.571  28.334  1.00  0.00     0.031 A 
ATOM     93  C   UNL A   1      46.088  33.905  30.509  1.00  0.00     0.131 A 
ATOM     94  C   UNL A   1      45.512  35.909  28.688  1.00  0.00     0.055 A 
ATOM     95  C   UNL A   1      46.256  35.241  30.876  1.00  0.00     0.041 A 
ATOM     96  F   UNL A   1      46.409  32.965  31.412  1.00  0.00    -0.206 F 
ATOM     97  C   UNL A   1      45.983  36.251  29.958  1.00  0.00     0.022 A 
BRANCH  94  98
ATOM     98  S   UNL A   1      45.279  37.194  27.429  1.00  0.00     0.124 S 
ATOM     99  O   UNL A   1      45.392  38.417  28.218  1.00  0.00    -0.237 OA
ATOM    100  O   UNL A   1      46.376  36.929  26.505  1.00  0.00    -0.237 OA
ATOM    101  O   UNL A   1      43.944  36.919  26.901  1.00  0.00    -0.744 OA
ENDBRANCH  94  98
ENDBRANCH  68  91
ENDBRANCH  42  43
ENDBRANCH  34  37
ENDBRANCH  32  33
ENDBRANCH  31  32
ENDBRANCH  30  31
ENDBRANCH   1  30
TORSDOF 20
ENDMDL
MODEL 3
REMARK VINA RESULT:     -11.6      4.545      7.642
REMARK SMILES CCc1ccc2c(CC(=O)NCCCCCCNC(=O)c3ccc(-c4c5nc(c(-c6cc(S(=O)(=O)[O-])ccc6F)c6ccc([nH]6)c(-c6cc(S(=O)(=O)[O-])ccc6F)c6nc(c(-c7cc(S(=O)(=O)[O-])ccc7F)c7ccc4[nH]7)C=C6)C=C5)cc3)c(C(=O)c3cc(C)ccn3)[nH]c2c1
REMARK SMILES IDX 14 1 13 2 12 3 11 4 9 5 10 6 8 8 7 9 3 10 4 11 96 12 5 13
REMARK SMILES IDX 95 14 6 15 94 16 84 17 2 19 1 20 85 21 86 22 87 23 88 24
REMARK SMILES IDX 93 25 89 26 92 27 90 28 91 29 15 30 16 31 17 32 18 33 19 34
REMARK SMILES IDX 20 36 21 37 22 38 83 39 23 40 82 41 24 42 25 43 26 44 76 45
REMARK SMILES IDX 27 46 81 47 75 48 77 49 28 50 80 51 74 52 73 53 29 55 61 56
REMARK SMILES IDX 41 57 60 58 42 59 45 60 59 61 78 62 43 63 44 64 58 66 79 67
REMARK SMILES IDX 46 68 30 69 31 70 39 71 32 72 38 73 40 74 37 75 33 76 34 77
REMARK SMILES IDX 35 78 36 79 62 80 63 81 71 82 64 83 70 84 72 85 69 86 65 87
REMARK SMILES IDX 66 88 67 89 68 90 47 91 48 92 56 93 49 94 55 95 57 96 54 97
REMARK SMILES IDX 50 98 51 99 52 100 53 101
REMARK H PARENT 11 7 94 18 18 35 77 54 45 65
REMARK Flexibility Score: inf
ROOT
ATOM      1  C   UNL A   1      31.084  27.586  22.861  1.00  0.00     0.002 C 
ENDROOT
BRANCH   1   2
ATOM      2  C   UNL A   1      32.306  27.026  22.122  1.00  0.00     0.021 C 
BRANCH   2   3
ATOM      3  C   UNL A   1      32.222  25.533  21.806  1.00  0.00     0.116 C 
BRANCH   3   4
ATOM      4  N   UNL A   1      33.478  24.853  22.038  1.00  0.00    -0.356 N 
ATOM      5  C   UNL A   1      33.719  23.566  22.425  1.00  0.00     0.224 C 
ATOM      6  O   UNL A   1      34.894  23.184  22.383  1.00  0.00    -0.275 OA
ATOM      7  H   UNL A   1      34.282  25.402  21.895  1.00  0.00     0.163 HD
BRANCH   5   8
ATOM      8  C   UNL A   1      32.586  22.600  22.747  1.00  0.00     0.138 C 
BRANCH   8   9
ATOM      9  C   UNL A   1      32.749  21.789  24.006  1.00  0.00    -0.002 A 
ATOM     10  C   UNL A   1      32.582  17.650  24.901  1.00  0.00    -0.046 A 
ATOM     11  C   UNL A   1      32.485  17.993  23.546  1.00  0.00     0.004 A 
ATOM     12  C   UNL A   1      32.772  18.664  25.854  1.00  0.00     0.030 A 
ATOM     13  C   UNL A   1      32.540  19.328  23.125  1.00  0.00     0.011 A 
ATOM     14  C   UNL A   1      32.818  19.995  25.413  1.00  0.00     0.046 A 
ATOM     15  C   UNL A   1      32.700  20.354  24.078  1.00  0.00     0.004 A 
ATOM     16  N   UNL A   1      32.967  21.159  26.127  1.00  0.00    -0.352 N 
ATOM     17  C   UNL A   1      33.028  22.257  25.291  1.00  0.00     0.093 A 
ATOM     18  H   UNL A   1      33.024  21.205  27.109  1.00  0.00     0.167 HD
BRANCH  10  19
ATOM     19  C   UNL A   1      32.542  16.182  25.270  1.00  0.00     0.032 C 
ATOM     20  C   UNL A   1      33.879  15.453  25.248  1.00  0.00     0.009 C 
ENDBRANCH  10  19
BRANCH  17  21
ATOM     21  C   UNL A   1      33.309  23.623  25.719  1.00  0.00     0.227 C 
ATOM     22  O   UNL A   1      34.435  24.020  26.021  1.00  0.00    -0.285 OA
BRANCH  21  23
ATOM     23  C   UNL A   1      32.181  24.579  25.878  1.00  0.00     0.113 A 
ATOM     24  C   UNL A   1      32.373  25.760  26.590  1.00  0.00     0.036 A 
ATOM     25  N   UNL A   1      31.012  24.234  25.285  1.00  0.00    -0.253 NA
ATOM     26  C   UNL A   1      31.298  26.642  26.712  1.00  0.00    -0.047 A 
ATOM     27  C   UNL A   1      29.999  25.117  25.394  1.00  0.00     0.112 A 
ATOM     28  C   UNL A   1      31.429  27.931  27.468  1.00  0.00     0.044 C 
ATOM     29  C   UNL A   1      30.091  26.313  26.089  1.00  0.00     0.023 A 
ENDBRANCH  21  23
ENDBRANCH  17  21
ENDBRANCH   8   9
ENDBRANCH   5   8
ENDBRANCH   3   4
ENDBRANCH   2   3
ENDBRANCH   1   2
BRANCH   1  30
ATOM     30  C   UNL A   1      31.330  28.860  23.677  1.00  0.00     0.002 C 
BRANCH  30  31
ATOM     31  C   UNL A   1      32.798  29.268  23.839  1.00  0.00     0.021 C 
BRANCH  31  32
ATOM     32  C   UNL A   1      33.255  29.486  25.279  1.00  0.00     0.116 C 
BRANCH  32  33
ATOM     33  N   UNL A   1      32.841  30.781  25.795  1.00  0.00    -0.352 N 
ATOM     34  C   UNL A   1      33.295  31.477  26.888  1.00  0.00     0.251 C 
ATOM     35  H   UNL A   1      32.129  31.226  25.282  1.00  0.00     0.163 HD
ATOM     36  O   UNL A   1      32.679  32.472  27.264  1.00  0.00    -0.269 OA
BRANCH  34  37
ATOM     37  C   UNL A   1      34.499  31.030  27.623  1.00  0.00     0.039 A 
ATOM     38  C   UNL A   1      35.517  31.957  27.873  1.00  0.00     0.014 A 
ATOM     39  C   UNL A   1      34.653  29.702  28.032  1.00  0.00     0.014 A 
ATOM     40  C   UNL A   1      36.661  31.565  28.574  1.00  0.00     0.010 A 
ATOM     41  C   UNL A   1      35.768  29.327  28.784  1.00  0.00     0.010 A 
ATOM     42  C   UNL A   1      36.786  30.253  29.057  1.00  0.00    -0.014 A 
BRANCH  42  43
ATOM     43  C   UNL A   1      37.980  29.836  29.839  1.00  0.00     0.031 A 
ATOM     44  C   UNL A   1      38.210  30.383  31.222  1.00  0.00     0.074 A 
ATOM     45  C   UNL A   1      38.884  29.005  29.282  1.00  0.00     0.049 A 
ATOM     46  N   UNL A   1      39.213  30.179  32.039  1.00  0.00    -0.248 NA
ATOM     47  C   UNL A   1      37.191  31.307  31.740  1.00  0.00     0.031 C 
ATOM     48  C   UNL A   1      38.793  28.442  27.934  1.00  0.00     0.029 A 
ATOM     49  N   UNL A   1      40.057  28.495  29.777  1.00  0.00    -0.354 N 
ATOM     50  C   UNL A   1      38.954  30.960  33.161  1.00  0.00     0.074 A 
ATOM     51  C   UNL A   1      37.729  31.683  32.891  1.00  0.00     0.031 C 
ATOM     52  C   UNL A   1      39.852  27.644  27.718  1.00  0.00     0.029 A 
ATOM     53  C   UNL A   1      40.715  27.669  28.896  1.00  0.00     0.049 A 
ATOM     54  H   UNL A   1      40.397  28.701  30.677  1.00  0.00     0.167 HD
ATOM     55  C   UNL A   1      39.663  31.049  34.315  1.00  0.00     0.034 A 
ATOM     56  C   UNL A   1      41.883  27.009  29.020  1.00  0.00     0.034 A 
ATOM     57  C   UNL A   1      40.873  30.307  34.575  1.00  0.00     0.049 A 
ATOM     58  C   UNL A   1      42.653  27.125  30.310  1.00  0.00     0.074 A 
ATOM     59  C   UNL A   1      41.633  30.271  35.733  1.00  0.00     0.029 A 
ATOM     60  N   UNL A   1      41.508  29.474  33.661  1.00  0.00    -0.354 N 
ATOM     61  N   UNL A   1      42.367  27.824  31.384  1.00  0.00    -0.248 NA
ATOM     62  C   UNL A   1      43.897  26.351  30.407  1.00  0.00     0.031 C 
ATOM     63  C   UNL A   1      42.755  29.467  35.499  1.00  0.00     0.029 A 
ATOM     64  C   UNL A   1      42.663  28.945  34.219  1.00  0.00     0.049 A 
ATOM     65  H   UNL A   1      41.185  29.287  32.751  1.00  0.00     0.167 HD
ATOM     66  C   UNL A   1      43.382  27.549  32.296  1.00  0.00     0.074 A 
ATOM     67  C   UNL A   1      44.277  26.610  31.650  1.00  0.00     0.031 C 
ATOM     68  C   UNL A   1      43.556  28.023  33.556  1.00  0.00     0.034 A 
BRANCH  55  69
ATOM     69  C   UNL A   1      39.155  32.010  35.366  1.00  0.00     0.023 A 
ATOM     70  C   UNL A   1      39.606  33.340  35.432  1.00  0.00     0.031 A 
ATOM     71  C   UNL A   1      38.236  31.579  36.340  1.00  0.00     0.131 A 
ATOM     72  C   UNL A   1      39.206  34.164  36.495  1.00  0.00     0.055 A 
ATOM     73  C   UNL A   1      37.776  32.431  37.346  1.00  0.00     0.041 A 
ATOM     74  F   UNL A   1      37.783  30.316  36.341  1.00  0.00    -0.206 F 
ATOM     75  C   UNL A   1      38.274  33.728  37.439  1.00  0.00     0.022 A 
BRANCH  72  76
ATOM     76  S   UNL A   1      40.038  35.762  36.713  1.00  0.00     0.124 S 
ATOM     77  O   UNL A   1      41.437  35.353  36.811  1.00  0.00    -0.237 OA
ATOM     78  O   UNL A   1      39.665  36.480  35.501  1.00  0.00    -0.237 OA
ATOM     79  O   UNL A   1      39.461  36.282  37.951  1.00  0.00    -0.744 OA
ENDBRANCH  72  76
ENDBRANCH  55  69
BRANCH  56  80
ATOM     80  C   UNL A   1      42.400  26.173  27.901  1.00  0.00     0.023 A 
ATOM     81  C   UNL A   1      41.933  24.863  27.705  1.00  0.00     0.031 A 
ATOM     82  C   UNL A   1      43.397  26.657  27.036  1.00  0.00     0.131 A 
ATOM     83  C   UNL A   1      42.493  24.066  26.696  1.00  0.00     0.055 A 
ATOM     84  C   UNL A   1      43.918  25.875  26.003  1.00  0.00     0.041 A 
ATOM     85  F   UNL A   1      43.872  27.904  27.176  1.00  0.00    -0.206 F 
ATOM     86  C   UNL A   1      43.475  24.566  25.837  1.00  0.00     0.022 A 
BRANCH  83  87
ATOM     87  S   UNL A   1      41.970  22.333  26.569  1.00  0.00     0.124 S 
ATOM     88  O   UNL A   1      42.498  21.772  27.808  1.00  0.00    -0.237 OA
ATOM     89  O   UNL A   1      40.519  22.461  26.490  1.00  0.00    -0.237 OA
ATOM     90  O   UNL A   1      42.621  21.871  25.345  1.00  0.00    -0.744 OA
ENDBRANCH  83  87
ENDBRANCH  56  80
BRANCH  68  91
ATOM     91  C   UNL A   1      44.743  27.494  34.323  1.00  0.00     0.023 A 
ATOM     92  C   UNL A   1      44.638  26.370  35.163  1.00  0.00     0.031 A 
ATOM     93  C   UNL A   1      45.986  28.144  34.239  1.00  0.00     0.131 A 
ATOM     94  C   UNL A   1      45.740  25.968  35.933  1.00  0.00     0.055 A 
ATOM     95  C   UNL A   1      47.095  27.704  34.964  1.00  0.00     0.041 A 
ATOM     96  F   UNL A   1      46.141  29.223  33.455  1.00  0.00    -0.206 F 
ATOM     97  C   UNL A   1      46.971  26.620  35.828  1.00  0.00     0.022 A 
BRANCH  94  98
ATOM     98  S   UNL A   1      45.514  24.642  37.150  1.00  0.00     0.124 S 
ATOM     99  O   UNL A   1      44.083  24.721  37.424  1.00  0.00    -0.237 OA
ATOM    100  O   UNL A   1      45.958  23.464  36.414  1.00  0.00    -0.237 OA
ATOM    101  O   UNL A   1      46.380  25.043  38.258  1.00  0.00    -0.744 OA
ENDBRANCH  94  98
ENDBRANCH  68  91
ENDBRANCH  42  43
ENDBRANCH  34  37
ENDBRANCH  32  33
ENDBRANCH  31  32
ENDBRANCH  30  31
ENDBRANCH   1  30
TORSDOF 20
ENDMDL
