MODEL 1
REMARK VINA RESULT:     -12.3      0.000      0.000
REMARK SMILES COc1cccc([C@@H]2[NH2+][C@@](C)(C(=O)NCCCCCCNC(=O)c3ccc(-c4c5nc(c(-c6cc(S(=O)(=O)[O-])ccc6F)c6ccc([nH]6)c(-c6cc(S(=O)(=O)[O-])ccc6F)c6nc(c(-c7cc(S(=O)(=O)[O-])ccc7F)c7ccc4[nH]7)C=C6)C=C5)cc3)[C@@H]3C(=O)N(c4cccc(Cl)c4)C(=O)[C@@H]32)c1O
REMARK SMILES IDX 18 1 17 2 16 3 15 4 14 5 12 6 13 7 10 9 8 10 9 11 100 12
REMARK SMILES IDX 87 15 98 16 11 17 88 18 90 19 99 20 89 21 7 22 3 23 4 24
REMARK SMILES IDX 101 25 5 26 6 27 2 28 1 29 102 30 91 32 92 33 97 34 93 35
REMARK SMILES IDX 95 36 94 37 96 38 19 39 20 40 21 41 22 42 23 44 24 45 25 46
REMARK SMILES IDX 86 47 26 48 85 49 27 50 28 51 29 52 79 53 30 54 84 55 78 56
REMARK SMILES IDX 80 57 31 58 83 59 77 60 76 61 32 63 64 64 44 65 63 66 45 67
REMARK SMILES IDX 48 68 62 69 81 70 46 71 47 72 61 74 82 75 49 76 33 77 34 78
REMARK SMILES IDX 42 79 35 80 41 81 43 82 40 83 36 84 37 85 38 86 39 87 65 88
REMARK SMILES IDX 66 89 74 90 67 91 73 92 75 93 72 94 68 95 69 96 70 97 71 98
REMARK SMILES IDX 50 99 51 100 59 101 52 102 58 103 60 104 57 105 53 106
REMARK SMILES IDX 54 107 55 108 56 109
REMARK H PARENT 14 8 9 13 9 14 102 31 21 43 80 62 48 73
REMARK Flexibility Score: inf
ROOT
ATOM      1  C   UNL A   1      37.418  21.747  24.297  1.00  0.00     0.002 C 
ENDROOT
BRANCH   1   2
ATOM      2  C   UNL A   1      35.986  22.167  24.645  1.00  0.00     0.002 C 
BRANCH   2   3
ATOM      3  C   UNL A   1      35.319  21.343  25.750  1.00  0.00     0.021 C 
BRANCH   3   4
ATOM      4  C   UNL A   1      33.809  21.542  25.850  1.00  0.00     0.116 C 
BRANCH   4   5
ATOM      5  N   UNL A   1      33.168  21.357  24.559  1.00  0.00    -0.351 N 
ATOM      6  C   UNL A   1      32.162  22.057  23.963  1.00  0.00     0.281 C 
ATOM      7  O   UNL A   1      31.732  21.605  22.896  1.00  0.00    -0.268 OA
ATOM      8  H   UNL A   1      33.519  20.606  24.029  1.00  0.00     0.163 HD
BRANCH   6   9
ATOM      9  C   UNL A   1      31.621  23.389  24.574  1.00  0.00     0.185 C 
ATOM     10  C   UNL A   1      31.311  25.134  22.926  1.00  0.00     0.232 C 
ATOM     11  N   UNL A   1      30.663  23.998  23.609  1.00  0.00    -0.326 N 
ATOM     12  C   UNL A   1      32.750  25.209  23.437  1.00  0.00     0.162 C 
ATOM     13  H   UNL A   1      30.385  23.300  22.920  1.00  0.00     0.347 HD
ATOM     14  H   UNL A   1      29.838  24.328  24.110  1.00  0.00     0.347 HD
ATOM     15  C   UNL A   1      32.788  24.379  24.702  1.00  0.00     0.169 C 
ATOM     16  C   UNL A   1      33.192  26.570  23.887  1.00  0.00     0.244 C 
ATOM     17  C   UNL A   1      30.950  23.032  25.912  1.00  0.00     0.091 C 
ATOM     18  C   UNL A   1      32.759  25.407  25.802  1.00  0.00     0.244 C 
ATOM     19  N   UNL A   1      33.065  26.639  25.257  1.00  0.00    -0.250 N 
ATOM     20  O   UNL A   1      33.602  27.426  23.114  1.00  0.00    -0.273 OA
ATOM     21  O   UNL A   1      32.552  25.136  26.979  1.00  0.00    -0.273 OA
BRANCH  10  22
ATOM     22  C   UNL A   1      30.506  26.428  23.009  1.00  0.00     0.056 A 
ATOM     23  C   UNL A   1      29.794  28.608  22.129  1.00  0.00     0.161 A 
ATOM     24  C   UNL A   1      28.820  28.675  23.127  1.00  0.00     0.050 A 
ATOM     25  C   UNL A   1      30.650  27.500  22.103  1.00  0.00     0.166 A 
ATOM     26  C   UNL A   1      28.684  27.650  24.063  1.00  0.00     0.005 A 
ATOM     27  C   UNL A   1      29.515  26.532  24.000  1.00  0.00     0.014 A 
BRANCH  23  28
ATOM     28  O   UNL A   1      29.830  29.698  21.306  1.00  0.00    -0.493 OA
ATOM     29  C   UNL A   1      28.817  30.692  21.434  1.00  0.00     0.278 C 
ENDBRANCH  23  28
BRANCH  25  30
ATOM     30  O   UNL A   1      31.685  27.426  21.215  1.00  0.00    -0.504 OA
ATOM     31  H   UNL A   1      31.718  26.730  20.588  1.00  0.00     0.293 HD
ENDBRANCH  25  30
ENDBRANCH  10  22
BRANCH  19  32
ATOM     32  C   UNL A   1      33.166  27.837  26.018  1.00  0.00     0.053 A 
ATOM     33  C   UNL A   1      34.276  28.071  26.848  1.00  0.00     0.027 A 
ATOM     34  C   UNL A   1      32.204  28.850  25.903  1.00  0.00     0.047 A 
ATOM     35  C   UNL A   1      34.450  29.304  27.485  1.00  0.00     0.004 A 
ATOM     36  C   UNL A   1      32.366  30.067  26.565  1.00  0.00     0.043 A 
ATOM     37  C   UNL A   1      33.494  30.306  27.341  1.00  0.00     0.020 A 
ATOM     38  Cl  UNL A   1      31.161  31.287  26.413  1.00  0.00    -0.084 Cl
ENDBRANCH  19  32
ENDBRANCH   6   9
ENDBRANCH   4   5
ENDBRANCH   3   4
ENDBRANCH   2   3
ENDBRANCH   1   2
BRANCH   1  39
ATOM     39  C   UNL A   1      37.915  20.487  25.010  1.00  0.00     0.021 C 
BRANCH  39  40
ATOM     40  C   UNL A   1      38.993  20.733  26.059  1.00  0.00     0.116 C 
BRANCH  40  41
ATOM     41  N   UNL A   1      39.981  19.668  26.086  1.00  0.00    -0.352 N 
ATOM     42  C   UNL A   1      41.350  19.755  26.148  1.00  0.00     0.251 C 
ATOM     43  H   UNL A   1      39.618  18.753  26.058  1.00  0.00     0.163 HD
ATOM     44  O   UNL A   1      42.033  18.753  25.960  1.00  0.00    -0.269 OA
BRANCH  42  45
ATOM     45  C   UNL A   1      41.992  21.060  26.414  1.00  0.00     0.039 A 
ATOM     46  C   UNL A   1      42.251  21.916  25.341  1.00  0.00     0.014 A 
ATOM     47  C   UNL A   1      42.335  21.441  27.715  1.00  0.00     0.014 A 
ATOM     48  C   UNL A   1      42.799  23.178  25.581  1.00  0.00     0.010 A 
ATOM     49  C   UNL A   1      42.809  22.727  27.959  1.00  0.00     0.010 A 
ATOM     50  C   UNL A   1      43.047  23.610  26.894  1.00  0.00    -0.014 A 
BRANCH  50  51
ATOM     51  C   UNL A   1      43.549  24.981  27.169  1.00  0.00     0.031 A 
ATOM     52  C   UNL A   1      42.632  26.023  27.749  1.00  0.00     0.074 A 
ATOM     53  C   UNL A   1      44.819  25.300  26.847  1.00  0.00     0.049 A 
ATOM     54  N   UNL A   1      42.869  27.285  27.998  1.00  0.00    -0.248 NA
ATOM     55  C   UNL A   1      41.261  25.597  28.066  1.00  0.00     0.031 C 
ATOM     56  C   UNL A   1      45.795  24.383  26.251  1.00  0.00     0.029 A 
ATOM     57  N   UNL A   1      45.510  26.480  26.973  1.00  0.00    -0.354 N 
ATOM     58  C   UNL A   1      41.676  27.807  28.486  1.00  0.00     0.074 A 
ATOM     59  C   UNL A   1      40.703  26.736  28.448  1.00  0.00     0.031 C 
ATOM     60  C   UNL A   1      46.964  25.024  26.098  1.00  0.00     0.029 A 
ATOM     61  C   UNL A   1      46.812  26.409  26.531  1.00  0.00     0.049 A 
ATOM     62  H   UNL A   1      45.112  27.300  27.344  1.00  0.00     0.167 HD
ATOM     63  C   UNL A   1      41.423  29.060  28.940  1.00  0.00     0.034 A 
ATOM     64  C   UNL A   1      47.771  27.353  26.471  1.00  0.00     0.034 A 
ATOM     65  C   UNL A   1      42.410  30.112  28.985  1.00  0.00     0.049 A 
ATOM     66  C   UNL A   1      47.458  28.744  26.959  1.00  0.00     0.074 A 
ATOM     67  C   UNL A   1      42.271  31.397  29.481  1.00  0.00     0.029 A 
ATOM     68  N   UNL A   1      43.711  30.009  28.511  1.00  0.00    -0.354 N 
ATOM     69  N   UNL A   1      46.333  29.214  27.447  1.00  0.00    -0.248 NA
ATOM     70  C   UNL A   1      48.544  29.729  26.892  1.00  0.00     0.031 C 
ATOM     71  C   UNL A   1      43.458  32.093  29.233  1.00  0.00     0.029 A 
ATOM     72  C   UNL A   1      44.373  31.218  28.669  1.00  0.00     0.049 A 
ATOM     73  H   UNL A   1      44.107  29.197  28.121  1.00  0.00     0.167 HD
ATOM     74  C   UNL A   1      46.588  30.542  27.776  1.00  0.00     0.074 A 
ATOM     75  C   UNL A   1      47.974  30.793  27.440  1.00  0.00     0.031 C 
ATOM     76  C   UNL A   1      45.751  31.466  28.314  1.00  0.00     0.034 A 
BRANCH  63  77
ATOM     77  C   UNL A   1      40.016  29.371  29.393  1.00  0.00     0.023 A 
ATOM     78  C   UNL A   1      39.676  29.459  30.755  1.00  0.00     0.031 A 
ATOM     79  C   UNL A   1      39.000  29.592  28.446  1.00  0.00     0.131 A 
ATOM     80  C   UNL A   1      38.345  29.702  31.130  1.00  0.00     0.055 A 
ATOM     81  C   UNL A   1      37.695  29.911  28.824  1.00  0.00     0.041 A 
ATOM     82  F   UNL A   1      39.260  29.498  27.132  1.00  0.00    -0.206 F 
ATOM     83  C   UNL A   1      37.359  29.956  30.174  1.00  0.00     0.022 A 
BRANCH  80  84
ATOM     84  S   UNL A   1      37.896  29.561  32.881  1.00  0.00     0.124 S 
ATOM     85  O   UNL A   1      36.899  30.620  33.015  1.00  0.00    -0.237 OA
ATOM     86  O   UNL A   1      37.394  28.195  32.970  1.00  0.00    -0.237 OA
ATOM     87  O   UNL A   1      39.156  29.809  33.579  1.00  0.00    -0.744 OA
ENDBRANCH  80  84
ENDBRANCH  63  77
BRANCH  64  88
ATOM     88  C   UNL A   1      49.118  27.020  25.925  1.00  0.00     0.023 A 
ATOM     89  C   UNL A   1      49.504  27.439  24.642  1.00  0.00     0.031 A 
ATOM     90  C   UNL A   1      50.036  26.262  26.675  1.00  0.00     0.131 A 
ATOM     91  C   UNL A   1      50.759  27.071  24.134  1.00  0.00     0.055 A 
ATOM     92  C   UNL A   1      51.303  25.943  26.186  1.00  0.00     0.041 A 
ATOM     93  F   UNL A   1      49.718  25.840  27.910  1.00  0.00    -0.206 F 
ATOM     94  C   UNL A   1      51.667  26.340  24.904  1.00  0.00     0.022 A 
BRANCH  91  95
ATOM     95  S   UNL A   1      51.169  27.510  22.422  1.00  0.00     0.124 S 
ATOM     96  O   UNL A   1      50.218  26.699  21.673  1.00  0.00    -0.237 OA
ATOM     97  O   UNL A   1      50.933  28.950  22.414  1.00  0.00    -0.237 OA
ATOM     98  O   UNL A   1      52.569  27.111  22.295  1.00  0.00    -0.744 OA
ENDBRANCH  91  95
ENDBRANCH  64  88
BRANCH  76  99
ATOM     99  C   UNL A   1      46.329  32.829  28.614  1.00  0.00     0.023 A 
ATOM    100  C   UNL A   1      46.249  33.889  27.694  1.00  0.00     0.031 A 
ATOM    101  C   UNL A   1      46.971  33.069  29.843  1.00  0.00     0.131 A 
ATOM    102  C   UNL A   1      46.851  35.121  27.993  1.00  0.00     0.055 A 
ATOM    103  C   UNL A   1      47.507  34.317  30.162  1.00  0.00     0.041 A 
ATOM    104  F   UNL A   1      47.080  32.093  30.758  1.00  0.00    -0.206 F 
ATOM    105  C   UNL A   1      47.462  35.348  29.229  1.00  0.00     0.022 A 
BRANCH 102 106
ATOM    106  S   UNL A   1      46.915  36.394  26.703  1.00  0.00     0.124 S 
ATOM    107  O   UNL A   1      46.655  35.615  25.496  1.00  0.00    -0.237 OA
ATOM    108  O   UNL A   1      45.854  37.309  27.113  1.00  0.00    -0.237 OA
ATOM    109  O   UNL A   1      48.270  36.929  26.815  1.00  0.00    -0.744 OA
ENDBRANCH 102 106
ENDBRANCH  76  99
ENDBRANCH  50  51
ENDBRANCH  42  45
ENDBRANCH  40  41
ENDBRANCH  39  40
ENDBRANCH   1  39
TORSDOF 20
ENDMDL
MODEL 2
REMARK VINA RESULT:     -11.9      1.652      2.892
REMARK SMILES COc1cccc([C@@H]2[NH2+][C@@](C)(C(=O)NCCCCCCNC(=O)c3ccc(-c4c5nc(c(-c6cc(S(=O)(=O)[O-])ccc6F)c6ccc([nH]6)c(-c6cc(S(=O)(=O)[O-])ccc6F)c6nc(c(-c7cc(S(=O)(=O)[O-])ccc7F)c7ccc4[nH]7)C=C6)C=C5)cc3)[C@@H]3C(=O)N(c4cccc(Cl)c4)C(=O)[C@@H]32)c1O
REMARK SMILES IDX 18 1 17 2 16 3 15 4 14 5 12 6 13 7 10 9 8 10 9 11 100 12
REMARK SMILES IDX 87 15 98 16 11 17 88 18 90 19 99 20 89 21 7 22 3 23 4 24
REMARK SMILES IDX 101 25 5 26 6 27 2 28 1 29 102 30 91 32 92 33 97 34 93 35
REMARK SMILES IDX 95 36 94 37 96 38 19 39 20 40 21 41 22 42 23 44 24 45 25 46
REMARK SMILES IDX 86 47 26 48 85 49 27 50 28 51 29 52 79 53 30 54 84 55 78 56
REMARK SMILES IDX 80 57 31 58 83 59 77 60 76 61 32 63 64 64 44 65 63 66 45 67
REMARK SMILES IDX 48 68 62 69 81 70 46 71 47 72 61 74 82 75 49 76 33 77 34 78
REMARK SMILES IDX 42 79 35 80 41 81 43 82 40 83 36 84 37 85 38 86 39 87 65 88
REMARK SMILES IDX 66 89 74 90 67 91 73 92 75 93 72 94 68 95 69 96 70 97 71 98
REMARK SMILES IDX 50 99 51 100 59 101 52 102 58 103 60 104 57 105 53 106
REMARK SMILES IDX 54 107 55 108 56 109
REMARK H PARENT 14 8 9 13 9 14 102 31 21 43 80 62 48 73
REMARK Flexibility Score: inf
ROOT
ATOM      1  C   UNL A   1      37.454  19.067  25.001  1.00  0.00     0.002 C 
ENDROOT
BRANCH   1   2
ATOM      2  C   UNL A   1      36.138  19.816  24.770  1.00  0.00     0.002 C 
BRANCH   2   3
ATOM      3  C   UNL A   1      36.172  21.308  25.114  1.00  0.00     0.021 C 
BRANCH   3   4
ATOM      4  C   UNL A   1      35.132  21.732  26.148  1.00  0.00     0.116 C 
BRANCH   4   5
ATOM      5  N   UNL A   1      33.870  21.044  25.936  1.00  0.00    -0.351 N 
ATOM      6  C   UNL A   1      32.706  21.483  25.377  1.00  0.00     0.281 C 
ATOM      7  O   UNL A   1      31.743  20.710  25.427  1.00  0.00    -0.268 OA
ATOM      8  H   UNL A   1      33.853  20.110  26.244  1.00  0.00     0.163 HD
BRANCH   6   9
ATOM      9  C   UNL A   1      32.616  22.870  24.664  1.00  0.00     0.185 C 
ATOM     10  C   UNL A   1      32.928  24.737  26.173  1.00  0.00     0.232 C 
ATOM     11  N   UNL A   1      33.617  23.785  25.280  1.00  0.00    -0.326 N 
ATOM     12  C   UNL A   1      31.443  24.372  26.163  1.00  0.00     0.162 C 
ATOM     13  H   UNL A   1      34.289  23.239  25.819  1.00  0.00     0.347 HD
ATOM     14  H   UNL A   1      34.106  24.299  24.547  1.00  0.00     0.347 HD
ATOM     15  C   UNL A   1      31.238  23.483  24.956  1.00  0.00     0.169 C 
ATOM     16  C   UNL A   1      30.509  25.523  25.925  1.00  0.00     0.244 C 
ATOM     17  C   UNL A   1      32.892  22.628  23.169  1.00  0.00     0.091 C 
ATOM     18  C   UNL A   1      30.616  24.404  23.939  1.00  0.00     0.244 C 
ATOM     19  N   UNL A   1      30.164  25.534  24.591  1.00  0.00    -0.250 N 
ATOM     20  O   UNL A   1      30.144  26.279  26.815  1.00  0.00    -0.273 OA
ATOM     21  O   UNL A   1      30.502  24.124  22.751  1.00  0.00    -0.273 OA
BRANCH  10  22
ATOM     22  C   UNL A   1      33.258  26.197  25.870  1.00  0.00     0.056 A 
ATOM     23  C   UNL A   1      33.868  28.017  24.339  1.00  0.00     0.161 A 
ATOM     24  C   UNL A   1      33.630  28.936  25.362  1.00  0.00     0.050 A 
ATOM     25  C   UNL A   1      33.713  26.653  24.615  1.00  0.00     0.166 A 
ATOM     26  C   UNL A   1      33.223  28.510  26.625  1.00  0.00     0.005 A 
ATOM     27  C   UNL A   1      33.030  27.152  26.876  1.00  0.00     0.014 A 
BRANCH  23  28
ATOM     28  O   UNL A   1      34.293  28.578  23.167  1.00  0.00    -0.493 OA
ATOM     29  C   UNL A   1      33.628  28.231  21.956  1.00  0.00     0.278 C 
ENDBRANCH  23  28
BRANCH  25  30
ATOM     30  O   UNL A   1      34.028  25.702  23.687  1.00  0.00    -0.504 OA
ATOM     31  H   UNL A   1      34.215  25.952  22.803  1.00  0.00     0.293 HD
ENDBRANCH  25  30
ENDBRANCH  10  22
BRANCH  19  32
ATOM     32  C   UNL A   1      29.485  26.602  23.943  1.00  0.00     0.053 A 
ATOM     33  C   UNL A   1      28.084  26.703  23.996  1.00  0.00     0.027 A 
ATOM     34  C   UNL A   1      30.195  27.626  23.300  1.00  0.00     0.047 A 
ATOM     35  C   UNL A   1      27.423  27.825  23.483  1.00  0.00     0.004 A 
ATOM     36  C   UNL A   1      29.530  28.728  22.763  1.00  0.00     0.043 A 
ATOM     37  C   UNL A   1      28.148  28.842  22.868  1.00  0.00     0.020 A 
ATOM     38  Cl  UNL A   1      30.428  29.964  21.970  1.00  0.00    -0.084 Cl
ENDBRANCH  19  32
ENDBRANCH   6   9
ENDBRANCH   4   5
ENDBRANCH   3   4
ENDBRANCH   2   3
ENDBRANCH   1   2
BRANCH   1  39
ATOM     39  C   UNL A   1      38.711  19.940  24.969  1.00  0.00     0.021 C 
BRANCH  39  40
ATOM     40  C   UNL A   1      39.515  19.944  26.264  1.00  0.00     0.116 C 
BRANCH  40  41
ATOM     41  N   UNL A   1      40.759  19.203  26.136  1.00  0.00    -0.352 N 
ATOM     42  C   UNL A   1      42.049  19.672  26.107  1.00  0.00     0.251 C 
ATOM     43  H   UNL A   1      40.663  18.226  26.061  1.00  0.00     0.163 HD
ATOM     44  O   UNL A   1      42.964  18.917  25.791  1.00  0.00    -0.269 OA
BRANCH  42  45
ATOM     45  C   UNL A   1      42.324  21.089  26.429  1.00  0.00     0.039 A 
ATOM     46  C   UNL A   1      42.650  21.431  27.743  1.00  0.00     0.014 A 
ATOM     47  C   UNL A   1      42.264  22.075  25.440  1.00  0.00     0.014 A 
ATOM     48  C   UNL A   1      42.974  22.754  28.052  1.00  0.00     0.010 A 
ATOM     49  C   UNL A   1      42.661  23.377  25.734  1.00  0.00     0.010 A 
ATOM     50  C   UNL A   1      43.020  23.731  27.043  1.00  0.00    -0.014 A 
BRANCH  50  51
ATOM     51  C   UNL A   1      43.446  25.123  27.342  1.00  0.00     0.031 A 
ATOM     52  C   UNL A   1      42.486  26.090  27.979  1.00  0.00     0.074 A 
ATOM     53  C   UNL A   1      44.683  25.529  26.990  1.00  0.00     0.049 A 
ATOM     54  N   UNL A   1      42.653  27.357  28.257  1.00  0.00    -0.248 NA
ATOM     55  C   UNL A   1      41.154  25.571  28.326  1.00  0.00     0.031 C 
ATOM     56  C   UNL A   1      45.693  24.690  26.338  1.00  0.00     0.029 A 
ATOM     57  N   UNL A   1      45.304  26.745  27.129  1.00  0.00    -0.354 N 
ATOM     58  C   UNL A   1      41.447  27.791  28.797  1.00  0.00     0.074 A 
ATOM     59  C   UNL A   1      40.541  26.663  28.758  1.00  0.00     0.031 C 
ATOM     60  C   UNL A   1      46.815  25.406  26.168  1.00  0.00     0.029 A 
ATOM     61  C   UNL A   1      46.593  26.767  26.646  1.00  0.00     0.049 A 
ATOM     62  H   UNL A   1      44.869  27.529  27.535  1.00  0.00     0.167 HD
ATOM     63  C   UNL A   1      41.132  29.013  29.293  1.00  0.00     0.034 A 
ATOM     64  C   UNL A   1      47.490  27.770  26.583  1.00  0.00     0.034 A 
ATOM     65  C   UNL A   1      42.054  30.122  29.339  1.00  0.00     0.049 A 
ATOM     66  C   UNL A   1      47.108  29.126  27.120  1.00  0.00     0.074 A 
ATOM     67  C   UNL A   1      41.854  31.383  29.876  1.00  0.00     0.029 A 
ATOM     68  N   UNL A   1      43.343  30.114  28.822  1.00  0.00    -0.354 N 
ATOM     69  N   UNL A   1      45.973  29.511  27.657  1.00  0.00    -0.248 NA
ATOM     70  C   UNL A   1      48.130  30.177  27.049  1.00  0.00     0.031 C 
ATOM     71  C   UNL A   1      42.987  32.158  29.612  1.00  0.00     0.029 A 
ATOM     72  C   UNL A   1      43.935  31.357  28.995  1.00  0.00     0.049 A 
ATOM     73  H   UNL A   1      43.775  29.338  28.397  1.00  0.00     0.167 HD
ATOM     74  C   UNL A   1      46.157  30.843  28.015  1.00  0.00     0.074 A 
ATOM     75  C   UNL A   1      47.514  31.189  27.644  1.00  0.00     0.031 C 
ATOM     76  C   UNL A   1      45.283  31.699  28.606  1.00  0.00     0.034 A 
BRANCH  63  77
ATOM     77  C   UNL A   1      39.725  29.224  29.799  1.00  0.00     0.023 A 
ATOM     78  C   UNL A   1      38.777  29.966  29.073  1.00  0.00     0.031 A 
ATOM     79  C   UNL A   1      39.323  28.665  31.026  1.00  0.00     0.131 A 
ATOM     80  C   UNL A   1      37.496  30.178  29.606  1.00  0.00     0.055 A 
ATOM     81  C   UNL A   1      38.024  28.813  31.514  1.00  0.00     0.041 A 
ATOM     82  F   UNL A   1      40.191  27.967  31.775  1.00  0.00    -0.206 F 
ATOM     83  C   UNL A   1      37.104  29.582  30.807  1.00  0.00     0.022 A 
BRANCH  80  84
ATOM     84  S   UNL A   1      36.386  31.341  28.766  1.00  0.00     0.124 S 
ATOM     85  O   UNL A   1      35.395  31.605  29.807  1.00  0.00    -0.237 OA
ATOM     86  O   UNL A   1      37.278  32.446  28.437  1.00  0.00    -0.237 OA
ATOM     87  O   UNL A   1      35.890  30.577  27.623  1.00  0.00    -0.744 OA
ENDBRANCH  80  84
ENDBRANCH  63  77
BRANCH  64  88
ATOM     88  C   UNL A   1      48.837  27.536  25.987  1.00  0.00     0.023 A 
ATOM     89  C   UNL A   1      49.058  27.702  24.611  1.00  0.00     0.031 A 
ATOM     90  C   UNL A   1      49.920  27.127  26.785  1.00  0.00     0.131 A 
ATOM     91  C   UNL A   1      50.323  27.429  24.068  1.00  0.00     0.055 A 
ATOM     92  C   UNL A   1      51.189  26.906  26.249  1.00  0.00     0.041 A 
ATOM     93  F   UNL A   1      49.762  26.957  28.108  1.00  0.00    -0.206 F 
ATOM     94  C   UNL A   1      51.394  27.047  24.881  1.00  0.00     0.022 A 
BRANCH  91  95
ATOM     95  S   UNL A   1      50.538  27.518  22.269  1.00  0.00     0.124 S 
ATOM     96  O   UNL A   1      51.828  26.862  22.092  1.00  0.00    -0.237 OA
ATOM     97  O   UNL A   1      49.372  26.784  21.788  1.00  0.00    -0.237 OA
ATOM     98  O   UNL A   1      50.523  28.953  21.996  1.00  0.00    -0.744 OA
ENDBRANCH  91  95
ENDBRANCH  64  88
BRANCH  76  99
ATOM     99  C   UNL A   1      45.786  33.086  28.926  1.00  0.00     0.023 A 
ATOM    100  C   UNL A   1      45.666  34.150  28.015  1.00  0.00     0.031 A 
ATOM    101  C   UNL A   1      46.396  33.347  30.167  1.00  0.00     0.131 A 
ATOM    102  C   UNL A   1      46.200  35.408  28.334  1.00  0.00     0.055 A 
ATOM    103  C   UNL A   1      46.863  34.617  30.507  1.00  0.00     0.041 A 
ATOM    104  F   UNL A   1      46.541  32.368  31.075  1.00  0.00    -0.206 F 
ATOM    105  C   UNL A   1      46.779  35.653  29.582  1.00  0.00     0.022 A 
BRANCH 102 106
ATOM    106  S   UNL A   1      46.218  36.695  27.057  1.00  0.00     0.124 S 
ATOM    107  O   UNL A   1      44.899  37.299  27.218  1.00  0.00    -0.237 OA
ATOM    108  O   UNL A   1      47.351  37.521  27.461  1.00  0.00    -0.237 OA
ATOM    109  O   UNL A   1      46.409  35.946  25.817  1.00  0.00    -0.744 OA
ENDBRANCH 102 106
ENDBRANCH  76  99
ENDBRANCH  50  51
ENDBRANCH  42  45
ENDBRANCH  40  41
ENDBRANCH  39  40
ENDBRANCH   1  39
TORSDOF 20
ENDMDL
MODEL 3
REMARK VINA RESULT:     -11.6      5.726     10.996
REMARK SMILES COc1cccc([C@@H]2[NH2+][C@@](C)(C(=O)NCCCCCCNC(=O)c3ccc(-c4c5nc(c(-c6cc(S(=O)(=O)[O-])ccc6F)c6ccc([nH]6)c(-c6cc(S(=O)(=O)[O-])ccc6F)c6nc(c(-c7cc(S(=O)(=O)[O-])ccc7F)c7ccc4[nH]7)C=C6)C=C5)cc3)[C@@H]3C(=O)N(c4cccc(Cl)c4)C(=O)[C@@H]32)c1O
REMARK SMILES IDX 18 1 17 2 16 3 15 4 14 5 12 6 13 7 10 9 8 10 9 11 100 12
REMARK SMILES IDX 87 15 98 16 11 17 88 18 90 19 99 20 89 21 7 22 3 23 4 24
REMARK SMILES IDX 101 25 5 26 6 27 2 28 1 29 102 30 91 32 92 33 97 34 93 35
REMARK SMILES IDX 95 36 94 37 96 38 19 39 20 40 21 41 22 42 23 44 24 45 25 46
REMARK SMILES IDX 86 47 26 48 85 49 27 50 28 51 29 52 79 53 30 54 84 55 78 56
REMARK SMILES IDX 80 57 31 58 83 59 77 60 76 61 32 63 64 64 44 65 63 66 45 67
REMARK SMILES IDX 48 68 62 69 81 70 46 71 47 72 61 74 82 75 49 76 33 77 34 78
REMARK SMILES IDX 42 79 35 80 41 81 43 82 40 83 36 84 37 85 38 86 39 87 65 88
REMARK SMILES IDX 66 89 74 90 67 91 73 92 75 93 72 94 68 95 69 96 70 97 71 98
REMARK SMILES IDX 50 99 51 100 59 101 52 102 58 103 60 104 57 105 53 106
REMARK SMILES IDX 54 107 55 108 56 109
REMARK H PARENT 14 8 9 13 9 14 102 31 21 43 80 62 48 73
REMARK Flexibility Score: inf
ROOT
ATOM      1  C   UNL A   1      51.192  28.347  25.799  1.00  0.00     0.002 C 
ENDROOT
BRANCH   1   2
ATOM      2  C   UNL A   1      50.604  27.417  24.732  1.00  0.00     0.002 C 
BRANCH   2   3
ATOM      3  C   UNL A   1      50.146  26.049  25.246  1.00  0.00     0.021 C 
BRANCH   3   4
ATOM      4  C   UNL A   1      48.630  25.882  25.303  1.00  0.00     0.116 C 
BRANCH   4   5
ATOM      5  N   UNL A   1      47.958  26.914  24.532  1.00  0.00    -0.351 N 
ATOM      6  C   UNL A   1      46.723  27.469  24.685  1.00  0.00     0.281 C 
ATOM      7  O   UNL A   1      46.359  28.259  23.807  1.00  0.00    -0.268 OA
ATOM      8  H   UNL A   1      48.481  27.271  23.779  1.00  0.00     0.163 HD
BRANCH   6   9
ATOM      9  C   UNL A   1      45.839  27.160  25.935  1.00  0.00     0.185 C 
ATOM     10  C   UNL A   1      44.425  25.218  25.644  1.00  0.00     0.232 C 
ATOM     11  N   UNL A   1      45.749  25.682  26.099  1.00  0.00    -0.326 N 
ATOM     12  C   UNL A   1      43.671  26.441  25.122  1.00  0.00     0.162 C 
ATOM     13  H   UNL A   1      46.477  25.234  25.541  1.00  0.00     0.347 HD
ATOM     14  H   UNL A   1      45.877  25.439  27.081  1.00  0.00     0.347 HD
ATOM     15  C   UNL A   1      44.409  27.648  25.659  1.00  0.00     0.169 C 
ATOM     16  C   UNL A   1      42.279  26.604  25.658  1.00  0.00     0.244 C 
ATOM     17  C   UNL A   1      46.512  27.839  27.142  1.00  0.00     0.091 C 
ATOM     18  C   UNL A   1      43.554  28.103  26.812  1.00  0.00     0.244 C 
ATOM     19  N   UNL A   1      42.317  27.501  26.703  1.00  0.00    -0.250 N 
ATOM     20  O   UNL A   1      41.312  26.019  25.188  1.00  0.00    -0.273 OA
ATOM     21  O   UNL A   1      43.923  28.919  27.649  1.00  0.00    -0.273 OA
BRANCH  10  22
ATOM     22  C   UNL A   1      43.690  24.376  26.685  1.00  0.00     0.056 A 
ATOM     23  C   UNL A   1      42.316  22.452  27.351  1.00  0.00     0.161 A 
ATOM     24  C   UNL A   1      42.558  22.764  28.690  1.00  0.00     0.050 A 
ATOM     25  C   UNL A   1      42.857  23.284  26.363  1.00  0.00     0.166 A 
ATOM     26  C   UNL A   1      43.341  23.863  29.038  1.00  0.00     0.005 A 
ATOM     27  C   UNL A   1      43.909  24.659  28.045  1.00  0.00     0.014 A 
BRANCH  23  28
ATOM     28  O   UNL A   1      41.505  21.368  27.163  1.00  0.00    -0.493 OA
ATOM     29  C   UNL A   1      40.115  21.580  26.934  1.00  0.00     0.278 C 
ENDBRANCH  23  28
BRANCH  25  30
ATOM     30  O   UNL A   1      42.572  23.091  25.041  1.00  0.00    -0.504 OA
ATOM     31  H   UNL A   1      42.597  22.227  24.677  1.00  0.00     0.293 HD
ENDBRANCH  25  30
ENDBRANCH  10  22
BRANCH  19  32
ATOM     32  C   UNL A   1      41.241  27.734  27.605  1.00  0.00     0.053 A 
ATOM     33  C   UNL A   1      41.280  27.231  28.917  1.00  0.00     0.027 A 
ATOM     34  C   UNL A   1      40.152  28.536  27.238  1.00  0.00     0.047 A 
ATOM     35  C   UNL A   1      40.295  27.577  29.849  1.00  0.00     0.004 A 
ATOM     36  C   UNL A   1      39.155  28.852  28.161  1.00  0.00     0.043 A 
ATOM     37  C   UNL A   1      39.232  28.392  29.471  1.00  0.00     0.020 A 
ATOM     38  Cl  UNL A   1      37.823  29.830  27.678  1.00  0.00    -0.084 Cl
ENDBRANCH  19  32
ENDBRANCH   6   9
ENDBRANCH   4   5
ENDBRANCH   3   4
ENDBRANCH   2   3
ENDBRANCH   1   2
BRANCH   1  39
ATOM     39  C   UNL A   1      52.708  28.540  25.727  1.00  0.00     0.021 C 
BRANCH  39  40
ATOM     40  C   UNL A   1      53.383  28.779  27.073  1.00  0.00     0.116 C 
BRANCH  40  41
ATOM     41  N   UNL A   1      53.946  27.557  27.625  1.00  0.00    -0.352 N 
ATOM     42  C   UNL A   1      53.483  26.779  28.658  1.00  0.00     0.251 C 
ATOM     43  H   UNL A   1      54.774  27.243  27.198  1.00  0.00     0.163 HD
ATOM     44  O   UNL A   1      54.197  25.894  29.119  1.00  0.00    -0.269 OA
BRANCH  42  45
ATOM     45  C   UNL A   1      52.141  27.032  29.225  1.00  0.00     0.039 A 
ATOM     46  C   UNL A   1      52.019  27.909  30.305  1.00  0.00     0.014 A 
ATOM     47  C   UNL A   1      51.008  26.409  28.693  1.00  0.00     0.014 A 
ATOM     48  C   UNL A   1      50.753  28.207  30.812  1.00  0.00     0.010 A 
ATOM     49  C   UNL A   1      49.742  26.767  29.150  1.00  0.00     0.010 A 
ATOM     50  C   UNL A   1      49.600  27.669  30.215  1.00  0.00    -0.014 A 
BRANCH  50  51
ATOM     51  C   UNL A   1      48.243  28.045  30.690  1.00  0.00     0.031 A 
ATOM     52  C   UNL A   1      47.496  27.149  31.640  1.00  0.00     0.074 A 
ATOM     53  C   UNL A   1      47.663  29.169  30.221  1.00  0.00     0.049 A 
ATOM     54  N   UNL A   1      46.283  27.275  32.113  1.00  0.00    -0.248 NA
ATOM     55  C   UNL A   1      48.195  25.938  32.098  1.00  0.00     0.031 C 
ATOM     56  C   UNL A   1      48.276  30.102  29.273  1.00  0.00     0.029 A 
ATOM     57  N   UNL A   1      46.432  29.720  30.477  1.00  0.00    -0.354 N 
ATOM     58  C   UNL A   1      46.068  26.157  32.912  1.00  0.00     0.074 A 
ATOM     59  C   UNL A   1      47.257  25.338  32.815  1.00  0.00     0.031 C 
ATOM     60  C   UNL A   1      47.435  31.125  29.056  1.00  0.00     0.029 A 
ATOM     61  C   UNL A   1      46.202  30.898  29.804  1.00  0.00     0.049 A 
ATOM     62  H   UNL A   1      45.775  29.311  31.085  1.00  0.00     0.167 HD
ATOM     63  C   UNL A   1      44.984  25.853  33.668  1.00  0.00     0.034 A 
ATOM     64  C   UNL A   1      45.119  31.699  29.780  1.00  0.00     0.034 A 
ATOM     65  C   UNL A   1      43.812  26.690  33.764  1.00  0.00     0.049 A 
ATOM     66  C   UNL A   1      43.918  31.326  30.611  1.00  0.00     0.074 A 
ATOM     67  C   UNL A   1      42.686  26.502  34.547  1.00  0.00     0.029 A 
ATOM     68  N   UNL A   1      43.607  27.864  33.053  1.00  0.00    -0.354 N 
ATOM     69  N   UNL A   1      43.742  30.281  31.385  1.00  0.00    -0.248 NA
ATOM     70  C   UNL A   1      42.773  32.245  30.567  1.00  0.00     0.031 C 
ATOM     71  C   UNL A   1      41.770  27.515  34.249  1.00  0.00     0.029 A 
ATOM     72  C   UNL A   1      42.358  28.390  33.351  1.00  0.00     0.049 A 
ATOM     73  H   UNL A   1      44.254  28.266  32.429  1.00  0.00     0.167 HD
ATOM     74  C   UNL A   1      42.477  30.434  31.946  1.00  0.00     0.074 A 
ATOM     75  C   UNL A   1      41.942  31.676  31.429  1.00  0.00     0.031 C 
ATOM     76  C   UNL A   1      41.824  29.622  32.817  1.00  0.00     0.034 A 
BRANCH  63  77
ATOM     77  C   UNL A   1      45.001  24.546  34.425  1.00  0.00     0.023 A 
ATOM     78  C   UNL A   1      45.448  24.462  35.755  1.00  0.00     0.031 A 
ATOM     79  C   UNL A   1      44.553  23.365  33.806  1.00  0.00     0.131 A 
ATOM     80  C   UNL A   1      45.492  23.218  36.402  1.00  0.00     0.055 A 
ATOM     81  C   UNL A   1      44.525  22.143  34.481  1.00  0.00     0.041 A 
ATOM     82  F   UNL A   1      44.137  23.378  32.530  1.00  0.00    -0.206 F 
ATOM     83  C   UNL A   1      45.007  22.063  35.784  1.00  0.00     0.022 A 
BRANCH  80  84
ATOM     84  S   UNL A   1      46.304  23.108  38.020  1.00  0.00     0.124 S 
ATOM     85  O   UNL A   1      46.598  21.680  38.105  1.00  0.00    -0.237 OA
ATOM     86  O   UNL A   1      47.454  23.989  37.858  1.00  0.00    -0.237 OA
ATOM     87  O   UNL A   1      45.280  23.583  38.950  1.00  0.00    -0.744 OA
ENDBRANCH  80  84
ENDBRANCH  63  77
BRANCH  64  88
ATOM     88  C   UNL A   1      45.116  32.932  28.940  1.00  0.00     0.023 A 
ATOM     89  C   UNL A   1      44.619  32.912  27.628  1.00  0.00     0.031 A 
ATOM     90  C   UNL A   1      45.624  34.146  29.436  1.00  0.00     0.131 A 
ATOM     91  C   UNL A   1      44.672  34.074  26.843  1.00  0.00     0.055 A 
ATOM     92  C   UNL A   1      45.627  35.312  28.669  1.00  0.00     0.041 A 
ATOM     93  F   UNL A   1      46.107  34.219  30.687  1.00  0.00    -0.206 F 
ATOM     94  C   UNL A   1      45.157  35.278  27.361  1.00  0.00     0.022 A 
BRANCH  91  95
ATOM     95  S   UNL A   1      44.152  33.979  25.108  1.00  0.00     0.124 S 
ATOM     96  O   UNL A   1      45.328  34.493  24.417  1.00  0.00    -0.237 OA
ATOM     97  O   UNL A   1      43.886  32.552  24.950  1.00  0.00    -0.237 OA
ATOM     98  O   UNL A   1      42.971  34.838  25.059  1.00  0.00    -0.744 OA
ENDBRANCH  91  95
ENDBRANCH  64  88
BRANCH  76  99
ATOM     99  C   UNL A   1      40.467  30.077  33.299  1.00  0.00     0.023 A 
ATOM    100  C   UNL A   1      39.336  30.057  32.465  1.00  0.00     0.031 A 
ATOM    101  C   UNL A   1      40.306  30.540  34.618  1.00  0.00     0.131 A 
ATOM    102  C   UNL A   1      38.108  30.544  32.940  1.00  0.00     0.055 A 
ATOM    103  C   UNL A   1      39.067  30.958  35.106  1.00  0.00     0.041 A 
ATOM    104  F   UNL A   1      41.352  30.585  35.459  1.00  0.00    -0.206 F 
ATOM    105  C   UNL A   1      37.962  30.975  34.261  1.00  0.00     0.022 A 
BRANCH 102 106
ATOM    106  S   UNL A   1      36.726  30.701  31.777  1.00  0.00     0.124 S 
ATOM    107  O   UNL A   1      35.721  31.379  32.590  1.00  0.00    -0.237 OA
ATOM    108  O   UNL A   1      37.312  31.490  30.698  1.00  0.00    -0.237 OA
ATOM    109  O   UNL A   1      36.410  29.316  31.430  1.00  0.00    -0.744 OA
ENDBRANCH 102 106
ENDBRANCH  76  99
ENDBRANCH  50  51
ENDBRANCH  42  45
ENDBRANCH  40  41
ENDBRANCH  39  40
ENDBRANCH   1  39
TORSDOF 20
ENDMDL
