MODEL 1
REMARK VINA RESULT:     -12.6      0.000      0.000
REMARK SMILES Cc1n[nH]c2c1[C@@]1(C(=O)N([C@@H](C)C(=O)NCCCCCCNC(=O)c3ccc(-c4c5nc(c(-c6cc(S(=O)(=O)[O-])ccc6F)c6ccc([nH]6)c(-c6cc(S(=O)(=O)[O-])ccc6F)c6nc(c(-c7cc(S(=O)(=O)[O-])ccc7F)c7ccc4[nH]7)C=C6)C=C5)cc3)c3ccccc31)C(C#N)=C(N)O2
REMARK SMILES IDX 19 1 18 2 17 3 16 4 15 5 13 6 14 7 11 9 12 10 10 11 1 12
REMARK SMILES IDX 2 13 3 14 6 15 4 16 5 17 7 18 99 20 8 21 93 22 94 23 97 24
REMARK SMILES IDX 9 25 88 26 92 27 89 28 91 29 90 30 95 31 96 32 98 33 20 36
REMARK SMILES IDX 21 37 22 38 23 39 24 41 25 42 26 43 87 44 27 45 86 46 28 47
REMARK SMILES IDX 29 48 30 49 80 50 31 51 85 52 79 53 81 54 32 55 84 56 78 57
REMARK SMILES IDX 77 58 33 60 65 61 45 62 64 63 46 64 49 65 63 66 82 67 47 68
REMARK SMILES IDX 48 69 62 71 83 72 50 73 34 74 35 75 43 76 36 77 42 78 44 79
REMARK SMILES IDX 41 80 37 81 38 82 39 83 40 84 66 85 67 86 75 87 68 88 74 89
REMARK SMILES IDX 76 90 73 91 69 92 70 93 71 94 72 95 51 96 52 97 60 98 53 99
REMARK SMILES IDX 59 100 61 101 58 102 54 103 55 104 56 105 57 106
REMARK H PARENT 15 8 4 19 98 34 98 35 22 40 81 59 49 70
REMARK Flexibility Score: inf
ROOT
ATOM      1  C   UNL A   1      35.445  22.015  24.395  1.00  0.00     0.002 C 
ENDROOT
BRANCH   1   2
ATOM      2  C   UNL A   1      34.751  20.862  25.124  1.00  0.00     0.002 C 
BRANCH   2   3
ATOM      3  C   UNL A   1      33.945  21.291  26.347  1.00  0.00     0.021 C 
BRANCH   3   4
ATOM      4  C   UNL A   1      33.639  22.791  26.437  1.00  0.00     0.116 C 
BRANCH   4   5
ATOM      5  N   UNL A   1      32.361  23.024  27.094  1.00  0.00    -0.354 N 
ATOM      6  C   UNL A   1      31.167  23.507  26.660  1.00  0.00     0.242 C 
ATOM      7  O   UNL A   1      30.308  23.695  27.534  1.00  0.00    -0.273 OA
ATOM      8  H   UNL A   1      32.361  22.782  28.048  1.00  0.00     0.163 HD
BRANCH   6   9
ATOM      9  C   UNL A   1      30.830  23.882  25.195  1.00  0.00     0.176 C 
ATOM     10  C   UNL A   1      31.309  22.907  24.126  1.00  0.00     0.042 C 
BRANCH   9  11
ATOM     11  N   UNL A   1      31.070  25.291  24.888  1.00  0.00    -0.298 N 
ATOM     12  C   UNL A   1      32.927  25.951  21.645  1.00  0.00     0.069 C 
ATOM     13  C   UNL A   1      33.361  27.237  22.246  1.00  0.00     0.068 A 
ATOM     14  N   UNL A   1      34.279  27.990  21.616  1.00  0.00    -0.177 NA
ATOM     15  C   UNL A   1      32.999  27.805  23.495  1.00  0.00     0.063 A 
ATOM     16  N   UNL A   1      34.582  28.957  22.502  1.00  0.00    -0.246 N 
ATOM     17  C   UNL A   1      33.840  28.878  23.636  1.00  0.00     0.222 A 
ATOM     18  C   UNL A   1      32.127  27.400  24.637  1.00  0.00     0.149 C 
ATOM     19  H   UNL A   1      35.267  29.646  22.345  1.00  0.00     0.193 HD
ATOM     20  O   UNL A   1      34.004  29.654  24.698  1.00  0.00    -0.422 OA
ATOM     21  C   UNL A   1      32.322  25.905  24.922  1.00  0.00     0.248 C 
ATOM     22  C   UNL A   1      30.696  27.446  24.172  1.00  0.00     0.002 A 
ATOM     23  C   UNL A   1      32.403  28.257  25.873  1.00  0.00     0.114 C 
ATOM     24  C   UNL A   1      33.280  29.303  25.851  1.00  0.00     0.208 C 
ATOM     25  O   UNL A   1      33.408  25.356  25.063  1.00  0.00    -0.273 OA
ATOM     26  C   UNL A   1      30.104  26.194  24.394  1.00  0.00     0.050 A 
ATOM     27  C   UNL A   1      29.977  28.501  23.622  1.00  0.00     0.008 A 
ATOM     28  C   UNL A   1      28.774  25.976  24.078  1.00  0.00     0.027 A 
ATOM     29  C   UNL A   1      28.644  28.280  23.279  1.00  0.00     0.001 A 
ATOM     30  C   UNL A   1      28.047  27.030  23.509  1.00  0.00     0.002 A 
BRANCH  23  31
ATOM     31  C   UNL A   1      31.656  28.008  27.173  1.00  0.00     0.102 C 
ATOM     32  N   UNL A   1      31.036  27.803  28.251  1.00  0.00    -0.193 NA
ENDBRANCH  23  31
BRANCH  24  33
ATOM     33  N   UNL A   1      33.556  30.125  26.904  1.00  0.00    -0.369 N 
ATOM     34  H   UNL A   1      32.973  30.896  27.092  1.00  0.00     0.159 HD
ATOM     35  H   UNL A   1      34.339  29.948  27.475  1.00  0.00     0.159 HD
ENDBRANCH  24  33
ENDBRANCH   9  11
ENDBRANCH   6   9
ENDBRANCH   4   5
ENDBRANCH   3   4
ENDBRANCH   2   3
ENDBRANCH   1   2
BRANCH   1  36
ATOM     36  C   UNL A   1      36.979  21.975  24.385  1.00  0.00     0.021 C 
BRANCH  36  37
ATOM     37  C   UNL A   1      37.647  22.167  25.748  1.00  0.00     0.116 C 
BRANCH  37  38
ATOM     38  N   UNL A   1      39.072  21.894  25.769  1.00  0.00    -0.352 N 
ATOM     39  C   UNL A   1      40.160  22.504  26.339  1.00  0.00     0.251 C 
ATOM     40  H   UNL A   1      39.312  21.089  25.256  1.00  0.00     0.163 HD
ATOM     41  O   UNL A   1      41.242  21.927  26.196  1.00  0.00    -0.269 OA
BRANCH  39  42
ATOM     42  C   UNL A   1      40.127  23.813  27.050  1.00  0.00     0.039 A 
ATOM     43  C   UNL A   1      39.060  24.708  27.027  1.00  0.00     0.014 A 
ATOM     44  C   UNL A   1      41.277  24.172  27.780  1.00  0.00     0.014 A 
ATOM     45  C   UNL A   1      39.183  25.970  27.596  1.00  0.00     0.010 A 
ATOM     46  C   UNL A   1      41.384  25.419  28.400  1.00  0.00     0.010 A 
ATOM     47  C   UNL A   1      40.352  26.344  28.266  1.00  0.00    -0.014 A 
BRANCH  47  48
ATOM     48  C   UNL A   1      40.380  27.699  28.818  1.00  0.00     0.031 A 
ATOM     49  C   UNL A   1      41.449  28.607  28.305  1.00  0.00     0.074 A 
ATOM     50  C   UNL A   1      39.502  28.192  29.713  1.00  0.00     0.049 A 
ATOM     51  N   UNL A   1      42.453  29.117  28.946  1.00  0.00    -0.248 NA
ATOM     52  C   UNL A   1      41.425  28.924  26.873  1.00  0.00     0.031 C 
ATOM     53  C   UNL A   1      38.201  27.657  30.112  1.00  0.00     0.029 A 
ATOM     54  N   UNL A   1      39.586  29.368  30.400  1.00  0.00    -0.354 N 
ATOM     55  C   UNL A   1      43.125  29.935  28.034  1.00  0.00     0.074 A 
ATOM     56  C   UNL A   1      42.502  29.701  26.752  1.00  0.00     0.031 C 
ATOM     57  C   UNL A   1      37.525  28.610  30.793  1.00  0.00     0.029 A 
ATOM     58  C   UNL A   1      38.407  29.745  31.013  1.00  0.00     0.049 A 
ATOM     59  H   UNL A   1      40.412  29.901  30.453  1.00  0.00     0.167 HD
ATOM     60  C   UNL A   1      44.076  30.842  28.404  1.00  0.00     0.034 A 
ATOM     61  C   UNL A   1      38.146  30.939  31.593  1.00  0.00     0.034 A 
ATOM     62  C   UNL A   1      44.526  30.633  29.750  1.00  0.00     0.049 A 
ATOM     63  C   UNL A   1      39.425  31.614  31.913  1.00  0.00     0.074 A 
ATOM     64  C   UNL A   1      45.228  29.644  30.407  1.00  0.00     0.029 A 
ATOM     65  N   UNL A   1      44.019  31.446  30.731  1.00  0.00    -0.354 N 
ATOM     66  N   UNL A   1      40.251  31.244  32.852  1.00  0.00    -0.248 NA
ATOM     67  C   UNL A   1      39.969  32.550  30.943  1.00  0.00     0.031 C 
ATOM     68  C   UNL A   1      44.737  29.658  31.743  1.00  0.00     0.029 A 
ATOM     69  C   UNL A   1      43.764  30.658  31.824  1.00  0.00     0.049 A 
ATOM     70  H   UNL A   1      43.865  32.415  30.662  1.00  0.00     0.167 HD
ATOM     71  C   UNL A   1      41.509  31.547  32.355  1.00  0.00     0.074 A 
ATOM     72  C   UNL A   1      41.264  32.477  31.259  1.00  0.00     0.031 C 
ATOM     73  C   UNL A   1      42.610  30.810  32.692  1.00  0.00     0.034 A 
BRANCH  60  74
ATOM     74  C   UNL A   1      44.456  32.072  27.615  1.00  0.00     0.023 A 
ATOM     75  C   UNL A   1      43.896  33.336  27.868  1.00  0.00     0.031 A 
ATOM     76  C   UNL A   1      45.543  32.050  26.713  1.00  0.00     0.131 A 
ATOM     77  C   UNL A   1      44.361  34.488  27.218  1.00  0.00     0.055 A 
ATOM     78  C   UNL A   1      46.053  33.211  26.117  1.00  0.00     0.041 A 
ATOM     79  F   UNL A   1      46.174  30.903  26.414  1.00  0.00    -0.206 F 
ATOM     80  C   UNL A   1      45.456  34.440  26.362  1.00  0.00     0.022 A 
BRANCH  77  81
ATOM     81  S   UNL A   1      43.526  36.079  27.466  1.00  0.00     0.124 S 
ATOM     82  O   UNL A   1      42.272  35.874  26.749  1.00  0.00    -0.237 OA
ATOM     83  O   UNL A   1      43.422  36.139  28.921  1.00  0.00    -0.237 OA
ATOM     84  O   UNL A   1      44.451  37.042  26.874  1.00  0.00    -0.744 OA
ENDBRANCH  77  81
ENDBRANCH  60  74
BRANCH  61  85
ATOM     85  C   UNL A   1      36.872  31.681  31.488  1.00  0.00     0.023 A 
ATOM     86  C   UNL A   1      36.395  32.065  30.220  1.00  0.00     0.031 A 
ATOM     87  C   UNL A   1      36.267  32.260  32.613  1.00  0.00     0.131 A 
ATOM     88  C   UNL A   1      35.379  33.019  30.101  1.00  0.00     0.055 A 
ATOM     89  C   UNL A   1      35.243  33.205  32.494  1.00  0.00     0.041 A 
ATOM     90  F   UNL A   1      36.700  31.962  33.848  1.00  0.00    -0.206 F 
ATOM     91  C   UNL A   1      34.800  33.598  31.232  1.00  0.00     0.022 A 
BRANCH  88  92
ATOM     92  S   UNL A   1      34.827  33.566  28.462  1.00  0.00     0.124 S 
ATOM     93  O   UNL A   1      35.972  33.226  27.619  1.00  0.00    -0.237 OA
ATOM     94  O   UNL A   1      33.635  32.752  28.263  1.00  0.00    -0.237 OA
ATOM     95  O   UNL A   1      34.600  34.998  28.639  1.00  0.00    -0.744 OA
ENDBRANCH  88  92
ENDBRANCH  61  85
BRANCH  73  96
ATOM     96  C   UNL A   1      42.530  29.849  33.861  1.00  0.00     0.023 A 
ATOM     97  C   UNL A   1      43.219  30.193  35.042  1.00  0.00     0.031 A 
ATOM     98  C   UNL A   1      42.000  28.548  33.776  1.00  0.00     0.131 A 
ATOM     99  C   UNL A   1      43.382  29.253  36.068  1.00  0.00     0.055 A 
ATOM    100  C   UNL A   1      42.101  27.638  34.834  1.00  0.00     0.041 A 
ATOM    101  F   UNL A   1      41.452  28.086  32.644  1.00  0.00    -0.206 F 
ATOM    102  C   UNL A   1      42.808  27.982  35.980  1.00  0.00     0.022 A 
BRANCH  99 103
ATOM    103  S   UNL A   1      44.482  29.594  37.469  1.00  0.00     0.124 S 
ATOM    104  O   UNL A   1      43.749  30.626  38.194  1.00  0.00    -0.237 OA
ATOM    105  O   UNL A   1      44.552  28.293  38.134  1.00  0.00    -0.237 OA
ATOM    106  O   UNL A   1      45.727  30.032  36.843  1.00  0.00    -0.744 OA
ENDBRANCH  99 103
ENDBRANCH  73  96
ENDBRANCH  47  48
ENDBRANCH  39  42
ENDBRANCH  37  38
ENDBRANCH  36  37
ENDBRANCH   1  36
TORSDOF 19
ENDMDL
MODEL 2
REMARK VINA RESULT:     -12.3      2.881      4.151
REMARK SMILES Cc1n[nH]c2c1[C@@]1(C(=O)N([C@@H](C)C(=O)NCCCCCCNC(=O)c3ccc(-c4c5nc(c(-c6cc(S(=O)(=O)[O-])ccc6F)c6ccc([nH]6)c(-c6cc(S(=O)(=O)[O-])ccc6F)c6nc(c(-c7cc(S(=O)(=O)[O-])ccc7F)c7ccc4[nH]7)C=C6)C=C5)cc3)c3ccccc31)C(C#N)=C(N)O2
REMARK SMILES IDX 19 1 18 2 17 3 16 4 15 5 13 6 14 7 11 9 12 10 10 11 1 12
REMARK SMILES IDX 2 13 3 14 6 15 4 16 5 17 7 18 99 20 8 21 93 22 94 23 97 24
REMARK SMILES IDX 9 25 88 26 92 27 89 28 91 29 90 30 95 31 96 32 98 33 20 36
REMARK SMILES IDX 21 37 22 38 23 39 24 41 25 42 26 43 87 44 27 45 86 46 28 47
REMARK SMILES IDX 29 48 30 49 80 50 31 51 85 52 79 53 81 54 32 55 84 56 78 57
REMARK SMILES IDX 77 58 33 60 65 61 45 62 64 63 46 64 49 65 63 66 82 67 47 68
REMARK SMILES IDX 48 69 62 71 83 72 50 73 34 74 35 75 43 76 36 77 42 78 44 79
REMARK SMILES IDX 41 80 37 81 38 82 39 83 40 84 66 85 67 86 75 87 68 88 74 89
REMARK SMILES IDX 76 90 73 91 69 92 70 93 71 94 72 95 51 96 52 97 60 98 53 99
REMARK SMILES IDX 59 100 61 101 58 102 54 103 55 104 56 105 57 106
REMARK H PARENT 15 8 4 19 98 34 98 35 22 40 81 59 49 70
REMARK Flexibility Score: inf
ROOT
ATOM      1  C   UNL A   1      41.044  21.141  27.375  1.00  0.00     0.002 C 
ENDROOT
BRANCH   1   2
ATOM      2  C   UNL A   1      40.105  22.244  26.884  1.00  0.00     0.002 C 
BRANCH   2   3
ATOM      3  C   UNL A   1      39.025  21.763  25.918  1.00  0.00     0.021 C 
BRANCH   3   4
ATOM      4  C   UNL A   1      37.785  22.659  25.823  1.00  0.00     0.116 C 
BRANCH   4   5
ATOM      5  N   UNL A   1      36.605  21.880  25.477  1.00  0.00    -0.354 N 
ATOM      6  C   UNL A   1      35.289  21.995  25.799  1.00  0.00     0.242 C 
ATOM      7  O   UNL A   1      34.557  21.065  25.427  1.00  0.00    -0.273 OA
ATOM      8  H   UNL A   1      36.798  21.115  24.890  1.00  0.00     0.163 HD
BRANCH   6   9
ATOM      9  C   UNL A   1      34.664  23.147  26.626  1.00  0.00     0.176 C 
ATOM     10  C   UNL A   1      34.021  22.750  27.949  1.00  0.00     0.042 C 
BRANCH   9  11
ATOM     11  N   UNL A   1      33.877  24.078  25.820  1.00  0.00    -0.298 N 
ATOM     12  C   UNL A   1      33.121  22.925  22.285  1.00  0.00     0.069 C 
ATOM     13  C   UNL A   1      32.984  24.360  21.929  1.00  0.00     0.068 A 
ATOM     14  N   UNL A   1      32.852  24.717  20.640  1.00  0.00    -0.177 NA
ATOM     15  C   UNL A   1      33.045  25.498  22.774  1.00  0.00     0.063 A 
ATOM     16  N   UNL A   1      32.949  26.059  20.654  1.00  0.00    -0.246 N 
ATOM     17  C   UNL A   1      33.067  26.561  21.910  1.00  0.00     0.222 A 
ATOM     18  C   UNL A   1      33.265  25.731  24.232  1.00  0.00     0.149 C 
ATOM     19  H   UNL A   1      32.936  26.617  19.843  1.00  0.00     0.193 HD
ATOM     20  O   UNL A   1      33.266  27.840  22.193  1.00  0.00    -0.422 OA
ATOM     21  C   UNL A   1      34.376  24.802  24.737  1.00  0.00     0.248 C 
ATOM     22  C   UNL A   1      32.062  25.213  24.975  1.00  0.00     0.002 A 
ATOM     23  C   UNL A   1      33.579  27.201  24.514  1.00  0.00     0.114 C 
ATOM     24  C   UNL A   1      33.559  28.150  23.533  1.00  0.00     0.208 C 
ATOM     25  O   UNL A   1      35.473  24.671  24.206  1.00  0.00    -0.273 OA
ATOM     26  C   UNL A   1      32.486  24.283  25.937  1.00  0.00     0.050 A 
ATOM     27  C   UNL A   1      30.720  25.546  24.830  1.00  0.00     0.008 A 
ATOM     28  C   UNL A   1      31.573  23.674  26.779  1.00  0.00     0.027 A 
ATOM     29  C   UNL A   1      29.794  24.917  25.661  1.00  0.00     0.001 A 
ATOM     30  C   UNL A   1      30.217  23.993  26.629  1.00  0.00     0.002 A 
BRANCH  23  31
ATOM     31  C   UNL A   1      33.871  27.675  25.929  1.00  0.00     0.102 C 
ATOM     32  N   UNL A   1      34.115  28.069  27.101  1.00  0.00    -0.193 NA
ENDBRANCH  23  31
BRANCH  24  33
ATOM     33  N   UNL A   1      33.802  29.480  23.714  1.00  0.00    -0.369 N 
ATOM     34  H   UNL A   1      33.056  30.095  23.906  1.00  0.00     0.159 HD
ATOM     35  H   UNL A   1      34.722  29.826  23.654  1.00  0.00     0.159 HD
ENDBRANCH  24  33
ENDBRANCH   9  11
ENDBRANCH   6   9
ENDBRANCH   4   5
ENDBRANCH   3   4
ENDBRANCH   2   3
ENDBRANCH   1   2
BRANCH   1  36
ATOM     36  C   UNL A   1      41.152  19.903  26.476  1.00  0.00     0.021 C 
BRANCH  36  37
ATOM     37  C   UNL A   1      42.512  19.200  26.491  1.00  0.00     0.116 C 
BRANCH  37  38
ATOM     38  N   UNL A   1      43.317  19.410  25.302  1.00  0.00    -0.352 N 
ATOM     39  C   UNL A   1      44.034  20.465  24.800  1.00  0.00     0.251 C 
ATOM     40  H   UNL A   1      43.355  18.614  24.724  1.00  0.00     0.163 HD
ATOM     41  O   UNL A   1      44.670  20.246  23.766  1.00  0.00    -0.269 OA
BRANCH  39  42
ATOM     42  C   UNL A   1      44.045  21.839  25.379  1.00  0.00     0.039 A 
ATOM     43  C   UNL A   1      44.789  22.232  26.489  1.00  0.00     0.014 A 
ATOM     44  C   UNL A   1      43.221  22.798  24.761  1.00  0.00     0.014 A 
ATOM     45  C   UNL A   1      44.617  23.494  27.045  1.00  0.00     0.010 A 
ATOM     46  C   UNL A   1      43.085  24.086  25.285  1.00  0.00     0.010 A 
ATOM     47  C   UNL A   1      43.747  24.422  26.462  1.00  0.00    -0.014 A 
BRANCH  47  48
ATOM     48  C   UNL A   1      43.632  25.717  27.135  1.00  0.00     0.031 A 
ATOM     49  C   UNL A   1      44.793  26.646  26.996  1.00  0.00     0.074 A 
ATOM     50  C   UNL A   1      42.559  26.139  27.829  1.00  0.00     0.049 A 
ATOM     51  N   UNL A   1      45.605  27.070  27.912  1.00  0.00    -0.248 NA
ATOM     52  C   UNL A   1      45.124  27.101  25.640  1.00  0.00     0.031 C 
ATOM     53  C   UNL A   1      41.200  25.596  27.839  1.00  0.00     0.029 A 
ATOM     54  N   UNL A   1      42.465  27.241  28.628  1.00  0.00    -0.354 N 
ATOM     55  C   UNL A   1      46.479  27.958  27.280  1.00  0.00     0.074 A 
ATOM     56  C   UNL A   1      46.195  27.863  25.868  1.00  0.00     0.031 C 
ATOM     57  C   UNL A   1      40.374  26.494  28.422  1.00  0.00     0.029 A 
ATOM     58  C   UNL A   1      41.170  27.583  28.965  1.00  0.00     0.049 A 
ATOM     59  H   UNL A   1      43.250  27.749  28.937  1.00  0.00     0.167 HD
ATOM     60  C   UNL A   1      47.306  28.804  27.963  1.00  0.00     0.034 A 
ATOM     61  C   UNL A   1      40.769  28.720  29.577  1.00  0.00     0.034 A 
ATOM     62  C   UNL A   1      47.408  28.456  29.351  1.00  0.00     0.049 A 
ATOM     63  C   UNL A   1      41.926  29.333  30.270  1.00  0.00     0.074 A 
ATOM     64  C   UNL A   1      47.928  27.393  30.059  1.00  0.00     0.029 A 
ATOM     65  N   UNL A   1      46.670  29.181  30.251  1.00  0.00    -0.354 N 
ATOM     66  N   UNL A   1      42.494  28.856  31.342  1.00  0.00    -0.248 NA
ATOM     67  C   UNL A   1      42.692  30.346  29.562  1.00  0.00     0.031 C 
ATOM     68  C   UNL A   1      47.120  27.289  31.226  1.00  0.00     0.029 A 
ATOM     69  C   UNL A   1      46.154  28.297  31.163  1.00  0.00     0.049 A 
ATOM     70  H   UNL A   1      46.535  30.156  30.242  1.00  0.00     0.167 HD
ATOM     71  C   UNL A   1      43.835  29.178  31.205  1.00  0.00     0.074 A 
ATOM     72  C   UNL A   1      43.867  30.215  30.180  1.00  0.00     0.031 C 
ATOM     73  C   UNL A   1      44.820  28.388  31.729  1.00  0.00     0.034 A 
BRANCH  60  74
ATOM     74  C   UNL A   1      47.866  30.096  27.418  1.00  0.00     0.023 A 
ATOM     75  C   UNL A   1      47.056  31.203  27.114  1.00  0.00     0.031 A 
ATOM     76  C   UNL A   1      49.260  30.323  27.375  1.00  0.00     0.131 A 
ATOM     77  C   UNL A   1      47.609  32.437  26.739  1.00  0.00     0.055 A 
ATOM     78  C   UNL A   1      49.812  31.575  27.070  1.00  0.00     0.041 A 
ATOM     79  F   UNL A   1      50.131  29.346  27.672  1.00  0.00    -0.206 F 
ATOM     80  C   UNL A   1      48.984  32.639  26.741  1.00  0.00     0.022 A 
BRANCH  77  81
ATOM     81  S   UNL A   1      46.533  33.802  26.221  1.00  0.00     0.124 S 
ATOM     82  O   UNL A   1      47.377  34.499  25.257  1.00  0.00    -0.237 OA
ATOM     83  O   UNL A   1      45.389  33.087  25.662  1.00  0.00    -0.237 OA
ATOM     84  O   UNL A   1      46.265  34.513  27.469  1.00  0.00    -0.744 OA
ENDBRANCH  77  81
ENDBRANCH  60  74
BRANCH  61  85
ATOM     85  C   UNL A   1      39.559  29.496  29.234  1.00  0.00     0.023 A 
ATOM     86  C   UNL A   1      38.759  30.026  30.265  1.00  0.00     0.031 A 
ATOM     87  C   UNL A   1      39.024  29.485  27.938  1.00  0.00     0.131 A 
ATOM     88  C   UNL A   1      37.465  30.487  29.997  1.00  0.00     0.055 A 
ATOM     89  C   UNL A   1      37.736  29.956  27.668  1.00  0.00     0.041 A 
ATOM     90  F   UNL A   1      39.723  28.961  26.918  1.00  0.00    -0.206 F 
ATOM     91  C   UNL A   1      36.944  30.451  28.703  1.00  0.00     0.022 A 
BRANCH  88  92
ATOM     92  S   UNL A   1      36.414  31.093  31.344  1.00  0.00     0.124 S 
ATOM     93  O   UNL A   1      37.230  32.160  31.920  1.00  0.00    -0.237 OA
ATOM     94  O   UNL A   1      35.226  31.529  30.621  1.00  0.00    -0.237 OA
ATOM     95  O   UNL A   1      36.246  29.921  32.199  1.00  0.00    -0.744 OA
ENDBRANCH  88  92
ENDBRANCH  61  85
BRANCH  73  96
ATOM     96  C   UNL A   1      44.456  27.322  32.741  1.00  0.00     0.023 A 
ATOM     97  C   UNL A   1      44.533  27.658  34.108  1.00  0.00     0.031 A 
ATOM     98  C   UNL A   1      44.256  25.966  32.419  1.00  0.00     0.131 A 
ATOM     99  C   UNL A   1      44.439  26.663  35.090  1.00  0.00     0.055 A 
ATOM    100  C   UNL A   1      44.089  24.988  33.404  1.00  0.00     0.041 A 
ATOM    101  F   UNL A   1      44.307  25.532  31.152  1.00  0.00    -0.206 F 
ATOM    102  C   UNL A   1      44.196  25.331  34.747  1.00  0.00     0.022 A 
BRANCH  99 103
ATOM    103  S   UNL A   1      44.797  27.042  36.827  1.00  0.00     0.124 S 
ATOM    104  O   UNL A   1      45.516  25.850  37.262  1.00  0.00    -0.237 OA
ATOM    105  O   UNL A   1      45.605  28.257  36.721  1.00  0.00    -0.237 OA
ATOM    106  O   UNL A   1      43.479  27.232  37.426  1.00  0.00    -0.744 OA
ENDBRANCH  99 103
ENDBRANCH  73  96
ENDBRANCH  47  48
ENDBRANCH  39  42
ENDBRANCH  37  38
ENDBRANCH  36  37
ENDBRANCH   1  36
TORSDOF 19
ENDMDL
MODEL 3
REMARK VINA RESULT:     -12.1      3.263      8.845
REMARK SMILES Cc1n[nH]c2c1[C@@]1(C(=O)N([C@@H](C)C(=O)NCCCCCCNC(=O)c3ccc(-c4c5nc(c(-c6cc(S(=O)(=O)[O-])ccc6F)c6ccc([nH]6)c(-c6cc(S(=O)(=O)[O-])ccc6F)c6nc(c(-c7cc(S(=O)(=O)[O-])ccc7F)c7ccc4[nH]7)C=C6)C=C5)cc3)c3ccccc31)C(C#N)=C(N)O2
REMARK SMILES IDX 19 1 18 2 17 3 16 4 15 5 13 6 14 7 11 9 12 10 10 11 1 12
REMARK SMILES IDX 2 13 3 14 6 15 4 16 5 17 7 18 99 20 8 21 93 22 94 23 97 24
REMARK SMILES IDX 9 25 88 26 92 27 89 28 91 29 90 30 95 31 96 32 98 33 20 36
REMARK SMILES IDX 21 37 22 38 23 39 24 41 25 42 26 43 87 44 27 45 86 46 28 47
REMARK SMILES IDX 29 48 30 49 80 50 31 51 85 52 79 53 81 54 32 55 84 56 78 57
REMARK SMILES IDX 77 58 33 60 65 61 45 62 64 63 46 64 49 65 63 66 82 67 47 68
REMARK SMILES IDX 48 69 62 71 83 72 50 73 34 74 35 75 43 76 36 77 42 78 44 79
REMARK SMILES IDX 41 80 37 81 38 82 39 83 40 84 66 85 67 86 75 87 68 88 74 89
REMARK SMILES IDX 76 90 73 91 69 92 70 93 71 94 72 95 51 96 52 97 60 98 53 99
REMARK SMILES IDX 59 100 61 101 58 102 54 103 55 104 56 105 57 106
REMARK H PARENT 15 8 4 19 98 34 98 35 22 40 81 59 49 70
REMARK Flexibility Score: inf
ROOT
ATOM      1  C   UNL A   1      32.434  30.734  26.888  1.00  0.00     0.002 C 
ENDROOT
BRANCH   1   2
ATOM      2  C   UNL A   1      32.464  30.089  25.500  1.00  0.00     0.002 C 
BRANCH   2   3
ATOM      3  C   UNL A   1      31.185  29.344  25.129  1.00  0.00     0.021 C 
BRANCH   3   4
ATOM      4  C   UNL A   1      31.387  27.924  24.587  1.00  0.00     0.116 C 
BRANCH   4   5
ATOM      5  N   UNL A   1      30.934  26.930  25.550  1.00  0.00    -0.354 N 
ATOM      6  C   UNL A   1      31.576  25.964  26.260  1.00  0.00     0.242 C 
ATOM      7  O   UNL A   1      30.850  25.194  26.906  1.00  0.00    -0.273 OA
ATOM      8  H   UNL A   1      29.966  26.963  25.722  1.00  0.00     0.163 HD
BRANCH   6   9
ATOM      9  C   UNL A   1      33.108  25.729  26.274  1.00  0.00     0.176 C 
ATOM     10  C   UNL A   1      33.977  26.966  26.076  1.00  0.00     0.042 C 
BRANCH   9  11
ATOM     11  N   UNL A   1      33.522  24.561  25.499  1.00  0.00    -0.298 N 
ATOM     12  C   UNL A   1      31.061  21.673  25.479  1.00  0.00     0.069 C 
ATOM     13  C   UNL A   1      32.221  20.789  25.197  1.00  0.00     0.068 A 
ATOM     14  N   UNL A   1      32.062  19.455  25.220  1.00  0.00    -0.177 NA
ATOM     15  C   UNL A   1      33.574  21.142  24.962  1.00  0.00     0.063 A 
ATOM     16  N   UNL A   1      33.313  18.968  25.121  1.00  0.00    -0.246 N 
ATOM     17  C   UNL A   1      34.243  19.945  24.968  1.00  0.00     0.222 A 
ATOM     18  C   UNL A   1      34.351  22.417  24.914  1.00  0.00     0.149 C 
ATOM     19  H   UNL A   1      33.531  18.009  25.157  1.00  0.00     0.193 HD
ATOM     20  O   UNL A   1      35.552  19.740  24.936  1.00  0.00    -0.422 OA
ATOM     21  C   UNL A   1      33.892  23.336  26.053  1.00  0.00     0.248 C 
ATOM     22  C   UNL A   1      33.913  23.185  23.696  1.00  0.00     0.002 A 
ATOM     23  C   UNL A   1      35.855  22.148  24.968  1.00  0.00     0.114 C 
ATOM     24  C   UNL A   1      36.369  20.884  24.968  1.00  0.00     0.208 C 
ATOM     25  O   UNL A   1      33.792  22.999  27.227  1.00  0.00    -0.273 OA
ATOM     26  C   UNL A   1      33.486  24.462  24.092  1.00  0.00     0.050 A 
ATOM     27  C   UNL A   1      33.910  22.801  22.360  1.00  0.00     0.008 A 
ATOM     28  C   UNL A   1      33.056  25.384  23.154  1.00  0.00     0.027 A 
ATOM     29  C   UNL A   1      33.454  23.718  21.414  1.00  0.00     0.001 A 
ATOM     30  C   UNL A   1      33.036  24.999  21.807  1.00  0.00     0.002 A 
BRANCH  23  31
ATOM     31  C   UNL A   1      36.849  23.299  24.964  1.00  0.00     0.102 C 
ATOM     32  N   UNL A   1      37.674  24.252  24.961  1.00  0.00    -0.193 NA
ENDBRANCH  23  31
BRANCH  24  33
ATOM     33  N   UNL A   1      37.696  20.570  24.988  1.00  0.00    -0.369 N 
ATOM     34  H   UNL A   1      38.371  21.274  24.846  1.00  0.00     0.159 HD
ATOM     35  H   UNL A   1      37.980  19.640  25.143  1.00  0.00     0.159 HD
ENDBRANCH  24  33
ENDBRANCH   9  11
ENDBRANCH   6   9
ENDBRANCH   4   5
ENDBRANCH   3   4
ENDBRANCH   2   3
ENDBRANCH   1   2
BRANCH   1  36
ATOM     36  C   UNL A   1      33.790  30.877  27.590  1.00  0.00     0.021 C 
BRANCH  36  37
ATOM     37  C   UNL A   1      34.108  32.277  28.121  1.00  0.00     0.116 C 
BRANCH  37  38
ATOM     38  N   UNL A   1      34.200  32.372  29.566  1.00  0.00    -0.352 N 
ATOM     39  C   UNL A   1      35.138  32.004  30.496  1.00  0.00     0.251 C 
ATOM     40  H   UNL A   1      33.409  32.796  29.970  1.00  0.00     0.163 HD
ATOM     41  O   UNL A   1      34.896  32.319  31.664  1.00  0.00    -0.269 OA
BRANCH  39  42
ATOM     42  C   UNL A   1      36.368  31.217  30.199  1.00  0.00     0.039 A 
ATOM     43  C   UNL A   1      36.418  29.831  30.065  1.00  0.00     0.014 A 
ATOM     44  C   UNL A   1      37.571  31.938  30.066  1.00  0.00     0.014 A 
ATOM     45  C   UNL A   1      37.637  29.176  29.939  1.00  0.00     0.010 A 
ATOM     46  C   UNL A   1      38.793  31.287  29.885  1.00  0.00     0.010 A 
ATOM     47  C   UNL A   1      38.835  29.896  29.872  1.00  0.00    -0.014 A 
BRANCH  47  48
ATOM     48  C   UNL A   1      40.061  29.106  29.751  1.00  0.00     0.031 A 
ATOM     49  C   UNL A   1      40.816  28.848  31.013  1.00  0.00     0.074 A 
ATOM     50  C   UNL A   1      40.532  28.572  28.608  1.00  0.00     0.049 A 
ATOM     51  N   UNL A   1      41.993  29.268  31.353  1.00  0.00    -0.248 NA
ATOM     52  C   UNL A   1      40.128  28.077  32.056  1.00  0.00     0.031 C 
ATOM     53  C   UNL A   1      39.844  28.382  27.331  1.00  0.00     0.029 A 
ATOM     54  N   UNL A   1      41.752  27.996  28.399  1.00  0.00    -0.354 N 
ATOM     55  C   UNL A   1      42.264  28.706  32.603  1.00  0.00     0.074 A 
ATOM     56  C   UNL A   1      41.042  28.063  33.025  1.00  0.00     0.031 C 
ATOM     57  C   UNL A   1      40.572  27.542  26.561  1.00  0.00     0.029 A 
ATOM     58  C   UNL A   1      41.839  27.276  27.223  1.00  0.00     0.049 A 
ATOM     59  H   UNL A   1      42.503  28.085  29.029  1.00  0.00     0.167 HD
ATOM     60  C   UNL A   1      43.508  28.703  33.166  1.00  0.00     0.034 A 
ATOM     61  C   UNL A   1      42.848  26.454  26.854  1.00  0.00     0.034 A 
ATOM     62  C   UNL A   1      44.405  29.602  32.499  1.00  0.00     0.049 A 
ATOM     63  C   UNL A   1      44.060  26.789  27.637  1.00  0.00     0.074 A 
ATOM     64  C   UNL A   1      44.489  30.970  32.345  1.00  0.00     0.029 A 
ATOM     65  N   UNL A   1      45.303  29.070  31.610  1.00  0.00    -0.354 N 
ATOM     66  N   UNL A   1      44.772  27.871  27.485  1.00  0.00    -0.248 NA
ATOM     67  C   UNL A   1      44.312  26.048  28.862  1.00  0.00     0.031 C 
ATOM     68  C   UNL A   1      45.098  31.169  31.074  1.00  0.00     0.029 A 
ATOM     69  C   UNL A   1      45.352  29.909  30.526  1.00  0.00     0.049 A 
ATOM     70  H   UNL A   1      45.817  28.238  31.728  1.00  0.00     0.167 HD
ATOM     71  C   UNL A   1      45.232  28.173  28.756  1.00  0.00     0.074 A 
ATOM     72  C   UNL A   1      45.046  26.946  29.523  1.00  0.00     0.031 C 
ATOM     73  C   UNL A   1      45.462  29.463  29.149  1.00  0.00     0.034 A 
BRANCH  60  74
ATOM     74  C   UNL A   1      43.988  27.717  34.205  1.00  0.00     0.023 A 
ATOM     75  C   UNL A   1      44.017  26.331  33.974  1.00  0.00     0.031 A 
ATOM     76  C   UNL A   1      44.619  28.158  35.389  1.00  0.00     0.131 A 
ATOM     77  C   UNL A   1      44.593  25.446  34.898  1.00  0.00     0.055 A 
ATOM     78  C   UNL A   1      45.255  27.280  36.277  1.00  0.00     0.041 A 
ATOM     79  F   UNL A   1      44.676  29.463  35.701  1.00  0.00    -0.206 F 
ATOM     80  C   UNL A   1      45.238  25.913  36.038  1.00  0.00     0.022 A 
BRANCH  77  81
ATOM     81  S   UNL A   1      44.491  23.654  34.633  1.00  0.00     0.124 S 
ATOM     82  O   UNL A   1      43.095  23.383  34.958  1.00  0.00    -0.237 OA
ATOM     83  O   UNL A   1      44.848  23.539  33.222  1.00  0.00    -0.237 OA
ATOM     84  O   UNL A   1      45.480  23.119  35.564  1.00  0.00    -0.744 OA
ENDBRANCH  77  81
ENDBRANCH  60  74
BRANCH  61  85
ATOM     85  C   UNL A   1      42.685  25.148  26.181  1.00  0.00     0.023 A 
ATOM     86  C   UNL A   1      41.763  24.214  26.692  1.00  0.00     0.031 A 
ATOM     87  C   UNL A   1      43.609  24.695  25.229  1.00  0.00     0.131 A 
ATOM     88  C   UNL A   1      41.803  22.877  26.283  1.00  0.00     0.055 A 
ATOM     89  C   UNL A   1      43.641  23.360  24.811  1.00  0.00     0.041 A 
ATOM     90  F   UNL A   1      44.536  25.527  24.730  1.00  0.00    -0.206 F 
ATOM     91  C   UNL A   1      42.742  22.440  25.346  1.00  0.00     0.022 A 
BRANCH  88  92
ATOM     92  S   UNL A   1      40.664  21.666  27.006  1.00  0.00     0.124 S 
ATOM     93  O   UNL A   1      41.195  21.508  28.359  1.00  0.00    -0.237 OA
ATOM     94  O   UNL A   1      39.387  22.364  26.909  1.00  0.00    -0.237 OA
ATOM     95  O   UNL A   1      40.818  20.496  26.147  1.00  0.00    -0.744 OA
ENDBRANCH  88  92
ENDBRANCH  61  85
BRANCH  73  96
ATOM     96  C   UNL A   1      45.526  30.556  28.102  1.00  0.00     0.023 A 
ATOM     97  C   UNL A   1      46.795  31.067  27.763  1.00  0.00     0.031 A 
ATOM     98  C   UNL A   1      44.399  31.240  27.608  1.00  0.00     0.131 A 
ATOM     99  C   UNL A   1      46.908  32.228  26.985  1.00  0.00     0.055 A 
ATOM    100  C   UNL A   1      44.518  32.354  26.771  1.00  0.00     0.041 A 
ATOM    101  F   UNL A   1      43.157  30.912  27.989  1.00  0.00    -0.206 F 
ATOM    102  C   UNL A   1      45.776  32.863  26.469  1.00  0.00     0.022 A 
BRANCH  99 103
ATOM    103  S   UNL A   1      48.514  33.039  26.763  1.00  0.00     0.124 S 
ATOM    104  O   UNL A   1      48.249  33.952  25.655  1.00  0.00    -0.237 OA
ATOM    105  O   UNL A   1      48.724  33.676  28.062  1.00  0.00    -0.237 OA
ATOM    106  O   UNL A   1      49.427  31.939  26.463  1.00  0.00    -0.744 OA
ENDBRANCH  99 103
ENDBRANCH  73  96
ENDBRANCH  47  48
ENDBRANCH  39  42
ENDBRANCH  37  38
ENDBRANCH  36  37
ENDBRANCH   1  36
TORSDOF 19
ENDMDL
