MODEL 1
REMARK VINA RESULT:     -11.7      0.000      0.000
REMARK SMILES CCCn1ccnc1Cc1ccc(C(=O)NCCCCCCNC(=O)c2ccc(-c3c4nc(c(-c5cc(S(=O)(=O)[O-])ccc5F)c5ccc([nH]5)c(-c5cc(S(=O)(=O)[O-])ccc5F)c5nc(c(-c6cc(S(=O)(=O)[O-])ccc6F)c6ccc3[nH]6)C=C5)C=C4)cc2)s1
REMARK SMILES IDX 19 1 18 2 17 3 16 4 14 5 15 6 13 8 10 9 11 10 89 11 12 12
REMARK SMILES IDX 9 13 8 14 4 15 5 16 6 17 7 18 3 19 2 20 1 21 20 22 21 23
REMARK SMILES IDX 22 24 23 25 24 26 25 28 26 29 27 30 88 31 28 32 87 33 29 34
REMARK SMILES IDX 30 35 31 36 81 37 32 38 86 39 80 40 82 41 33 42 85 43 79 44
REMARK SMILES IDX 78 45 34 47 66 48 46 49 65 50 47 51 50 52 64 53 83 54 48 55
REMARK SMILES IDX 49 56 63 58 84 59 51 60 35 61 36 62 44 63 37 64 43 65 45 66
REMARK SMILES IDX 42 67 38 68 39 69 40 70 41 71 67 72 68 73 76 74 69 75 75 76
REMARK SMILES IDX 77 77 74 78 70 79 71 80 72 81 73 82 52 83 53 84 61 85 54 86
REMARK SMILES IDX 60 87 62 88 59 89 55 90 56 91 57 92 58 93
REMARK H PARENT 16 7 23 27 82 46 50 57
REMARK Flexibility Score: inf
ROOT
ATOM      1  C   UNL A   1      31.817  28.485  27.406  1.00  0.00     0.002 C 
ENDROOT
BRANCH   1   2
ATOM      2  C   UNL A   1      31.283  28.239  25.989  1.00  0.00     0.021 C 
BRANCH   2   3
ATOM      3  C   UNL A   1      31.426  29.453  25.072  1.00  0.00     0.116 C 
BRANCH   3   4
ATOM      4  N   UNL A   1      30.777  29.226  23.796  1.00  0.00    -0.351 N 
ATOM      5  C   UNL A   1      30.896  28.255  22.832  1.00  0.00     0.261 C 
ATOM      6  O   UNL A   1      30.092  28.356  21.898  1.00  0.00    -0.268 OA
ATOM      7  H   UNL A   1      30.110  29.915  23.572  1.00  0.00     0.163 HD
BRANCH   5   8
ATOM      8  C   UNL A   1      31.829  27.138  22.907  1.00  0.00     0.092 A 
ATOM      9  C   UNL A   1      33.009  24.966  22.764  1.00  0.00     0.013 A 
ATOM     10  C   UNL A   1      33.887  26.011  22.953  1.00  0.00     0.016 A 
ATOM     11  S   UNL A   1      31.398  25.487  22.932  1.00  0.00    -0.135 S 
ATOM     12  C   UNL A   1      33.205  27.259  23.045  1.00  0.00     0.026 A 
BRANCH   9  13
ATOM     13  C   UNL A   1      33.309  23.527  22.478  1.00  0.00     0.122 C 
BRANCH  13  14
ATOM     14  C   UNL A   1      34.552  23.065  23.157  1.00  0.00     0.113 A 
ATOM     15  N   UNL A   1      34.647  22.569  24.441  1.00  0.00    -0.335 N 
ATOM     16  C   UNL A   1      35.985  22.365  24.690  1.00  0.00     0.107 A 
ATOM     17  C   UNL A   1      36.635  22.699  23.531  1.00  0.00     0.131 A 
ATOM     18  N   UNL A   1      35.742  23.093  22.579  1.00  0.00    -0.241 NA
BRANCH  15  19
ATOM     19  C   UNL A   1      33.628  22.380  25.458  1.00  0.00     0.123 C 
BRANCH  19  20
ATOM     20  C   UNL A   1      33.485  23.421  26.574  1.00  0.00     0.018 C 
ATOM     21  C   UNL A   1      32.321  24.385  26.414  1.00  0.00     0.006 C 
ENDBRANCH  19  20
ENDBRANCH  15  19
ENDBRANCH  13  14
ENDBRANCH   9  13
ENDBRANCH   5   8
ENDBRANCH   3   4
ENDBRANCH   2   3
ENDBRANCH   1   2
BRANCH   1  22
ATOM     22  C   UNL A   1      33.023  29.434  27.505  1.00  0.00     0.002 C 
BRANCH  22  23
ATOM     23  C   UNL A   1      34.387  28.843  27.113  1.00  0.00     0.021 C 
BRANCH  23  24
ATOM     24  C   UNL A   1      35.561  29.749  27.451  1.00  0.00     0.116 C 
BRANCH  24  25
ATOM     25  N   UNL A   1      35.651  30.010  28.888  1.00  0.00    -0.352 N 
ATOM     26  C   UNL A   1      36.553  29.505  29.799  1.00  0.00     0.251 C 
ATOM     27  H   UNL A   1      34.978  30.629  29.252  1.00  0.00     0.163 HD
ATOM     28  O   UNL A   1      36.276  29.490  30.999  1.00  0.00    -0.269 OA
BRANCH  26  29
ATOM     29  C   UNL A   1      37.845  28.989  29.316  1.00  0.00     0.039 A 
ATOM     30  C   UNL A   1      38.503  29.556  28.221  1.00  0.00     0.014 A 
ATOM     31  C   UNL A   1      38.409  27.918  30.004  1.00  0.00     0.014 A 
ATOM     32  C   UNL A   1      39.769  29.082  27.882  1.00  0.00     0.010 A 
ATOM     33  C   UNL A   1      39.715  27.575  29.782  1.00  0.00     0.010 A 
ATOM     34  C   UNL A   1      40.377  28.100  28.681  1.00  0.00    -0.014 A 
BRANCH  34  35
ATOM     35  C   UNL A   1      41.764  27.691  28.476  1.00  0.00     0.031 A 
ATOM     36  C   UNL A   1      41.903  26.424  27.714  1.00  0.00     0.074 A 
ATOM     37  C   UNL A   1      42.818  28.499  28.723  1.00  0.00     0.049 A 
ATOM     38  N   UNL A   1      42.241  25.265  28.171  1.00  0.00    -0.248 NA
ATOM     39  C   UNL A   1      41.425  26.388  26.321  1.00  0.00     0.031 C 
ATOM     40  C   UNL A   1      42.804  29.894  29.184  1.00  0.00     0.029 A 
ATOM     41  N   UNL A   1      44.145  28.279  28.510  1.00  0.00    -0.354 N 
ATOM     42  C   UNL A   1      42.295  24.421  27.067  1.00  0.00     0.074 A 
ATOM     43  C   UNL A   1      41.547  25.089  26.038  1.00  0.00     0.031 C 
ATOM     44  C   UNL A   1      44.021  30.452  28.995  1.00  0.00     0.029 A 
ATOM     45  C   UNL A   1      44.947  29.419  28.569  1.00  0.00     0.049 A 
ATOM     46  H   UNL A   1      44.509  27.383  28.327  1.00  0.00     0.167 HD
ATOM     47  C   UNL A   1      43.189  23.393  27.021  1.00  0.00     0.034 A 
ATOM     48  C   UNL A   1      46.276  29.513  28.287  1.00  0.00     0.034 A 
ATOM     49  C   UNL A   1      43.752  23.156  28.337  1.00  0.00     0.049 A 
ATOM     50  C   UNL A   1      46.827  28.142  28.412  1.00  0.00     0.074 A 
ATOM     51  C   UNL A   1      43.229  22.839  29.576  1.00  0.00     0.029 A 
ATOM     52  N   UNL A   1      45.019  23.644  28.586  1.00  0.00    -0.354 N 
ATOM     53  N   UNL A   1      46.871  27.493  29.543  1.00  0.00    -0.248 NA
ATOM     54  C   UNL A   1      46.858  27.306  27.220  1.00  0.00     0.031 C 
ATOM     55  C   UNL A   1      43.987  23.615  30.504  1.00  0.00     0.029 A 
ATOM     56  C   UNL A   1      44.994  24.281  29.802  1.00  0.00     0.049 A 
ATOM     57  H   UNL A   1      45.802  23.550  27.998  1.00  0.00     0.167 HD
ATOM     58  C   UNL A   1      46.481  26.200  29.229  1.00  0.00     0.074 A 
ATOM     59  C   UNL A   1      46.590  26.118  27.773  1.00  0.00     0.031 C 
ATOM     60  C   UNL A   1      45.830  25.419  30.142  1.00  0.00     0.034 A 
BRANCH  47  61
ATOM     61  C   UNL A   1      43.874  22.881  25.767  1.00  0.00     0.023 A 
ATOM     62  C   UNL A   1      43.934  21.481  25.614  1.00  0.00     0.031 A 
ATOM     63  C   UNL A   1      44.705  23.621  24.896  1.00  0.00     0.131 A 
ATOM     64  C   UNL A   1      44.883  20.882  24.770  1.00  0.00     0.055 A 
ATOM     65  C   UNL A   1      45.601  23.019  24.005  1.00  0.00     0.041 A 
ATOM     66  F   UNL A   1      44.768  24.956  24.901  1.00  0.00    -0.206 F 
ATOM     67  C   UNL A   1      45.726  21.642  23.969  1.00  0.00     0.022 A 
BRANCH  64  68
ATOM     68  S   UNL A   1      45.128  19.094  24.904  1.00  0.00     0.124 S 
ATOM     69  O   UNL A   1      46.454  19.030  25.511  1.00  0.00    -0.237 OA
ATOM     70  O   UNL A   1      44.009  18.702  25.753  1.00  0.00    -0.237 OA
ATOM     71  O   UNL A   1      45.050  18.639  23.518  1.00  0.00    -0.744 OA
ENDBRANCH  64  68
ENDBRANCH  47  61
BRANCH  48  72
ATOM     72  C   UNL A   1      47.010  30.635  27.635  1.00  0.00     0.023 A 
ATOM     73  C   UNL A   1      46.369  31.773  27.091  1.00  0.00     0.031 A 
ATOM     74  C   UNL A   1      48.413  30.711  27.778  1.00  0.00     0.131 A 
ATOM     75  C   UNL A   1      47.126  32.914  26.726  1.00  0.00     0.055 A 
ATOM     76  C   UNL A   1      49.153  31.841  27.420  1.00  0.00     0.041 A 
ATOM     77  F   UNL A   1      49.105  29.716  28.359  1.00  0.00    -0.206 F 
ATOM     78  C   UNL A   1      48.511  32.954  26.902  1.00  0.00     0.022 A 
BRANCH  75  79
ATOM     79  S   UNL A   1      46.306  34.419  26.092  1.00  0.00     0.124 S 
ATOM     80  O   UNL A   1      47.048  34.685  24.865  1.00  0.00    -0.237 OA
ATOM     81  O   UNL A   1      44.924  33.980  25.935  1.00  0.00    -0.237 OA
ATOM     82  O   UNL A   1      46.516  35.399  27.159  1.00  0.00    -0.744 OA
ENDBRANCH  75  79
ENDBRANCH  48  72
BRANCH  60  83
ATOM     83  C   UNL A   1      45.822  25.863  31.592  1.00  0.00     0.023 A 
ATOM     84  C   UNL A   1      44.676  26.258  32.323  1.00  0.00     0.031 A 
ATOM     85  C   UNL A   1      47.037  25.763  32.292  1.00  0.00     0.131 A 
ATOM     86  C   UNL A   1      44.783  26.541  33.701  1.00  0.00     0.055 A 
ATOM     87  C   UNL A   1      47.134  26.021  33.658  1.00  0.00     0.041 A 
ATOM     88  F   UNL A   1      48.155  25.370  31.659  1.00  0.00    -0.206 F 
ATOM     89  C   UNL A   1      46.007  26.417  34.367  1.00  0.00     0.022 A 
BRANCH  86  90
ATOM     90  S   UNL A   1      43.333  27.097  34.659  1.00  0.00     0.124 S 
ATOM     91  O   UNL A   1      43.921  27.719  35.839  1.00  0.00    -0.237 OA
ATOM     92  O   UNL A   1      42.665  28.000  33.726  1.00  0.00    -0.237 OA
ATOM     93  O   UNL A   1      42.604  25.854  34.925  1.00  0.00    -0.744 OA
ENDBRANCH  86  90
ENDBRANCH  60  83
ENDBRANCH  34  35
ENDBRANCH  26  29
ENDBRANCH  24  25
ENDBRANCH  23  24
ENDBRANCH  22  23
ENDBRANCH   1  22
TORSDOF 20
ENDMDL
MODEL 2
REMARK VINA RESULT:     -11.4      3.135      8.524
REMARK SMILES CCCn1ccnc1Cc1ccc(C(=O)NCCCCCCNC(=O)c2ccc(-c3c4nc(c(-c5cc(S(=O)(=O)[O-])ccc5F)c5ccc([nH]5)c(-c5cc(S(=O)(=O)[O-])ccc5F)c5nc(c(-c6cc(S(=O)(=O)[O-])ccc6F)c6ccc3[nH]6)C=C5)C=C4)cc2)s1
REMARK SMILES IDX 19 1 18 2 17 3 16 4 14 5 15 6 13 8 10 9 11 10 89 11 12 12
REMARK SMILES IDX 9 13 8 14 4 15 5 16 6 17 7 18 3 19 2 20 1 21 20 22 21 23
REMARK SMILES IDX 22 24 23 25 24 26 25 28 26 29 27 30 88 31 28 32 87 33 29 34
REMARK SMILES IDX 30 35 31 36 81 37 32 38 86 39 80 40 82 41 33 42 85 43 79 44
REMARK SMILES IDX 78 45 34 47 66 48 46 49 65 50 47 51 50 52 64 53 83 54 48 55
REMARK SMILES IDX 49 56 63 58 84 59 51 60 35 61 36 62 44 63 37 64 43 65 45 66
REMARK SMILES IDX 42 67 38 68 39 69 40 70 41 71 67 72 68 73 76 74 69 75 75 76
REMARK SMILES IDX 77 77 74 78 70 79 71 80 72 81 73 82 52 83 53 84 61 85 54 86
REMARK SMILES IDX 60 87 62 88 59 89 55 90 56 91 57 92 58 93
REMARK H PARENT 16 7 23 27 82 46 50 57
REMARK Flexibility Score: inf
ROOT
ATOM      1  C   UNL A   1      35.897  20.906  25.266  1.00  0.00     0.002 C 
ENDROOT
BRANCH   1   2
ATOM      2  C   UNL A   1      35.510  21.938  26.332  1.00  0.00     0.021 C 
BRANCH   2   3
ATOM      3  C   UNL A   1      34.318  21.506  27.185  1.00  0.00     0.116 C 
BRANCH   3   4
ATOM      4  N   UNL A   1      33.398  20.684  26.423  1.00  0.00    -0.351 N 
ATOM      5  C   UNL A   1      32.330  20.965  25.608  1.00  0.00     0.261 C 
ATOM      6  O   UNL A   1      31.833  19.978  25.052  1.00  0.00    -0.268 OA
ATOM      7  H   UNL A   1      33.578  19.719  26.508  1.00  0.00     0.163 HD
BRANCH   5   8
ATOM      8  C   UNL A   1      31.840  22.311  25.335  1.00  0.00     0.092 A 
ATOM      9  C   UNL A   1      31.055  24.436  24.337  1.00  0.00     0.013 A 
ATOM     10  C   UNL A   1      30.631  24.298  25.642  1.00  0.00     0.016 A 
ATOM     11  S   UNL A   1      32.171  23.219  23.929  1.00  0.00    -0.135 S 
ATOM     12  C   UNL A   1      31.093  23.079  26.217  1.00  0.00     0.026 A 
BRANCH   9  13
ATOM     13  C   UNL A   1      30.683  25.485  23.335  1.00  0.00     0.122 C 
BRANCH  13  14
ATOM     14  C   UNL A   1      31.808  26.421  23.054  1.00  0.00     0.113 A 
ATOM     15  N   UNL A   1      32.054  27.620  23.691  1.00  0.00    -0.335 N 
ATOM     16  C   UNL A   1      33.125  28.198  23.049  1.00  0.00     0.107 A 
ATOM     17  C   UNL A   1      33.508  27.304  22.084  1.00  0.00     0.131 A 
ATOM     18  N   UNL A   1      32.716  26.195  22.119  1.00  0.00    -0.241 NA
BRANCH  15  19
ATOM     19  C   UNL A   1      31.324  28.293  24.749  1.00  0.00     0.123 C 
BRANCH  19  20
ATOM     20  C   UNL A   1      31.623  27.933  26.209  1.00  0.00     0.018 C 
ATOM     21  C   UNL A   1      32.892  27.125  26.429  1.00  0.00     0.006 C 
ENDBRANCH  19  20
ENDBRANCH  15  19
ENDBRANCH  13  14
ENDBRANCH   9  13
ENDBRANCH   5   8
ENDBRANCH   3   4
ENDBRANCH   2   3
ENDBRANCH   1   2
BRANCH   1  22
ATOM     22  C   UNL A   1      37.311  21.057  24.679  1.00  0.00     0.002 C 
BRANCH  22  23
ATOM     23  C   UNL A   1      38.266  19.872  24.893  1.00  0.00     0.021 C 
BRANCH  23  24
ATOM     24  C   UNL A   1      39.220  20.064  26.062  1.00  0.00     0.116 C 
BRANCH  24  25
ATOM     25  N   UNL A   1      40.422  19.243  25.925  1.00  0.00    -0.352 N 
ATOM     26  C   UNL A   1      41.741  19.645  25.903  1.00  0.00     0.251 C 
ATOM     27  H   UNL A   1      40.270  18.275  25.835  1.00  0.00     0.163 HD
ATOM     28  O   UNL A   1      42.598  18.923  25.393  1.00  0.00    -0.269 OA
BRANCH  26  29
ATOM     29  C   UNL A   1      42.102  20.943  26.498  1.00  0.00     0.039 A 
ATOM     30  C   UNL A   1      42.369  22.066  25.711  1.00  0.00     0.014 A 
ATOM     31  C   UNL A   1      42.150  21.023  27.887  1.00  0.00     0.014 A 
ATOM     32  C   UNL A   1      42.606  23.286  26.345  1.00  0.00     0.010 A 
ATOM     33  C   UNL A   1      42.207  22.245  28.500  1.00  0.00     0.010 A 
ATOM     34  C   UNL A   1      42.505  23.370  27.743  1.00  0.00    -0.014 A 
BRANCH  34  35
ATOM     35  C   UNL A   1      42.572  24.649  28.443  1.00  0.00     0.031 A 
ATOM     36  C   UNL A   1      41.381  25.510  28.227  1.00  0.00     0.074 A 
ATOM     37  C   UNL A   1      43.494  24.926  29.393  1.00  0.00     0.049 A 
ATOM     38  N   UNL A   1      41.303  26.574  27.502  1.00  0.00    -0.248 NA
ATOM     39  C   UNL A   1      40.074  25.031  28.710  1.00  0.00     0.031 C 
ATOM     40  C   UNL A   1      44.539  24.042  29.926  1.00  0.00     0.029 A 
ATOM     41  N   UNL A   1      43.628  26.035  30.171  1.00  0.00    -0.354 N 
ATOM     42  C   UNL A   1      40.009  27.055  27.672  1.00  0.00     0.074 A 
ATOM     43  C   UNL A   1      39.255  25.950  28.195  1.00  0.00     0.031 C 
ATOM     44  C   UNL A   1      45.034  24.558  31.074  1.00  0.00     0.029 A 
ATOM     45  C   UNL A   1      44.476  25.884  31.268  1.00  0.00     0.049 A 
ATOM     46  H   UNL A   1      43.160  26.878  29.974  1.00  0.00     0.167 HD
ATOM     47  C   UNL A   1      39.755  28.394  27.635  1.00  0.00     0.034 A 
ATOM     48  C   UNL A   1      44.707  26.780  32.267  1.00  0.00     0.034 A 
ATOM     49  C   UNL A   1      40.893  29.108  27.089  1.00  0.00     0.049 A 
ATOM     50  C   UNL A   1      44.320  28.109  31.734  1.00  0.00     0.074 A 
ATOM     51  C   UNL A   1      41.590  29.060  25.897  1.00  0.00     0.029 A 
ATOM     52  N   UNL A   1      41.728  29.754  27.978  1.00  0.00    -0.354 N 
ATOM     53  N   UNL A   1      44.946  28.689  30.747  1.00  0.00    -0.248 NA
ATOM     54  C   UNL A   1      42.951  28.557  31.944  1.00  0.00     0.031 C 
ATOM     55  C   UNL A   1      42.961  29.209  26.267  1.00  0.00     0.029 A 
ATOM     56  C   UNL A   1      43.022  29.443  27.643  1.00  0.00     0.049 A 
ATOM     57  H   UNL A   1      41.446  30.336  28.719  1.00  0.00     0.167 HD
ATOM     58  C   UNL A   1      43.944  29.220  29.949  1.00  0.00     0.074 A 
ATOM     59  C   UNL A   1      42.746  29.202  30.790  1.00  0.00     0.031 C 
ATOM     60  C   UNL A   1      44.111  29.348  28.600  1.00  0.00     0.034 A 
BRANCH  47  61
ATOM     61  C   UNL A   1      38.695  29.110  28.454  1.00  0.00     0.023 A 
ATOM     62  C   UNL A   1      38.879  29.110  29.851  1.00  0.00     0.031 A 
ATOM     63  C   UNL A   1      37.415  29.513  28.012  1.00  0.00     0.131 A 
ATOM     64  C   UNL A   1      37.804  29.333  30.726  1.00  0.00     0.055 A 
ATOM     65  C   UNL A   1      36.364  29.803  28.890  1.00  0.00     0.041 A 
ATOM     66  F   UNL A   1      37.071  29.575  26.722  1.00  0.00    -0.206 F 
ATOM     67  C   UNL A   1      36.541  29.671  30.255  1.00  0.00     0.022 A 
BRANCH  64  68
ATOM     68  S   UNL A   1      38.047  28.965  32.481  1.00  0.00     0.124 S 
ATOM     69  O   UNL A   1      39.324  29.622  32.738  1.00  0.00    -0.237 OA
ATOM     70  O   UNL A   1      36.870  29.582  33.081  1.00  0.00    -0.237 OA
ATOM     71  O   UNL A   1      38.074  27.505  32.518  1.00  0.00    -0.744 OA
ENDBRANCH  64  68
ENDBRANCH  47  61
BRANCH  48  72
ATOM     72  C   UNL A   1      44.943  26.516  33.715  1.00  0.00     0.023 A 
ATOM     73  C   UNL A   1      43.936  26.630  34.702  1.00  0.00     0.031 A 
ATOM     74  C   UNL A   1      46.142  25.880  34.109  1.00  0.00     0.131 A 
ATOM     75  C   UNL A   1      44.151  26.116  36.006  1.00  0.00     0.055 A 
ATOM     76  C   UNL A   1      46.346  25.372  35.395  1.00  0.00     0.041 A 
ATOM     77  F   UNL A   1      47.127  25.650  33.224  1.00  0.00    -0.206 F 
ATOM     78  C   UNL A   1      45.345  25.478  36.347  1.00  0.00     0.022 A 
BRANCH  75  79
ATOM     79  S   UNL A   1      42.833  26.189  37.270  1.00  0.00     0.124 S 
ATOM     80  O   UNL A   1      42.178  27.455  36.965  1.00  0.00    -0.237 OA
ATOM     81  O   UNL A   1      42.070  24.978  36.998  1.00  0.00    -0.237 OA
ATOM     82  O   UNL A   1      43.572  26.172  38.535  1.00  0.00    -0.744 OA
ENDBRANCH  75  79
ENDBRANCH  48  72
BRANCH  60  83
ATOM     83  C   UNL A   1      45.510  29.202  28.031  1.00  0.00     0.023 A 
ATOM     84  C   UNL A   1      46.099  27.988  27.604  1.00  0.00     0.031 A 
ATOM     85  C   UNL A   1      46.230  30.389  27.809  1.00  0.00     0.131 A 
ATOM     86  C   UNL A   1      47.367  28.000  26.988  1.00  0.00     0.055 A 
ATOM     87  C   UNL A   1      47.472  30.398  27.178  1.00  0.00     0.041 A 
ATOM     88  F   UNL A   1      45.713  31.575  28.170  1.00  0.00    -0.206 F 
ATOM     89  C   UNL A   1      48.049  29.203  26.770  1.00  0.00     0.022 A 
BRANCH  86  90
ATOM     90  S   UNL A   1      48.173  26.448  26.469  1.00  0.00     0.124 S 
ATOM     91  O   UNL A   1      49.538  26.856  26.163  1.00  0.00    -0.237 OA
ATOM     92  O   UNL A   1      48.008  25.597  27.645  1.00  0.00    -0.237 OA
ATOM     93  O   UNL A   1      47.387  26.029  25.305  1.00  0.00    -0.744 OA
ENDBRANCH  86  90
ENDBRANCH  60  83
ENDBRANCH  34  35
ENDBRANCH  26  29
ENDBRANCH  24  25
ENDBRANCH  23  24
ENDBRANCH  22  23
ENDBRANCH   1  22
TORSDOF 20
ENDMDL
MODEL 3
REMARK VINA RESULT:     -11.1      1.587      2.135
REMARK SMILES CCCn1ccnc1Cc1ccc(C(=O)NCCCCCCNC(=O)c2ccc(-c3c4nc(c(-c5cc(S(=O)(=O)[O-])ccc5F)c5ccc([nH]5)c(-c5cc(S(=O)(=O)[O-])ccc5F)c5nc(c(-c6cc(S(=O)(=O)[O-])ccc6F)c6ccc3[nH]6)C=C5)C=C4)cc2)s1
REMARK SMILES IDX 19 1 18 2 17 3 16 4 14 5 15 6 13 8 10 9 11 10 89 11 12 12
REMARK SMILES IDX 9 13 8 14 4 15 5 16 6 17 7 18 3 19 2 20 1 21 20 22 21 23
REMARK SMILES IDX 22 24 23 25 24 26 25 28 26 29 27 30 88 31 28 32 87 33 29 34
REMARK SMILES IDX 30 35 31 36 81 37 32 38 86 39 80 40 82 41 33 42 85 43 79 44
REMARK SMILES IDX 78 45 34 47 66 48 46 49 65 50 47 51 50 52 64 53 83 54 48 55
REMARK SMILES IDX 49 56 63 58 84 59 51 60 35 61 36 62 44 63 37 64 43 65 45 66
REMARK SMILES IDX 42 67 38 68 39 69 40 70 41 71 67 72 68 73 76 74 69 75 75 76
REMARK SMILES IDX 77 77 74 78 70 79 71 80 72 81 73 82 52 83 53 84 61 85 54 86
REMARK SMILES IDX 60 87 62 88 59 89 55 90 56 91 57 92 58 93
REMARK H PARENT 16 7 23 27 82 46 50 57
REMARK Flexibility Score: inf
ROOT
ATOM      1  C   UNL A   1      32.466  31.275  27.162  1.00  0.00     0.002 C 
ENDROOT
BRANCH   1   2
ATOM      2  C   UNL A   1      31.417  31.560  26.080  1.00  0.00     0.021 C 
BRANCH   2   3
ATOM      3  C   UNL A   1      30.829  30.291  25.463  1.00  0.00     0.116 C 
BRANCH   3   4
ATOM      4  N   UNL A   1      31.525  29.929  24.244  1.00  0.00    -0.351 N 
ATOM      5  C   UNL A   1      31.840  28.730  23.654  1.00  0.00     0.261 C 
ATOM      6  O   UNL A   1      32.380  28.827  22.545  1.00  0.00    -0.268 OA
ATOM      7  H   UNL A   1      31.839  30.709  23.730  1.00  0.00     0.163 HD
BRANCH   5   8
ATOM      8  C   UNL A   1      31.512  27.427  24.221  1.00  0.00     0.092 A 
ATOM      9  C   UNL A   1      31.353  25.347  25.554  1.00  0.00     0.013 A 
ATOM     10  C   UNL A   1      30.200  25.583  24.837  1.00  0.00     0.016 A 
ATOM     11  S   UNL A   1      32.583  26.430  25.099  1.00  0.00    -0.135 S 
ATOM     12  C   UNL A   1      30.297  26.775  24.063  1.00  0.00     0.026 A 
BRANCH   9  13
ATOM     13  C   UNL A   1      31.618  24.297  26.588  1.00  0.00     0.122 C 
BRANCH  13  14
ATOM     14  C   UNL A   1      32.202  23.060  25.998  1.00  0.00     0.113 A 
ATOM     15  N   UNL A   1      33.545  22.762  25.884  1.00  0.00    -0.335 N 
ATOM     16  C   UNL A   1      33.631  21.576  25.192  1.00  0.00     0.107 A 
ATOM     17  C   UNL A   1      32.339  21.184  24.961  1.00  0.00     0.131 A 
ATOM     18  N   UNL A   1      31.464  22.084  25.493  1.00  0.00    -0.241 NA
BRANCH  15  19
ATOM     19  C   UNL A   1      34.717  23.529  26.265  1.00  0.00     0.123 C 
BRANCH  19  20
ATOM     20  C   UNL A   1      35.790  23.826  25.211  1.00  0.00     0.018 C 
ATOM     21  C   UNL A   1      37.224  23.709  25.697  1.00  0.00     0.006 C 
ENDBRANCH  19  20
ENDBRANCH  15  19
ENDBRANCH  13  14
ENDBRANCH   9  13
ENDBRANCH   5   8
ENDBRANCH   3   4
ENDBRANCH   2   3
ENDBRANCH   1   2
BRANCH   1  22
ATOM     22  C   UNL A   1      32.928  29.812  27.269  1.00  0.00     0.002 C 
BRANCH  22  23
ATOM     23  C   UNL A   1      34.243  29.461  26.556  1.00  0.00     0.021 C 
BRANCH  23  24
ATOM     24  C   UNL A   1      35.293  28.858  27.478  1.00  0.00     0.116 C 
BRANCH  24  25
ATOM     25  N   UNL A   1      35.490  29.667  28.681  1.00  0.00    -0.352 N 
ATOM     26  C   UNL A   1      36.529  29.625  29.585  1.00  0.00     0.251 C 
ATOM     27  H   UNL A   1      34.786  30.329  28.870  1.00  0.00     0.163 HD
ATOM     28  O   UNL A   1      36.373  30.061  30.726  1.00  0.00    -0.269 OA
BRANCH  26  29
ATOM     29  C   UNL A   1      37.820  29.055  29.164  1.00  0.00     0.039 A 
ATOM     30  C   UNL A   1      38.474  29.485  28.007  1.00  0.00     0.014 A 
ATOM     31  C   UNL A   1      38.386  28.076  29.976  1.00  0.00     0.014 A 
ATOM     32  C   UNL A   1      39.740  28.973  27.724  1.00  0.00     0.010 A 
ATOM     33  C   UNL A   1      39.692  27.709  29.794  1.00  0.00     0.010 A 
ATOM     34  C   UNL A   1      40.351  28.097  28.635  1.00  0.00    -0.014 A 
BRANCH  34  35
ATOM     35  C   UNL A   1      41.737  27.666  28.478  1.00  0.00     0.031 A 
ATOM     36  C   UNL A   1      41.886  26.417  27.688  1.00  0.00     0.074 A 
ATOM     37  C   UNL A   1      42.795  28.447  28.791  1.00  0.00     0.049 A 
ATOM     38  N   UNL A   1      42.183  25.241  28.127  1.00  0.00    -0.248 NA
ATOM     39  C   UNL A   1      41.467  26.427  26.275  1.00  0.00     0.031 C 
ATOM     40  C   UNL A   1      42.786  29.829  29.289  1.00  0.00     0.029 A 
ATOM     41  N   UNL A   1      44.125  28.206  28.628  1.00  0.00    -0.354 N 
ATOM     42  C   UNL A   1      42.268  24.425  27.003  1.00  0.00     0.074 A 
ATOM     43  C   UNL A   1      41.578  25.135  25.963  1.00  0.00     0.031 C 
ATOM     44  C   UNL A   1      44.020  30.368  29.167  1.00  0.00     0.029 A 
ATOM     45  C   UNL A   1      44.944  29.329  28.752  1.00  0.00     0.049 A 
ATOM     46  H   UNL A   1      44.481  27.309  28.436  1.00  0.00     0.167 HD
ATOM     47  C   UNL A   1      43.144  23.382  26.967  1.00  0.00     0.034 A 
ATOM     48  C   UNL A   1      46.286  29.404  28.529  1.00  0.00     0.034 A 
ATOM     49  C   UNL A   1      43.647  23.099  28.298  1.00  0.00     0.049 A 
ATOM     50  C   UNL A   1      46.807  28.020  28.639  1.00  0.00     0.074 A 
ATOM     51  C   UNL A   1      43.066  22.759  29.505  1.00  0.00     0.029 A 
ATOM     52  N   UNL A   1      44.911  23.555  28.614  1.00  0.00    -0.354 N 
ATOM     53  N   UNL A   1      46.790  27.341  29.753  1.00  0.00    -0.248 NA
ATOM     54  C   UNL A   1      46.872  27.216  27.427  1.00  0.00     0.031 C 
ATOM     55  C   UNL A   1      43.798  23.495  30.485  1.00  0.00     0.029 A 
ATOM     56  C   UNL A   1      44.845  24.160  29.845  1.00  0.00     0.049 A 
ATOM     57  H   UNL A   1      45.716  23.462  28.057  1.00  0.00     0.167 HD
ATOM     58  C   UNL A   1      46.390  26.064  29.388  1.00  0.00     0.074 A 
ATOM     59  C   UNL A   1      46.560  26.019  27.935  1.00  0.00     0.031 C 
ATOM     60  C   UNL A   1      45.687  25.272  30.251  1.00  0.00     0.034 A 
BRANCH  47  61
ATOM     61  C   UNL A   1      43.873  22.890  25.729  1.00  0.00     0.023 A 
ATOM     62  C   UNL A   1      43.947  21.493  25.560  1.00  0.00     0.031 A 
ATOM     63  C   UNL A   1      44.727  23.646  24.895  1.00  0.00     0.131 A 
ATOM     64  C   UNL A   1      44.926  20.909  24.740  1.00  0.00     0.055 A 
ATOM     65  C   UNL A   1      45.655  23.060  24.026  1.00  0.00     0.041 A 
ATOM     66  F   UNL A   1      44.782  24.981  24.920  1.00  0.00    -0.206 F 
ATOM     67  C   UNL A   1      45.790  21.685  23.977  1.00  0.00     0.022 A 
BRANCH  64  68
ATOM     68  S   UNL A   1      45.177  19.121  24.859  1.00  0.00     0.124 S 
ATOM     69  O   UNL A   1      45.510  18.785  23.479  1.00  0.00    -0.237 OA
ATOM     70  O   UNL A   1      46.267  19.038  25.826  1.00  0.00    -0.237 OA
ATOM     71  O   UNL A   1      43.885  18.631  25.331  1.00  0.00    -0.744 OA
ENDBRANCH  64  68
ENDBRANCH  47  61
BRANCH  48  72
ATOM     72  C   UNL A   1      47.067  30.529  27.939  1.00  0.00     0.023 A 
ATOM     73  C   UNL A   1      46.480  31.579  27.195  1.00  0.00     0.031 A 
ATOM     74  C   UNL A   1      48.410  30.713  28.337  1.00  0.00     0.131 A 
ATOM     75  C   UNL A   1      47.228  32.744  26.890  1.00  0.00     0.055 A 
ATOM     76  C   UNL A   1      49.141  31.866  28.036  1.00  0.00     0.041 A 
ATOM     77  F   UNL A   1      49.032  29.812  29.115  1.00  0.00    -0.206 F 
ATOM     78  C   UNL A   1      48.548  32.893  27.320  1.00  0.00     0.022 A 
BRANCH  75  79
ATOM     79  S   UNL A   1      46.462  34.141  25.994  1.00  0.00     0.124 S 
ATOM     80  O   UNL A   1      45.351  33.496  25.303  1.00  0.00    -0.237 OA
ATOM     81  O   UNL A   1      46.114  35.054  27.076  1.00  0.00    -0.237 OA
ATOM     82  O   UNL A   1      47.535  34.615  25.118  1.00  0.00    -0.744 OA
ENDBRANCH  75  79
ENDBRANCH  48  72
BRANCH  60  83
ATOM     83  C   UNL A   1      45.625  25.678  31.711  1.00  0.00     0.023 A 
ATOM     84  C   UNL A   1      46.639  25.445  32.671  1.00  0.00     0.031 A 
ATOM     85  C   UNL A   1      44.517  26.446  32.108  1.00  0.00     0.131 A 
ATOM     86  C   UNL A   1      46.509  25.972  33.973  1.00  0.00     0.055 A 
ATOM     87  C   UNL A   1      44.404  26.985  33.388  1.00  0.00     0.041 A 
ATOM     88  F   UNL A   1      43.534  26.722  31.235  1.00  0.00    -0.206 F 
ATOM     89  C   UNL A   1      45.397  26.745  34.328  1.00  0.00     0.022 A 
BRANCH  86  90
ATOM     90  S   UNL A   1      47.776  25.650  35.245  1.00  0.00     0.124 S 
ATOM     91  O   UNL A   1      47.640  26.778  36.157  1.00  0.00    -0.237 OA
ATOM     92  O   UNL A   1      47.371  24.349  35.773  1.00  0.00    -0.237 OA
ATOM     93  O   UNL A   1      49.027  25.630  34.483  1.00  0.00    -0.744 OA
ENDBRANCH  86  90
ENDBRANCH  60  83
ENDBRANCH  34  35
ENDBRANCH  26  29
ENDBRANCH  24  25
ENDBRANCH  23  24
ENDBRANCH  22  23
ENDBRANCH   1  22
TORSDOF 20
ENDMDL
