MODEL 1
REMARK VINA RESULT:     -11.6      0.000      0.000
REMARK SMILES NC(=O)c1ccc(C[N@H+]2CCC[C@@H](C(=O)NCCCCCCNC(=O)c3ccc(-c4c5nc(c(-c6cc(S(=O)(=O)[O-])ccc6F)c6ccc([nH]6)c(-c6cc(S(=O)(=O)[O-])ccc6F)c6nc(c(-c7cc(S(=O)(=O)[O-])ccc7F)c7ccc4[nH]7)C=C6)C=C5)cc3)C2)cc1
REMARK SMILES IDX 19 1 18 2 17 3 16 4 14 5 15 6 13 8 9 9 10 10 89 11 11 13
REMARK SMILES IDX 12 14 8 15 7 16 4 17 5 18 91 19 6 20 90 21 2 22 1 23 3 26
REMARK SMILES IDX 20 27 21 28 22 29 23 30 24 31 25 33 26 34 27 35 88 36 28 37
REMARK SMILES IDX 87 38 29 39 30 40 31 41 81 42 32 43 86 44 80 45 82 46 33 47
REMARK SMILES IDX 85 48 79 49 78 50 34 52 66 53 46 54 65 55 47 56 50 57 64 58
REMARK SMILES IDX 83 59 48 60 49 61 63 63 84 64 51 65 35 66 36 67 44 68 37 69
REMARK SMILES IDX 43 70 45 71 42 72 38 73 39 74 40 75 41 76 67 77 68 78 76 79
REMARK SMILES IDX 69 80 75 81 77 82 74 83 70 84 71 85 72 86 73 87 52 88 53 89
REMARK SMILES IDX 61 90 54 91 60 92 62 93 59 94 55 95 56 96 57 97 58 98
REMARK H PARENT 16 7 9 12 1 24 1 25 23 32 82 51 50 62
REMARK Flexibility Score: inf
ROOT
ATOM      1  C   UNL A   1      33.624  28.556  24.540  1.00  0.00     0.002 C 
ENDROOT
BRANCH   1   2
ATOM      2  C   UNL A   1      34.111  28.394  23.094  1.00  0.00     0.021 C 
BRANCH   2   3
ATOM      3  C   UNL A   1      33.346  27.322  22.320  1.00  0.00     0.116 C 
BRANCH   3   4
ATOM      4  N   UNL A   1      31.992  27.731  22.013  1.00  0.00    -0.356 N 
ATOM      5  C   UNL A   1      30.774  27.374  22.486  1.00  0.00     0.228 C 
ATOM      6  O   UNL A   1      29.820  28.024  22.037  1.00  0.00    -0.275 OA
ATOM      7  H   UNL A   1      31.946  28.417  21.309  1.00  0.00     0.163 HD
BRANCH   5   8
ATOM      8  C   UNL A   1      30.489  26.188  23.407  1.00  0.00     0.133 C 
ATOM      9  N   UNL A   1      31.013  23.738  23.611  1.00  0.00    -0.331 N 
ATOM     10  C   UNL A   1      31.208  23.879  25.058  1.00  0.00     0.262 C 
ATOM     11  C   UNL A   1      31.279  24.986  22.875  1.00  0.00     0.276 C 
ATOM     12  H   UNL A   1      30.020  23.547  23.481  1.00  0.00     0.348 HD
ATOM     13  C   UNL A   1      30.352  25.021  25.615  1.00  0.00     0.062 C 
ATOM     14  C   UNL A   1      30.712  26.321  24.909  1.00  0.00     0.025 C 
BRANCH   9  15
ATOM     15  C   UNL A   1      31.719  22.572  23.047  1.00  0.00     0.299 C 
BRANCH  15  16
ATOM     16  C   UNL A   1      33.163  22.378  23.476  1.00  0.00     0.006 A 
ATOM     17  C   UNL A   1      35.809  22.116  24.387  1.00  0.00     0.039 A 
ATOM     18  C   UNL A   1      35.437  23.230  23.633  1.00  0.00     0.014 A 
ATOM     19  C   UNL A   1      34.869  21.120  24.673  1.00  0.00     0.014 A 
ATOM     20  C   UNL A   1      34.134  23.341  23.153  1.00  0.00     0.010 A 
ATOM     21  C   UNL A   1      33.549  21.258  24.227  1.00  0.00     0.010 A 
BRANCH  17  22
ATOM     22  C   UNL A   1      37.202  22.053  24.886  1.00  0.00     0.248 C 
ATOM     23  N   UNL A   1      37.905  23.224  24.903  1.00  0.00    -0.366 N 
ATOM     24  H   UNL A   1      38.835  23.236  25.226  1.00  0.00     0.159 HD
ATOM     25  H   UNL A   1      37.482  24.056  24.591  1.00  0.00     0.159 HD
ATOM     26  O   UNL A   1      37.683  21.011  25.307  1.00  0.00    -0.270 OA
ENDBRANCH  17  22
ENDBRANCH  15  16
ENDBRANCH   9  15
ENDBRANCH   5   8
ENDBRANCH   3   4
ENDBRANCH   2   3
ENDBRANCH   1   2
BRANCH   1  27
ATOM     27  C   UNL A   1      32.560  29.645  24.748  1.00  0.00     0.002 C 
BRANCH  27  28
ATOM     28  C   UNL A   1      31.797  29.559  26.072  1.00  0.00     0.021 C 
BRANCH  28  29
ATOM     29  C   UNL A   1      32.511  30.232  27.240  1.00  0.00     0.116 C 
BRANCH  29  30
ATOM     30  N   UNL A   1      32.564  31.676  27.062  1.00  0.00    -0.352 N 
ATOM     31  C   UNL A   1      33.481  32.576  27.545  1.00  0.00     0.251 C 
ATOM     32  H   UNL A   1      31.839  32.061  26.519  1.00  0.00     0.163 HD
ATOM     33  O   UNL A   1      33.223  33.776  27.546  1.00  0.00    -0.269 OA
BRANCH  31  34
ATOM     34  C   UNL A   1      34.769  32.082  28.072  1.00  0.00     0.039 A 
ATOM     35  C   UNL A   1      35.876  32.933  28.084  1.00  0.00     0.014 A 
ATOM     36  C   UNL A   1      34.876  30.777  28.561  1.00  0.00     0.014 A 
ATOM     37  C   UNL A   1      37.073  32.497  28.655  1.00  0.00     0.010 A 
ATOM     38  C   UNL A   1      36.046  30.372  29.195  1.00  0.00     0.010 A 
ATOM     39  C   UNL A   1      37.154  31.229  29.254  1.00  0.00    -0.014 A 
BRANCH  39  40
ATOM     40  C   UNL A   1      38.383  30.778  29.957  1.00  0.00     0.031 A 
ATOM     41  C   UNL A   1      39.290  29.769  29.308  1.00  0.00     0.074 A 
ATOM     42  C   UNL A   1      38.639  31.223  31.203  1.00  0.00     0.049 A 
ATOM     43  N   UNL A   1      40.332  29.155  29.804  1.00  0.00    -0.248 NA
ATOM     44  C   UNL A   1      38.964  29.383  27.926  1.00  0.00     0.031 C 
ATOM     45  C   UNL A   1      37.824  32.191  31.940  1.00  0.00     0.029 A 
ATOM     46  N   UNL A   1      39.652  30.913  32.078  1.00  0.00    -0.354 N 
ATOM     47  C   UNL A   1      40.791  28.314  28.796  1.00  0.00     0.074 A 
ATOM     48  C   UNL A   1      39.869  28.446  27.688  1.00  0.00     0.031 C 
ATOM     49  C   UNL A   1      38.377  32.409  33.144  1.00  0.00     0.029 A 
ATOM     50  C   UNL A   1      39.551  31.553  33.292  1.00  0.00     0.049 A 
ATOM     51  H   UNL A   1      40.382  30.291  31.856  1.00  0.00     0.167 HD
ATOM     52  C   UNL A   1      41.896  27.528  28.785  1.00  0.00     0.034 A 
ATOM     53  C   UNL A   1      40.300  31.441  34.407  1.00  0.00     0.034 A 
ATOM     54  C   UNL A   1      42.802  27.405  29.900  1.00  0.00     0.049 A 
ATOM     55  C   UNL A   1      41.472  30.487  34.401  1.00  0.00     0.074 A 
ATOM     56  C   UNL A   1      43.959  26.649  29.991  1.00  0.00     0.029 A 
ATOM     57  N   UNL A   1      42.653  28.048  31.122  1.00  0.00    -0.354 N 
ATOM     58  N   UNL A   1      41.908  29.721  33.427  1.00  0.00    -0.248 NA
ATOM     59  C   UNL A   1      42.252  30.383  35.641  1.00  0.00     0.031 C 
ATOM     60  C   UNL A   1      44.468  26.780  31.286  1.00  0.00     0.029 A 
ATOM     61  C   UNL A   1      43.677  27.681  31.981  1.00  0.00     0.049 A 
ATOM     62  H   UNL A   1      41.926  28.673  31.346  1.00  0.00     0.167 HD
ATOM     63  C   UNL A   1      43.036  29.077  33.929  1.00  0.00     0.074 A 
ATOM     64  C   UNL A   1      43.222  29.556  35.282  1.00  0.00     0.031 C 
ATOM     65  C   UNL A   1      43.847  28.170  33.328  1.00  0.00     0.034 A 
BRANCH  52  66
ATOM     66  C   UNL A   1      42.173  26.734  27.533  1.00  0.00     0.023 A 
ATOM     67  C   UNL A   1      41.825  25.375  27.437  1.00  0.00     0.031 A 
ATOM     68  C   UNL A   1      42.795  27.334  26.424  1.00  0.00     0.131 A 
ATOM     69  C   UNL A   1      42.159  24.645  26.287  1.00  0.00     0.055 A 
ATOM     70  C   UNL A   1      43.051  26.621  25.251  1.00  0.00     0.041 A 
ATOM     71  F   UNL A   1      43.170  28.622  26.464  1.00  0.00    -0.206 F 
ATOM     72  C   UNL A   1      42.744  25.265  25.182  1.00  0.00     0.022 A 
BRANCH  69  73
ATOM     73  S   UNL A   1      41.937  22.846  26.312  1.00  0.00     0.124 S 
ATOM     74  O   UNL A   1      40.482  22.729  26.368  1.00  0.00    -0.237 OA
ATOM     75  O   UNL A   1      42.563  22.433  25.061  1.00  0.00    -0.237 OA
ATOM     76  O   UNL A   1      42.636  22.431  27.526  1.00  0.00    -0.744 OA
ENDBRANCH  69  73
ENDBRANCH  52  66
BRANCH  53  77
ATOM     77  C   UNL A   1      39.967  32.218  35.638  1.00  0.00     0.023 A 
ATOM     78  C   UNL A   1      39.105  31.687  36.610  1.00  0.00     0.031 A 
ATOM     79  C   UNL A   1      40.431  33.534  35.820  1.00  0.00     0.131 A 
ATOM     80  C   UNL A   1      38.673  32.490  37.677  1.00  0.00     0.055 A 
ATOM     81  C   UNL A   1      40.056  34.303  36.924  1.00  0.00     0.041 A 
ATOM     82  F   UNL A   1      41.255  34.096  34.922  1.00  0.00    -0.206 F 
ATOM     83  C   UNL A   1      39.155  33.788  37.850  1.00  0.00     0.022 A 
BRANCH  80  84
ATOM     84  S   UNL A   1      37.358  31.857  38.755  1.00  0.00     0.124 S 
ATOM     85  O   UNL A   1      38.009  31.882  40.059  1.00  0.00    -0.237 OA
ATOM     86  O   UNL A   1      36.298  32.838  38.547  1.00  0.00    -0.237 OA
ATOM     87  O   UNL A   1      37.089  30.526  38.215  1.00  0.00    -0.744 OA
ENDBRANCH  80  84
ENDBRANCH  53  77
BRANCH  65  88
ATOM     88  C   UNL A   1      45.038  27.679  34.116  1.00  0.00     0.023 A 
ATOM     89  C   UNL A   1      45.005  26.468  34.827  1.00  0.00     0.031 A 
ATOM     90  C   UNL A   1      46.223  28.436  34.150  1.00  0.00     0.131 A 
ATOM     91  C   UNL A   1      46.120  26.071  35.581  1.00  0.00     0.055 A 
ATOM     92  C   UNL A   1      47.350  28.005  34.851  1.00  0.00     0.041 A 
ATOM     93  F   UNL A   1      46.308  29.603  33.492  1.00  0.00    -0.206 F 
ATOM     94  C   UNL A   1      47.299  26.821  35.581  1.00  0.00     0.022 A 
BRANCH  91  95
ATOM     95  S   UNL A   1      45.983  24.596  36.628  1.00  0.00     0.124 S 
ATOM     96  O   UNL A   1      46.485  25.086  37.908  1.00  0.00    -0.237 OA
ATOM     97  O   UNL A   1      44.553  24.306  36.574  1.00  0.00    -0.237 OA
ATOM     98  O   UNL A   1      46.838  23.619  35.959  1.00  0.00    -0.744 OA
ENDBRANCH  91  95
ENDBRANCH  65  88
ENDBRANCH  39  40
ENDBRANCH  31  34
ENDBRANCH  29  30
ENDBRANCH  28  29
ENDBRANCH  27  28
ENDBRANCH   1  27
TORSDOF 19
ENDMDL
MODEL 2
REMARK VINA RESULT:     -11.6      2.180      8.466
REMARK SMILES NC(=O)c1ccc(C[N@H+]2CCC[C@@H](C(=O)NCCCCCCNC(=O)c3ccc(-c4c5nc(c(-c6cc(S(=O)(=O)[O-])ccc6F)c6ccc([nH]6)c(-c6cc(S(=O)(=O)[O-])ccc6F)c6nc(c(-c7cc(S(=O)(=O)[O-])ccc7F)c7ccc4[nH]7)C=C6)C=C5)cc3)C2)cc1
REMARK SMILES IDX 19 1 18 2 17 3 16 4 14 5 15 6 13 8 9 9 10 10 89 11 11 13
REMARK SMILES IDX 12 14 8 15 7 16 4 17 5 18 91 19 6 20 90 21 2 22 1 23 3 26
REMARK SMILES IDX 20 27 21 28 22 29 23 30 24 31 25 33 26 34 27 35 88 36 28 37
REMARK SMILES IDX 87 38 29 39 30 40 31 41 81 42 32 43 86 44 80 45 82 46 33 47
REMARK SMILES IDX 85 48 79 49 78 50 34 52 66 53 46 54 65 55 47 56 50 57 64 58
REMARK SMILES IDX 83 59 48 60 49 61 63 63 84 64 51 65 35 66 36 67 44 68 37 69
REMARK SMILES IDX 43 70 45 71 42 72 38 73 39 74 40 75 41 76 67 77 68 78 76 79
REMARK SMILES IDX 69 80 75 81 77 82 74 83 70 84 71 85 72 86 73 87 52 88 53 89
REMARK SMILES IDX 61 90 54 91 60 92 62 93 59 94 55 95 56 96 57 97 58 98
REMARK H PARENT 16 7 9 12 1 24 1 25 23 32 82 51 50 62
REMARK Flexibility Score: inf
ROOT
ATOM      1  C   UNL A   1      31.495  29.991  25.627  1.00  0.00     0.002 C 
ENDROOT
BRANCH   1   2
ATOM      2  C   UNL A   1      32.969  29.736  25.284  1.00  0.00     0.021 C 
BRANCH   2   3
ATOM      3  C   UNL A   1      33.760  29.135  26.444  1.00  0.00     0.116 C 
BRANCH   3   4
ATOM      4  N   UNL A   1      34.203  27.786  26.161  1.00  0.00    -0.356 N 
ATOM      5  C   UNL A   1      33.564  26.634  25.848  1.00  0.00     0.228 C 
ATOM      6  O   UNL A   1      34.300  25.675  25.577  1.00  0.00    -0.275 OA
ATOM      7  H   UNL A   1      35.182  27.684  26.206  1.00  0.00     0.163 HD
BRANCH   5   8
ATOM      8  C   UNL A   1      32.054  26.404  25.924  1.00  0.00     0.133 C 
ATOM      9  N   UNL A   1      30.001  26.602  24.487  1.00  0.00    -0.331 N 
ATOM     10  C   UNL A   1      29.486  25.333  25.013  1.00  0.00     0.262 C 
ATOM     11  C   UNL A   1      31.471  26.683  24.534  1.00  0.00     0.276 C 
ATOM     12  H   UNL A   1      29.664  27.324  25.123  1.00  0.00     0.348 HD
ATOM     13  C   UNL A   1      29.991  25.088  26.439  1.00  0.00     0.062 C 
ATOM     14  C   UNL A   1      31.514  25.079  26.447  1.00  0.00     0.025 C 
BRANCH   9  15
ATOM     15  C   UNL A   1      29.444  26.944  23.166  1.00  0.00     0.299 C 
BRANCH  15  16
ATOM     16  C   UNL A   1      29.143  28.411  22.914  1.00  0.00     0.006 A 
ATOM     17  C   UNL A   1      28.568  31.092  22.297  1.00  0.00     0.039 A 
ATOM     18  C   UNL A   1      29.845  30.582  22.067  1.00  0.00     0.014 A 
ATOM     19  C   UNL A   1      27.577  30.275  22.853  1.00  0.00     0.014 A 
ATOM     20  C   UNL A   1      30.138  29.262  22.405  1.00  0.00     0.010 A 
ATOM     21  C   UNL A   1      27.864  28.937  23.149  1.00  0.00     0.010 A 
BRANCH  17  22
ATOM     22  C   UNL A   1      28.303  32.497  21.905  1.00  0.00     0.248 C 
ATOM     23  N   UNL A   1      27.713  32.697  20.691  1.00  0.00    -0.366 N 
ATOM     24  H   UNL A   1      27.515  33.612  20.384  1.00  0.00     0.159 HD
ATOM     25  H   UNL A   1      27.483  31.927  20.122  1.00  0.00     0.159 HD
ATOM     26  O   UNL A   1      28.560  33.427  22.655  1.00  0.00    -0.270 OA
ENDBRANCH  17  22
ENDBRANCH  15  16
ENDBRANCH   9  15
ENDBRANCH   5   8
ENDBRANCH   3   4
ENDBRANCH   2   3
ENDBRANCH   1   2
BRANCH   1  27
ATOM     27  C   UNL A   1      31.101  31.473  25.731  1.00  0.00     0.002 C 
BRANCH  27  28
ATOM     28  C   UNL A   1      31.404  32.128  27.082  1.00  0.00     0.021 C 
BRANCH  28  29
ATOM     29  C   UNL A   1      32.811  32.706  27.185  1.00  0.00     0.116 C 
BRANCH  29  30
ATOM     30  N   UNL A   1      32.777  34.110  27.568  1.00  0.00    -0.352 N 
ATOM     31  C   UNL A   1      33.407  34.741  28.612  1.00  0.00     0.251 C 
ATOM     32  H   UNL A   1      32.222  34.690  26.997  1.00  0.00     0.163 HD
ATOM     33  O   UNL A   1      33.046  35.860  28.962  1.00  0.00    -0.269 OA
BRANCH  31  34
ATOM     34  C   UNL A   1      34.510  34.051  29.311  1.00  0.00     0.039 A 
ATOM     35  C   UNL A   1      34.215  33.176  30.359  1.00  0.00     0.014 A 
ATOM     36  C   UNL A   1      35.835  34.268  28.922  1.00  0.00     0.014 A 
ATOM     37  C   UNL A   1      35.248  32.461  30.969  1.00  0.00     0.010 A 
ATOM     38  C   UNL A   1      36.852  33.502  29.482  1.00  0.00     0.010 A 
ATOM     39  C   UNL A   1      36.569  32.586  30.505  1.00  0.00    -0.014 A 
BRANCH  39  40
ATOM     40  C   UNL A   1      37.672  31.764  31.068  1.00  0.00     0.031 A 
ATOM     41  C   UNL A   1      38.173  32.036  32.459  1.00  0.00     0.074 A 
ATOM     42  C   UNL A   1      38.262  30.827  30.301  1.00  0.00     0.049 A 
ATOM     43  N   UNL A   1      39.203  31.522  33.082  1.00  0.00    -0.248 NA
ATOM     44  C   UNL A   1      37.432  33.035  33.244  1.00  0.00     0.031 C 
ATOM     45  C   UNL A   1      37.871  30.485  28.931  1.00  0.00     0.029 A 
ATOM     46  N   UNL A   1      39.325  29.996  30.556  1.00  0.00    -0.354 N 
ATOM     47  C   UNL A   1      39.231  32.131  34.331  1.00  0.00     0.074 A 
ATOM     48  C   UNL A   1      38.159  33.104  34.349  1.00  0.00     0.031 C 
ATOM     49  C   UNL A   1      38.669  29.506  28.476  1.00  0.00     0.029 A 
ATOM     50  C   UNL A   1      39.667  29.190  29.494  1.00  0.00     0.049 A 
ATOM     51  H   UNL A   1      39.798  29.978  31.419  1.00  0.00     0.167 HD
ATOM     52  C   UNL A   1      40.057  31.881  35.377  1.00  0.00     0.034 A 
ATOM     53  C   UNL A   1      40.685  28.319  29.346  1.00  0.00     0.034 A 
ATOM     54  C   UNL A   1      41.123  30.911  35.342  1.00  0.00     0.049 A 
ATOM     55  C   UNL A   1      41.648  28.127  30.495  1.00  0.00     0.074 A 
ATOM     56  C   UNL A   1      42.009  30.568  36.349  1.00  0.00     0.029 A 
ATOM     57  N   UNL A   1      41.456  30.133  34.241  1.00  0.00    -0.354 N 
ATOM     58  N   UNL A   1      41.641  28.691  31.681  1.00  0.00    -0.248 NA
ATOM     59  C   UNL A   1      42.752  27.182  30.286  1.00  0.00     0.031 C 
ATOM     60  C   UNL A   1      42.916  29.637  35.836  1.00  0.00     0.029 A 
ATOM     61  C   UNL A   1      42.551  29.336  34.534  1.00  0.00     0.049 A 
ATOM     62  H   UNL A   1      40.982  30.146  33.377  1.00  0.00     0.167 HD
ATOM     63  C   UNL A   1      42.718  28.136  32.369  1.00  0.00     0.074 A 
ATOM     64  C   UNL A   1      43.338  27.184  31.473  1.00  0.00     0.031 C 
ATOM     65  C   UNL A   1      43.156  28.390  33.628  1.00  0.00     0.034 A 
BRANCH  52  66
ATOM     66  C   UNL A   1      39.842  32.679  36.640  1.00  0.00     0.023 A 
ATOM     67  C   UNL A   1      38.916  32.269  37.615  1.00  0.00     0.031 A 
ATOM     68  C   UNL A   1      40.563  33.863  36.873  1.00  0.00     0.131 A 
ATOM     69  C   UNL A   1      38.687  33.068  38.744  1.00  0.00     0.055 A 
ATOM     70  C   UNL A   1      40.389  34.611  38.040  1.00  0.00     0.041 A 
ATOM     71  F   UNL A   1      41.445  34.317  35.969  1.00  0.00    -0.206 F 
ATOM     72  C   UNL A   1      39.437  34.222  38.978  1.00  0.00     0.022 A 
BRANCH  69  73
ATOM     73  S   UNL A   1      37.301  32.645  39.835  1.00  0.00     0.124 S 
ATOM     74  O   UNL A   1      37.325  33.755  40.785  1.00  0.00    -0.237 OA
ATOM     75  O   UNL A   1      36.171  32.617  38.913  1.00  0.00    -0.237 OA
ATOM     76  O   UNL A   1      37.686  31.349  40.390  1.00  0.00    -0.744 OA
ENDBRANCH  69  73
ENDBRANCH  52  66
BRANCH  53  77
ATOM     77  C   UNL A   1      40.883  27.578  28.065  1.00  0.00     0.023 A 
ATOM     78  C   UNL A   1      40.606  26.205  27.979  1.00  0.00     0.031 A 
ATOM     79  C   UNL A   1      41.435  28.209  26.934  1.00  0.00     0.131 A 
ATOM     80  C   UNL A   1      40.951  25.492  26.820  1.00  0.00     0.055 A 
ATOM     81  C   UNL A   1      41.707  27.508  25.757  1.00  0.00     0.041 A 
ATOM     82  F   UNL A   1      41.724  29.519  26.958  1.00  0.00    -0.206 F 
ATOM     83  C   UNL A   1      41.484  26.137  25.703  1.00  0.00     0.022 A 
BRANCH  80  84
ATOM     84  S   UNL A   1      40.825  23.682  26.852  1.00  0.00     0.124 S 
ATOM     85  O   UNL A   1      41.150  23.389  28.243  1.00  0.00    -0.237 OA
ATOM     86  O   UNL A   1      39.437  23.469  26.457  1.00  0.00    -0.237 OA
ATOM     87  O   UNL A   1      41.823  23.256  25.873  1.00  0.00    -0.744 OA
ENDBRANCH  80  84
ENDBRANCH  53  77
BRANCH  65  88
ATOM     88  C   UNL A   1      44.333  27.586  34.124  1.00  0.00     0.023 A 
ATOM     89  C   UNL A   1      44.164  26.354  34.778  1.00  0.00     0.031 A 
ATOM     90  C   UNL A   1      45.643  28.059  33.933  1.00  0.00     0.131 A 
ATOM     91  C   UNL A   1      45.284  25.660  35.261  1.00  0.00     0.055 A 
ATOM     92  C   UNL A   1      46.757  27.335  34.359  1.00  0.00     0.041 A 
ATOM     93  F   UNL A   1      45.863  29.232  33.317  1.00  0.00    -0.206 F 
ATOM     94  C   UNL A   1      46.580  26.132  35.037  1.00  0.00     0.022 A 
BRANCH  91  95
ATOM     95  S   UNL A   1      45.021  24.166  36.256  1.00  0.00     0.124 S 
ATOM     96  O   UNL A   1      44.801  24.723  37.587  1.00  0.00    -0.237 OA
ATOM     97  O   UNL A   1      43.854  23.566  35.616  1.00  0.00    -0.237 OA
ATOM     98  O   UNL A   1      46.267  23.422  36.093  1.00  0.00    -0.744 OA
ENDBRANCH  91  95
ENDBRANCH  65  88
ENDBRANCH  39  40
ENDBRANCH  31  34
ENDBRANCH  29  30
ENDBRANCH  28  29
ENDBRANCH  27  28
ENDBRANCH   1  27
TORSDOF 19
ENDMDL
MODEL 3
REMARK VINA RESULT:     -11.5      2.368      3.161
REMARK SMILES NC(=O)c1ccc(C[N@H+]2CCC[C@@H](C(=O)NCCCCCCNC(=O)c3ccc(-c4c5nc(c(-c6cc(S(=O)(=O)[O-])ccc6F)c6ccc([nH]6)c(-c6cc(S(=O)(=O)[O-])ccc6F)c6nc(c(-c7cc(S(=O)(=O)[O-])ccc7F)c7ccc4[nH]7)C=C6)C=C5)cc3)C2)cc1
REMARK SMILES IDX 19 1 18 2 17 3 16 4 14 5 15 6 13 8 9 9 10 10 89 11 11 13
REMARK SMILES IDX 12 14 8 15 7 16 4 17 5 18 91 19 6 20 90 21 2 22 1 23 3 26
REMARK SMILES IDX 20 27 21 28 22 29 23 30 24 31 25 33 26 34 27 35 88 36 28 37
REMARK SMILES IDX 87 38 29 39 30 40 31 41 81 42 32 43 86 44 80 45 82 46 33 47
REMARK SMILES IDX 85 48 79 49 78 50 34 52 66 53 46 54 65 55 47 56 50 57 64 58
REMARK SMILES IDX 83 59 48 60 49 61 63 63 84 64 51 65 35 66 36 67 44 68 37 69
REMARK SMILES IDX 43 70 45 71 42 72 38 73 39 74 40 75 41 76 67 77 68 78 76 79
REMARK SMILES IDX 69 80 75 81 77 82 74 83 70 84 71 85 72 86 73 87 52 88 53 89
REMARK SMILES IDX 61 90 54 91 60 92 62 93 59 94 55 95 56 96 57 97 58 98
REMARK H PARENT 16 7 9 12 1 24 1 25 23 32 82 51 50 62
REMARK Flexibility Score: inf
ROOT
ATOM      1  C   UNL A   1      33.649  29.529  26.610  1.00  0.00     0.002 C 
ENDROOT
BRANCH   1   2
ATOM      2  C   UNL A   1      33.132  28.277  27.330  1.00  0.00     0.021 C 
BRANCH   2   3
ATOM      3  C   UNL A   1      31.613  28.263  27.495  1.00  0.00     0.116 C 
BRANCH   3   4
ATOM      4  N   UNL A   1      31.035  26.989  27.120  1.00  0.00    -0.356 N 
ATOM      5  C   UNL A   1      31.255  26.122  26.104  1.00  0.00     0.228 C 
ATOM      6  O   UNL A   1      30.616  25.062  26.164  1.00  0.00    -0.275 OA
ATOM      7  H   UNL A   1      30.330  26.689  27.738  1.00  0.00     0.163 HD
BRANCH   5   8
ATOM      8  C   UNL A   1      32.109  26.397  24.866  1.00  0.00     0.133 C 
ATOM      9  N   UNL A   1      33.103  25.182  22.903  1.00  0.00    -0.331 N 
ATOM     10  C   UNL A   1      32.752  26.293  22.012  1.00  0.00     0.262 C 
ATOM     11  C   UNL A   1      32.215  25.088  24.075  1.00  0.00     0.276 C 
ATOM     12  H   UNL A   1      34.026  25.404  23.274  1.00  0.00     0.348 HD
ATOM     13  C   UNL A   1      32.733  27.621  22.776  1.00  0.00     0.062 C 
ATOM     14  C   UNL A   1      31.735  27.535  23.924  1.00  0.00     0.025 C 
BRANCH   9  15
ATOM     15  C   UNL A   1      33.258  23.900  22.191  1.00  0.00     0.299 C 
BRANCH  15  16
ATOM     16  C   UNL A   1      33.277  22.645  23.044  1.00  0.00     0.006 A 
ATOM     17  C   UNL A   1      33.363  20.243  24.501  1.00  0.00     0.039 A 
ATOM     18  C   UNL A   1      32.287  20.506  23.653  1.00  0.00     0.014 A 
ATOM     19  C   UNL A   1      34.391  21.183  24.641  1.00  0.00     0.014 A 
ATOM     20  C   UNL A   1      32.230  21.713  22.958  1.00  0.00     0.010 A 
ATOM     21  C   UNL A   1      34.350  22.374  23.907  1.00  0.00     0.010 A 
BRANCH  17  22
ATOM     22  C   UNL A   1      33.385  18.939  25.205  1.00  0.00     0.248 C 
ATOM     23  N   UNL A   1      32.911  18.922  26.485  1.00  0.00    -0.366 N 
ATOM     24  H   UNL A   1      32.904  18.080  26.996  1.00  0.00     0.159 HD
ATOM     25  H   UNL A   1      32.576  19.750  26.897  1.00  0.00     0.159 HD
ATOM     26  O   UNL A   1      33.767  17.920  24.649  1.00  0.00    -0.270 OA
ENDBRANCH  17  22
ENDBRANCH  15  16
ENDBRANCH   9  15
ENDBRANCH   5   8
ENDBRANCH   3   4
ENDBRANCH   2   3
ENDBRANCH   1   2
BRANCH   1  27
ATOM     27  C   UNL A   1      34.494  30.474  27.479  1.00  0.00     0.002 C 
BRANCH  27  28
ATOM     28  C   UNL A   1      34.175  31.962  27.313  1.00  0.00     0.021 C 
BRANCH  28  29
ATOM     29  C   UNL A   1      32.727  32.322  27.626  1.00  0.00     0.116 C 
BRANCH  29  30
ATOM     30  N   UNL A   1      32.557  33.762  27.748  1.00  0.00    -0.352 N 
ATOM     31  C   UNL A   1      33.134  34.631  28.641  1.00  0.00     0.251 C 
ATOM     32  H   UNL A   1      31.941  34.172  27.099  1.00  0.00     0.163 HD
ATOM     33  O   UNL A   1      32.667  35.756  28.793  1.00  0.00    -0.269 OA
BRANCH  31  34
ATOM     34  C   UNL A   1      34.308  34.191  29.421  1.00  0.00     0.039 A 
ATOM     35  C   UNL A   1      34.117  33.426  30.574  1.00  0.00     0.014 A 
ATOM     36  C   UNL A   1      35.598  34.530  29.003  1.00  0.00     0.014 A 
ATOM     37  C   UNL A   1      35.226  32.940  31.268  1.00  0.00     0.010 A 
ATOM     38  C   UNL A   1      36.699  33.984  29.654  1.00  0.00     0.010 A 
ATOM     39  C   UNL A   1      36.526  33.179  30.789  1.00  0.00    -0.014 A 
BRANCH  39  40
ATOM     40  C   UNL A   1      37.719  32.590  31.450  1.00  0.00     0.031 A 
ATOM     41  C   UNL A   1      38.421  31.418  30.822  1.00  0.00     0.074 A 
ATOM     42  C   UNL A   1      38.122  33.067  32.644  1.00  0.00     0.049 A 
ATOM     43  N   UNL A   1      39.392  30.684  31.299  1.00  0.00    -0.248 NA
ATOM     44  C   UNL A   1      37.949  31.002  29.492  1.00  0.00     0.031 C 
ATOM     45  C   UNL A   1      37.510  34.191  33.357  1.00  0.00     0.029 A 
ATOM     46  N   UNL A   1      39.135  32.661  33.479  1.00  0.00    -0.354 N 
ATOM     47  C   UNL A   1      39.653  29.723  30.329  1.00  0.00     0.074 A 
ATOM     48  C   UNL A   1      38.687  29.926  29.268  1.00  0.00     0.031 C 
ATOM     49  C   UNL A   1      38.170  34.395  34.508  1.00  0.00     0.029 A 
ATOM     50  C   UNL A   1      39.212  33.382  34.649  1.00  0.00     0.049 A 
ATOM     51  H   UNL A   1      39.748  31.923  33.260  1.00  0.00     0.167 HD
ATOM     52  C   UNL A   1      40.625  28.779  30.309  1.00  0.00     0.034 A 
ATOM     53  C   UNL A   1      40.010  33.226  35.723  1.00  0.00     0.034 A 
ATOM     54  C   UNL A   1      41.578  28.588  31.376  1.00  0.00     0.049 A 
ATOM     55  C   UNL A   1      41.025  32.106  35.717  1.00  0.00     0.074 A 
ATOM     56  C   UNL A   1      42.613  27.672  31.453  1.00  0.00     0.029 A 
ATOM     57  N   UNL A   1      41.608  29.320  32.556  1.00  0.00    -0.354 N 
ATOM     58  N   UNL A   1      41.276  31.225  34.776  1.00  0.00    -0.248 NA
ATOM     59  C   UNL A   1      41.863  31.961  36.914  1.00  0.00     0.031 C 
ATOM     60  C   UNL A   1      43.222  27.804  32.703  1.00  0.00     0.029 A 
ATOM     61  C   UNL A   1      42.623  28.855  33.377  1.00  0.00     0.049 A 
ATOM     62  H   UNL A   1      40.998  30.061  32.777  1.00  0.00     0.167 HD
ATOM     63  C   UNL A   1      42.329  30.449  35.256  1.00  0.00     0.074 A 
ATOM     64  C   UNL A   1      42.674  30.976  36.559  1.00  0.00     0.031 C 
ATOM     65  C   UNL A   1      42.954  29.394  34.674  1.00  0.00     0.034 A 
BRANCH  52  66
ATOM     66  C   UNL A   1      40.697  27.877  29.102  1.00  0.00     0.023 A 
ATOM     67  C   UNL A   1      41.627  28.106  28.073  1.00  0.00     0.031 A 
ATOM     68  C   UNL A   1      39.827  26.782  28.971  1.00  0.00     0.131 A 
ATOM     69  C   UNL A   1      41.623  27.294  26.930  1.00  0.00     0.055 A 
ATOM     70  C   UNL A   1      39.883  25.927  27.867  1.00  0.00     0.041 A 
ATOM     71  F   UNL A   1      38.903  26.525  29.910  1.00  0.00    -0.206 F 
ATOM     72  C   UNL A   1      40.776  26.188  26.832  1.00  0.00     0.022 A 
BRANCH  69  73
ATOM     73  S   UNL A   1      42.649  27.784  25.518  1.00  0.00     0.124 S 
ATOM     74  O   UNL A   1      41.909  28.933  25.001  1.00  0.00    -0.237 OA
ATOM     75  O   UNL A   1      43.931  28.079  26.146  1.00  0.00    -0.237 OA
ATOM     76  O   UNL A   1      42.632  26.603  24.657  1.00  0.00    -0.744 OA
ENDBRANCH  69  73
ENDBRANCH  52  66
BRANCH  53  77
ATOM     77  C   UNL A   1      39.880  34.117  36.914  1.00  0.00     0.023 A 
ATOM     78  C   UNL A   1      39.334  33.637  38.115  1.00  0.00     0.031 A 
ATOM     79  C   UNL A   1      40.213  35.483  36.844  1.00  0.00     0.131 A 
ATOM     80  C   UNL A   1      39.067  34.525  39.168  1.00  0.00     0.055 A 
ATOM     81  C   UNL A   1      40.013  36.348  37.923  1.00  0.00     0.041 A 
ATOM     82  F   UNL A   1      40.734  36.000  35.721  1.00  0.00    -0.206 F 
ATOM     83  C   UNL A   1      39.418  35.873  39.087  1.00  0.00     0.022 A 
BRANCH  80  84
ATOM     84  S   UNL A   1      38.121  33.916  40.591  1.00  0.00     0.124 S 
ATOM     85  O   UNL A   1      37.617  35.159  41.164  1.00  0.00    -0.237 OA
ATOM     86  O   UNL A   1      37.132  33.056  39.950  1.00  0.00    -0.237 OA
ATOM     87  O   UNL A   1      39.125  33.219  41.392  1.00  0.00    -0.744 OA
ENDBRANCH  80  84
ENDBRANCH  53  77
BRANCH  65  88
ATOM     88  C   UNL A   1      44.109  28.777  35.425  1.00  0.00     0.023 A 
ATOM     89  C   UNL A   1      43.910  27.808  36.423  1.00  0.00     0.031 A 
ATOM     90  C   UNL A   1      45.429  29.164  35.132  1.00  0.00     0.131 A 
ATOM     91  C   UNL A   1      45.009  27.293  37.125  1.00  0.00     0.055 A 
ATOM     92  C   UNL A   1      46.524  28.602  35.790  1.00  0.00     0.041 A 
ATOM     93  F   UNL A   1      45.677  30.089  34.190  1.00  0.00    -0.206 F 
ATOM     94  C   UNL A   1      46.316  27.668  36.801  1.00  0.00     0.022 A 
BRANCH  91  95
ATOM     95  S   UNL A   1      44.705  26.180  38.525  1.00  0.00     0.124 S 
ATOM     96  O   UNL A   1      45.563  26.751  39.559  1.00  0.00    -0.237 OA
ATOM     97  O   UNL A   1      43.269  26.328  38.736  1.00  0.00    -0.237 OA
ATOM     98  O   UNL A   1      45.125  24.874  38.023  1.00  0.00    -0.744 OA
ENDBRANCH  91  95
ENDBRANCH  65  88
ENDBRANCH  39  40
ENDBRANCH  31  34
ENDBRANCH  29  30
ENDBRANCH  28  29
ENDBRANCH  27  28
ENDBRANCH   1  27
TORSDOF 19
ENDMDL
