MODEL 1
REMARK VINA RESULT:     -11.2      0.000      0.000
REMARK SMILES CCc1cc2c(C)cc(=O)oc2cc1O[C@H](C)C(=O)NCCCCCCNC(=O)c1ccc(-c2c3nc(c(-c4cc(S(=O)(=O)[O-])ccc4F)c4ccc([nH]4)c(-c4cc(S(=O)(=O)[O-])ccc4F)c4nc(c(-c5cc(S(=O)(=O)[O-])ccc5F)c5ccc2[nH]5)C=C4)C=C3)cc1
REMARK SMILES IDX 23 1 22 2 21 3 20 4 18 5 19 6 16 8 17 9 15 10 14 11 3 12
REMARK SMILES IDX 4 13 5 14 13 15 6 16 12 17 7 18 8 19 11 20 9 21 10 22 2 23
REMARK SMILES IDX 1 24 24 25 25 26 26 27 27 28 28 29 29 31 30 32 31 33 92 34
REMARK SMILES IDX 32 35 91 36 33 37 34 38 35 39 85 40 36 41 90 42 84 43 86 44
REMARK SMILES IDX 37 45 89 46 83 47 82 48 38 50 70 51 50 52 69 53 51 54 54 55
REMARK SMILES IDX 68 56 87 57 52 58 53 59 67 61 88 62 55 63 39 64 40 65 48 66
REMARK SMILES IDX 41 67 47 68 49 69 46 70 42 71 43 72 44 73 45 74 71 75 72 76
REMARK SMILES IDX 80 77 73 78 79 79 81 80 78 81 74 82 75 83 76 84 77 85 56 86
REMARK SMILES IDX 57 87 65 88 58 89 64 90 66 91 63 92 59 93 60 94 61 95 62 96
REMARK H PARENT 20 7 27 30 86 49 54 60
REMARK Flexibility Score: inf
ROOT
ATOM      1  C   UNL A   1      33.156  29.415  26.924  1.00  0.00     0.002 C 
ENDROOT
BRANCH   1   2
ATOM      2  C   UNL A   1      32.840  29.465  25.431  1.00  0.00     0.021 C 
BRANCH   2   3
ATOM      3  C   UNL A   1      31.384  29.763  25.106  1.00  0.00     0.116 C 
BRANCH   3   4
ATOM      4  N   UNL A   1      31.081  29.831  23.703  1.00  0.00    -0.353 N 
ATOM      5  C   UNL A   1      30.327  28.973  22.956  1.00  0.00     0.260 C 
ATOM      6  O   UNL A   1      30.054  29.342  21.805  1.00  0.00    -0.271 OA
ATOM      7  H   UNL A   1      31.466  30.596  23.218  1.00  0.00     0.163 HD
BRANCH   5   8
ATOM      8  C   UNL A   1      29.915  27.538  23.439  1.00  0.00     0.258 C 
ATOM      9  C   UNL A   1      28.395  27.382  23.399  1.00  0.00     0.064 C 
BRANCH   8  10
ATOM     10  O   UNL A   1      30.682  26.359  23.189  1.00  0.00    -0.480 OA
BRANCH  10  11
ATOM     11  C   UNL A   1      31.693  25.894  23.972  1.00  0.00     0.127 A 
ATOM     12  C   UNL A   1      32.994  25.928  23.432  1.00  0.00    -0.005 A 
ATOM     13  C   UNL A   1      34.051  25.286  24.125  1.00  0.00     0.019 A 
ATOM     14  C   UNL A   1      33.833  24.614  25.332  1.00  0.00     0.021 A 
ATOM     15  C   UNL A   1      31.515  25.388  25.257  1.00  0.00     0.094 A 
ATOM     16  C   UNL A   1      34.847  23.815  26.037  1.00  0.00    -0.033 A 
ATOM     17  C   UNL A   1      32.557  24.693  25.878  1.00  0.00     0.142 A 
ATOM     18  C   UNL A   1      36.285  23.856  25.611  1.00  0.00     0.045 C 
ATOM     19  C   UNL A   1      34.446  23.037  27.054  1.00  0.00     0.098 A 
ATOM     20  O   UNL A   1      32.200  23.958  27.026  1.00  0.00    -0.423 OA
ATOM     21  C   UNL A   1      33.049  22.976  27.507  1.00  0.00     0.336 A 
ATOM     22  O   UNL A   1      32.663  22.096  28.268  1.00  0.00    -0.246 OA
BRANCH  12  23
ATOM     23  C   UNL A   1      33.298  26.564  22.089  1.00  0.00     0.036 C 
ATOM     24  C   UNL A   1      33.816  27.997  22.169  1.00  0.00     0.009 C 
ENDBRANCH  12  23
ENDBRANCH  10  11
ENDBRANCH   8  10
ENDBRANCH   5   8
ENDBRANCH   3   4
ENDBRANCH   2   3
ENDBRANCH   1   2
BRANCH   1  25
ATOM     25  C   UNL A   1      33.654  30.732  27.535  1.00  0.00     0.002 C 
BRANCH  25  26
ATOM     26  C   UNL A   1      32.618  31.857  27.630  1.00  0.00     0.021 C 
BRANCH  26  27
ATOM     27  C   UNL A   1      33.081  33.210  27.093  1.00  0.00     0.116 C 
BRANCH  27  28
ATOM     28  N   UNL A   1      32.793  34.290  28.023  1.00  0.00    -0.352 N 
ATOM     29  C   UNL A   1      33.328  34.552  29.259  1.00  0.00     0.251 C 
ATOM     30  H   UNL A   1      32.110  34.931  27.720  1.00  0.00     0.163 HD
ATOM     31  O   UNL A   1      32.793  35.386  29.988  1.00  0.00    -0.269 OA
BRANCH  29  32
ATOM     32  C   UNL A   1      34.524  33.817  29.722  1.00  0.00     0.039 A 
ATOM     33  C   UNL A   1      35.783  34.228  29.277  1.00  0.00     0.014 A 
ATOM     34  C   UNL A   1      34.408  32.727  30.589  1.00  0.00     0.014 A 
ATOM     35  C   UNL A   1      36.930  33.601  29.768  1.00  0.00     0.010 A 
ATOM     36  C   UNL A   1      35.553  32.142  31.125  1.00  0.00     0.010 A 
ATOM     37  C   UNL A   1      36.825  32.585  30.733  1.00  0.00    -0.014 A 
BRANCH  37  38
ATOM     38  C   UNL A   1      38.034  32.019  31.387  1.00  0.00     0.031 A 
ATOM     39  C   UNL A   1      38.822  30.927  30.722  1.00  0.00     0.074 A 
ATOM     40  C   UNL A   1      38.374  32.449  32.618  1.00  0.00     0.049 A 
ATOM     41  N   UNL A   1      39.848  30.255  31.177  1.00  0.00    -0.248 NA
ATOM     42  C   UNL A   1      38.387  30.526  29.376  1.00  0.00     0.031 C 
ATOM     43  C   UNL A   1      37.672  33.492  33.371  1.00  0.00     0.029 A 
ATOM     44  N   UNL A   1      39.385  32.059  33.461  1.00  0.00    -0.354 N 
ATOM     45  C   UNL A   1      40.182  29.348  30.177  1.00  0.00     0.074 A 
ATOM     46  C   UNL A   1      39.214  29.524  29.115  1.00  0.00     0.031 C 
ATOM     47  C   UNL A   1      38.287  33.673  34.550  1.00  0.00     0.029 A 
ATOM     48  C   UNL A   1      39.386  32.721  34.667  1.00  0.00     0.049 A 
ATOM     49  H   UNL A   1      40.048  31.372  33.223  1.00  0.00     0.167 HD
ATOM     50  C   UNL A   1      41.211  28.464  30.146  1.00  0.00     0.034 A 
ATOM     51  C   UNL A   1      40.165  32.562  35.756  1.00  0.00     0.034 A 
ATOM     52  C   UNL A   1      42.159  28.297  31.221  1.00  0.00     0.049 A 
ATOM     53  C   UNL A   1      41.254  31.519  35.725  1.00  0.00     0.074 A 
ATOM     54  C   UNL A   1      43.265  27.466  31.271  1.00  0.00     0.029 A 
ATOM     55  N   UNL A   1      42.106  28.955  32.443  1.00  0.00    -0.354 N 
ATOM     56  N   UNL A   1      41.590  30.705  34.750  1.00  0.00    -0.248 NA
ATOM     57  C   UNL A   1      42.069  31.373  36.937  1.00  0.00     0.031 C 
ATOM     58  C   UNL A   1      43.827  27.559  32.548  1.00  0.00     0.029 A 
ATOM     59  C   UNL A   1      43.128  28.512  33.270  1.00  0.00     0.049 A 
ATOM     60  H   UNL A   1      41.440  29.638  32.687  1.00  0.00     0.167 HD
ATOM     61  C   UNL A   1      42.671  29.968  35.227  1.00  0.00     0.074 A 
ATOM     62  C   UNL A   1      42.943  30.449  36.566  1.00  0.00     0.031 C 
ATOM     63  C   UNL A   1      43.376  28.984  34.612  1.00  0.00     0.034 A 
BRANCH  50  64
ATOM     64  C   UNL A   1      41.339  27.584  28.924  1.00  0.00     0.023 A 
ATOM     65  C   UNL A   1      42.336  27.804  27.957  1.00  0.00     0.031 A 
ATOM     66  C   UNL A   1      40.448  26.517  28.717  1.00  0.00     0.131 A 
ATOM     67  C   UNL A   1      42.375  27.014  26.798  1.00  0.00     0.055 A 
ATOM     68  C   UNL A   1      40.542  25.683  27.601  1.00  0.00     0.041 A 
ATOM     69  F   UNL A   1      39.462  26.270  29.594  1.00  0.00    -0.206 F 
ATOM     70  C   UNL A   1      41.502  25.939  26.625  1.00  0.00     0.022 A 
BRANCH  67  71
ATOM     71  S   UNL A   1      43.491  27.504  25.454  1.00  0.00     0.124 S 
ATOM     72  O   UNL A   1      42.544  27.854  24.397  1.00  0.00    -0.237 OA
ATOM     73  O   UNL A   1      44.227  28.614  26.045  1.00  0.00    -0.237 OA
ATOM     74  O   UNL A   1      44.274  26.296  25.202  1.00  0.00    -0.744 OA
ENDBRANCH  67  71
ENDBRANCH  50  64
BRANCH  51  75
ATOM     75  C   UNL A   1      39.930  33.383  36.980  1.00  0.00     0.023 A 
ATOM     76  C   UNL A   1      39.172  32.883  38.049  1.00  0.00     0.031 A 
ATOM     77  C   UNL A   1      40.422  34.698  37.078  1.00  0.00     0.131 A 
ATOM     78  C   UNL A   1      38.884  33.708  39.148  1.00  0.00     0.055 A 
ATOM     79  C   UNL A   1      40.183  35.493  38.200  1.00  0.00     0.041 A 
ATOM     80  F   UNL A   1      41.159  35.227  36.087  1.00  0.00    -0.206 F 
ATOM     81  C   UNL A   1      39.397  35.003  39.238  1.00  0.00     0.022 A 
BRANCH  78  82
ATOM     82  S   UNL A   1      37.744  33.093  40.417  1.00  0.00     0.124 S 
ATOM     83  O   UNL A   1      38.433  31.894  40.877  1.00  0.00    -0.237 OA
ATOM     84  O   UNL A   1      37.703  34.212  41.354  1.00  0.00    -0.237 OA
ATOM     85  O   UNL A   1      36.506  32.859  39.675  1.00  0.00    -0.744 OA
ENDBRANCH  78  82
ENDBRANCH  51  75
BRANCH  63  86
ATOM     86  C   UNL A   1      44.528  28.380  35.381  1.00  0.00     0.023 A 
ATOM     87  C   UNL A   1      44.363  27.232  36.176  1.00  0.00     0.031 A 
ATOM     88  C   UNL A   1      45.808  28.959  35.312  1.00  0.00     0.131 A 
ATOM     89  C   UNL A   1      45.447  26.728  36.909  1.00  0.00     0.055 A 
ATOM     90  C   UNL A   1      46.899  28.414  35.993  1.00  0.00     0.041 A 
ATOM     91  F   UNL A   1      46.023  30.058  34.573  1.00  0.00    -0.206 F 
ATOM     92  C   UNL A   1      46.719  27.300  36.806  1.00  0.00     0.022 A 
BRANCH  89  93
ATOM     93  S   UNL A   1      45.157  25.364  38.068  1.00  0.00     0.124 S 
ATOM     94  O   UNL A   1      46.420  24.636  38.000  1.00  0.00    -0.237 OA
ATOM     95  O   UNL A   1      44.894  26.066  39.320  1.00  0.00    -0.237 OA
ATOM     96  O   UNL A   1      44.007  24.665  37.496  1.00  0.00    -0.744 OA
ENDBRANCH  89  93
ENDBRANCH  63  86
ENDBRANCH  37  38
ENDBRANCH  29  32
ENDBRANCH  27  28
ENDBRANCH  26  27
ENDBRANCH  25  26
ENDBRANCH   1  25
TORSDOF 19
ENDMDL
MODEL 2
REMARK VINA RESULT:     -10.9      5.680     11.291
REMARK SMILES CCc1cc2c(C)cc(=O)oc2cc1O[C@H](C)C(=O)NCCCCCCNC(=O)c1ccc(-c2c3nc(c(-c4cc(S(=O)(=O)[O-])ccc4F)c4ccc([nH]4)c(-c4cc(S(=O)(=O)[O-])ccc4F)c4nc(c(-c5cc(S(=O)(=O)[O-])ccc5F)c5ccc2[nH]5)C=C4)C=C3)cc1
REMARK SMILES IDX 23 1 22 2 21 3 20 4 18 5 19 6 16 8 17 9 15 10 14 11 3 12
REMARK SMILES IDX 4 13 5 14 13 15 6 16 12 17 7 18 8 19 11 20 9 21 10 22 2 23
REMARK SMILES IDX 1 24 24 25 25 26 26 27 27 28 28 29 29 31 30 32 31 33 92 34
REMARK SMILES IDX 32 35 91 36 33 37 34 38 35 39 85 40 36 41 90 42 84 43 86 44
REMARK SMILES IDX 37 45 89 46 83 47 82 48 38 50 70 51 50 52 69 53 51 54 54 55
REMARK SMILES IDX 68 56 87 57 52 58 53 59 67 61 88 62 55 63 39 64 40 65 48 66
REMARK SMILES IDX 41 67 47 68 49 69 46 70 42 71 43 72 44 73 45 74 71 75 72 76
REMARK SMILES IDX 80 77 73 78 79 79 81 80 78 81 74 82 75 83 76 84 77 85 56 86
REMARK SMILES IDX 57 87 65 88 58 89 64 90 66 91 63 92 59 93 60 94 61 95 62 96
REMARK H PARENT 20 7 27 30 86 49 54 60
REMARK Flexibility Score: inf
ROOT
ATOM      1  C   UNL A   1      37.126  22.442  24.206  1.00  0.00     0.002 C 
ENDROOT
BRANCH   1   2
ATOM      2  C   UNL A   1      36.349  23.682  24.645  1.00  0.00     0.021 C 
BRANCH   2   3
ATOM      3  C   UNL A   1      34.867  23.649  24.303  1.00  0.00     0.116 C 
BRANCH   3   4
ATOM      4  N   UNL A   1      34.573  23.444  22.911  1.00  0.00    -0.353 N 
ATOM      5  C   UNL A   1      33.376  23.130  22.335  1.00  0.00     0.260 C 
ATOM      6  O   UNL A   1      33.331  23.188  21.098  1.00  0.00    -0.271 OA
ATOM      7  H   UNL A   1      35.333  23.544  22.293  1.00  0.00     0.163 HD
BRANCH   5   8
ATOM      8  C   UNL A   1      32.140  22.597  23.142  1.00  0.00     0.258 C 
ATOM      9  C   UNL A   1      32.499  21.297  23.860  1.00  0.00     0.064 C 
BRANCH   8  10
ATOM     10  O   UNL A   1      31.185  23.439  23.790  1.00  0.00    -0.480 OA
BRANCH  10  11
ATOM     11  C   UNL A   1      31.404  24.724  24.184  1.00  0.00     0.127 A 
ATOM     12  C   UNL A   1      31.686  24.940  25.547  1.00  0.00    -0.005 A 
ATOM     13  C   UNL A   1      31.735  26.266  26.046  1.00  0.00     0.019 A 
ATOM     14  C   UNL A   1      31.504  27.368  25.216  1.00  0.00     0.021 A 
ATOM     15  C   UNL A   1      31.359  25.821  23.328  1.00  0.00     0.094 A 
ATOM     16  C   UNL A   1      31.405  28.758  25.685  1.00  0.00    -0.033 A 
ATOM     17  C   UNL A   1      31.330  27.114  23.860  1.00  0.00     0.142 A 
ATOM     18  C   UNL A   1      31.781  29.120  27.091  1.00  0.00     0.045 C 
ATOM     19  C   UNL A   1      30.952  29.685  24.827  1.00  0.00     0.098 A 
ATOM     20  O   UNL A   1      30.975  28.136  22.959  1.00  0.00    -0.423 OA
ATOM     21  C   UNL A   1      30.582  29.374  23.439  1.00  0.00     0.336 A 
ATOM     22  O   UNL A   1      29.955  30.170  22.751  1.00  0.00    -0.246 OA
BRANCH  12  23
ATOM     23  C   UNL A   1      31.868  23.797  26.529  1.00  0.00     0.036 C 
ATOM     24  C   UNL A   1      30.577  23.084  26.918  1.00  0.00     0.009 C 
ENDBRANCH  12  23
ENDBRANCH  10  11
ENDBRANCH   8  10
ENDBRANCH   5   8
ENDBRANCH   3   4
ENDBRANCH   2   3
ENDBRANCH   1   2
BRANCH   1  25
ATOM     25  C   UNL A   1      36.876  21.181  25.044  1.00  0.00     0.002 C 
BRANCH  25  26
ATOM     26  C   UNL A   1      38.005  20.143  25.041  1.00  0.00     0.021 C 
BRANCH  26  27
ATOM     27  C   UNL A   1      39.268  20.560  25.791  1.00  0.00     0.116 C 
BRANCH  27  28
ATOM     28  N   UNL A   1      40.185  19.445  25.971  1.00  0.00    -0.352 N 
ATOM     29  C   UNL A   1      41.537  19.447  26.198  1.00  0.00     0.251 C 
ATOM     30  H   UNL A   1      39.772  18.553  25.921  1.00  0.00     0.163 HD
ATOM     31  O   UNL A   1      42.172  18.399  26.099  1.00  0.00    -0.269 OA
BRANCH  29  32
ATOM     32  C   UNL A   1      42.232  20.708  26.535  1.00  0.00     0.039 A 
ATOM     33  C   UNL A   1      42.760  21.484  25.500  1.00  0.00     0.014 A 
ATOM     34  C   UNL A   1      42.363  21.126  27.862  1.00  0.00     0.014 A 
ATOM     35  C   UNL A   1      43.347  22.718  25.789  1.00  0.00     0.010 A 
ATOM     36  C   UNL A   1      42.891  22.384  28.144  1.00  0.00     0.010 A 
ATOM     37  C   UNL A   1      43.372  23.200  27.109  1.00  0.00    -0.014 A 
BRANCH  37  38
ATOM     38  C   UNL A   1      43.841  24.576  27.415  1.00  0.00     0.031 A 
ATOM     39  C   UNL A   1      42.872  25.633  27.861  1.00  0.00     0.074 A 
ATOM     40  C   UNL A   1      45.139  24.884  27.218  1.00  0.00     0.049 A 
ATOM     41  N   UNL A   1      43.083  26.904  28.088  1.00  0.00    -0.248 NA
ATOM     42  C   UNL A   1      41.479  25.208  28.060  1.00  0.00     0.031 C 
ATOM     43  C   UNL A   1      46.170  23.945  26.768  1.00  0.00     0.029 A 
ATOM     44  N   UNL A   1      45.814  26.071  27.357  1.00  0.00    -0.354 N 
ATOM     45  C   UNL A   1      41.851  27.435  28.454  1.00  0.00     0.074 A 
ATOM     46  C   UNL A   1      40.890  26.355  28.366  1.00  0.00     0.031 C 
ATOM     47  C   UNL A   1      47.346  24.585  26.691  1.00  0.00     0.029 A 
ATOM     48  C   UNL A   1      47.146  25.992  27.024  1.00  0.00     0.049 A 
ATOM     49  H   UNL A   1      45.385  26.900  27.668  1.00  0.00     0.167 HD
ATOM     50  C   UNL A   1      41.556  28.701  28.841  1.00  0.00     0.034 A 
ATOM     51  C   UNL A   1      48.096  26.948  26.967  1.00  0.00     0.034 A 
ATOM     52  C   UNL A   1      42.528  29.766  28.912  1.00  0.00     0.049 A 
ATOM     53  C   UNL A   1      47.725  28.364  27.329  1.00  0.00     0.074 A 
ATOM     54  C   UNL A   1      42.345  31.070  29.338  1.00  0.00     0.029 A 
ATOM     55  N   UNL A   1      43.859  29.659  28.530  1.00  0.00    -0.354 N 
ATOM     56  N   UNL A   1      46.565  28.838  27.724  1.00  0.00    -0.248 NA
ATOM     57  C   UNL A   1      48.789  29.372  27.240  1.00  0.00     0.031 C 
ATOM     58  C   UNL A   1      43.538  31.771  29.133  1.00  0.00     0.029 A 
ATOM     59  C   UNL A   1      44.494  30.886  28.663  1.00  0.00     0.049 A 
ATOM     60  H   UNL A   1      44.290  28.833  28.212  1.00  0.00     0.167 HD
ATOM     61  C   UNL A   1      46.770  30.196  27.952  1.00  0.00     0.074 A 
ATOM     62  C   UNL A   1      48.166  30.459  27.672  1.00  0.00     0.031 C 
ATOM     63  C   UNL A   1      45.883  31.141  28.358  1.00  0.00     0.034 A 
BRANCH  50  64
ATOM     64  C   UNL A   1      40.117  29.010  29.182  1.00  0.00     0.023 A 
ATOM     65  C   UNL A   1      39.679  29.113  30.515  1.00  0.00     0.031 A 
ATOM     66  C   UNL A   1      39.167  29.195  28.163  1.00  0.00     0.131 A 
ATOM     67  C   UNL A   1      38.320  29.325  30.792  1.00  0.00     0.055 A 
ATOM     68  C   UNL A   1      37.831  29.487  28.444  1.00  0.00     0.041 A 
ATOM     69  F   UNL A   1      39.520  29.088  26.872  1.00  0.00    -0.206 F 
ATOM     70  C   UNL A   1      37.397  29.539  29.766  1.00  0.00     0.022 A 
BRANCH  67  71
ATOM     71  S   UNL A   1      37.752  29.174  32.508  1.00  0.00     0.124 S 
ATOM     72  O   UNL A   1      37.776  27.726  32.700  1.00  0.00    -0.237 OA
ATOM     73  O   UNL A   1      38.760  29.932  33.240  1.00  0.00    -0.237 OA
ATOM     74  O   UNL A   1      36.418  29.770  32.481  1.00  0.00    -0.744 OA
ENDBRANCH  67  71
ENDBRANCH  50  64
BRANCH  51  75
ATOM     75  C   UNL A   1      49.480  26.612  26.521  1.00  0.00     0.023 A 
ATOM     76  C   UNL A   1      50.548  26.596  27.430  1.00  0.00     0.031 A 
ATOM     77  C   UNL A   1      49.763  26.347  25.168  1.00  0.00     0.131 A 
ATOM     78  C   UNL A   1      51.855  26.371  26.972  1.00  0.00     0.055 A 
ATOM     79  C   UNL A   1      51.057  26.063  24.726  1.00  0.00     0.041 A 
ATOM     80  F   UNL A   1      48.780  26.342  24.253  1.00  0.00    -0.206 F 
ATOM     81  C   UNL A   1      52.115  26.090  25.629  1.00  0.00     0.022 A 
BRANCH  78  82
ATOM     82  S   UNL A   1      53.227  26.550  28.143  1.00  0.00     0.124 S 
ATOM     83  O   UNL A   1      52.590  26.180  29.402  1.00  0.00    -0.237 OA
ATOM     84  O   UNL A   1      54.203  25.604  27.613  1.00  0.00    -0.237 OA
ATOM     85  O   UNL A   1      53.596  27.959  28.019  1.00  0.00    -0.744 OA
ENDBRANCH  78  82
ENDBRANCH  51  75
BRANCH  63  86
ATOM     86  C   UNL A   1      46.409  32.544  28.546  1.00  0.00     0.023 A 
ATOM     87  C   UNL A   1      46.529  33.438  27.468  1.00  0.00     0.031 A 
ATOM     88  C   UNL A   1      46.793  32.993  29.823  1.00  0.00     0.131 A 
ATOM     89  C   UNL A   1      47.064  34.717  27.676  1.00  0.00     0.055 A 
ATOM     90  C   UNL A   1      47.264  34.291  30.035  1.00  0.00     0.041 A 
ATOM     91  F   UNL A   1      46.705  32.182  30.888  1.00  0.00    -0.206 F 
ATOM     92  C   UNL A   1      47.413  35.157  28.957  1.00  0.00     0.022 A 
BRANCH  89  93
ATOM     93  S   UNL A   1      47.379  35.775  26.237  1.00  0.00     0.124 S 
ATOM     94  O   UNL A   1      47.610  34.792  25.184  1.00  0.00    -0.237 OA
ATOM     95  O   UNL A   1      46.141  36.540  26.133  1.00  0.00    -0.237 OA
ATOM     96  O   UNL A   1      48.555  36.550  26.630  1.00  0.00    -0.744 OA
ENDBRANCH  89  93
ENDBRANCH  63  86
ENDBRANCH  37  38
ENDBRANCH  29  32
ENDBRANCH  27  28
ENDBRANCH  26  27
ENDBRANCH  25  26
ENDBRANCH   1  25
TORSDOF 19
ENDMDL
MODEL 3
REMARK VINA RESULT:     -10.7      7.058      9.937
REMARK SMILES CCc1cc2c(C)cc(=O)oc2cc1O[C@H](C)C(=O)NCCCCCCNC(=O)c1ccc(-c2c3nc(c(-c4cc(S(=O)(=O)[O-])ccc4F)c4ccc([nH]4)c(-c4cc(S(=O)(=O)[O-])ccc4F)c4nc(c(-c5cc(S(=O)(=O)[O-])ccc5F)c5ccc2[nH]5)C=C4)C=C3)cc1
REMARK SMILES IDX 23 1 22 2 21 3 20 4 18 5 19 6 16 8 17 9 15 10 14 11 3 12
REMARK SMILES IDX 4 13 5 14 13 15 6 16 12 17 7 18 8 19 11 20 9 21 10 22 2 23
REMARK SMILES IDX 1 24 24 25 25 26 26 27 27 28 28 29 29 31 30 32 31 33 92 34
REMARK SMILES IDX 32 35 91 36 33 37 34 38 35 39 85 40 36 41 90 42 84 43 86 44
REMARK SMILES IDX 37 45 89 46 83 47 82 48 38 50 70 51 50 52 69 53 51 54 54 55
REMARK SMILES IDX 68 56 87 57 52 58 53 59 67 61 88 62 55 63 39 64 40 65 48 66
REMARK SMILES IDX 41 67 47 68 49 69 46 70 42 71 43 72 44 73 45 74 71 75 72 76
REMARK SMILES IDX 80 77 73 78 79 79 81 80 78 81 74 82 75 83 76 84 77 85 56 86
REMARK SMILES IDX 57 87 65 88 58 89 64 90 66 91 63 92 59 93 60 94 61 95 62 96
REMARK H PARENT 20 7 27 30 86 49 54 60
REMARK Flexibility Score: inf
ROOT
ATOM      1  C   UNL A   1      35.717  33.459  34.047  1.00  0.00     0.002 C 
ENDROOT
BRANCH   1   2
ATOM      2  C   UNL A   1      35.191  34.893  34.078  1.00  0.00     0.021 C 
BRANCH   2   3
ATOM      3  C   UNL A   1      35.114  35.564  32.714  1.00  0.00     0.116 C 
BRANCH   3   4
ATOM      4  N   UNL A   1      33.852  36.183  32.417  1.00  0.00    -0.353 N 
ATOM      5  C   UNL A   1      33.113  36.096  31.273  1.00  0.00     0.260 C 
ATOM      6  O   UNL A   1      31.969  36.568  31.321  1.00  0.00    -0.271 OA
ATOM      7  H   UNL A   1      33.470  36.742  33.132  1.00  0.00     0.163 HD
BRANCH   5   8
ATOM      8  C   UNL A   1      33.683  35.554  29.914  1.00  0.00     0.258 C 
ATOM      9  C   UNL A   1      33.167  36.399  28.750  1.00  0.00     0.064 C 
BRANCH   8  10
ATOM     10  O   UNL A   1      34.987  34.990  29.762  1.00  0.00    -0.480 OA
BRANCH  10  11
ATOM     11  C   UNL A   1      35.254  33.698  29.431  1.00  0.00     0.127 A 
ATOM     12  C   UNL A   1      36.601  33.285  29.482  1.00  0.00    -0.005 A 
ATOM     13  C   UNL A   1      36.958  32.013  28.969  1.00  0.00     0.019 A 
ATOM     14  C   UNL A   1      36.005  31.156  28.409  1.00  0.00     0.021 A 
ATOM     15  C   UNL A   1      34.287  32.774  29.045  1.00  0.00     0.094 A 
ATOM     16  C   UNL A   1      36.319  29.885  27.738  1.00  0.00    -0.033 A 
ATOM     17  C   UNL A   1      34.677  31.560  28.471  1.00  0.00     0.142 A 
ATOM     18  C   UNL A   1      37.697  29.299  27.815  1.00  0.00     0.045 C 
ATOM     19  C   UNL A   1      35.344  29.279  27.043  1.00  0.00     0.098 A 
ATOM     20  O   UNL A   1      33.654  30.831  27.834  1.00  0.00    -0.423 OA
ATOM     21  C   UNL A   1      33.978  29.815  26.951  1.00  0.00     0.336 A 
ATOM     22  O   UNL A   1      33.177  29.384  26.131  1.00  0.00    -0.246 OA
BRANCH  12  23
ATOM     23  C   UNL A   1      37.706  34.186  30.000  1.00  0.00     0.036 C 
ATOM     24  C   UNL A   1      38.467  33.632  31.199  1.00  0.00     0.009 C 
ENDBRANCH  12  23
ENDBRANCH  10  11
ENDBRANCH   8  10
ENDBRANCH   5   8
ENDBRANCH   3   4
ENDBRANCH   2   3
ENDBRANCH   1   2
BRANCH   1  25
ATOM     25  C   UNL A   1      35.256  32.617  32.850  1.00  0.00     0.002 C 
BRANCH  25  26
ATOM     26  C   UNL A   1      36.073  31.350  32.570  1.00  0.00     0.021 C 
BRANCH  26  27
ATOM     27  C   UNL A   1      37.242  31.112  33.523  1.00  0.00     0.116 C 
BRANCH  27  28
ATOM     28  N   UNL A   1      37.680  29.725  33.508  1.00  0.00    -0.352 N 
ATOM     29  C   UNL A   1      38.697  29.131  32.805  1.00  0.00     0.251 C 
ATOM     30  H   UNL A   1      37.167  29.119  34.092  1.00  0.00     0.163 HD
ATOM     31  O   UNL A   1      38.766  27.904  32.757  1.00  0.00    -0.269 OA
BRANCH  29  32
ATOM     32  C   UNL A   1      39.687  29.961  32.088  1.00  0.00     0.039 A 
ATOM     33  C   UNL A   1      40.680  30.614  32.823  1.00  0.00     0.014 A 
ATOM     34  C   UNL A   1      39.640  30.097  30.698  1.00  0.00     0.014 A 
ATOM     35  C   UNL A   1      41.674  31.335  32.158  1.00  0.00     0.010 A 
ATOM     36  C   UNL A   1      40.666  30.764  30.031  1.00  0.00     0.010 A 
ATOM     37  C   UNL A   1      41.702  31.374  30.754  1.00  0.00    -0.014 A 
BRANCH  37  38
ATOM     38  C   UNL A   1      42.839  31.995  30.026  1.00  0.00     0.031 A 
ATOM     39  C   UNL A   1      44.060  31.191  29.684  1.00  0.00     0.074 A 
ATOM     40  C   UNL A   1      42.791  33.312  29.739  1.00  0.00     0.049 A 
ATOM     41  N   UNL A   1      45.180  31.582  29.132  1.00  0.00    -0.248 NA
ATOM     42  C   UNL A   1      44.023  29.761  30.024  1.00  0.00     0.031 C 
ATOM     43  C   UNL A   1      41.665  34.200  30.040  1.00  0.00     0.029 A 
ATOM     44  N   UNL A   1      43.712  34.138  29.143  1.00  0.00    -0.354 N 
ATOM     45  C   UNL A   1      45.985  30.450  29.061  1.00  0.00     0.074 A 
ATOM     46  C   UNL A   1      45.240  29.371  29.674  1.00  0.00     0.031 C 
ATOM     47  C   UNL A   1      41.952  35.437  29.607  1.00  0.00     0.029 A 
ATOM     48  C   UNL A   1      43.303  35.448  29.055  1.00  0.00     0.049 A 
ATOM     49  H   UNL A   1      44.581  33.821  28.808  1.00  0.00     0.167 HD
ATOM     50  C   UNL A   1      47.222  30.325  28.519  1.00  0.00     0.034 A 
ATOM     51  C   UNL A   1      43.952  36.543  28.606  1.00  0.00     0.034 A 
ATOM     52  C   UNL A   1      47.951  31.418  27.921  1.00  0.00     0.049 A 
ATOM     53  C   UNL A   1      45.356  36.390  28.078  1.00  0.00     0.074 A 
ATOM     54  C   UNL A   1      49.188  31.388  27.300  1.00  0.00     0.029 A 
ATOM     55  N   UNL A   1      47.524  32.738  27.885  1.00  0.00    -0.354 N 
ATOM     56  N   UNL A   1      46.083  35.301  27.969  1.00  0.00    -0.248 NA
ATOM     57  C   UNL A   1      46.026  37.610  27.612  1.00  0.00     0.031 C 
ATOM     58  C   UNL A   1      49.544  32.700  26.967  1.00  0.00     0.029 A 
ATOM     59  C   UNL A   1      48.494  33.539  27.298  1.00  0.00     0.049 A 
ATOM     60  H   UNL A   1      46.658  33.061  28.225  1.00  0.00     0.167 HD
ATOM     61  C   UNL A   1      47.288  35.706  27.400  1.00  0.00     0.074 A 
ATOM     62  C   UNL A   1      47.180  37.132  27.169  1.00  0.00     0.031 C 
ATOM     63  C   UNL A   1      48.384  34.965  27.094  1.00  0.00     0.034 A 
BRANCH  50  64
ATOM     64  C   UNL A   1      47.878  28.966  28.582  1.00  0.00     0.023 A 
ATOM     65  C   UNL A   1      47.719  28.020  27.554  1.00  0.00     0.031 A 
ATOM     66  C   UNL A   1      48.666  28.605  29.690  1.00  0.00     0.131 A 
ATOM     67  C   UNL A   1      48.280  26.740  27.686  1.00  0.00     0.055 A 
ATOM     68  C   UNL A   1      49.290  27.359  29.777  1.00  0.00     0.041 A 
ATOM     69  F   UNL A   1      48.838  29.458  30.713  1.00  0.00    -0.206 F 
ATOM     70  C   UNL A   1      49.087  26.412  28.777  1.00  0.00     0.022 A 
BRANCH  67  71
ATOM     71  S   UNL A   1      47.823  25.466  26.478  1.00  0.00     0.124 S 
ATOM     72  O   UNL A   1      48.779  25.721  25.403  1.00  0.00    -0.237 OA
ATOM     73  O   UNL A   1      48.023  24.233  27.231  1.00  0.00    -0.237 OA
ATOM     74  O   UNL A   1      46.434  25.784  26.155  1.00  0.00    -0.744 OA
ENDBRANCH  67  71
ENDBRANCH  50  64
BRANCH  51  75
ATOM     75  C   UNL A   1      43.299  37.883  28.663  1.00  0.00     0.023 A 
ATOM     76  C   UNL A   1      43.428  38.701  29.795  1.00  0.00     0.031 A 
ATOM     77  C   UNL A   1      42.498  38.347  27.603  1.00  0.00     0.131 A 
ATOM     78  C   UNL A   1      42.728  39.916  29.864  1.00  0.00     0.055 A 
ATOM     79  C   UNL A   1      41.852  39.584  27.651  1.00  0.00     0.041 A 
ATOM     80  F   UNL A   1      42.343  37.609  26.491  1.00  0.00    -0.206 F 
ATOM     81  C   UNL A   1      41.954  40.370  28.794  1.00  0.00     0.022 A 
BRANCH  78  82
ATOM     82  S   UNL A   1      42.767  40.851  31.417  1.00  0.00     0.124 S 
ATOM     83  O   UNL A   1      42.933  39.786  32.399  1.00  0.00    -0.237 OA
ATOM     84  O   UNL A   1      43.917  41.726  31.215  1.00  0.00    -0.237 OA
ATOM     85  O   UNL A   1      41.469  41.525  31.438  1.00  0.00    -0.744 OA
ENDBRANCH  78  82
ENDBRANCH  51  75
BRANCH  63  86
ATOM     86  C   UNL A   1      49.545  35.686  26.452  1.00  0.00     0.023 A 
ATOM     87  C   UNL A   1      50.558  36.284  27.222  1.00  0.00     0.031 A 
ATOM     88  C   UNL A   1      49.640  35.773  25.051  1.00  0.00     0.131 A 
ATOM     89  C   UNL A   1      51.596  36.984  26.589  1.00  0.00     0.055 A 
ATOM     90  C   UNL A   1      50.711  36.414  24.425  1.00  0.00     0.041 A 
ATOM     91  F   UNL A   1      48.699  35.225  24.267  1.00  0.00    -0.206 F 
ATOM     92  C   UNL A   1      51.691  37.034  25.195  1.00  0.00     0.022 A 
BRANCH  89  93
ATOM     93  S   UNL A   1      52.781  37.900  27.612  1.00  0.00     0.124 S 
ATOM     94  O   UNL A   1      54.004  37.128  27.423  1.00  0.00    -0.237 OA
ATOM     95  O   UNL A   1      52.764  39.225  27.000  1.00  0.00    -0.237 OA
ATOM     96  O   UNL A   1      52.203  37.830  28.953  1.00  0.00    -0.744 OA
ENDBRANCH  89  93
ENDBRANCH  63  86
ENDBRANCH  37  38
ENDBRANCH  29  32
ENDBRANCH  27  28
ENDBRANCH  26  27
ENDBRANCH  25  26
ENDBRANCH   1  25
TORSDOF 19
ENDMDL
