MODEL 1
REMARK VINA RESULT:     -13.7      0.000      0.000
REMARK SMILES Cc1ccc(-c2cc(Cl)cc3c2O[C@@H](C(F)(F)F)C(C(=O)NCCCCCCNC(=O)c2ccc(-c4c5nc(c(-c6cc(S(=O)(=O)[O-])ccc6F)c6ccc([nH]6)c(-c6cc(S(=O)(=O)[O-])ccc6F)c6nc(c(-c7cc(S(=O)(=O)[O-])ccc7F)c7ccc4[nH]7)C=C6)C=C5)cc2)=C3)cc1
REMARK SMILES IDX 26 1 25 2 24 3 23 4 22 5 20 6 21 7 19 9 6 10 7 11 12 12 8 13
REMARK SMILES IDX 11 14 13 15 9 16 10 17 95 18 14 19 5 20 1 21 2 22 3 23 97 24
REMARK SMILES IDX 4 25 96 26 15 27 16 28 17 29 18 30 27 31 28 32 29 33 30 34
REMARK SMILES IDX 31 36 32 37 33 38 94 39 34 40 93 41 35 42 36 43 37 44 87 45
REMARK SMILES IDX 38 46 92 47 86 48 88 49 39 50 91 51 85 52 84 53 40 55 72 56
REMARK SMILES IDX 52 57 71 58 53 59 56 60 70 61 89 62 54 63 55 64 69 66 90 67
REMARK SMILES IDX 57 68 41 69 42 70 50 71 43 72 49 73 51 74 48 75 44 76 45 77
REMARK SMILES IDX 46 78 47 79 73 80 74 81 82 82 75 83 81 84 83 85 80 86 76 87
REMARK SMILES IDX 77 88 78 89 79 90 58 91 59 92 67 93 60 94 66 95 68 96 65 97
REMARK SMILES IDX 61 98 62 99 63 100 64 101
REMARK H PARENT 22 8 29 35 88 54 56 65
REMARK Flexibility Score: inf
ROOT
ATOM      1  C   UNL A   1      37.518  21.640  25.115  1.00  0.00     0.002 C 
ENDROOT
BRANCH   1   2
ATOM      2  C   UNL A   1      37.032  23.077  24.937  1.00  0.00     0.002 C 
BRANCH   2   3
ATOM      3  C   UNL A   1      36.096  23.673  25.983  1.00  0.00     0.021 C 
BRANCH   3   4
ATOM      4  C   UNL A   1      34.590  23.448  25.901  1.00  0.00     0.116 C 
BRANCH   4   5
ATOM      5  N   UNL A   1      33.685  24.486  26.349  1.00  0.00    -0.352 N 
ATOM      6  C   UNL A   1      32.368  24.737  26.065  1.00  0.00     0.251 C 
ATOM      7  O   UNL A   1      31.748  25.434  26.876  1.00  0.00    -0.270 OA
ATOM      8  H   UNL A   1      34.093  25.131  26.972  1.00  0.00     0.163 HD
BRANCH   6   9
ATOM      9  C   UNL A   1      31.636  24.267  24.794  1.00  0.00     0.067 C 
ATOM     10  C   UNL A   1      31.493  28.152  23.881  1.00  0.00     0.026 A 
ATOM     11  C   UNL A   1      30.320  28.744  23.370  1.00  0.00     0.033 A 
ATOM     12  C   UNL A   1      31.491  26.759  23.908  1.00  0.00     0.135 A 
ATOM     13  C   UNL A   1      29.135  28.006  23.294  1.00  0.00     0.042 A 
ATOM     14  C   UNL A   1      30.271  26.078  24.151  1.00  0.00     0.019 A 
ATOM     15  O   UNL A   1      32.653  26.025  23.583  1.00  0.00    -0.475 OA
ATOM     16  Cl  UNL A   1      27.692  28.773  22.753  1.00  0.00    -0.084 Cl
ATOM     17  C   UNL A   1      29.082  26.700  23.784  1.00  0.00     0.032 A 
ATOM     18  C   UNL A   1      30.345  24.700  24.760  1.00  0.00     0.025 C 
ATOM     19  C   UNL A   1      32.271  24.618  23.463  1.00  0.00     0.314 C 
BRANCH  10  20
ATOM     20  C   UNL A   1      32.070  28.887  25.045  1.00  0.00    -0.015 A 
ATOM     21  C   UNL A   1      33.778  31.567  28.002  1.00  0.00     0.044 C 
ATOM     22  C   UNL A   1      33.165  30.620  27.013  1.00  0.00    -0.051 A 
ATOM     23  C   UNL A   1      33.802  29.417  26.663  1.00  0.00     0.004 A 
ATOM     24  C   UNL A   1      31.941  30.923  26.425  1.00  0.00     0.004 A 
ATOM     25  C   UNL A   1      33.263  28.558  25.685  1.00  0.00     0.009 A 
ATOM     26  C   UNL A   1      31.405  30.065  25.468  1.00  0.00     0.009 A 
ENDBRANCH  10  20
BRANCH  19  27
ATOM     27  C   UNL A   1      33.164  23.525  22.846  1.00  0.00     0.429 C 
ATOM     28  F   UNL A   1      32.835  23.357  21.531  1.00  0.00    -0.167 F 
ATOM     29  F   UNL A   1      34.475  23.834  22.878  1.00  0.00    -0.167 F 
ATOM     30  F   UNL A   1      32.998  22.305  23.407  1.00  0.00    -0.167 F 
ENDBRANCH  19  27
ENDBRANCH   6   9
ENDBRANCH   4   5
ENDBRANCH   3   4
ENDBRANCH   2   3
ENDBRANCH   1   2
BRANCH   1  31
ATOM     31  C   UNL A   1      38.897  21.445  25.738  1.00  0.00     0.021 C 
BRANCH  31  32
ATOM     32  C   UNL A   1      39.418  22.606  26.577  1.00  0.00     0.116 C 
BRANCH  32  33
ATOM     33  N   UNL A   1      40.801  22.973  26.295  1.00  0.00    -0.352 N 
ATOM     34  C   UNL A   1      41.395  24.225  26.323  1.00  0.00     0.251 C 
ATOM     35  H   UNL A   1      41.395  22.228  26.052  1.00  0.00     0.163 HD
ATOM     36  O   UNL A   1      42.573  24.375  26.034  1.00  0.00    -0.269 OA
BRANCH  34  37
ATOM     37  C   UNL A   1      40.612  25.381  26.827  1.00  0.00     0.039 A 
ATOM     38  C   UNL A   1      40.777  26.607  26.173  1.00  0.00     0.014 A 
ATOM     39  C   UNL A   1      39.898  25.316  28.021  1.00  0.00     0.014 A 
ATOM     40  C   UNL A   1      40.440  27.787  26.834  1.00  0.00     0.010 A 
ATOM     41  C   UNL A   1      39.645  26.485  28.716  1.00  0.00     0.010 A 
ATOM     42  C   UNL A   1      39.977  27.717  28.149  1.00  0.00    -0.014 A 
BRANCH  42  43
ATOM     43  C   UNL A   1      39.991  28.869  29.046  1.00  0.00     0.031 A 
ATOM     44  C   UNL A   1      38.902  29.864  29.052  1.00  0.00     0.074 A 
ATOM     45  C   UNL A   1      41.035  29.057  29.882  1.00  0.00     0.049 A 
ATOM     46  N   UNL A   1      39.087  31.125  29.262  1.00  0.00    -0.248 NA
ATOM     47  C   UNL A   1      37.511  29.512  28.801  1.00  0.00     0.031 C 
ATOM     48  C   UNL A   1      41.145  30.040  30.957  1.00  0.00     0.029 A 
ATOM     49  N   UNL A   1      42.315  28.537  29.761  1.00  0.00    -0.354 N 
ATOM     50  C   UNL A   1      37.852  31.690  29.467  1.00  0.00     0.074 A 
ATOM     51  C   UNL A   1      36.900  30.666  29.090  1.00  0.00     0.031 C 
ATOM     52  C   UNL A   1      42.443  30.238  31.231  1.00  0.00     0.029 A 
ATOM     53  C   UNL A   1      43.219  29.483  30.262  1.00  0.00     0.049 A 
ATOM     54  H   UNL A   1      42.549  27.657  29.388  1.00  0.00     0.167 HD
ATOM     55  C   UNL A   1      37.738  32.900  30.082  1.00  0.00     0.034 A 
ATOM     56  C   UNL A   1      44.217  29.986  29.482  1.00  0.00     0.034 A 
ATOM     57  C   UNL A   1      39.030  33.439  30.497  1.00  0.00     0.049 A 
ATOM     58  C   UNL A   1      44.136  31.483  29.284  1.00  0.00     0.074 A 
ATOM     59  C   UNL A   1      39.676  33.478  31.722  1.00  0.00     0.029 A 
ATOM     60  N   UNL A   1      39.974  33.808  29.545  1.00  0.00    -0.354 N 
ATOM     61  N   UNL A   1      43.085  32.205  29.559  1.00  0.00    -0.248 NA
ATOM     62  C   UNL A   1      45.228  32.279  28.735  1.00  0.00     0.031 C 
ATOM     63  C   UNL A   1      41.027  33.844  31.499  1.00  0.00     0.029 A 
ATOM     64  C   UNL A   1      41.199  34.050  30.142  1.00  0.00     0.049 A 
ATOM     65  H   UNL A   1      39.797  33.885  28.581  1.00  0.00     0.167 HD
ATOM     66  C   UNL A   1      43.318  33.515  29.214  1.00  0.00     0.074 A 
ATOM     67  C   UNL A   1      44.688  33.510  28.730  1.00  0.00     0.031 C 
ATOM     68  C   UNL A   1      42.350  34.475  29.354  1.00  0.00     0.034 A 
BRANCH  55  69
ATOM     69  C   UNL A   1      36.416  33.417  30.592  1.00  0.00     0.023 A 
ATOM     70  C   UNL A   1      35.562  34.140  29.736  1.00  0.00     0.031 A 
ATOM     71  C   UNL A   1      35.963  33.253  31.914  1.00  0.00     0.131 A 
ATOM     72  C   UNL A   1      34.393  34.754  30.217  1.00  0.00     0.055 A 
ATOM     73  C   UNL A   1      34.828  33.908  32.410  1.00  0.00     0.041 A 
ATOM     74  F   UNL A   1      36.599  32.438  32.770  1.00  0.00    -0.206 F 
ATOM     75  C   UNL A   1      34.043  34.679  31.562  1.00  0.00     0.022 A 
BRANCH  72  76
ATOM     76  S   UNL A   1      33.331  35.656  29.054  1.00  0.00     0.124 S 
ATOM     77  O   UNL A   1      32.620  34.575  28.378  1.00  0.00    -0.237 OA
ATOM     78  O   UNL A   1      32.536  36.492  29.947  1.00  0.00    -0.237 OA
ATOM     79  O   UNL A   1      34.285  36.382  28.218  1.00  0.00    -0.744 OA
ENDBRANCH  72  76
ENDBRANCH  55  69
BRANCH  56  80
ATOM     80  C   UNL A   1      44.740  29.008  28.487  1.00  0.00     0.023 A 
ATOM     81  C   UNL A   1      45.572  27.976  28.974  1.00  0.00     0.031 A 
ATOM     82  C   UNL A   1      44.152  28.838  27.227  1.00  0.00     0.131 A 
ATOM     83  C   UNL A   1      45.668  26.759  28.285  1.00  0.00     0.055 A 
ATOM     84  C   UNL A   1      44.300  27.643  26.512  1.00  0.00     0.041 A 
ATOM     85  F   UNL A   1      43.327  29.770  26.727  1.00  0.00    -0.206 F 
ATOM     86  C   UNL A   1      45.021  26.580  27.060  1.00  0.00     0.022 A 
BRANCH  83  87
ATOM     87  S   UNL A   1      46.416  25.329  29.121  1.00  0.00     0.124 S 
ATOM     88  O   UNL A   1      45.912  24.214  28.328  1.00  0.00    -0.237 OA
ATOM     89  O   UNL A   1      47.848  25.592  29.006  1.00  0.00    -0.237 OA
ATOM     90  O   UNL A   1      45.894  25.427  30.483  1.00  0.00    -0.744 OA
ENDBRANCH  83  87
ENDBRANCH  56  80
BRANCH  68  91
ATOM     91  C   UNL A   1      42.410  35.914  28.867  1.00  0.00     0.023 A 
ATOM     92  C   UNL A   1      43.049  36.953  29.558  1.00  0.00     0.031 A 
ATOM     93  C   UNL A   1      41.845  36.284  27.617  1.00  0.00     0.131 A 
ATOM     94  C   UNL A   1      43.047  38.274  29.070  1.00  0.00     0.055 A 
ATOM     95  C   UNL A   1      41.903  37.584  27.100  1.00  0.00     0.041 A 
ATOM     96  F   UNL A   1      41.216  35.400  26.830  1.00  0.00    -0.206 F 
ATOM     97  C   UNL A   1      42.495  38.595  27.835  1.00  0.00     0.022 A 
BRANCH  94  98
ATOM     98  S   UNL A   1      43.742  39.580  30.119  1.00  0.00     0.124 S 
ATOM     99  O   UNL A   1      44.076  38.843  31.335  1.00  0.00    -0.237 OA
ATOM    100  O   UNL A   1      44.878  40.044  29.329  1.00  0.00    -0.237 OA
ATOM    101  O   UNL A   1      42.646  40.537  30.254  1.00  0.00    -0.744 OA
ENDBRANCH  94  98
ENDBRANCH  68  91
ENDBRANCH  42  43
ENDBRANCH  34  37
ENDBRANCH  32  33
ENDBRANCH  31  32
ENDBRANCH   1  31
TORSDOF 18
ENDMDL
MODEL 2
REMARK VINA RESULT:     -12.6      1.681      2.685
REMARK SMILES Cc1ccc(-c2cc(Cl)cc3c2O[C@@H](C(F)(F)F)C(C(=O)NCCCCCCNC(=O)c2ccc(-c4c5nc(c(-c6cc(S(=O)(=O)[O-])ccc6F)c6ccc([nH]6)c(-c6cc(S(=O)(=O)[O-])ccc6F)c6nc(c(-c7cc(S(=O)(=O)[O-])ccc7F)c7ccc4[nH]7)C=C6)C=C5)cc2)=C3)cc1
REMARK SMILES IDX 26 1 25 2 24 3 23 4 22 5 20 6 21 7 19 9 6 10 7 11 12 12 8 13
REMARK SMILES IDX 11 14 13 15 9 16 10 17 95 18 14 19 5 20 1 21 2 22 3 23 97 24
REMARK SMILES IDX 4 25 96 26 15 27 16 28 17 29 18 30 27 31 28 32 29 33 30 34
REMARK SMILES IDX 31 36 32 37 33 38 94 39 34 40 93 41 35 42 36 43 37 44 87 45
REMARK SMILES IDX 38 46 92 47 86 48 88 49 39 50 91 51 85 52 84 53 40 55 72 56
REMARK SMILES IDX 52 57 71 58 53 59 56 60 70 61 89 62 54 63 55 64 69 66 90 67
REMARK SMILES IDX 57 68 41 69 42 70 50 71 43 72 49 73 51 74 48 75 44 76 45 77
REMARK SMILES IDX 46 78 47 79 73 80 74 81 82 82 75 83 81 84 83 85 80 86 76 87
REMARK SMILES IDX 77 88 78 89 79 90 58 91 59 92 67 93 60 94 66 95 68 96 65 97
REMARK SMILES IDX 61 98 62 99 63 100 64 101
REMARK H PARENT 22 8 29 35 88 54 56 65
REMARK Flexibility Score: inf
ROOT
ATOM      1  C   UNL A   1      37.037  22.208  23.773  1.00  0.00     0.002 C 
ENDROOT
BRANCH   1   2
ATOM      2  C   UNL A   1      35.779  22.853  23.194  1.00  0.00     0.002 C 
BRANCH   2   3
ATOM      3  C   UNL A   1      34.415  22.322  23.621  1.00  0.00     0.021 C 
BRANCH   3   4
ATOM      4  C   UNL A   1      33.150  22.724  22.869  1.00  0.00     0.116 C 
BRANCH   4   5
ATOM      5  N   UNL A   1      32.710  24.103  22.897  1.00  0.00    -0.352 N 
ATOM      6  C   UNL A   1      33.114  25.178  23.645  1.00  0.00     0.251 C 
ATOM      7  O   UNL A   1      32.855  26.299  23.193  1.00  0.00    -0.270 OA
ATOM      8  H   UNL A   1      31.986  24.305  22.260  1.00  0.00     0.163 HD
BRANCH   6   9
ATOM      9  C   UNL A   1      33.806  25.086  25.018  1.00  0.00     0.067 C 
ATOM     10  C   UNL A   1      31.417  28.125  26.018  1.00  0.00     0.026 A 
ATOM     11  C   UNL A   1      31.901  29.232  26.745  1.00  0.00     0.033 A 
ATOM     12  C   UNL A   1      32.275  27.029  25.964  1.00  0.00     0.135 A 
ATOM     13  C   UNL A   1      33.267  29.350  27.020  1.00  0.00     0.042 A 
ATOM     14  C   UNL A   1      33.675  27.254  25.933  1.00  0.00     0.019 A 
ATOM     15  O   UNL A   1      31.777  25.711  26.058  1.00  0.00    -0.475 OA
ATOM     16  Cl  UNL A   1      33.850  30.753  27.828  1.00  0.00    -0.084 Cl
ATOM     17  C   UNL A   1      34.172  28.412  26.522  1.00  0.00     0.032 A 
ATOM     18  C   UNL A   1      34.542  26.198  25.294  1.00  0.00     0.025 C 
ATOM     19  C   UNL A   1      32.921  24.813  26.218  1.00  0.00     0.314 C 
BRANCH  10  20
ATOM     20  C   UNL A   1      30.670  28.506  24.783  1.00  0.00    -0.015 A 
ATOM     21  C   UNL A   1      28.126  30.024  21.610  1.00  0.00     0.044 C 
ATOM     22  C   UNL A   1      29.040  29.497  22.676  1.00  0.00    -0.051 A 
ATOM     23  C   UNL A   1      29.132  28.121  22.944  1.00  0.00     0.004 A 
ATOM     24  C   UNL A   1      29.819  30.375  23.423  1.00  0.00     0.004 A 
ATOM     25  C   UNL A   1      29.936  27.627  23.990  1.00  0.00     0.009 A 
ATOM     26  C   UNL A   1      30.623  29.884  24.447  1.00  0.00     0.009 A 
ENDBRANCH  10  20
BRANCH  19  27
ATOM     27  C   UNL A   1      32.814  23.336  26.642  1.00  0.00     0.429 C 
ATOM     28  F   UNL A   1      32.263  23.259  27.888  1.00  0.00    -0.167 F 
ATOM     29  F   UNL A   1      32.023  22.609  25.827  1.00  0.00    -0.167 F 
ATOM     30  F   UNL A   1      34.009  22.712  26.747  1.00  0.00    -0.167 F 
ENDBRANCH  19  27
ENDBRANCH   6   9
ENDBRANCH   4   5
ENDBRANCH   3   4
ENDBRANCH   2   3
ENDBRANCH   1   2
BRANCH   1  31
ATOM     31  C   UNL A   1      37.237  22.305  25.283  1.00  0.00     0.021 C 
BRANCH  31  32
ATOM     32  C   UNL A   1      37.978  23.542  25.777  1.00  0.00     0.116 C 
BRANCH  32  33
ATOM     33  N   UNL A   1      39.374  23.301  26.126  1.00  0.00    -0.352 N 
ATOM     34  C   UNL A   1      40.255  24.118  26.816  1.00  0.00     0.251 C 
ATOM     35  H   UNL A   1      39.740  22.437  25.830  1.00  0.00     0.163 HD
ATOM     36  O   UNL A   1      41.414  23.782  27.009  1.00  0.00    -0.269 OA
BRANCH  34  37
ATOM     37  C   UNL A   1      39.744  25.371  27.427  1.00  0.00     0.039 A 
ATOM     38  C   UNL A   1      40.005  26.571  26.756  1.00  0.00     0.014 A 
ATOM     39  C   UNL A   1      39.210  25.391  28.713  1.00  0.00     0.014 A 
ATOM     40  C   UNL A   1      39.957  27.773  27.459  1.00  0.00     0.010 A 
ATOM     41  C   UNL A   1      39.246  26.569  29.438  1.00  0.00     0.010 A 
ATOM     42  C   UNL A   1      39.684  27.747  28.828  1.00  0.00    -0.014 A 
BRANCH  42  43
ATOM     43  C   UNL A   1      40.007  28.862  29.712  1.00  0.00     0.031 A 
ATOM     44  C   UNL A   1      39.015  29.896  30.057  1.00  0.00     0.074 A 
ATOM     45  C   UNL A   1      41.255  28.978  30.217  1.00  0.00     0.049 A 
ATOM     46  N   UNL A   1      39.311  31.141  30.238  1.00  0.00    -0.248 NA
ATOM     47  C   UNL A   1      37.594  29.607  30.208  1.00  0.00     0.031 C 
ATOM     48  C   UNL A   1      41.714  29.914  31.241  1.00  0.00     0.029 A 
ATOM     49  N   UNL A   1      42.421  28.415  29.720  1.00  0.00    -0.354 N 
ATOM     50  C   UNL A   1      38.214  31.743  30.805  1.00  0.00     0.074 A 
ATOM     51  C   UNL A   1      37.147  30.771  30.691  1.00  0.00     0.031 C 
ATOM     52  C   UNL A   1      43.045  30.052  31.134  1.00  0.00     0.029 A 
ATOM     53  C   UNL A   1      43.474  29.306  29.963  1.00  0.00     0.049 A 
ATOM     54  H   UNL A   1      42.497  27.542  29.272  1.00  0.00     0.167 HD
ATOM     55  C   UNL A   1      38.339  32.932  31.458  1.00  0.00     0.034 A 
ATOM     56  C   UNL A   1      44.230  29.801  28.943  1.00  0.00     0.034 A 
ATOM     57  C   UNL A   1      39.720  33.406  31.497  1.00  0.00     0.049 A 
ATOM     58  C   UNL A   1      44.166  31.306  28.816  1.00  0.00     0.074 A 
ATOM     59  C   UNL A   1      40.690  33.373  32.485  1.00  0.00     0.029 A 
ATOM     60  N   UNL A   1      40.368  33.775  30.324  1.00  0.00    -0.354 N 
ATOM     61  N   UNL A   1      43.273  32.057  29.400  1.00  0.00    -0.248 NA
ATOM     62  C   UNL A   1      45.091  32.081  27.997  1.00  0.00     0.031 C 
ATOM     63  C   UNL A   1      41.936  33.696  31.892  1.00  0.00     0.029 A 
ATOM     64  C   UNL A   1      41.722  33.948  30.549  1.00  0.00     0.049 A 
ATOM     65  H   UNL A   1      39.926  33.896  29.453  1.00  0.00     0.167 HD
ATOM     66  C   UNL A   1      43.459  33.370  29.037  1.00  0.00     0.074 A 
ATOM     67  C   UNL A   1      44.631  33.331  28.179  1.00  0.00     0.031 C 
ATOM     68  C   UNL A   1      42.618  34.359  29.474  1.00  0.00     0.034 A 
BRANCH  55  69
ATOM     69  C   UNL A   1      37.244  33.478  32.340  1.00  0.00     0.023 A 
ATOM     70  C   UNL A   1      36.126  34.116  31.766  1.00  0.00     0.031 A 
ATOM     71  C   UNL A   1      37.265  33.426  33.746  1.00  0.00     0.131 A 
ATOM     72  C   UNL A   1      35.162  34.757  32.562  1.00  0.00     0.055 A 
ATOM     73  C   UNL A   1      36.336  34.110  34.541  1.00  0.00     0.041 A 
ATOM     74  F   UNL A   1      38.181  32.695  34.399  1.00  0.00    -0.206 F 
ATOM     75  C   UNL A   1      35.285  34.796  33.948  1.00  0.00     0.022 A 
BRANCH  72  76
ATOM     76  S   UNL A   1      33.739  35.544  31.756  1.00  0.00     0.124 S 
ATOM     77  O   UNL A   1      33.993  35.276  30.344  1.00  0.00    -0.237 OA
ATOM     78  O   UNL A   1      32.614  34.834  32.355  1.00  0.00    -0.237 OA
ATOM     79  O   UNL A   1      33.861  36.948  32.147  1.00  0.00    -0.744 OA
ENDBRANCH  72  76
ENDBRANCH  55  69
BRANCH  56  80
ATOM     80  C   UNL A   1      44.399  28.843  27.814  1.00  0.00     0.023 A 
ATOM     81  C   UNL A   1      45.240  27.731  28.034  1.00  0.00     0.031 A 
ATOM     82  C   UNL A   1      43.496  28.783  26.744  1.00  0.00     0.131 A 
ATOM     83  C   UNL A   1      45.058  26.549  27.303  1.00  0.00     0.055 A 
ATOM     84  C   UNL A   1      43.359  27.620  25.976  1.00  0.00     0.041 A 
ATOM     85  F   UNL A   1      42.650  29.795  26.507  1.00  0.00    -0.206 F 
ATOM     86  C   UNL A   1      44.107  26.481  26.283  1.00  0.00     0.022 A 
BRANCH  83  87
ATOM     87  S   UNL A   1      45.875  25.027  27.869  1.00  0.00     0.124 S 
ATOM     88  O   UNL A   1      44.877  24.010  27.558  1.00  0.00    -0.237 OA
ATOM     89  O   UNL A   1      47.092  24.988  27.062  1.00  0.00    -0.237 OA
ATOM     90  O   UNL A   1      46.105  25.278  29.291  1.00  0.00    -0.744 OA
ENDBRANCH  83  87
ENDBRANCH  56  80
BRANCH  68  91
ATOM     91  C   UNL A   1      42.604  35.813  29.029  1.00  0.00     0.023 A 
ATOM     92  C   UNL A   1      43.379  36.823  29.615  1.00  0.00     0.031 A 
ATOM     93  C   UNL A   1      41.815  36.228  27.923  1.00  0.00     0.131 A 
ATOM     94  C   UNL A   1      43.302  38.160  29.176  1.00  0.00     0.055 A 
ATOM     95  C   UNL A   1      41.791  37.542  27.443  1.00  0.00     0.041 A 
ATOM     96  F   UNL A   1      41.033  35.374  27.246  1.00  0.00    -0.206 F 
ATOM     97  C   UNL A   1      42.527  38.525  28.081  1.00  0.00     0.022 A 
BRANCH  94  98
ATOM     98  S   UNL A   1      44.204  39.425  30.110  1.00  0.00     0.124 S 
ATOM     99  O   UNL A   1      45.269  39.785  29.178  1.00  0.00    -0.237 OA
ATOM    100  O   UNL A   1      43.181  40.443  30.327  1.00  0.00    -0.237 OA
ATOM    101  O   UNL A   1      44.644  38.720  31.313  1.00  0.00    -0.744 OA
ENDBRANCH  94  98
ENDBRANCH  68  91
ENDBRANCH  42  43
ENDBRANCH  34  37
ENDBRANCH  32  33
ENDBRANCH  31  32
ENDBRANCH   1  31
TORSDOF 18
ENDMDL
MODEL 3
REMARK VINA RESULT:     -12.2      4.008      9.661
REMARK SMILES Cc1ccc(-c2cc(Cl)cc3c2O[C@@H](C(F)(F)F)C(C(=O)NCCCCCCNC(=O)c2ccc(-c4c5nc(c(-c6cc(S(=O)(=O)[O-])ccc6F)c6ccc([nH]6)c(-c6cc(S(=O)(=O)[O-])ccc6F)c6nc(c(-c7cc(S(=O)(=O)[O-])ccc7F)c7ccc4[nH]7)C=C6)C=C5)cc2)=C3)cc1
REMARK SMILES IDX 26 1 25 2 24 3 23 4 22 5 20 6 21 7 19 9 6 10 7 11 12 12 8 13
REMARK SMILES IDX 11 14 13 15 9 16 10 17 95 18 14 19 5 20 1 21 2 22 3 23 97 24
REMARK SMILES IDX 4 25 96 26 15 27 16 28 17 29 18 30 27 31 28 32 29 33 30 34
REMARK SMILES IDX 31 36 32 37 33 38 94 39 34 40 93 41 35 42 36 43 37 44 87 45
REMARK SMILES IDX 38 46 92 47 86 48 88 49 39 50 91 51 85 52 84 53 40 55 72 56
REMARK SMILES IDX 52 57 71 58 53 59 56 60 70 61 89 62 54 63 55 64 69 66 90 67
REMARK SMILES IDX 57 68 41 69 42 70 50 71 43 72 49 73 51 74 48 75 44 76 45 77
REMARK SMILES IDX 46 78 47 79 73 80 74 81 82 82 75 83 81 84 83 85 80 86 76 87
REMARK SMILES IDX 77 88 78 89 79 90 58 91 59 92 67 93 60 94 66 95 68 96 65 97
REMARK SMILES IDX 61 98 62 99 63 100 64 101
REMARK H PARENT 22 8 29 35 88 54 56 65
REMARK Flexibility Score: inf
ROOT
ATOM      1  C   UNL A   1      32.350  30.246  26.867  1.00  0.00     0.002 C 
ENDROOT
BRANCH   1   2
ATOM      2  C   UNL A   1      31.947  29.949  25.423  1.00  0.00     0.002 C 
BRANCH   2   3
ATOM      3  C   UNL A   1      32.993  29.383  24.468  1.00  0.00     0.021 C 
BRANCH   3   4
ATOM      4  C   UNL A   1      32.649  28.231  23.529  1.00  0.00     0.116 C 
BRANCH   4   5
ATOM      5  N   UNL A   1      33.461  27.032  23.540  1.00  0.00    -0.352 N 
ATOM      6  C   UNL A   1      33.225  25.764  23.077  1.00  0.00     0.251 C 
ATOM      7  O   UNL A   1      34.216  25.059  22.859  1.00  0.00    -0.270 OA
ATOM      8  H   UNL A   1      34.345  27.151  23.958  1.00  0.00     0.163 HD
BRANCH   6   9
ATOM      9  C   UNL A   1      31.828  25.146  22.872  1.00  0.00     0.067 C 
ATOM     10  C   UNL A   1      33.250  22.116  25.048  1.00  0.00     0.026 A 
ATOM     11  C   UNL A   1      33.016  20.774  24.682  1.00  0.00     0.033 A 
ATOM     12  C   UNL A   1      32.488  23.060  24.363  1.00  0.00     0.135 A 
ATOM     13  C   UNL A   1      32.387  20.476  23.469  1.00  0.00     0.042 A 
ATOM     14  C   UNL A   1      32.148  22.815  23.008  1.00  0.00     0.019 A 
ATOM     15  O   UNL A   1      31.959  24.187  25.029  1.00  0.00    -0.475 OA
ATOM     16  Cl  UNL A   1      32.193  18.832  22.997  1.00  0.00    -0.084 Cl
ATOM     17  C   UNL A   1      32.046  21.496  22.579  1.00  0.00     0.032 A 
ATOM     18  C   UNL A   1      31.880  24.009  22.125  1.00  0.00     0.025 C 
ATOM     19  C   UNL A   1      31.020  24.841  24.117  1.00  0.00     0.314 C 
BRANCH  10  20
ATOM     20  C   UNL A   1      34.688  22.416  25.313  1.00  0.00    -0.015 A 
ATOM     21  C   UNL A   1      38.736  23.906  25.798  1.00  0.00     0.044 C 
ATOM     22  C   UNL A   1      37.342  23.367  25.669  1.00  0.00    -0.051 A 
ATOM     23  C   UNL A   1      37.078  22.191  24.947  1.00  0.00     0.004 A 
ATOM     24  C   UNL A   1      36.280  24.033  26.272  1.00  0.00     0.004 A 
ATOM     25  C   UNL A   1      35.763  21.719  24.766  1.00  0.00     0.009 A 
ATOM     26  C   UNL A   1      34.982  23.557  26.102  1.00  0.00     0.009 A 
ENDBRANCH  10  20
BRANCH  19  27
ATOM     27  C   UNL A   1      30.015  25.930  24.539  1.00  0.00     0.429 C 
ATOM     28  F   UNL A   1      29.058  25.379  25.342  1.00  0.00    -0.167 F 
ATOM     29  F   UNL A   1      30.583  26.927  25.246  1.00  0.00    -0.167 F 
ATOM     30  F   UNL A   1      29.334  26.472  23.503  1.00  0.00    -0.167 F 
ENDBRANCH  19  27
ENDBRANCH   6   9
ENDBRANCH   4   5
ENDBRANCH   3   4
ENDBRANCH   2   3
ENDBRANCH   1   2
BRANCH   1  31
ATOM     31  C   UNL A   1      33.782  29.908  27.273  1.00  0.00     0.021 C 
BRANCH  31  32
ATOM     32  C   UNL A   1      34.662  31.094  27.654  1.00  0.00     0.116 C 
BRANCH  32  33
ATOM     33  N   UNL A   1      33.931  32.219  28.225  1.00  0.00    -0.352 N 
ATOM     34  C   UNL A   1      34.312  33.084  29.239  1.00  0.00     0.251 C 
ATOM     35  H   UNL A   1      33.044  32.389  27.835  1.00  0.00     0.163 HD
ATOM     36  O   UNL A   1      33.569  33.973  29.628  1.00  0.00    -0.269 OA
BRANCH  34  37
ATOM     37  C   UNL A   1      35.693  32.995  29.778  1.00  0.00     0.039 A 
ATOM     38  C   UNL A   1      36.704  33.660  29.076  1.00  0.00     0.014 A 
ATOM     39  C   UNL A   1      36.017  32.124  30.815  1.00  0.00     0.014 A 
ATOM     40  C   UNL A   1      38.030  33.270  29.252  1.00  0.00     0.010 A 
ATOM     41  C   UNL A   1      37.320  31.671  30.929  1.00  0.00     0.010 A 
ATOM     42  C   UNL A   1      38.314  32.198  30.100  1.00  0.00    -0.014 A 
BRANCH  42  43
ATOM     43  C   UNL A   1      39.574  31.464  30.039  1.00  0.00     0.031 A 
ATOM     44  C   UNL A   1      39.661  30.115  29.452  1.00  0.00     0.074 A 
ATOM     45  C   UNL A   1      40.696  32.013  30.553  1.00  0.00     0.049 A 
ATOM     46  N   UNL A   1      40.450  29.191  29.895  1.00  0.00    -0.248 NA
ATOM     47  C   UNL A   1      38.845  29.692  28.321  1.00  0.00     0.031 C 
ATOM     48  C   UNL A   1      42.064  31.513  30.433  1.00  0.00     0.029 A 
ATOM     49  N   UNL A   1      40.783  33.023  31.500  1.00  0.00    -0.354 N 
ATOM     50  C   UNL A   1      40.468  28.187  28.958  1.00  0.00     0.074 A 
ATOM     51  C   UNL A   1      39.395  28.505  28.040  1.00  0.00     0.031 C 
ATOM     52  C   UNL A   1      42.802  32.028  31.429  1.00  0.00     0.029 A 
ATOM     53  C   UNL A   1      41.909  32.779  32.296  1.00  0.00     0.049 A 
ATOM     54  H   UNL A   1      40.160  33.779  31.598  1.00  0.00     0.167 HD
ATOM     55  C   UNL A   1      41.477  27.271  28.946  1.00  0.00     0.034 A 
ATOM     56  C   UNL A   1      41.800  32.623  33.646  1.00  0.00     0.034 A 
ATOM     57  C   UNL A   1      42.480  27.531  29.975  1.00  0.00     0.049 A 
ATOM     58  C   UNL A   1      42.263  31.271  34.139  1.00  0.00     0.074 A 
ATOM     59  C   UNL A   1      43.734  28.119  29.929  1.00  0.00     0.029 A 
ATOM     60  N   UNL A   1      42.149  27.419  31.321  1.00  0.00    -0.354 N 
ATOM     61  N   UNL A   1      42.468  30.238  33.369  1.00  0.00    -0.248 NA
ATOM     62  C   UNL A   1      42.505  30.971  35.545  1.00  0.00     0.031 C 
ATOM     63  C   UNL A   1      44.145  28.388  31.259  1.00  0.00     0.029 A 
ATOM     64  C   UNL A   1      43.153  27.944  32.115  1.00  0.00     0.049 A 
ATOM     65  H   UNL A   1      41.317  27.021  31.662  1.00  0.00     0.167 HD
ATOM     66  C   UNL A   1      42.828  29.153  34.133  1.00  0.00     0.074 A 
ATOM     67  C   UNL A   1      42.864  29.677  35.487  1.00  0.00     0.031 C 
ATOM     68  C   UNL A   1      43.051  27.924  33.570  1.00  0.00     0.034 A 
BRANCH  55  69
ATOM     69  C   UNL A   1      41.702  26.345  27.777  1.00  0.00     0.023 A 
ATOM     70  C   UNL A   1      41.728  24.950  27.976  1.00  0.00     0.031 A 
ATOM     71  C   UNL A   1      41.926  26.781  26.459  1.00  0.00     0.131 A 
ATOM     72  C   UNL A   1      42.074  24.070  26.935  1.00  0.00     0.055 A 
ATOM     73  C   UNL A   1      42.324  25.912  25.434  1.00  0.00     0.041 A 
ATOM     74  F   UNL A   1      41.751  28.066  26.113  1.00  0.00    -0.206 F 
ATOM     75  C   UNL A   1      42.417  24.548  25.675  1.00  0.00     0.022 A 
BRANCH  72  76
ATOM     76  S   UNL A   1      42.071  22.284  27.258  1.00  0.00     0.124 S 
ATOM     77  O   UNL A   1      43.082  22.154  28.303  1.00  0.00    -0.237 OA
ATOM     78  O   UNL A   1      40.690  22.047  27.663  1.00  0.00    -0.237 OA
ATOM     79  O   UNL A   1      42.443  21.706  25.968  1.00  0.00    -0.744 OA
ENDBRANCH  72  76
ENDBRANCH  55  69
BRANCH  56  80
ATOM     80  C   UNL A   1      40.707  33.438  34.248  1.00  0.00     0.023 A 
ATOM     81  C   UNL A   1      39.685  32.742  34.928  1.00  0.00     0.031 A 
ATOM     82  C   UNL A   1      40.851  34.808  34.502  1.00  0.00     0.131 A 
ATOM     83  C   UNL A   1      38.952  33.374  35.942  1.00  0.00     0.055 A 
ATOM     84  C   UNL A   1      40.074  35.451  35.474  1.00  0.00     0.041 A 
ATOM     85  F   UNL A   1      41.825  35.514  33.909  1.00  0.00    -0.206 F 
ATOM     86  C   UNL A   1      39.153  34.725  36.231  1.00  0.00     0.022 A 
BRANCH  83  87
ATOM     87  S   UNL A   1      37.933  32.361  37.056  1.00  0.00     0.124 S 
ATOM     88  O   UNL A   1      37.809  31.116  36.308  1.00  0.00    -0.237 OA
ATOM     89  O   UNL A   1      38.741  32.293  38.270  1.00  0.00    -0.237 OA
ATOM     90  O   UNL A   1      36.706  33.145  37.194  1.00  0.00    -0.744 OA
ENDBRANCH  83  87
ENDBRANCH  56  80
BRANCH  68  91
ATOM     91  C   UNL A   1      43.292  26.612  34.299  1.00  0.00     0.023 A 
ATOM     92  C   UNL A   1      44.506  25.911  34.278  1.00  0.00     0.031 A 
ATOM     93  C   UNL A   1      42.281  26.033  35.111  1.00  0.00     0.131 A 
ATOM     94  C   UNL A   1      44.661  24.684  34.952  1.00  0.00     0.055 A 
ATOM     95  C   UNL A   1      42.457  24.849  35.836  1.00  0.00     0.041 A 
ATOM     96  F   UNL A   1      41.071  26.594  35.248  1.00  0.00    -0.206 F 
ATOM     97  C   UNL A   1      43.651  24.156  35.748  1.00  0.00     0.022 A 
BRANCH  94  98
ATOM     98  S   UNL A   1      46.207  23.764  34.720  1.00  0.00     0.124 S 
ATOM     99  O   UNL A   1      45.736  22.546  34.066  1.00  0.00    -0.237 OA
ATOM    100  O   UNL A   1      46.987  24.671  33.883  1.00  0.00    -0.237 OA
ATOM    101  O   UNL A   1      46.711  23.584  36.079  1.00  0.00    -0.744 OA
ENDBRANCH  94  98
ENDBRANCH  68  91
ENDBRANCH  42  43
ENDBRANCH  34  37
ENDBRANCH  32  33
ENDBRANCH  31  32
ENDBRANCH   1  31
TORSDOF 18
ENDMDL
