MODEL 1
REMARK VINA RESULT:     -10.5      0.000      0.000
REMARK SMILES CCCC[C@H](CC)C(=O)N1[C@H](C(=O)NCCCCCCNC(=O)c2ccc(-c3c4nc(c(-c5cc(S(=O)(=O)[O-])ccc5F)c5ccc([nH]5)c(-c5cc(S(=O)(=O)[O-])ccc5F)c5nc(c(-c6cc(S(=O)(=O)[O-])ccc6F)c6ccc3[nH]6)C=C5)C=C4)cc2)COC12CCCCC2
REMARK SMILES IDX 16 1 15 2 14 3 12 4 13 5 11 7 10 8 89 9 87 10 88 11 90 12
REMARK SMILES IDX 94 13 91 14 93 15 92 16 8 17 9 18 5 19 4 20 3 21 2 22 1 23
REMARK SMILES IDX 6 24 7 25 17 26 18 27 19 28 20 29 21 30 22 31 23 33 24 34
REMARK SMILES IDX 25 35 86 36 26 37 85 38 27 39 28 40 29 41 79 42 30 43 84 44
REMARK SMILES IDX 78 45 80 46 31 47 83 48 77 49 76 50 32 52 64 53 44 54 63 55
REMARK SMILES IDX 45 56 48 57 62 58 81 59 46 60 47 61 61 63 82 64 49 65 33 66
REMARK SMILES IDX 34 67 42 68 35 69 41 70 43 71 40 72 36 73 37 74 38 75 39 76
REMARK SMILES IDX 65 77 66 78 74 79 67 80 73 81 75 82 72 83 68 84 69 85 70 86
REMARK SMILES IDX 71 87 50 88 51 89 59 90 52 91 58 92 60 93 57 94 53 95 54 96
REMARK SMILES IDX 55 97 56 98
REMARK H PARENT 14 6 21 32 80 51 48 62
REMARK Flexibility Score: inf
ROOT
ATOM      1  C   UNL A   1      33.320  20.907  24.540  1.00  0.00     0.021 C 
ENDROOT
BRANCH   1   2
ATOM      2  C   UNL A   1      32.759  21.867  23.499  1.00  0.00     0.116 C 
BRANCH   2   3
ATOM      3  N   UNL A   1      33.748  22.754  22.918  1.00  0.00    -0.354 N 
ATOM      4  C   UNL A   1      33.653  24.110  22.719  1.00  0.00     0.245 C 
ATOM      5  O   UNL A   1      34.684  24.717  22.416  1.00  0.00    -0.273 OA
ATOM      6  H   UNL A   1      34.589  22.333  22.629  1.00  0.00     0.163 HD
BRANCH   4   7
ATOM      7  C   UNL A   1      32.260  24.797  22.761  1.00  0.00     0.203 C 
ATOM      8  N   UNL A   1      31.904  25.894  23.677  1.00  0.00    -0.299 N 
ATOM      9  C   UNL A   1      31.159  26.937  22.960  1.00  0.00     0.144 C 
ATOM     10  C   UNL A   1      31.989  25.419  21.398  1.00  0.00     0.198 C 
ATOM     11  O   UNL A   1      30.999  26.430  21.609  1.00  0.00    -0.353 OA
ATOM     12  C   UNL A   1      29.706  27.137  23.425  1.00  0.00     0.059 C 
ATOM     13  C   UNL A   1      32.005  28.223  22.862  1.00  0.00     0.059 C 
ATOM     14  C   UNL A   1      29.053  28.481  23.095  1.00  0.00     0.005 C 
ATOM     15  C   UNL A   1      31.232  29.416  22.316  1.00  0.00     0.005 C 
ATOM     16  C   UNL A   1      29.995  29.672  23.159  1.00  0.00     0.000 C 
BRANCH   8  17
ATOM     17  C   UNL A   1      32.447  25.969  24.935  1.00  0.00     0.228 C 
ATOM     18  O   UNL A   1      33.671  26.117  25.046  1.00  0.00    -0.274 OA
BRANCH  17  19
ATOM     19  C   UNL A   1      31.640  25.818  26.244  1.00  0.00     0.078 C 
BRANCH  19  20
ATOM     20  C   UNL A   1      31.583  27.079  27.155  1.00  0.00     0.013 C 
BRANCH  20  21
ATOM     21  C   UNL A   1      31.568  28.513  26.604  1.00  0.00     0.001 C 
BRANCH  21  22
ATOM     22  C   UNL A   1      32.702  29.429  27.068  1.00  0.00    -0.003 C 
ATOM     23  C   UNL A   1      34.041  28.736  27.273  1.00  0.00     0.004 C 
ENDBRANCH  21  22
ENDBRANCH  20  21
ENDBRANCH  19  20
BRANCH  19  24
ATOM     24  C   UNL A   1      31.635  24.417  26.871  1.00  0.00     0.010 C 
ATOM     25  C   UNL A   1      30.756  23.400  26.160  1.00  0.00     0.005 C 
ENDBRANCH  19  24
ENDBRANCH  17  19
ENDBRANCH   8  17
ENDBRANCH   4   7
ENDBRANCH   2   3
ENDBRANCH   1   2
BRANCH   1  26
ATOM     26  C   UNL A   1      34.696  21.283  25.096  1.00  0.00     0.002 C 
BRANCH  26  27
ATOM     27  C   UNL A   1      34.692  22.171  26.344  1.00  0.00     0.002 C 
BRANCH  27  28
ATOM     28  C   UNL A   1      35.592  23.409  26.291  1.00  0.00     0.021 C 
BRANCH  28  29
ATOM     29  C   UNL A   1      36.788  23.307  25.349  1.00  0.00     0.116 C 
BRANCH  29  30
ATOM     30  N   UNL A   1      37.785  22.360  25.824  1.00  0.00    -0.352 N 
ATOM     31  C   UNL A   1      39.009  22.585  26.404  1.00  0.00     0.251 C 
ATOM     32  H   UNL A   1      37.544  21.413  25.712  1.00  0.00     0.163 HD
ATOM     33  O   UNL A   1      39.791  21.651  26.544  1.00  0.00    -0.269 OA
BRANCH  31  34
ATOM     34  C   UNL A   1      39.391  23.947  26.838  1.00  0.00     0.039 A 
ATOM     35  C   UNL A   1      39.129  24.334  28.156  1.00  0.00     0.014 A 
ATOM     36  C   UNL A   1      39.979  24.852  25.949  1.00  0.00     0.014 A 
ATOM     37  C   UNL A   1      39.508  25.605  28.596  1.00  0.00     0.010 A 
ATOM     38  C   UNL A   1      40.420  26.091  26.409  1.00  0.00     0.010 A 
ATOM     39  C   UNL A   1      40.186  26.483  27.736  1.00  0.00    -0.014 A 
BRANCH  39  40
ATOM     40  C   UNL A   1      40.652  27.814  28.206  1.00  0.00     0.031 A 
ATOM     41  C   UNL A   1      42.122  28.118  28.284  1.00  0.00     0.074 A 
ATOM     42  C   UNL A   1      39.751  28.723  28.629  1.00  0.00     0.049 A 
ATOM     43  N   UNL A   1      42.727  29.187  28.740  1.00  0.00    -0.248 NA
ATOM     44  C   UNL A   1      43.034  27.062  27.823  1.00  0.00     0.031 C 
ATOM     45  C   UNL A   1      38.301  28.524  28.652  1.00  0.00     0.029 A 
ATOM     46  N   UNL A   1      39.921  29.987  29.138  1.00  0.00    -0.354 N 
ATOM     47  C   UNL A   1      44.089  28.928  28.632  1.00  0.00     0.074 A 
ATOM     48  C   UNL A   1      44.215  27.572  28.136  1.00  0.00     0.031 C 
ATOM     49  C   UNL A   1      37.714  29.628  29.140  1.00  0.00     0.029 A 
ATOM     50  C   UNL A   1      38.743  30.595  29.505  1.00  0.00     0.049 A 
ATOM     51  H   UNL A   1      40.802  30.416  29.231  1.00  0.00     0.167 HD
ATOM     52  C   UNL A   1      45.135  29.750  28.897  1.00  0.00     0.034 A 
ATOM     53  C   UNL A   1      38.517  31.789  30.089  1.00  0.00     0.034 A 
ATOM     54  C   UNL A   1      44.985  31.099  29.392  1.00  0.00     0.049 A 
ATOM     55  C   UNL A   1      39.689  32.685  30.393  1.00  0.00     0.074 A 
ATOM     56  C   UNL A   1      45.966  32.044  29.635  1.00  0.00     0.029 A 
ATOM     57  N   UNL A   1      43.774  31.691  29.737  1.00  0.00    -0.354 N 
ATOM     58  N   UNL A   1      40.970  32.455  30.220  1.00  0.00    -0.248 NA
ATOM     59  C   UNL A   1      39.383  34.006  30.955  1.00  0.00     0.031 C 
ATOM     60  C   UNL A   1      45.360  33.173  30.198  1.00  0.00     0.029 A 
ATOM     61  C   UNL A   1      43.989  32.971  30.228  1.00  0.00     0.049 A 
ATOM     62  H   UNL A   1      42.892  31.263  29.646  1.00  0.00     0.167 HD
ATOM     63  C   UNL A   1      41.624  33.612  30.634  1.00  0.00     0.074 A 
ATOM     64  C   UNL A   1      40.591  34.543  31.047  1.00  0.00     0.031 C 
ATOM     65  C   UNL A   1      42.954  33.883  30.663  1.00  0.00     0.034 A 
BRANCH  52  66
ATOM     66  C   UNL A   1      46.525  29.189  28.688  1.00  0.00     0.023 A 
ATOM     67  C   UNL A   1      47.022  28.903  27.403  1.00  0.00     0.031 A 
ATOM     68  C   UNL A   1      47.345  28.880  29.788  1.00  0.00     0.131 A 
ATOM     69  C   UNL A   1      48.243  28.228  27.255  1.00  0.00     0.055 A 
ATOM     70  C   UNL A   1      48.606  28.299  29.628  1.00  0.00     0.041 A 
ATOM     71  F   UNL A   1      46.927  29.112  31.042  1.00  0.00    -0.206 F 
ATOM     72  C   UNL A   1      49.052  27.948  28.357  1.00  0.00     0.022 A 
BRANCH  69  73
ATOM     73  S   UNL A   1      48.661  27.550  25.625  1.00  0.00     0.124 S 
ATOM     74  O   UNL A   1      47.340  27.402  25.019  1.00  0.00    -0.237 OA
ATOM     75  O   UNL A   1      49.512  28.591  25.060  1.00  0.00    -0.237 OA
ATOM     76  O   UNL A   1      49.337  26.292  25.939  1.00  0.00    -0.744 OA
ENDBRANCH  69  73
ENDBRANCH  52  66
BRANCH  53  77
ATOM     77  C   UNL A   1      37.125  32.189  30.444  1.00  0.00     0.023 A 
ATOM     78  C   UNL A   1      36.272  32.785  29.503  1.00  0.00     0.031 A 
ATOM     79  C   UNL A   1      36.629  31.973  31.743  1.00  0.00     0.131 A 
ATOM     80  C   UNL A   1      34.977  33.173  29.881  1.00  0.00     0.055 A 
ATOM     81  C   UNL A   1      35.325  32.317  32.101  1.00  0.00     0.041 A 
ATOM     82  F   UNL A   1      37.402  31.399  32.679  1.00  0.00    -0.206 F 
ATOM     83  C   UNL A   1      34.493  32.929  31.169  1.00  0.00     0.022 A 
BRANCH  80  84
ATOM     84  S   UNL A   1      33.945  34.055  28.679  1.00  0.00     0.124 S 
ATOM     85  O   UNL A   1      33.347  32.951  27.935  1.00  0.00    -0.237 OA
ATOM     86  O   UNL A   1      33.043  34.806  29.546  1.00  0.00    -0.237 OA
ATOM     87  O   UNL A   1      34.906  34.863  27.933  1.00  0.00    -0.744 OA
ENDBRANCH  80  84
ENDBRANCH  53  77
BRANCH  65  88
ATOM     88  C   UNL A   1      43.364  35.260  31.131  1.00  0.00     0.023 A 
ATOM     89  C   UNL A   1      43.536  36.327  30.231  1.00  0.00     0.031 A 
ATOM     90  C   UNL A   1      43.595  35.503  32.496  1.00  0.00     0.131 A 
ATOM     91  C   UNL A   1      43.980  37.573  30.702  1.00  0.00     0.055 A 
ATOM     92  C   UNL A   1      43.974  36.762  32.966  1.00  0.00     0.041 A 
ATOM     93  F   UNL A   1      43.451  34.520  33.400  1.00  0.00    -0.206 F 
ATOM     94  C   UNL A   1      44.182  37.802  32.065  1.00  0.00     0.022 A 
BRANCH  91  95
ATOM     95  S   UNL A   1      44.385  38.867  29.496  1.00  0.00     0.124 S 
ATOM     96  O   UNL A   1      45.045  38.102  28.442  1.00  0.00    -0.237 OA
ATOM     97  O   UNL A   1      43.071  39.408  29.165  1.00  0.00    -0.237 OA
ATOM     98  O   UNL A   1      45.256  39.771  30.244  1.00  0.00    -0.744 OA
ENDBRANCH  91  95
ENDBRANCH  65  88
ENDBRANCH  39  40
ENDBRANCH  31  34
ENDBRANCH  29  30
ENDBRANCH  28  29
ENDBRANCH  27  28
ENDBRANCH  26  27
ENDBRANCH   1  26
TORSDOF 22
ENDMDL
MODEL 2
REMARK VINA RESULT:     -10.4      2.021      2.639
REMARK SMILES CCCC[C@H](CC)C(=O)N1[C@H](C(=O)NCCCCCCNC(=O)c2ccc(-c3c4nc(c(-c5cc(S(=O)(=O)[O-])ccc5F)c5ccc([nH]5)c(-c5cc(S(=O)(=O)[O-])ccc5F)c5nc(c(-c6cc(S(=O)(=O)[O-])ccc6F)c6ccc3[nH]6)C=C5)C=C4)cc2)COC12CCCCC2
REMARK SMILES IDX 16 1 15 2 14 3 12 4 13 5 11 7 10 8 89 9 87 10 88 11 90 12
REMARK SMILES IDX 94 13 91 14 93 15 92 16 8 17 9 18 5 19 4 20 3 21 2 22 1 23
REMARK SMILES IDX 6 24 7 25 17 26 18 27 19 28 20 29 21 30 22 31 23 33 24 34
REMARK SMILES IDX 25 35 86 36 26 37 85 38 27 39 28 40 29 41 79 42 30 43 84 44
REMARK SMILES IDX 78 45 80 46 31 47 83 48 77 49 76 50 32 52 64 53 44 54 63 55
REMARK SMILES IDX 45 56 48 57 62 58 81 59 46 60 47 61 61 63 82 64 49 65 33 66
REMARK SMILES IDX 34 67 42 68 35 69 41 70 43 71 40 72 36 73 37 74 38 75 39 76
REMARK SMILES IDX 65 77 66 78 74 79 67 80 73 81 75 82 72 83 68 84 69 85 70 86
REMARK SMILES IDX 71 87 50 88 51 89 59 90 52 91 58 92 60 93 57 94 53 95 54 96
REMARK SMILES IDX 55 97 56 98
REMARK H PARENT 14 6 21 32 80 51 48 62
REMARK Flexibility Score: inf
ROOT
ATOM      1  C   UNL A   1      32.409  21.289  24.560  1.00  0.00     0.021 C 
ENDROOT
BRANCH   1   2
ATOM      2  C   UNL A   1      32.119  22.032  23.263  1.00  0.00     0.116 C 
BRANCH   2   3
ATOM      3  N   UNL A   1      33.221  22.848  22.790  1.00  0.00    -0.354 N 
ATOM      4  C   UNL A   1      33.240  24.206  22.586  1.00  0.00     0.245 C 
ATOM      5  O   UNL A   1      34.336  24.740  22.394  1.00  0.00    -0.273 OA
ATOM      6  H   UNL A   1      34.057  22.369  22.588  1.00  0.00     0.163 HD
BRANCH   4   7
ATOM      7  C   UNL A   1      31.901  24.987  22.487  1.00  0.00     0.203 C 
ATOM      8  N   UNL A   1      31.352  25.831  23.560  1.00  0.00    -0.299 N 
ATOM      9  C   UNL A   1      30.841  27.093  23.008  1.00  0.00     0.144 C 
ATOM     10  C   UNL A   1      32.003  25.970  21.329  1.00  0.00     0.198 C 
ATOM     11  O   UNL A   1      31.018  26.979  21.572  1.00  0.00    -0.353 OA
ATOM     12  C   UNL A   1      29.323  27.300  23.151  1.00  0.00     0.059 C 
ATOM     13  C   UNL A   1      31.716  28.273  23.479  1.00  0.00     0.059 C 
ATOM     14  C   UNL A   1      28.811  28.740  23.065  1.00  0.00     0.005 C 
ATOM     15  C   UNL A   1      31.140  29.636  23.120  1.00  0.00     0.005 C 
ATOM     16  C   UNL A   1      29.736  29.776  23.682  1.00  0.00     0.000 C 
BRANCH   8  17
ATOM     17  C   UNL A   1      31.558  25.519  24.881  1.00  0.00     0.228 C 
ATOM     18  O   UNL A   1      30.607  25.089  25.545  1.00  0.00    -0.274 OA
BRANCH  17  19
ATOM     19  C   UNL A   1      32.895  25.727  25.628  1.00  0.00     0.078 C 
BRANCH  19  20
ATOM     20  C   UNL A   1      33.710  26.989  25.221  1.00  0.00     0.013 C 
BRANCH  20  21
ATOM     21  C   UNL A   1      33.916  28.193  26.153  1.00  0.00     0.001 C 
BRANCH  21  22
ATOM     22  C   UNL A   1      32.829  28.429  27.204  1.00  0.00    -0.003 C 
ATOM     23  C   UNL A   1      32.211  29.820  27.184  1.00  0.00     0.004 C 
ENDBRANCH  21  22
ENDBRANCH  20  21
ENDBRANCH  19  20
BRANCH  19  24
ATOM     24  C   UNL A   1      33.624  24.451  26.067  1.00  0.00     0.010 C 
ATOM     25  C   UNL A   1      35.113  24.424  25.757  1.00  0.00     0.005 C 
ENDBRANCH  19  24
ENDBRANCH  17  19
ENDBRANCH   8  17
ENDBRANCH   4   7
ENDBRANCH   2   3
ENDBRANCH   1   2
BRANCH   1  26
ATOM     26  C   UNL A   1      33.435  20.159  24.446  1.00  0.00     0.002 C 
BRANCH  26  27
ATOM     27  C   UNL A   1      34.726  20.347  25.251  1.00  0.00     0.002 C 
BRANCH  27  28
ATOM     28  C   UNL A   1      35.848  21.117  24.549  1.00  0.00     0.021 C 
BRANCH  28  29
ATOM     29  C   UNL A   1      36.934  21.672  25.467  1.00  0.00     0.116 C 
BRANCH  29  30
ATOM     30  N   UNL A   1      37.964  20.689  25.760  1.00  0.00    -0.352 N 
ATOM     31  C   UNL A   1      39.277  20.869  26.121  1.00  0.00     0.251 C 
ATOM     32  H   UNL A   1      37.677  19.751  25.688  1.00  0.00     0.163 HD
ATOM     33  O   UNL A   1      40.040  19.908  26.121  1.00  0.00    -0.269 OA
BRANCH  31  34
ATOM     34  C   UNL A   1      39.774  22.213  26.488  1.00  0.00     0.039 A 
ATOM     35  C   UNL A   1      40.891  22.316  27.322  1.00  0.00     0.014 A 
ATOM     36  C   UNL A   1      39.129  23.370  26.038  1.00  0.00     0.014 A 
ATOM     37  C   UNL A   1      41.395  23.575  27.657  1.00  0.00     0.010 A 
ATOM     38  C   UNL A   1      39.675  24.621  26.315  1.00  0.00     0.010 A 
ATOM     39  C   UNL A   1      40.811  24.739  27.131  1.00  0.00    -0.014 A 
BRANCH  39  40
ATOM     40  C   UNL A   1      41.372  26.083  27.427  1.00  0.00     0.031 A 
ATOM     41  C   UNL A   1      42.758  26.444  26.967  1.00  0.00     0.074 A 
ATOM     42  C   UNL A   1      40.661  26.952  28.172  1.00  0.00     0.049 A 
ATOM     43  N   UNL A   1      43.451  27.532  27.192  1.00  0.00    -0.248 NA
ATOM     44  C   UNL A   1      43.470  25.429  26.180  1.00  0.00     0.031 C 
ATOM     45  C   UNL A   1      39.328  26.695  28.722  1.00  0.00     0.029 A 
ATOM     46  N   UNL A   1      40.963  28.217  28.611  1.00  0.00    -0.354 N 
ATOM     47  C   UNL A   1      44.686  27.327  26.586  1.00  0.00     0.074 A 
ATOM     48  C   UNL A   1      44.666  25.982  26.048  1.00  0.00     0.031 C 
ATOM     49  C   UNL A   1      38.925  27.771  29.416  1.00  0.00     0.029 A 
ATOM     50  C   UNL A   1      39.984  28.775  29.399  1.00  0.00     0.049 A 
ATOM     51  H   UNL A   1      41.802  28.680  28.384  1.00  0.00     0.167 HD
ATOM     52  C   UNL A   1      45.728  28.188  26.467  1.00  0.00     0.034 A 
ATOM     53  C   UNL A   1      39.949  29.954  30.053  1.00  0.00     0.034 A 
ATOM     54  C   UNL A   1      45.726  29.525  27.012  1.00  0.00     0.049 A 
ATOM     55  C   UNL A   1      41.119  30.892  29.925  1.00  0.00     0.074 A 
ATOM     56  C   UNL A   1      46.695  30.506  26.899  1.00  0.00     0.029 A 
ATOM     57  N   UNL A   1      44.708  30.066  27.792  1.00  0.00    -0.354 N 
ATOM     58  N   UNL A   1      42.254  30.715  29.288  1.00  0.00    -0.248 NA
ATOM     59  C   UNL A   1      40.998  32.196  30.590  1.00  0.00     0.031 C 
ATOM     60  C   UNL A   1      46.302  31.606  27.671  1.00  0.00     0.029 A 
ATOM     61  C   UNL A   1      45.045  31.349  28.198  1.00  0.00     0.049 A 
ATOM     62  H   UNL A   1      43.869  29.605  28.021  1.00  0.00     0.167 HD
ATOM     63  C   UNL A   1      42.975  31.894  29.459  1.00  0.00     0.074 A 
ATOM     64  C   UNL A   1      42.137  32.779  30.243  1.00  0.00     0.031 C 
ATOM     65  C   UNL A   1      44.213  32.216  29.003  1.00  0.00     0.034 A 
BRANCH  52  66
ATOM     66  C   UNL A   1      46.962  27.685  25.749  1.00  0.00     0.023 A 
ATOM     67  C   UNL A   1      47.251  28.058  24.423  1.00  0.00     0.031 A 
ATOM     68  C   UNL A   1      47.831  26.772  26.373  1.00  0.00     0.131 A 
ATOM     69  C   UNL A   1      48.305  27.442  23.733  1.00  0.00     0.055 A 
ATOM     70  C   UNL A   1      48.940  26.238  25.712  1.00  0.00     0.041 A 
ATOM     71  F   UNL A   1      47.604  26.360  27.630  1.00  0.00    -0.206 F 
ATOM     72  C   UNL A   1      49.170  26.555  24.376  1.00  0.00     0.022 A 
BRANCH  69  73
ATOM     73  S   UNL A   1      48.409  27.671  21.936  1.00  0.00     0.124 S 
ATOM     74  O   UNL A   1      49.506  28.629  21.823  1.00  0.00    -0.237 OA
ATOM     75  O   UNL A   1      48.687  26.320  21.462  1.00  0.00    -0.237 OA
ATOM     76  O   UNL A   1      47.093  28.199  21.581  1.00  0.00    -0.744 OA
ENDBRANCH  69  73
ENDBRANCH  52  66
BRANCH  53  77
ATOM     77  C   UNL A   1      38.773  30.295  30.903  1.00  0.00     0.023 A 
ATOM     78  C   UNL A   1      37.691  31.031  30.396  1.00  0.00     0.031 A 
ATOM     79  C   UNL A   1      38.717  29.881  32.247  1.00  0.00     0.131 A 
ATOM     80  C   UNL A   1      36.614  31.358  31.234  1.00  0.00     0.055 A 
ATOM     81  C   UNL A   1      37.623  30.167  33.062  1.00  0.00     0.041 A 
ATOM     82  F   UNL A   1      39.723  29.166  32.779  1.00  0.00    -0.206 F 
ATOM     83  C   UNL A   1      36.565  30.917  32.559  1.00  0.00     0.022 A 
BRANCH  80  84
ATOM     84  S   UNL A   1      35.293  32.417  30.584  1.00  0.00     0.124 S 
ATOM     85  O   UNL A   1      34.907  31.703  29.373  1.00  0.00    -0.237 OA
ATOM     86  O   UNL A   1      34.324  32.398  31.675  1.00  0.00    -0.237 OA
ATOM     87  O   UNL A   1      35.960  33.699  30.368  1.00  0.00    -0.744 OA
ENDBRANCH  80  84
ENDBRANCH  53  77
BRANCH  65  88
ATOM     88  C   UNL A   1      44.720  33.604  29.318  1.00  0.00     0.023 A 
ATOM     89  C   UNL A   1      44.494  34.690  28.454  1.00  0.00     0.031 A 
ATOM     90  C   UNL A   1      45.448  33.840  30.498  1.00  0.00     0.131 A 
ATOM     91  C   UNL A   1      45.038  35.948  28.755  1.00  0.00     0.055 A 
ATOM     92  C   UNL A   1      45.932  35.108  30.824  1.00  0.00     0.041 A 
ATOM     93  F   UNL A   1      45.698  32.840  31.359  1.00  0.00    -0.206 F 
ATOM     94  C   UNL A   1      45.739  36.168  29.943  1.00  0.00     0.022 A 
BRANCH  91  95
ATOM     95  S   UNL A   1      44.901  37.274  27.525  1.00  0.00     0.124 S 
ATOM     96  O   UNL A   1      43.645  36.942  26.859  1.00  0.00    -0.237 OA
ATOM     97  O   UNL A   1      44.884  38.473  28.357  1.00  0.00    -0.237 OA
ATOM     98  O   UNL A   1      46.100  37.106  26.705  1.00  0.00    -0.744 OA
ENDBRANCH  91  95
ENDBRANCH  65  88
ENDBRANCH  39  40
ENDBRANCH  31  34
ENDBRANCH  29  30
ENDBRANCH  28  29
ENDBRANCH  27  28
ENDBRANCH  26  27
ENDBRANCH   1  26
TORSDOF 22
ENDMDL
MODEL 3
REMARK VINA RESULT:     -10.2      2.948      4.904
REMARK SMILES CCCC[C@H](CC)C(=O)N1[C@H](C(=O)NCCCCCCNC(=O)c2ccc(-c3c4nc(c(-c5cc(S(=O)(=O)[O-])ccc5F)c5ccc([nH]5)c(-c5cc(S(=O)(=O)[O-])ccc5F)c5nc(c(-c6cc(S(=O)(=O)[O-])ccc6F)c6ccc3[nH]6)C=C5)C=C4)cc2)COC12CCCCC2
REMARK SMILES IDX 16 1 15 2 14 3 12 4 13 5 11 7 10 8 89 9 87 10 88 11 90 12
REMARK SMILES IDX 94 13 91 14 93 15 92 16 8 17 9 18 5 19 4 20 3 21 2 22 1 23
REMARK SMILES IDX 6 24 7 25 17 26 18 27 19 28 20 29 21 30 22 31 23 33 24 34
REMARK SMILES IDX 25 35 86 36 26 37 85 38 27 39 28 40 29 41 79 42 30 43 84 44
REMARK SMILES IDX 78 45 80 46 31 47 83 48 77 49 76 50 32 52 64 53 44 54 63 55
REMARK SMILES IDX 45 56 48 57 62 58 81 59 46 60 47 61 61 63 82 64 49 65 33 66
REMARK SMILES IDX 34 67 42 68 35 69 41 70 43 71 40 72 36 73 37 74 38 75 39 76
REMARK SMILES IDX 65 77 66 78 74 79 67 80 73 81 75 82 72 83 68 84 69 85 70 86
REMARK SMILES IDX 71 87 50 88 51 89 59 90 52 91 58 92 60 93 57 94 53 95 54 96
REMARK SMILES IDX 55 97 56 98
REMARK H PARENT 14 6 21 32 80 51 48 62
REMARK Flexibility Score: inf
ROOT
ATOM      1  C   UNL A   1      38.861  23.838  26.731  1.00  0.00     0.021 C 
ENDROOT
BRANCH   1   2
ATOM      2  C   UNL A   1      37.604  23.286  26.073  1.00  0.00     0.116 C 
BRANCH   2   3
ATOM      3  N   UNL A   1      37.581  21.840  25.959  1.00  0.00    -0.354 N 
ATOM      4  C   UNL A   1      37.007  21.080  24.969  1.00  0.00     0.245 C 
ATOM      5  O   UNL A   1      37.288  19.878  24.936  1.00  0.00    -0.273 OA
ATOM      6  H   UNL A   1      38.031  21.344  26.680  1.00  0.00     0.163 HD
BRANCH   4   7
ATOM      7  C   UNL A   1      35.954  21.719  24.023  1.00  0.00     0.203 C 
ATOM      8  N   UNL A   1      34.664  22.269  24.469  1.00  0.00    -0.299 N 
ATOM      9  C   UNL A   1      34.400  23.556  23.809  1.00  0.00     0.144 C 
ATOM     10  C   UNL A   1      36.592  22.919  23.336  1.00  0.00     0.198 C 
ATOM     11  O   UNL A   1      35.512  23.750  22.897  1.00  0.00    -0.353 OA
ATOM     12  C   UNL A   1      33.182  23.569  22.870  1.00  0.00     0.059 C 
ATOM     13  C   UNL A   1      34.455  24.702  24.839  1.00  0.00     0.059 C 
ATOM     14  C   UNL A   1      32.567  24.935  22.556  1.00  0.00     0.005 C 
ATOM     15  C   UNL A   1      33.993  26.041  24.279  1.00  0.00     0.005 C 
ATOM     16  C   UNL A   1      32.589  25.918  23.714  1.00  0.00     0.000 C 
BRANCH   8  17
ATOM     17  C   UNL A   1      33.993  21.723  25.534  1.00  0.00     0.228 C 
ATOM     18  O   UNL A   1      34.526  21.750  26.650  1.00  0.00    -0.274 OA
BRANCH  17  19
ATOM     19  C   UNL A   1      32.625  21.009  25.430  1.00  0.00     0.078 C 
BRANCH  19  20
ATOM     20  C   UNL A   1      32.615  19.678  24.624  1.00  0.00     0.013 C 
BRANCH  20  21
ATOM     21  C   UNL A   1      33.240  18.375  25.145  1.00  0.00     0.001 C 
BRANCH  21  22
ATOM     22  C   UNL A   1      34.376  17.786  24.306  1.00  0.00    -0.003 C 
ATOM     23  C   UNL A   1      33.926  16.991  23.088  1.00  0.00     0.004 C 
ENDBRANCH  21  22
ENDBRANCH  20  21
ENDBRANCH  19  20
BRANCH  19  24
ATOM     24  C   UNL A   1      31.391  21.921  25.423  1.00  0.00     0.010 C 
ATOM     25  C   UNL A   1      31.304  22.892  26.590  1.00  0.00     0.005 C 
ENDBRANCH  19  24
ENDBRANCH  17  19
ENDBRANCH   8  17
ENDBRANCH   4   7
ENDBRANCH   2   3
ENDBRANCH   1   2
BRANCH   1  26
ATOM     26  C   UNL A   1      40.125  22.999  26.524  1.00  0.00     0.002 C 
BRANCH  26  27
ATOM     27  C   UNL A   1      40.568  22.152  27.722  1.00  0.00     0.002 C 
BRANCH  27  28
ATOM     28  C   UNL A   1      40.934  20.697  27.416  1.00  0.00     0.021 C 
BRANCH  28  29
ATOM     29  C   UNL A   1      41.075  20.356  25.935  1.00  0.00     0.116 C 
BRANCH  29  30
ATOM     30  N   UNL A   1      42.405  19.866  25.606  1.00  0.00    -0.352 N 
ATOM     31  C   UNL A   1      43.589  20.549  25.479  1.00  0.00     0.251 C 
ATOM     32  H   UNL A   1      42.464  18.896  25.452  1.00  0.00     0.163 HD
ATOM     33  O   UNL A   1      44.562  19.984  24.992  1.00  0.00    -0.269 OA
BRANCH  31  34
ATOM     34  C   UNL A   1      43.687  21.962  25.908  1.00  0.00     0.039 A 
ATOM     35  C   UNL A   1      44.030  22.243  27.234  1.00  0.00     0.014 A 
ATOM     36  C   UNL A   1      43.416  23.008  25.020  1.00  0.00     0.014 A 
ATOM     37  C   UNL A   1      44.157  23.570  27.652  1.00  0.00     0.010 A 
ATOM     38  C   UNL A   1      43.612  24.327  25.421  1.00  0.00     0.010 A 
ATOM     39  C   UNL A   1      43.981  24.624  26.742  1.00  0.00    -0.014 A 
BRANCH  39  40
ATOM     40  C   UNL A   1      44.173  26.039  27.156  1.00  0.00     0.031 A 
ATOM     41  C   UNL A   1      45.549  26.645  27.163  1.00  0.00     0.074 A 
ATOM     42  C   UNL A   1      43.118  26.754  27.592  1.00  0.00     0.049 A 
ATOM     43  N   UNL A   1      45.932  27.832  27.563  1.00  0.00    -0.248 NA
ATOM     44  C   UNL A   1      46.644  25.787  26.692  1.00  0.00     0.031 C 
ATOM     45  C   UNL A   1      41.744  26.257  27.683  1.00  0.00     0.029 A 
ATOM     46  N   UNL A   1      43.037  28.042  28.059  1.00  0.00    -0.354 N 
ATOM     47  C   UNL A   1      47.313  27.860  27.403  1.00  0.00     0.074 A 
ATOM     48  C   UNL A   1      47.703  26.543  26.939  1.00  0.00     0.031 C 
ATOM     49  C   UNL A   1      40.956  27.231  28.166  1.00  0.00     0.029 A 
ATOM     50  C   UNL A   1      41.771  28.404  28.460  1.00  0.00     0.049 A 
ATOM     51  H   UNL A   1      43.811  28.649  28.103  1.00  0.00     0.167 HD
ATOM     52  C   UNL A   1      48.172  28.891  27.601  1.00  0.00     0.034 A 
ATOM     53  C   UNL A   1      41.321  29.544  29.021  1.00  0.00     0.034 A 
ATOM     54  C   UNL A   1      47.761  30.195  28.066  1.00  0.00     0.049 A 
ATOM     55  C   UNL A   1      42.289  30.675  29.250  1.00  0.00     0.074 A 
ATOM     56  C   UNL A   1      48.529  31.333  28.240  1.00  0.00     0.029 A 
ATOM     57  N   UNL A   1      46.466  30.533  28.447  1.00  0.00    -0.354 N 
ATOM     58  N   UNL A   1      43.583  30.712  29.029  1.00  0.00    -0.248 NA
ATOM     59  C   UNL A   1      41.734  31.922  29.789  1.00  0.00     0.031 C 
ATOM     60  C   UNL A   1      47.721  32.330  28.799  1.00  0.00     0.029 A 
ATOM     61  C   UNL A   1      46.424  31.846  28.893  1.00  0.00     0.049 A 
ATOM     62  H   UNL A   1      45.690  29.928  28.405  1.00  0.00     0.167 HD
ATOM     63  C   UNL A   1      43.994  31.994  29.382  1.00  0.00     0.074 A 
ATOM     64  C   UNL A   1      42.804  32.702  29.814  1.00  0.00     0.031 C 
ATOM     65  C   UNL A   1      45.238  32.537  29.347  1.00  0.00     0.034 A 
BRANCH  52  66
ATOM     66  C   UNL A   1      49.640  28.626  27.348  1.00  0.00     0.023 A 
ATOM     67  C   UNL A   1      50.215  28.799  26.075  1.00  0.00     0.031 A 
ATOM     68  C   UNL A   1      50.467  28.137  28.374  1.00  0.00     0.131 A 
ATOM     69  C   UNL A   1      51.533  28.383  25.835  1.00  0.00     0.055 A 
ATOM     70  C   UNL A   1      51.810  27.819  28.153  1.00  0.00     0.041 A 
ATOM     71  F   UNL A   1      49.980  27.931  29.608  1.00  0.00    -0.206 F 
ATOM     72  C   UNL A   1      52.345  27.920  26.872  1.00  0.00     0.022 A 
BRANCH  69  73
ATOM     73  S   UNL A   1      52.104  28.275  24.116  1.00  0.00     0.124 S 
ATOM     74  O   UNL A   1      53.548  28.431  24.275  1.00  0.00    -0.237 OA
ATOM     75  O   UNL A   1      51.643  26.952  23.714  1.00  0.00    -0.237 OA
ATOM     76  O   UNL A   1      51.433  29.397  23.461  1.00  0.00    -0.744 OA
ENDBRANCH  69  73
ENDBRANCH  52  66
BRANCH  53  77
ATOM     77  C   UNL A   1      39.890  29.657  29.425  1.00  0.00     0.023 A 
ATOM     78  C   UNL A   1      39.511  29.693  30.775  1.00  0.00     0.031 A 
ATOM     79  C   UNL A   1      38.877  29.734  28.451  1.00  0.00     0.131 A 
ATOM     80  C   UNL A   1      38.152  29.772  31.117  1.00  0.00     0.055 A 
ATOM     81  C   UNL A   1      37.531  29.861  28.796  1.00  0.00     0.041 A 
ATOM     82  F   UNL A   1      39.188  29.712  27.145  1.00  0.00    -0.206 F 
ATOM     83  C   UNL A   1      37.161  29.872  30.137  1.00  0.00     0.022 A 
BRANCH  80  84
ATOM     84  S   UNL A   1      37.686  29.688  32.868  1.00  0.00     0.124 S 
ATOM     85  O   UNL A   1      36.522  30.566  32.908  1.00  0.00    -0.237 OA
ATOM     86  O   UNL A   1      37.422  28.264  33.043  1.00  0.00    -0.237 OA
ATOM     87  O   UNL A   1      38.872  30.190  33.559  1.00  0.00    -0.744 OA
ENDBRANCH  80  84
ENDBRANCH  53  77
BRANCH  65  88
ATOM     88  C   UNL A   1      45.366  33.985  29.759  1.00  0.00     0.023 A 
ATOM     89  C   UNL A   1      45.225  35.035  28.834  1.00  0.00     0.031 A 
ATOM     90  C   UNL A   1      45.643  34.318  31.097  1.00  0.00     0.131 A 
ATOM     91  C   UNL A   1      45.416  36.362  29.248  1.00  0.00     0.055 A 
ATOM     92  C   UNL A   1      45.768  35.643  31.516  1.00  0.00     0.041 A 
ATOM     93  F   UNL A   1      45.792  33.357  32.024  1.00  0.00    -0.206 F 
ATOM     94  C   UNL A   1      45.667  36.674  30.586  1.00  0.00     0.022 A 
BRANCH  91  95
ATOM     95  S   UNL A   1      45.427  37.673  27.994  1.00  0.00     0.124 S 
ATOM     96  O   UNL A   1      44.346  38.540  28.452  1.00  0.00    -0.237 OA
ATOM     97  O   UNL A   1      46.776  38.215  28.121  1.00  0.00    -0.237 OA
ATOM     98  O   UNL A   1      45.162  36.958  26.748  1.00  0.00    -0.744 OA
ENDBRANCH  91  95
ENDBRANCH  65  88
ENDBRANCH  39  40
ENDBRANCH  31  34
ENDBRANCH  29  30
ENDBRANCH  28  29
ENDBRANCH  27  28
ENDBRANCH  26  27
ENDBRANCH   1  26
TORSDOF 22
ENDMDL
