MODEL 1
REMARK VINA RESULT:     -12.4      0.000      0.000
REMARK SMILES Cc1cccc(-c2ncc(C[NH+]3CCC4(CC3)NC(=O)C[C@H]4C(=O)NCCCCCCNC(=O)c3ccc(-c4c5nc(c(-c6cc(S(=O)(=O)[O-])ccc6F)c6ccc([nH]6)c(-c6cc(S(=O)(=O)[O-])ccc6F)c6nc(c(-c7cc(S(=O)(=O)[O-])ccc7F)c7ccc4[nH]7)C=C6)C=C5)cc3)cn2)c1
REMARK SMILES IDX 28 1 27 2 26 3 25 4 23 5 24 6 22 8 12 9 13 10 17 11 14 13
REMARK SMILES IDX 16 14 15 15 18 16 19 17 21 19 20 20 11 21 10 22 7 23 8 24
REMARK SMILES IDX 99 25 9 26 98 27 6 28 1 29 2 30 3 31 100 32 4 33 5 34 29 35
REMARK SMILES IDX 30 36 31 37 32 38 33 39 34 41 35 42 36 43 97 44 37 45 96 46
REMARK SMILES IDX 38 47 39 48 40 49 90 50 41 51 95 52 89 53 91 54 42 55 94 56
REMARK SMILES IDX 88 57 87 58 43 60 75 61 55 62 74 63 56 64 59 65 73 66 92 67
REMARK SMILES IDX 57 68 58 69 72 71 93 72 60 73 44 74 45 75 53 76 46 77 52 78
REMARK SMILES IDX 54 79 51 80 47 81 48 82 49 83 50 84 76 85 77 86 85 87 78 88
REMARK SMILES IDX 84 89 86 90 83 91 79 92 80 93 81 94 82 95 61 96 62 97 70 98
REMARK SMILES IDX 63 99 69 100 71 101 68 102 64 103 65 104 66 105 67 106
REMARK H PARENT 25 7 12 12 18 18 32 40 91 59 59 70
REMARK Flexibility Score: inf
ROOT
ATOM      1  C   UNL A   1      33.560  28.853  24.877  1.00  0.00     0.002 C 
ENDROOT
BRANCH   1   2
ATOM      2  C   UNL A   1      33.989  28.591  23.435  1.00  0.00     0.021 C 
BRANCH   2   3
ATOM      3  C   UNL A   1      32.859  28.245  22.446  1.00  0.00     0.116 C 
BRANCH   3   4
ATOM      4  N   UNL A   1      33.173  27.191  21.479  1.00  0.00    -0.356 N 
ATOM      5  C   UNL A   1      32.766  25.896  21.323  1.00  0.00     0.226 C 
ATOM      6  O   UNL A   1      33.261  25.272  20.376  1.00  0.00    -0.275 OA
ATOM      7  H   UNL A   1      33.817  27.479  20.793  1.00  0.00     0.163 HD
BRANCH   5   8
ATOM      8  C   UNL A   1      31.745  25.160  22.222  1.00  0.00     0.114 C 
ATOM      9  N   UNL A   1      33.807  22.001  23.964  1.00  0.00    -0.331 N 
ATOM     10  C   UNL A   1      32.356  21.925  23.862  1.00  0.00     0.264 C 
ATOM     11  C   UNL A   1      34.317  23.076  23.143  1.00  0.00     0.264 C 
ATOM     12  H   UNL A   1      34.104  21.104  23.580  1.00  0.00     0.348 HD
ATOM     13  C   UNL A   1      31.569  23.232  24.038  1.00  0.00     0.091 C 
ATOM     14  C   UNL A   1      33.763  24.422  23.566  1.00  0.00     0.091 C 
ATOM     15  C   UNL A   1      32.241  24.552  23.558  1.00  0.00     0.063 C 
ATOM     16  N   UNL A   1      31.755  25.547  24.510  1.00  0.00    -0.349 N 
ATOM     17  C   UNL A   1      30.784  26.397  24.024  1.00  0.00     0.221 C 
ATOM     18  H   UNL A   1      32.094  25.606  25.432  1.00  0.00     0.164 HD
ATOM     19  C   UNL A   1      30.593  26.110  22.565  1.00  0.00     0.116 C 
ATOM     20  O   UNL A   1      30.189  27.230  24.671  1.00  0.00    -0.275 OA
BRANCH   9  21
ATOM     21  C   UNL A   1      34.479  21.823  25.270  1.00  0.00     0.302 C 
BRANCH  21  22
ATOM     22  C   UNL A   1      35.973  21.993  25.311  1.00  0.00     0.043 A 
ATOM     23  C   UNL A   1      38.622  22.038  25.940  1.00  0.00     0.159 A 
ATOM     24  N   UNL A   1      38.131  20.928  25.351  1.00  0.00    -0.236 NA
ATOM     25  N   UNL A   1      37.913  23.159  26.165  1.00  0.00    -0.236 NA
ATOM     26  C   UNL A   1      36.829  20.961  25.000  1.00  0.00     0.124 A 
ATOM     27  C   UNL A   1      36.601  23.116  25.830  1.00  0.00     0.124 A 
BRANCH  23  28
ATOM     28  C   UNL A   1      39.983  21.956  26.486  1.00  0.00     0.019 A 
ATOM     29  C   UNL A   1      42.258  23.909  28.882  1.00  0.00     0.044 C 
ATOM     30  C   UNL A   1      41.760  22.854  27.937  1.00  0.00    -0.050 A 
ATOM     31  C   UNL A   1      42.553  21.744  27.639  1.00  0.00     0.003 A 
ATOM     32  C   UNL A   1      40.485  22.943  27.361  1.00  0.00     0.015 A 
ATOM     33  C   UNL A   1      42.087  20.763  26.761  1.00  0.00     0.001 A 
ATOM     34  C   UNL A   1      40.819  20.874  26.182  1.00  0.00     0.012 A 
ENDBRANCH  23  28
ENDBRANCH  21  22
ENDBRANCH   9  21
ENDBRANCH   5   8
ENDBRANCH   3   4
ENDBRANCH   2   3
ENDBRANCH   1   2
BRANCH   1  35
ATOM     35  C   UNL A   1      32.325  29.740  25.040  1.00  0.00     0.002 C 
BRANCH  35  36
ATOM     36  C   UNL A   1      32.120  30.320  26.436  1.00  0.00     0.021 C 
BRANCH  36  37
ATOM     37  C   UNL A   1      33.261  30.042  27.395  1.00  0.00     0.116 C 
BRANCH  37  38
ATOM     38  N   UNL A   1      33.783  31.246  28.020  1.00  0.00    -0.352 N 
ATOM     39  C   UNL A   1      34.946  31.448  28.732  1.00  0.00     0.251 C 
ATOM     40  H   UNL A   1      33.215  32.044  27.918  1.00  0.00     0.163 HD
ATOM     41  O   UNL A   1      35.068  32.446  29.439  1.00  0.00    -0.269 OA
BRANCH  39  42
ATOM     42  C   UNL A   1      36.129  30.587  28.481  1.00  0.00     0.039 A 
ATOM     43  C   UNL A   1      36.280  29.482  29.336  1.00  0.00     0.014 A 
ATOM     44  C   UNL A   1      37.212  31.059  27.757  1.00  0.00     0.014 A 
ATOM     45  C   UNL A   1      37.554  29.065  29.689  1.00  0.00     0.010 A 
ATOM     46  C   UNL A   1      38.460  30.796  28.239  1.00  0.00     0.010 A 
ATOM     47  C   UNL A   1      38.615  29.830  29.233  1.00  0.00    -0.014 A 
BRANCH  47  48
ATOM     48  C   UNL A   1      39.993  29.651  29.607  1.00  0.00     0.031 A 
ATOM     49  C   UNL A   1      40.728  28.626  28.857  1.00  0.00     0.074 A 
ATOM     50  C   UNL A   1      40.555  30.608  30.374  1.00  0.00     0.049 A 
ATOM     51  N   UNL A   1      41.878  28.178  29.192  1.00  0.00    -0.248 NA
ATOM     52  C   UNL A   1      40.194  27.972  27.660  1.00  0.00     0.031 C 
ATOM     53  C   UNL A   1      41.965  30.924  30.544  1.00  0.00     0.029 A 
ATOM     54  N   UNL A   1      39.912  31.377  31.346  1.00  0.00    -0.354 N 
ATOM     55  C   UNL A   1      42.374  27.474  28.117  1.00  0.00     0.074 A 
ATOM     56  C   UNL A   1      41.250  27.265  27.247  1.00  0.00     0.031 C 
ATOM     57  C   UNL A   1      42.127  31.575  31.711  1.00  0.00     0.029 A 
ATOM     58  C   UNL A   1      40.842  31.559  32.391  1.00  0.00     0.049 A 
ATOM     59  H   UNL A   1      38.992  31.723  31.310  1.00  0.00     0.167 HD
ATOM     60  C   UNL A   1      43.721  27.310  28.049  1.00  0.00     0.034 A 
ATOM     61  C   UNL A   1      40.610  30.968  33.603  1.00  0.00     0.034 A 
ATOM     62  C   UNL A   1      44.337  27.858  29.255  1.00  0.00     0.049 A 
ATOM     63  C   UNL A   1      41.629  29.888  33.908  1.00  0.00     0.074 A 
ATOM     64  C   UNL A   1      44.947  29.070  29.535  1.00  0.00     0.029 A 
ATOM     65  N   UNL A   1      44.032  27.273  30.474  1.00  0.00    -0.354 N 
ATOM     66  N   UNL A   1      42.315  29.248  32.997  1.00  0.00    -0.248 NA
ATOM     67  C   UNL A   1      42.015  29.505  35.262  1.00  0.00     0.031 C 
ATOM     68  C   UNL A   1      44.938  29.236  30.947  1.00  0.00     0.029 A 
ATOM     69  C   UNL A   1      44.353  28.115  31.514  1.00  0.00     0.049 A 
ATOM     70  H   UNL A   1      43.640  26.376  30.580  1.00  0.00     0.167 HD
ATOM     71  C   UNL A   1      43.239  28.429  33.599  1.00  0.00     0.074 A 
ATOM     72  C   UNL A   1      43.000  28.621  35.020  1.00  0.00     0.031 C 
ATOM     73  C   UNL A   1      44.136  27.682  32.882  1.00  0.00     0.034 A 
BRANCH  60  74
ATOM     74  C   UNL A   1      44.537  26.906  26.849  1.00  0.00     0.023 A 
ATOM     75  C   UNL A   1      44.430  25.566  26.421  1.00  0.00     0.031 A 
ATOM     76  C   UNL A   1      45.437  27.700  26.116  1.00  0.00     0.131 A 
ATOM     77  C   UNL A   1      45.208  25.054  25.374  1.00  0.00     0.055 A 
ATOM     78  C   UNL A   1      46.221  27.189  25.069  1.00  0.00     0.041 A 
ATOM     79  F   UNL A   1      45.594  29.007  26.344  1.00  0.00    -0.206 F 
ATOM     80  C   UNL A   1      46.113  25.859  24.695  1.00  0.00     0.022 A 
BRANCH  77  81
ATOM     81  S   UNL A   1      45.017  23.309  24.935  1.00  0.00     0.124 S 
ATOM     82  O   UNL A   1      43.593  23.226  24.622  1.00  0.00    -0.237 OA
ATOM     83  O   UNL A   1      45.936  23.169  23.811  1.00  0.00    -0.237 OA
ATOM     84  O   UNL A   1      45.422  22.608  26.152  1.00  0.00    -0.744 OA
ENDBRANCH  77  81
ENDBRANCH  60  74
BRANCH  61  85
ATOM     85  C   UNL A   1      39.147  30.963  33.935  1.00  0.00     0.023 A 
ATOM     86  C   UNL A   1      38.591  32.213  34.298  1.00  0.00     0.031 A 
ATOM     87  C   UNL A   1      38.283  30.001  33.389  1.00  0.00     0.131 A 
ATOM     88  C   UNL A   1      37.289  32.550  33.895  1.00  0.00     0.055 A 
ATOM     89  C   UNL A   1      36.957  30.323  33.060  1.00  0.00     0.041 A 
ATOM     90  F   UNL A   1      38.745  28.797  33.019  1.00  0.00    -0.206 F 
ATOM     91  C   UNL A   1      36.475  31.619  33.252  1.00  0.00     0.022 A 
BRANCH  88  92
ATOM     92  S   UNL A   1      36.792  34.297  33.992  1.00  0.00     0.124 S 
ATOM     93  O   UNL A   1      37.890  34.886  34.752  1.00  0.00    -0.237 OA
ATOM     94  O   UNL A   1      36.720  34.675  32.581  1.00  0.00    -0.237 OA
ATOM     95  O   UNL A   1      35.504  34.263  34.680  1.00  0.00    -0.744 OA
ENDBRANCH  88  92
ENDBRANCH  61  85
BRANCH  73  96
ATOM     96  C   UNL A   1      44.960  26.513  33.394  1.00  0.00     0.023 A 
ATOM     97  C   UNL A   1      44.390  25.348  33.911  1.00  0.00     0.031 A 
ATOM     98  C   UNL A   1      46.380  26.496  33.288  1.00  0.00     0.131 A 
ATOM     99  C   UNL A   1      45.190  24.289  34.373  1.00  0.00     0.055 A 
ATOM    100  C   UNL A   1      47.164  25.398  33.646  1.00  0.00     0.041 A 
ATOM    101  F   UNL A   1      47.080  27.538  32.819  1.00  0.00    -0.206 F 
ATOM    102  C   UNL A   1      46.571  24.288  34.215  1.00  0.00     0.022 A 
BRANCH  99 103
ATOM    103  S   UNL A   1      44.370  22.955  35.278  1.00  0.00     0.124 S 
ATOM    104  O   UNL A   1      42.973  23.380  35.232  1.00  0.00    -0.237 OA
ATOM    105  O   UNL A   1      44.700  21.783  34.475  1.00  0.00    -0.237 OA
ATOM    106  O   UNL A   1      44.991  23.003  36.600  1.00  0.00    -0.744 OA
ENDBRANCH  99 103
ENDBRANCH  73  96
ENDBRANCH  47  48
ENDBRANCH  39  42
ENDBRANCH  37  38
ENDBRANCH  36  37
ENDBRANCH  35  36
ENDBRANCH   1  35
TORSDOF 19
ENDMDL
MODEL 2
REMARK VINA RESULT:     -12.3      3.102      5.151
REMARK SMILES Cc1cccc(-c2ncc(C[NH+]3CCC4(CC3)NC(=O)C[C@H]4C(=O)NCCCCCCNC(=O)c3ccc(-c4c5nc(c(-c6cc(S(=O)(=O)[O-])ccc6F)c6ccc([nH]6)c(-c6cc(S(=O)(=O)[O-])ccc6F)c6nc(c(-c7cc(S(=O)(=O)[O-])ccc7F)c7ccc4[nH]7)C=C6)C=C5)cc3)cn2)c1
REMARK SMILES IDX 28 1 27 2 26 3 25 4 23 5 24 6 22 8 12 9 13 10 17 11 14 13
REMARK SMILES IDX 16 14 15 15 18 16 19 17 21 19 20 20 11 21 10 22 7 23 8 24
REMARK SMILES IDX 99 25 9 26 98 27 6 28 1 29 2 30 3 31 100 32 4 33 5 34 29 35
REMARK SMILES IDX 30 36 31 37 32 38 33 39 34 41 35 42 36 43 97 44 37 45 96 46
REMARK SMILES IDX 38 47 39 48 40 49 90 50 41 51 95 52 89 53 91 54 42 55 94 56
REMARK SMILES IDX 88 57 87 58 43 60 75 61 55 62 74 63 56 64 59 65 73 66 92 67
REMARK SMILES IDX 57 68 58 69 72 71 93 72 60 73 44 74 45 75 53 76 46 77 52 78
REMARK SMILES IDX 54 79 51 80 47 81 48 82 49 83 50 84 76 85 77 86 85 87 78 88
REMARK SMILES IDX 84 89 86 90 83 91 79 92 80 93 81 94 82 95 61 96 62 97 70 98
REMARK SMILES IDX 63 99 69 100 71 101 68 102 64 103 65 104 66 105 67 106
REMARK H PARENT 25 7 12 12 18 18 32 40 91 59 59 70
REMARK Flexibility Score: inf
ROOT
ATOM      1  C   UNL A   1      34.141  31.489  27.486  1.00  0.00     0.002 C 
ENDROOT
BRANCH   1   2
ATOM      2  C   UNL A   1      34.946  30.239  27.838  1.00  0.00     0.021 C 
BRANCH   2   3
ATOM      3  C   UNL A   1      34.582  28.960  27.060  1.00  0.00     0.116 C 
BRANCH   3   4
ATOM      4  N   UNL A   1      33.213  28.479  27.249  1.00  0.00    -0.356 N 
ATOM      5  C   UNL A   1      32.179  28.200  26.400  1.00  0.00     0.226 C 
ATOM      6  O   UNL A   1      31.125  27.815  26.920  1.00  0.00    -0.275 OA
ATOM      7  H   UNL A   1      32.988  28.322  28.194  1.00  0.00     0.163 HD
BRANCH   5   8
ATOM      8  C   UNL A   1      32.226  28.321  24.858  1.00  0.00     0.114 C 
ATOM      9  N   UNL A   1      33.611  24.663  23.456  1.00  0.00    -0.331 N 
ATOM     10  C   UNL A   1      33.760  25.842  22.615  1.00  0.00     0.264 C 
ATOM     11  C   UNL A   1      33.257  25.044  24.805  1.00  0.00     0.264 C 
ATOM     12  H   UNL A   1      34.549  24.263  23.445  1.00  0.00     0.348 HD
ATOM     13  C   UNL A   1      32.635  26.887  22.662  1.00  0.00     0.091 C 
ATOM     14  C   UNL A   1      31.947  25.803  24.854  1.00  0.00     0.091 C 
ATOM     15  C   UNL A   1      31.876  27.074  24.009  1.00  0.00     0.063 C 
ATOM     16  N   UNL A   1      30.515  27.399  23.591  1.00  0.00    -0.349 N 
ATOM     17  C   UNL A   1      30.160  28.723  23.730  1.00  0.00     0.221 C 
ATOM     18  H   UNL A   1      29.896  26.721  23.235  1.00  0.00     0.164 HD
ATOM     19  C   UNL A   1      31.288  29.445  24.408  1.00  0.00     0.116 C 
ATOM     20  O   UNL A   1      29.117  29.216  23.364  1.00  0.00    -0.275 OA
BRANCH   9  21
ATOM     21  C   UNL A   1      32.937  23.452  22.939  1.00  0.00     0.302 C 
BRANCH  21  22
ATOM     22  C   UNL A   1      33.075  22.185  23.740  1.00  0.00     0.043 A 
ATOM     23  C   UNL A   1      33.453  19.644  24.641  1.00  0.00     0.159 A 
ATOM     24  N   UNL A   1      34.533  20.447  24.542  1.00  0.00    -0.236 NA
ATOM     25  N   UNL A   1      32.188  20.035  24.403  1.00  0.00    -0.236 NA
ATOM     26  C   UNL A   1      34.303  21.716  24.149  1.00  0.00     0.124 A 
ATOM     27  C   UNL A   1      32.025  21.308  23.970  1.00  0.00     0.124 A 
BRANCH  23  28
ATOM     28  C   UNL A   1      33.704  18.219  24.894  1.00  0.00     0.019 A 
ATOM     29  C   UNL A   1      31.770  15.101  26.022  1.00  0.00     0.044 C 
ATOM     30  C   UNL A   1      32.885  15.989  25.550  1.00  0.00    -0.050 A 
ATOM     31  C   UNL A   1      34.143  15.454  25.268  1.00  0.00     0.003 A 
ATOM     32  C   UNL A   1      32.680  17.364  25.356  1.00  0.00     0.015 A 
ATOM     33  C   UNL A   1      35.177  16.282  24.828  1.00  0.00     0.001 A 
ATOM     34  C   UNL A   1      34.962  17.653  24.654  1.00  0.00     0.012 A 
ENDBRANCH  23  28
ENDBRANCH  21  22
ENDBRANCH   9  21
ENDBRANCH   5   8
ENDBRANCH   3   4
ENDBRANCH   2   3
ENDBRANCH   1   2
BRANCH   1  35
ATOM     35  C   UNL A   1      34.712  32.805  28.015  1.00  0.00     0.002 C 
BRANCH  35  36
ATOM     36  C   UNL A   1      35.443  32.706  29.350  1.00  0.00     0.021 C 
BRANCH  36  37
ATOM     37  C   UNL A   1      34.529  32.500  30.542  1.00  0.00     0.116 C 
BRANCH  37  38
ATOM     38  N   UNL A   1      34.017  33.746  31.086  1.00  0.00    -0.352 N 
ATOM     39  C   UNL A   1      34.410  34.464  32.196  1.00  0.00     0.251 C 
ATOM     40  H   UNL A   1      33.269  34.142  30.581  1.00  0.00     0.163 HD
ATOM     41  O   UNL A   1      33.667  35.321  32.668  1.00  0.00    -0.269 OA
BRANCH  39  42
ATOM     42  C   UNL A   1      35.807  34.362  32.688  1.00  0.00     0.039 A 
ATOM     43  C   UNL A   1      36.801  34.870  31.833  1.00  0.00     0.014 A 
ATOM     44  C   UNL A   1      36.145  33.469  33.693  1.00  0.00     0.014 A 
ATOM     45  C   UNL A   1      38.042  34.254  31.792  1.00  0.00     0.010 A 
ATOM     46  C   UNL A   1      37.280  32.732  33.530  1.00  0.00     0.010 A 
ATOM     47  C   UNL A   1      38.199  33.106  32.551  1.00  0.00    -0.014 A 
BRANCH  47  48
ATOM     48  C   UNL A   1      39.353  32.246  32.531  1.00  0.00     0.031 A 
ATOM     49  C   UNL A   1      39.197  30.989  31.788  1.00  0.00     0.074 A 
ATOM     50  C   UNL A   1      40.529  32.779  32.921  1.00  0.00     0.049 A 
ATOM     51  N   UNL A   1      40.023  30.015  31.845  1.00  0.00    -0.248 NA
ATOM     52  C   UNL A   1      38.043  30.702  30.933  1.00  0.00     0.031 C 
ATOM     53  C   UNL A   1      41.877  32.327  32.613  1.00  0.00     0.029 A 
ATOM     54  N   UNL A   1      40.712  33.768  33.889  1.00  0.00    -0.354 N 
ATOM     55  C   UNL A   1      39.718  29.157  30.811  1.00  0.00     0.074 A 
ATOM     56  C   UNL A   1      38.414  29.554  30.359  1.00  0.00     0.031 C 
ATOM     57  C   UNL A   1      42.719  32.803  33.549  1.00  0.00     0.029 A 
ATOM     58  C   UNL A   1      41.906  33.447  34.568  1.00  0.00     0.049 A 
ATOM     59  H   UNL A   1      40.123  34.537  34.064  1.00  0.00     0.167 HD
ATOM     60  C   UNL A   1      40.703  28.326  30.382  1.00  0.00     0.034 A 
ATOM     61  C   UNL A   1      41.846  33.057  35.878  1.00  0.00     0.034 A 
ATOM     62  C   UNL A   1      41.876  28.479  31.241  1.00  0.00     0.049 A 
ATOM     63  C   UNL A   1      42.252  31.608  36.054  1.00  0.00     0.074 A 
ATOM     64  C   UNL A   1      43.047  29.208  31.115  1.00  0.00     0.029 A 
ATOM     65  N   UNL A   1      41.762  28.133  32.577  1.00  0.00    -0.354 N 
ATOM     66  N   UNL A   1      42.187  30.707  35.108  1.00  0.00    -0.248 NA
ATOM     67  C   UNL A   1      42.840  31.081  37.281  1.00  0.00     0.031 C 
ATOM     68  C   UNL A   1      43.600  29.354  32.416  1.00  0.00     0.029 A 
ATOM     69  C   UNL A   1      42.781  28.691  33.314  1.00  0.00     0.049 A 
ATOM     70  H   UNL A   1      41.049  27.564  32.948  1.00  0.00     0.167 HD
ATOM     71  C   UNL A   1      42.743  29.530  35.547  1.00  0.00     0.074 A 
ATOM     72  C   UNL A   1      43.127  29.816  36.919  1.00  0.00     0.031 C 
ATOM     73  C   UNL A   1      42.863  28.430  34.740  1.00  0.00     0.034 A 
BRANCH  60  74
ATOM     74  C   UNL A   1      40.759  27.561  29.085  1.00  0.00     0.023 A 
ATOM     75  C   UNL A   1      41.777  27.914  28.175  1.00  0.00     0.031 A 
ATOM     76  C   UNL A   1      39.885  26.550  28.646  1.00  0.00     0.131 A 
ATOM     77  C   UNL A   1      41.872  27.333  26.903  1.00  0.00     0.055 A 
ATOM     78  C   UNL A   1      39.975  25.969  27.372  1.00  0.00     0.041 A 
ATOM     79  F   UNL A   1      38.919  26.048  29.421  1.00  0.00    -0.206 F 
ATOM     80  C   UNL A   1      40.969  26.362  26.489  1.00  0.00     0.022 A 
BRANCH  77  81
ATOM     81  S   UNL A   1      43.195  27.891  25.800  1.00  0.00     0.124 S 
ATOM     82  O   UNL A   1      44.207  26.856  25.990  1.00  0.00    -0.237 OA
ATOM     83  O   UNL A   1      42.529  27.913  24.503  1.00  0.00    -0.237 OA
ATOM     84  O   UNL A   1      43.549  29.204  26.334  1.00  0.00    -0.744 OA
ENDBRANCH  77  81
ENDBRANCH  60  74
BRANCH  61  85
ATOM     85  C   UNL A   1      40.776  33.803  36.619  1.00  0.00     0.023 A 
ATOM     86  C   UNL A   1      39.566  33.099  36.830  1.00  0.00     0.031 A 
ATOM     87  C   UNL A   1      41.099  34.826  37.524  1.00  0.00     0.131 A 
ATOM     88  C   UNL A   1      38.856  33.259  38.031  1.00  0.00     0.055 A 
ATOM     89  C   UNL A   1      40.339  35.031  38.687  1.00  0.00     0.041 A 
ATOM     90  F   UNL A   1      42.234  35.528  37.386  1.00  0.00    -0.206 F 
ATOM     91  C   UNL A   1      39.251  34.205  38.976  1.00  0.00     0.022 A 
BRANCH  88  92
ATOM     92  S   UNL A   1      37.580  32.029  38.438  1.00  0.00     0.124 S 
ATOM     93  O   UNL A   1      38.007  31.568  39.754  1.00  0.00    -0.237 OA
ATOM     94  O   UNL A   1      36.358  32.831  38.409  1.00  0.00    -0.237 OA
ATOM     95  O   UNL A   1      37.685  31.041  37.366  1.00  0.00    -0.744 OA
ENDBRANCH  88  92
ENDBRANCH  61  85
BRANCH  73  96
ATOM     96  C   UNL A   1      43.139  27.003  35.184  1.00  0.00     0.023 A 
ATOM     97  C   UNL A   1      44.160  26.221  34.639  1.00  0.00     0.031 A 
ATOM     98  C   UNL A   1      42.426  26.403  36.260  1.00  0.00     0.131 A 
ATOM     99  C   UNL A   1      44.382  24.905  35.079  1.00  0.00     0.055 A 
ATOM    100  C   UNL A   1      42.723  25.137  36.768  1.00  0.00     0.041 A 
ATOM    101  F   UNL A   1      41.414  27.019  36.885  1.00  0.00    -0.206 F 
ATOM    102  C   UNL A   1      43.696  24.366  36.161  1.00  0.00     0.022 A 
BRANCH  99 103
ATOM    103  S   UNL A   1      45.531  23.886  34.124  1.00  0.00     0.124 S 
ATOM    104  O   UNL A   1      45.608  24.626  32.866  1.00  0.00    -0.237 OA
ATOM    105  O   UNL A   1      46.735  23.915  34.948  1.00  0.00    -0.237 OA
ATOM    106  O   UNL A   1      44.859  22.592  34.043  1.00  0.00    -0.744 OA
ENDBRANCH  99 103
ENDBRANCH  73  96
ENDBRANCH  47  48
ENDBRANCH  39  42
ENDBRANCH  37  38
ENDBRANCH  36  37
ENDBRANCH  35  36
ENDBRANCH   1  35
TORSDOF 19
ENDMDL
MODEL 3
REMARK VINA RESULT:     -12.0      2.747      4.243
REMARK SMILES Cc1cccc(-c2ncc(C[NH+]3CCC4(CC3)NC(=O)C[C@H]4C(=O)NCCCCCCNC(=O)c3ccc(-c4c5nc(c(-c6cc(S(=O)(=O)[O-])ccc6F)c6ccc([nH]6)c(-c6cc(S(=O)(=O)[O-])ccc6F)c6nc(c(-c7cc(S(=O)(=O)[O-])ccc7F)c7ccc4[nH]7)C=C6)C=C5)cc3)cn2)c1
REMARK SMILES IDX 28 1 27 2 26 3 25 4 23 5 24 6 22 8 12 9 13 10 17 11 14 13
REMARK SMILES IDX 16 14 15 15 18 16 19 17 21 19 20 20 11 21 10 22 7 23 8 24
REMARK SMILES IDX 99 25 9 26 98 27 6 28 1 29 2 30 3 31 100 32 4 33 5 34 29 35
REMARK SMILES IDX 30 36 31 37 32 38 33 39 34 41 35 42 36 43 97 44 37 45 96 46
REMARK SMILES IDX 38 47 39 48 40 49 90 50 41 51 95 52 89 53 91 54 42 55 94 56
REMARK SMILES IDX 88 57 87 58 43 60 75 61 55 62 74 63 56 64 59 65 73 66 92 67
REMARK SMILES IDX 57 68 58 69 72 71 93 72 60 73 44 74 45 75 53 76 46 77 52 78
REMARK SMILES IDX 54 79 51 80 47 81 48 82 49 83 50 84 76 85 77 86 85 87 78 88
REMARK SMILES IDX 84 89 86 90 83 91 79 92 80 93 81 94 82 95 61 96 62 97 70 98
REMARK SMILES IDX 63 99 69 100 71 101 68 102 64 103 65 104 66 105 67 106
REMARK H PARENT 25 7 12 12 18 18 32 40 91 59 59 70
REMARK Flexibility Score: inf
ROOT
ATOM      1  C   UNL A   1      33.654  31.241  27.638  1.00  0.00     0.002 C 
ENDROOT
BRANCH   1   2
ATOM      2  C   UNL A   1      34.700  30.191  27.270  1.00  0.00     0.021 C 
BRANCH   2   3
ATOM      3  C   UNL A   1      34.168  28.923  26.573  1.00  0.00     0.116 C 
BRANCH   3   4
ATOM      4  N   UNL A   1      32.887  28.423  27.074  1.00  0.00    -0.356 N 
ATOM      5  C   UNL A   1      31.823  27.791  26.494  1.00  0.00     0.226 C 
ATOM      6  O   UNL A   1      30.871  27.518  27.236  1.00  0.00    -0.275 OA
ATOM      7  H   UNL A   1      32.766  28.576  28.038  1.00  0.00     0.163 HD
BRANCH   5   8
ATOM      8  C   UNL A   1      31.720  27.390  25.003  1.00  0.00     0.114 C 
ATOM      9  N   UNL A   1      34.794  24.676  24.325  1.00  0.00    -0.331 N 
ATOM     10  C   UNL A   1      34.238  25.409  23.196  1.00  0.00     0.264 C 
ATOM     11  C   UNL A   1      34.358  25.262  25.573  1.00  0.00     0.264 C 
ATOM     12  H   UNL A   1      35.797  24.818  24.210  1.00  0.00     0.348 HD
ATOM     13  C   UNL A   1      32.731  25.702  23.220  1.00  0.00     0.091 C 
ATOM     14  C   UNL A   1      32.850  25.235  25.714  1.00  0.00     0.091 C 
ATOM     15  C   UNL A   1      32.060  25.931  24.607  1.00  0.00     0.063 C 
ATOM     16  N   UNL A   1      30.721  25.375  24.434  1.00  0.00    -0.349 N 
ATOM     17  C   UNL A   1      29.713  26.305  24.300  1.00  0.00     0.221 C 
ATOM     18  H   UNL A   1      30.551  24.405  24.412  1.00  0.00     0.164 HD
ATOM     19  C   UNL A   1      30.302  27.670  24.499  1.00  0.00     0.116 C 
ATOM     20  O   UNL A   1      28.552  26.058  24.060  1.00  0.00    -0.275 OA
BRANCH   9  21
ATOM     21  C   UNL A   1      34.858  23.199  24.304  1.00  0.00     0.302 C 
BRANCH  21  22
ATOM     22  C   UNL A   1      36.032  22.545  24.982  1.00  0.00     0.043 A 
ATOM     23  C   UNL A   1      38.473  21.609  25.742  1.00  0.00     0.159 A 
ATOM     24  N   UNL A   1      38.109  22.839  26.162  1.00  0.00    -0.236 NA
ATOM     25  N   UNL A   1      37.681  20.777  25.042  1.00  0.00    -0.236 NA
ATOM     26  C   UNL A   1      36.871  23.248  25.817  1.00  0.00     0.124 A 
ATOM     27  C   UNL A   1      36.466  21.261  24.688  1.00  0.00     0.124 A 
BRANCH  23  28
ATOM     28  C   UNL A   1      39.873  21.220  25.955  1.00  0.00     0.019 A 
ATOM     29  C   UNL A   1      43.270  22.886  26.600  1.00  0.00     0.044 C 
ATOM     30  C   UNL A   1      42.219  21.834  26.393  1.00  0.00    -0.050 A 
ATOM     31  C   UNL A   1      42.547  20.481  26.486  1.00  0.00     0.003 A 
ATOM     32  C   UNL A   1      40.886  22.187  26.133  1.00  0.00     0.015 A 
ATOM     33  C   UNL A   1      41.567  19.505  26.295  1.00  0.00     0.001 A 
ATOM     34  C   UNL A   1      40.246  19.871  26.021  1.00  0.00     0.012 A 
ENDBRANCH  23  28
ENDBRANCH  21  22
ENDBRANCH   9  21
ENDBRANCH   5   8
ENDBRANCH   3   4
ENDBRANCH   2   3
ENDBRANCH   1   2
BRANCH   1  35
ATOM     35  C   UNL A   1      34.192  32.659  27.831  1.00  0.00     0.002 C 
BRANCH  35  36
ATOM     36  C   UNL A   1      35.176  32.831  28.984  1.00  0.00     0.021 C 
BRANCH  36  37
ATOM     37  C   UNL A   1      34.590  32.524  30.348  1.00  0.00     0.116 C 
BRANCH  37  38
ATOM     38  N   UNL A   1      34.007  33.690  30.990  1.00  0.00    -0.352 N 
ATOM     39  C   UNL A   1      34.307  34.289  32.196  1.00  0.00     0.251 C 
ATOM     40  H   UNL A   1      33.281  34.122  30.483  1.00  0.00     0.163 HD
ATOM     41  O   UNL A   1      33.511  35.071  32.709  1.00  0.00    -0.269 OA
BRANCH  39  42
ATOM     42  C   UNL A   1      35.673  34.164  32.765  1.00  0.00     0.039 A 
ATOM     43  C   UNL A   1      36.702  34.790  32.040  1.00  0.00     0.014 A 
ATOM     44  C   UNL A   1      35.974  33.171  33.683  1.00  0.00     0.014 A 
ATOM     45  C   UNL A   1      37.962  34.213  32.014  1.00  0.00     0.010 A 
ATOM     46  C   UNL A   1      37.140  32.484  33.513  1.00  0.00     0.010 A 
ATOM     47  C   UNL A   1      38.107  32.990  32.646  1.00  0.00    -0.014 A 
BRANCH  47  48
ATOM     48  C   UNL A   1      39.286  32.166  32.606  1.00  0.00     0.031 A 
ATOM     49  C   UNL A   1      39.151  30.896  31.882  1.00  0.00     0.074 A 
ATOM     50  C   UNL A   1      40.454  32.739  32.961  1.00  0.00     0.049 A 
ATOM     51  N   UNL A   1      40.008  29.948  31.928  1.00  0.00    -0.248 NA
ATOM     52  C   UNL A   1      37.985  30.563  31.059  1.00  0.00     0.031 C 
ATOM     53  C   UNL A   1      41.808  32.325  32.623  1.00  0.00     0.029 A 
ATOM     54  N   UNL A   1      40.631  33.745  33.913  1.00  0.00    -0.354 N 
ATOM     55  C   UNL A   1      39.704  29.069  30.912  1.00  0.00     0.074 A 
ATOM     56  C   UNL A   1      38.377  29.421  30.489  1.00  0.00     0.031 C 
ATOM     57  C   UNL A   1      42.658  32.838  33.532  1.00  0.00     0.029 A 
ATOM     58  C   UNL A   1      41.851  33.468  34.564  1.00  0.00     0.049 A 
ATOM     59  H   UNL A   1      40.023  34.497  34.094  1.00  0.00     0.167 HD
ATOM     60  C   UNL A   1      40.703  28.264  30.466  1.00  0.00     0.034 A 
ATOM     61  C   UNL A   1      41.837  33.093  35.879  1.00  0.00     0.034 A 
ATOM     62  C   UNL A   1      41.892  28.464  31.294  1.00  0.00     0.049 A 
ATOM     63  C   UNL A   1      42.292  31.659  36.061  1.00  0.00     0.074 A 
ATOM     64  C   UNL A   1      43.036  29.226  31.130  1.00  0.00     0.029 A 
ATOM     65  N   UNL A   1      41.822  28.130  32.636  1.00  0.00    -0.354 N 
ATOM     66  N   UNL A   1      42.231  30.746  35.127  1.00  0.00    -0.248 NA
ATOM     67  C   UNL A   1      42.926  31.164  37.279  1.00  0.00     0.031 C 
ATOM     68  C   UNL A   1      43.617  29.405  32.414  1.00  0.00     0.029 A 
ATOM     69  C   UNL A   1      42.842  28.728  33.341  1.00  0.00     0.049 A 
ATOM     70  H   UNL A   1      41.137  27.543  33.032  1.00  0.00     0.167 HD
ATOM     71  C   UNL A   1      42.834  29.592  35.565  1.00  0.00     0.074 A 
ATOM     72  C   UNL A   1      43.243  29.905  36.923  1.00  0.00     0.031 C 
ATOM     73  C   UNL A   1      42.968  28.486  34.767  1.00  0.00     0.034 A 
BRANCH  60  74
ATOM     74  C   UNL A   1      40.750  27.486  29.177  1.00  0.00     0.023 A 
ATOM     75  C   UNL A   1      41.737  27.857  28.239  1.00  0.00     0.031 A 
ATOM     76  C   UNL A   1      39.895  26.447  28.771  1.00  0.00     0.131 A 
ATOM     77  C   UNL A   1      41.818  27.264  26.972  1.00  0.00     0.055 A 
ATOM     78  C   UNL A   1      39.972  25.854  27.500  1.00  0.00     0.041 A 
ATOM     79  F   UNL A   1      38.962  25.927  29.573  1.00  0.00    -0.206 F 
ATOM     80  C   UNL A   1      40.933  26.264  26.590  1.00  0.00     0.022 A 
BRANCH  77  81
ATOM     81  S   UNL A   1      43.098  27.845  25.832  1.00  0.00     0.124 S 
ATOM     82  O   UNL A   1      44.062  26.749  25.871  1.00  0.00    -0.237 OA
ATOM     83  O   UNL A   1      42.356  28.009  24.588  1.00  0.00    -0.237 OA
ATOM     84  O   UNL A   1      43.556  29.090  26.445  1.00  0.00    -0.744 OA
ENDBRANCH  77  81
ENDBRANCH  60  74
BRANCH  61  85
ATOM     85  C   UNL A   1      40.763  33.813  36.640  1.00  0.00     0.023 A 
ATOM     86  C   UNL A   1      39.553  33.102  36.824  1.00  0.00     0.031 A 
ATOM     87  C   UNL A   1      41.081  34.808  37.577  1.00  0.00     0.131 A 
ATOM     88  C   UNL A   1      38.839  33.224  38.028  1.00  0.00     0.055 A 
ATOM     89  C   UNL A   1      40.317  34.977  38.743  1.00  0.00     0.041 A 
ATOM     90  F   UNL A   1      42.215  35.516  37.465  1.00  0.00    -0.206 F 
ATOM     91  C   UNL A   1      39.229  34.141  39.003  1.00  0.00     0.022 A 
BRANCH  88  92
ATOM     92  S   UNL A   1      37.563  31.980  38.391  1.00  0.00     0.124 S 
ATOM     93  O   UNL A   1      37.789  30.993  37.340  1.00  0.00    -0.237 OA
ATOM     94  O   UNL A   1      37.919  31.560  39.745  1.00  0.00    -0.237 OA
ATOM     95  O   UNL A   1      36.307  32.719  38.293  1.00  0.00    -0.744 OA
ENDBRANCH  88  92
ENDBRANCH  61  85
BRANCH  73  96
ATOM     96  C   UNL A   1      43.299  27.074  35.219  1.00  0.00     0.023 A 
ATOM     97  C   UNL A   1      44.557  26.493  35.040  1.00  0.00     0.031 A 
ATOM     98  C   UNL A   1      42.366  26.282  35.945  1.00  0.00     0.131 A 
ATOM     99  C   UNL A   1      44.822  25.183  35.475  1.00  0.00     0.055 A 
ATOM    100  C   UNL A   1      42.668  25.025  36.472  1.00  0.00     0.041 A 
ATOM    101  F   UNL A   1      41.115  26.692  36.196  1.00  0.00    -0.206 F 
ATOM    102  C   UNL A   1      43.900  24.454  36.218  1.00  0.00     0.022 A 
BRANCH  99 103
ATOM    103  S   UNL A   1      46.377  24.426  34.947  1.00  0.00     0.124 S 
ATOM    104  O   UNL A   1      47.335  25.494  35.218  1.00  0.00    -0.237 OA
ATOM    105  O   UNL A   1      46.469  23.259  35.819  1.00  0.00    -0.237 OA
ATOM    106  O   UNL A   1      46.156  24.132  33.533  1.00  0.00    -0.744 OA
ENDBRANCH  99 103
ENDBRANCH  73  96
ENDBRANCH  47  48
ENDBRANCH  39  42
ENDBRANCH  37  38
ENDBRANCH  36  37
ENDBRANCH  35  36
ENDBRANCH   1  35
TORSDOF 19
ENDMDL
