MODEL 1
REMARK VINA RESULT:     -13.5      0.000      0.000
REMARK SMILES O=C(NCCCCCCNC(=O)c1nccnc1C(=O)Nc1n[nH]c2ncccc12)c1ccc(-c2c3nc(c(-c4cc(S(=O)(=O)[O-])ccc4F)c4ccc([nH]4)c(-c4cc(S(=O)(=O)[O-])ccc4F)c4nc(c(-c5cc(S(=O)(=O)[O-])ccc5F)c5ccc2[nH]5)C=C4)C=C3)cc1
REMARK SMILES IDX 6 1 5 2 4 3 3 4 1 5 2 6 31 8 32 9 93 10 33 11 92 12 34 13
REMARK SMILES IDX 35 14 36 15 86 16 37 17 91 18 85 19 87 20 38 21 90 22 84 23
REMARK SMILES IDX 83 24 39 26 71 27 51 28 70 29 52 30 55 31 69 32 88 33 53 34
REMARK SMILES IDX 54 35 68 37 89 38 56 39 40 40 41 41 49 42 42 43 48 44 50 45
REMARK SMILES IDX 47 46 43 47 44 48 45 49 46 50 72 51 73 52 81 53 74 54 80 55
REMARK SMILES IDX 82 56 79 57 75 58 76 59 77 60 78 61 57 62 58 63 66 64 59 65
REMARK SMILES IDX 65 66 67 67 64 68 60 69 61 70 62 71 63 72 7 73 8 74 9 75
REMARK SMILES IDX 10 76 11 77 12 79 13 80 14 81 18 82 15 83 17 84 16 85 19 86
REMARK SMILES IDX 20 87 21 88 22 90 23 91 30 92 24 93 25 94 29 95 26 97 28 98
REMARK SMILES IDX 27 99
REMARK H PARENT 3 7 87 25 55 36 10 78 21 89 24 96
REMARK Flexibility Score: inf
ROOT
ATOM      1  C   UNL A   1      31.624  30.729  25.879  1.00  0.00     0.002 C 
ENDROOT
BRANCH   1   2
ATOM      2  C   UNL A   1      31.427  31.987  26.718  1.00  0.00     0.021 C 
BRANCH   2   3
ATOM      3  C   UNL A   1      32.715  32.563  27.266  1.00  0.00     0.116 C 
BRANCH   3   4
ATOM      4  N   UNL A   1      32.553  33.972  27.584  1.00  0.00    -0.352 N 
ATOM      5  O   UNL A   1      32.595  35.743  28.981  1.00  0.00    -0.269 OA
ATOM      6  C   UNL A   1      33.091  34.674  28.636  1.00  0.00     0.251 C 
ATOM      7  H   UNL A   1      31.987  34.488  26.966  1.00  0.00     0.163 HD
BRANCH   6   8
ATOM      8  C   UNL A   1      34.268  34.126  29.346  1.00  0.00     0.039 A 
ATOM      9  C   UNL A   1      34.085  33.285  30.445  1.00  0.00     0.014 A 
ATOM     10  C   UNL A   1      35.558  34.426  28.904  1.00  0.00     0.014 A 
ATOM     11  C   UNL A   1      35.174  32.882  31.199  1.00  0.00     0.010 A 
ATOM     12  C   UNL A   1      36.661  33.896  29.581  1.00  0.00     0.010 A 
ATOM     13  C   UNL A   1      36.476  33.127  30.743  1.00  0.00    -0.014 A 
BRANCH  13  14
ATOM     14  C   UNL A   1      37.608  32.458  31.433  1.00  0.00     0.031 A 
ATOM     15  C   UNL A   1      38.080  32.910  32.784  1.00  0.00     0.074 A 
ATOM     16  C   UNL A   1      38.195  31.409  30.819  1.00  0.00     0.049 A 
ATOM     17  N   UNL A   1      39.067  32.443  33.505  1.00  0.00    -0.248 NA
ATOM     18  C   UNL A   1      37.364  34.035  33.400  1.00  0.00     0.031 C 
ATOM     19  C   UNL A   1      37.812  30.883  29.503  1.00  0.00     0.029 A 
ATOM     20  N   UNL A   1      39.216  30.585  31.213  1.00  0.00    -0.354 N 
ATOM     21  C   UNL A   1      39.103  33.224  34.654  1.00  0.00     0.074 A 
ATOM     22  C   UNL A   1      38.060  34.219  34.514  1.00  0.00     0.031 C 
ATOM     23  C   UNL A   1      38.542  29.796  29.230  1.00  0.00     0.029 A 
ATOM     24  C   UNL A   1      39.519  29.608  30.292  1.00  0.00     0.049 A 
ATOM     25  H   UNL A   1      39.687  30.681  32.072  1.00  0.00     0.167 HD
ATOM     26  C   UNL A   1      39.930  33.111  35.723  1.00  0.00     0.034 A 
ATOM     27  C   UNL A   1      40.502  28.689  30.277  1.00  0.00     0.034 A 
ATOM     28  C   UNL A   1      40.972  32.117  35.829  1.00  0.00     0.049 A 
ATOM     29  C   UNL A   1      41.456  28.643  31.438  1.00  0.00     0.074 A 
ATOM     30  C   UNL A   1      41.851  31.901  36.877  1.00  0.00     0.029 A 
ATOM     31  N   UNL A   1      41.293  31.184  34.849  1.00  0.00    -0.354 N 
ATOM     32  N   UNL A   1      41.466  29.380  32.525  1.00  0.00    -0.248 NA
ATOM     33  C   UNL A   1      42.526  27.643  31.374  1.00  0.00     0.031 C 
ATOM     34  C   UNL A   1      42.757  30.908  36.494  1.00  0.00     0.029 A 
ATOM     35  C   UNL A   1      42.380  30.423  35.252  1.00  0.00     0.049 A 
ATOM     36  H   UNL A   1      40.816  31.079  33.994  1.00  0.00     0.167 HD
ATOM     37  C   UNL A   1      42.527  28.907  33.290  1.00  0.00     0.074 A 
ATOM     38  C   UNL A   1      43.117  27.813  32.547  1.00  0.00     0.031 C 
ATOM     39  C   UNL A   1      42.968  29.338  34.499  1.00  0.00     0.034 A 
BRANCH  26  40
ATOM     40  C   UNL A   1      39.776  34.119  36.838  1.00  0.00     0.023 A 
ATOM     41  C   UNL A   1      39.296  33.754  38.107  1.00  0.00     0.031 A 
ATOM     42  C   UNL A   1      40.108  35.470  36.627  1.00  0.00     0.131 A 
ATOM     43  C   UNL A   1      39.095  34.735  39.090  1.00  0.00     0.055 A 
ATOM     44  C   UNL A   1      39.991  36.426  37.637  1.00  0.00     0.041 A 
ATOM     45  F   UNL A   1      40.548  35.886  35.428  1.00  0.00    -0.206 F 
ATOM     46  C   UNL A   1      39.468  36.064  38.874  1.00  0.00     0.022 A 
BRANCH  43  47
ATOM     47  S   UNL A   1      38.198  34.276  40.598  1.00  0.00     0.124 S 
ATOM     48  O   UNL A   1      37.090  33.492  40.056  1.00  0.00    -0.237 OA
ATOM     49  O   UNL A   1      39.199  33.526  41.347  1.00  0.00    -0.237 OA
ATOM     50  O   UNL A   1      37.816  35.562  41.176  1.00  0.00    -0.744 OA
ENDBRANCH  43  47
ENDBRANCH  26  40
BRANCH  27  51
ATOM     51  C   UNL A   1      40.663  27.777  29.107  1.00  0.00     0.023 A 
ATOM     52  C   UNL A   1      41.596  28.054  28.099  1.00  0.00     0.031 A 
ATOM     53  C   UNL A   1      39.853  26.636  28.961  1.00  0.00     0.131 A 
ATOM     54  C   UNL A   1      41.656  27.235  26.961  1.00  0.00     0.055 A 
ATOM     55  C   UNL A   1      39.969  25.782  27.864  1.00  0.00     0.041 A 
ATOM     56  F   UNL A   1      38.941  26.323  29.896  1.00  0.00    -0.206 F 
ATOM     57  C   UNL A   1      40.864  26.091  26.845  1.00  0.00     0.022 A 
BRANCH  54  58
ATOM     58  S   UNL A   1      42.703  27.759  25.577  1.00  0.00     0.124 S 
ATOM     59  O   UNL A   1      43.969  28.027  26.251  1.00  0.00    -0.237 OA
ATOM     60  O   UNL A   1      42.673  26.584  24.712  1.00  0.00    -0.237 OA
ATOM     61  O   UNL A   1      42.011  28.935  25.055  1.00  0.00    -0.744 OA
ENDBRANCH  54  58
ENDBRANCH  27  51
BRANCH  39  62
ATOM     62  C   UNL A   1      44.113  28.576  35.122  1.00  0.00     0.023 A 
ATOM     63  C   UNL A   1      43.903  27.543  36.053  1.00  0.00     0.031 A 
ATOM     64  C   UNL A   1      45.440  28.901  34.786  1.00  0.00     0.131 A 
ATOM     65  C   UNL A   1      45.001  26.920  36.663  1.00  0.00     0.055 A 
ATOM     66  C   UNL A   1      46.527  28.222  35.336  1.00  0.00     0.041 A 
ATOM     67  F   UNL A   1      45.702  29.886  33.911  1.00  0.00    -0.206 F 
ATOM     68  C   UNL A   1      46.311  27.235  36.291  1.00  0.00     0.022 A 
BRANCH  65  69
ATOM     69  S   UNL A   1      44.699  25.774  38.035  1.00  0.00     0.124 S 
ATOM     70  O   UNL A   1      43.583  26.415  38.723  1.00  0.00    -0.237 OA
ATOM     71  O   UNL A   1      44.389  24.529  37.341  1.00  0.00    -0.237 OA
ATOM     72  O   UNL A   1      45.964  25.777  38.769  1.00  0.00    -0.744 OA
ENDBRANCH  65  69
ENDBRANCH  39  62
ENDBRANCH  13  14
ENDBRANCH   6   8
ENDBRANCH   3   4
ENDBRANCH   2   3
ENDBRANCH   1   2
BRANCH   1  73
ATOM     73  C   UNL A   1      32.187  29.478  26.593  1.00  0.00     0.002 C 
BRANCH  73  74
ATOM     74  C   UNL A   1      31.283  27.979  26.768  1.00  0.00     0.021 C 
BRANCH  74  75
ATOM     75  C   UNL A   1      31.843  25.866  26.504  1.00  0.00     0.116 C 
BRANCH  75  76
ATOM     76  N   UNL A   1      30.989  24.509  26.621  1.00  0.00    -0.351 N 
ATOM     77  C   UNL A   1      31.296  23.250  26.150  1.00  0.00     0.272 C 
ATOM     78  H   UNL A   1      30.129  24.588  27.094  1.00  0.00     0.163 HD
ATOM     79  O   UNL A   1      30.485  22.333  26.142  1.00  0.00    -0.267 OA
BRANCH  77  80
ATOM     80  C   UNL A   1      32.682  23.056  25.701  1.00  0.00     0.159 A 
ATOM     81  N   UNL A   1      33.579  23.106  26.743  1.00  0.00    -0.247 NA
ATOM     82  C   UNL A   1      33.066  23.038  24.368  1.00  0.00     0.159 A 
ATOM     83  C   UNL A   1      34.879  23.120  26.405  1.00  0.00     0.132 A 
ATOM     84  N   UNL A   1      34.401  23.046  24.049  1.00  0.00    -0.247 NA
ATOM     85  C   UNL A   1      35.280  23.087  25.085  1.00  0.00     0.132 A 
BRANCH  82  86
ATOM     86  C   UNL A   1      32.153  22.892  23.190  1.00  0.00     0.277 C 
ATOM     87  O   UNL A   1      31.959  21.748  22.765  1.00  0.00    -0.267 OA
ATOM     88  N   UNL A   1      31.466  23.922  22.581  1.00  0.00    -0.303 N 
ATOM     89  H   UNL A   1      30.775  23.632  21.942  1.00  0.00     0.172 HD
BRANCH  88  90
ATOM     90  C   UNL A   1      31.586  25.280  22.717  1.00  0.00     0.164 A 
ATOM     91  N   UNL A   1      32.730  25.859  22.307  1.00  0.00    -0.155 NA
ATOM     92  C   UNL A   1      30.600  26.206  23.113  1.00  0.00     0.063 A 
ATOM     93  N   UNL A   1      32.470  27.158  21.966  1.00  0.00    -0.259 N 
ATOM     94  C   UNL A   1      31.223  27.601  22.303  1.00  0.00     0.157 A 
ATOM     95  C   UNL A   1      28.980  26.304  23.849  1.00  0.00     0.017 A 
ATOM     96  H   UNL A   1      33.131  27.730  21.513  1.00  0.00     0.192 HD
ATOM     97  N   UNL A   1      30.280  29.032  21.981  1.00  0.00    -0.237 NA
ATOM     98  C   UNL A   1      27.964  27.743  23.625  1.00  0.00     0.021 A 
ATOM     99  C   UNL A   1      28.651  29.088  22.730  1.00  0.00     0.113 A 
ENDBRANCH  88  90
ENDBRANCH  82  86
ENDBRANCH  77  80
ENDBRANCH  75  76
ENDBRANCH  74  75
ENDBRANCH  73  74
ENDBRANCH   1  73
TORSDOF 18
ENDMDL
MODEL 2
REMARK VINA RESULT:     -13.5      1.405      7.507
REMARK SMILES O=C(NCCCCCCNC(=O)c1nccnc1C(=O)Nc1n[nH]c2ncccc12)c1ccc(-c2c3nc(c(-c4cc(S(=O)(=O)[O-])ccc4F)c4ccc([nH]4)c(-c4cc(S(=O)(=O)[O-])ccc4F)c4nc(c(-c5cc(S(=O)(=O)[O-])ccc5F)c5ccc2[nH]5)C=C4)C=C3)cc1
REMARK SMILES IDX 6 1 5 2 4 3 3 4 1 5 2 6 31 8 32 9 93 10 33 11 92 12 34 13
REMARK SMILES IDX 35 14 36 15 86 16 37 17 91 18 85 19 87 20 38 21 90 22 84 23
REMARK SMILES IDX 83 24 39 26 71 27 51 28 70 29 52 30 55 31 69 32 88 33 53 34
REMARK SMILES IDX 54 35 68 37 89 38 56 39 40 40 41 41 49 42 42 43 48 44 50 45
REMARK SMILES IDX 47 46 43 47 44 48 45 49 46 50 72 51 73 52 81 53 74 54 80 55
REMARK SMILES IDX 82 56 79 57 75 58 76 59 77 60 78 61 57 62 58 63 66 64 59 65
REMARK SMILES IDX 65 66 67 67 64 68 60 69 61 70 62 71 63 72 7 73 8 74 9 75
REMARK SMILES IDX 10 76 11 77 12 79 13 80 14 81 18 82 15 83 17 84 16 85 19 86
REMARK SMILES IDX 20 87 21 88 22 90 23 91 30 92 24 93 25 94 29 95 26 97 28 98
REMARK SMILES IDX 27 99
REMARK H PARENT 3 7 87 25 55 36 10 78 21 89 24 96
REMARK Flexibility Score: inf
ROOT
ATOM      1  C   UNL A   1      31.474  30.472  25.713  1.00  0.00     0.002 C 
ENDROOT
BRANCH   1   2
ATOM      2  C   UNL A   1      31.334  31.776  26.491  1.00  0.00     0.021 C 
BRANCH   2   3
ATOM      3  C   UNL A   1      32.631  32.268  27.097  1.00  0.00     0.116 C 
BRANCH   3   4
ATOM      4  N   UNL A   1      32.547  33.684  27.409  1.00  0.00    -0.352 N 
ATOM      5  O   UNL A   1      32.743  35.462  28.784  1.00  0.00    -0.269 OA
ATOM      6  C   UNL A   1      33.173  34.370  28.422  1.00  0.00     0.251 C 
ATOM      7  H   UNL A   1      31.968  34.220  26.820  1.00  0.00     0.163 HD
BRANCH   6   8
ATOM      8  C   UNL A   1      34.365  33.779  29.069  1.00  0.00     0.039 A 
ATOM      9  C   UNL A   1      34.209  32.756  30.006  1.00  0.00     0.014 A 
ATOM     10  C   UNL A   1      35.645  34.222  28.726  1.00  0.00     0.014 A 
ATOM     11  C   UNL A   1      35.304  32.294  30.718  1.00  0.00     0.010 A 
ATOM     12  C   UNL A   1      36.762  33.648  29.341  1.00  0.00     0.010 A 
ATOM     13  C   UNL A   1      36.599  32.686  30.351  1.00  0.00    -0.014 A 
BRANCH  13  14
ATOM     14  C   UNL A   1      37.753  31.976  30.957  1.00  0.00     0.031 A 
ATOM     15  C   UNL A   1      38.529  30.944  30.193  1.00  0.00     0.074 A 
ATOM     16  C   UNL A   1      38.105  32.299  32.220  1.00  0.00     0.049 A 
ATOM     17  N   UNL A   1      39.547  30.224  30.590  1.00  0.00    -0.248 NA
ATOM     18  C   UNL A   1      38.105  30.677  28.812  1.00  0.00     0.031 C 
ATOM     19  C   UNL A   1      37.419  33.294  33.055  1.00  0.00     0.029 A 
ATOM     20  N   UNL A   1      39.125  31.853  33.018  1.00  0.00    -0.354 N 
ATOM     21  C   UNL A   1      39.878  29.406  29.516  1.00  0.00     0.074 A 
ATOM     22  C   UNL A   1      38.926  29.696  28.463  1.00  0.00     0.031 C 
ATOM     23  C   UNL A   1      38.071  33.422  34.216  1.00  0.00     0.029 A 
ATOM     24  C   UNL A   1      39.152  32.449  34.259  1.00  0.00     0.049 A 
ATOM     25  H   UNL A   1      39.776  31.172  32.732  1.00  0.00     0.167 HD
ATOM     26  C   UNL A   1      40.886  28.504  29.425  1.00  0.00     0.034 A 
ATOM     27  C   UNL A   1      39.929  32.211  35.331  1.00  0.00     0.034 A 
ATOM     28  C   UNL A   1      41.812  28.224  30.498  1.00  0.00     0.049 A 
ATOM     29  C   UNL A   1      40.984  31.145  35.227  1.00  0.00     0.074 A 
ATOM     30  C   UNL A   1      42.882  27.347  30.503  1.00  0.00     0.029 A 
ATOM     31  N   UNL A   1      41.770  28.801  31.763  1.00  0.00    -0.354 N 
ATOM     32  N   UNL A   1      41.294  30.391  34.198  1.00  0.00    -0.248 NA
ATOM     33  C   UNL A   1      41.795  30.900  36.424  1.00  0.00     0.031 C 
ATOM     34  C   UNL A   1      43.425  27.321  31.791  1.00  0.00     0.029 A 
ATOM     35  C   UNL A   1      42.767  28.265  32.564  1.00  0.00     0.049 A 
ATOM     36  H   UNL A   1      41.127  29.489  32.047  1.00  0.00     0.167 HD
ATOM     37  C   UNL A   1      42.361  29.603  34.617  1.00  0.00     0.074 A 
ATOM     38  C   UNL A   1      42.649  29.989  35.983  1.00  0.00     0.031 C 
ATOM     39  C   UNL A   1      43.042  28.650  33.930  1.00  0.00     0.034 A 
BRANCH  26  40
ATOM     40  C   UNL A   1      41.008  27.715  28.142  1.00  0.00     0.023 A 
ATOM     41  C   UNL A   1      40.598  26.374  28.054  1.00  0.00     0.031 A 
ATOM     42  C   UNL A   1      41.550  28.311  26.989  1.00  0.00     0.131 A 
ATOM     43  C   UNL A   1      40.800  25.655  26.866  1.00  0.00     0.055 A 
ATOM     44  C   UNL A   1      41.666  27.617  25.783  1.00  0.00     0.041 A 
ATOM     45  F   UNL A   1      41.983  29.582  27.016  1.00  0.00    -0.206 F 
ATOM     46  C   UNL A   1      41.303  26.276  25.721  1.00  0.00     0.022 A 
BRANCH  43  47
ATOM     47  S   UNL A   1      40.539  23.861  26.888  1.00  0.00     0.124 S 
ATOM     48  O   UNL A   1      41.539  23.404  25.925  1.00  0.00    -0.237 OA
ATOM     49  O   UNL A   1      40.796  23.519  28.282  1.00  0.00    -0.237 OA
ATOM     50  O   UNL A   1      39.152  23.710  26.452  1.00  0.00    -0.744 OA
ENDBRANCH  43  47
ENDBRANCH  26  40
BRANCH  27  51
ATOM     51  C   UNL A   1      39.706  32.956  36.604  1.00  0.00     0.023 A 
ATOM     52  C   UNL A   1      38.837  32.463  37.587  1.00  0.00     0.031 A 
ATOM     53  C   UNL A   1      40.326  34.198  36.835  1.00  0.00     0.131 A 
ATOM     54  C   UNL A   1      38.568  33.233  38.729  1.00  0.00     0.055 A 
ATOM     55  C   UNL A   1      40.114  34.925  38.006  1.00  0.00     0.041 A 
ATOM     56  F   UNL A   1      41.167  34.720  35.927  1.00  0.00    -0.206 F 
ATOM     57  C   UNL A   1      39.215  34.450  38.955  1.00  0.00     0.022 A 
BRANCH  54  58
ATOM     58  S   UNL A   1      37.265  32.673  39.858  1.00  0.00     0.124 S 
ATOM     59  O   UNL A   1      36.110  32.619  38.968  1.00  0.00    -0.237 OA
ATOM     60  O   UNL A   1      37.787  31.388  40.311  1.00  0.00    -0.237 OA
ATOM     61  O   UNL A   1      37.223  33.721  40.874  1.00  0.00    -0.744 OA
ENDBRANCH  54  58
ENDBRANCH  27  51
BRANCH  39  62
ATOM     62  C   UNL A   1      44.211  28.004  34.633  1.00  0.00     0.023 A 
ATOM     63  C   UNL A   1      44.093  26.771  35.298  1.00  0.00     0.031 A 
ATOM     64  C   UNL A   1      45.464  28.644  34.648  1.00  0.00     0.131 A 
ATOM     65  C   UNL A   1      45.188  26.251  36.004  1.00  0.00     0.055 A 
ATOM     66  C   UNL A   1      46.571  28.082  35.284  1.00  0.00     0.041 A 
ATOM     67  F   UNL A   1      45.634  29.829  34.039  1.00  0.00    -0.206 F 
ATOM     68  C   UNL A   1      46.433  26.886  35.980  1.00  0.00     0.022 A 
BRANCH  65  69
ATOM     69  S   UNL A   1      44.934  24.795  37.054  1.00  0.00     0.124 S 
ATOM     70  O   UNL A   1      44.182  25.356  38.171  1.00  0.00    -0.237 OA
ATOM     71  O   UNL A   1      44.192  23.899  36.173  1.00  0.00    -0.237 OA
ATOM     72  O   UNL A   1      46.293  24.363  37.376  1.00  0.00    -0.744 OA
ENDBRANCH  65  69
ENDBRANCH  39  62
ENDBRANCH  13  14
ENDBRANCH   6   8
ENDBRANCH   3   4
ENDBRANCH   2   3
ENDBRANCH   1   2
BRANCH   1  73
ATOM     73  C   UNL A   1      32.207  29.302  26.411  1.00  0.00     0.002 C 
BRANCH  73  74
ATOM     74  C   UNL A   1      31.410  27.801  26.867  1.00  0.00     0.021 C 
BRANCH  74  75
ATOM     75  C   UNL A   1      31.883  25.687  26.469  1.00  0.00     0.116 C 
BRANCH  75  76
ATOM     76  N   UNL A   1      30.997  24.350  26.589  1.00  0.00    -0.351 N 
ATOM     77  C   UNL A   1      31.277  23.083  26.126  1.00  0.00     0.272 C 
ATOM     78  H   UNL A   1      30.137  24.452  27.057  1.00  0.00     0.163 HD
ATOM     79  O   UNL A   1      30.445  22.184  26.118  1.00  0.00    -0.267 OA
BRANCH  77  80
ATOM     80  C   UNL A   1      32.661  22.854  25.686  1.00  0.00     0.159 A 
ATOM     81  N   UNL A   1      33.550  22.871  26.735  1.00  0.00    -0.247 NA
ATOM     82  C   UNL A   1      33.054  22.836  24.355  1.00  0.00     0.159 A 
ATOM     83  C   UNL A   1      34.853  22.852  26.406  1.00  0.00     0.132 A 
ATOM     84  N   UNL A   1      34.391  22.810  24.046  1.00  0.00    -0.247 NA
ATOM     85  C   UNL A   1      35.263  22.819  25.089  1.00  0.00     0.132 A 
BRANCH  82  86
ATOM     86  C   UNL A   1      32.146  22.725  23.170  1.00  0.00     0.277 C 
ATOM     87  O   UNL A   1      31.926  21.590  22.733  1.00  0.00    -0.267 OA
ATOM     88  N   UNL A   1      31.491  23.777  22.565  1.00  0.00    -0.303 N 
ATOM     89  H   UNL A   1      30.798  23.512  21.918  1.00  0.00     0.172 HD
BRANCH  88  90
ATOM     90  C   UNL A   1      31.645  25.131  22.714  1.00  0.00     0.164 A 
ATOM     91  N   UNL A   1      32.804  25.685  22.310  1.00  0.00    -0.155 NA
ATOM     92  C   UNL A   1      30.683  26.078  23.119  1.00  0.00     0.063 A 
ATOM     93  N   UNL A   1      32.576  26.993  21.981  1.00  0.00    -0.259 N 
ATOM     94  C   UNL A   1      31.341  27.464  22.322  1.00  0.00     0.157 A 
ATOM     95  C   UNL A   1      29.066  26.209  23.856  1.00  0.00     0.017 A 
ATOM     96  H   UNL A   1      33.252  27.552  21.533  1.00  0.00     0.192 HD
ATOM     97  N   UNL A   1      30.434  28.921  22.014  1.00  0.00    -0.237 NA
ATOM     98  C   UNL A   1      28.087  27.676  23.647  1.00  0.00     0.021 A 
ATOM     99  C   UNL A   1      28.807  29.012  22.764  1.00  0.00     0.113 A 
ENDBRANCH  88  90
ENDBRANCH  82  86
ENDBRANCH  77  80
ENDBRANCH  75  76
ENDBRANCH  74  75
ENDBRANCH  73  74
ENDBRANCH   1  73
TORSDOF 18
ENDMDL
MODEL 3
REMARK VINA RESULT:     -13.4      2.162      2.892
REMARK SMILES O=C(NCCCCCCNC(=O)c1nccnc1C(=O)Nc1n[nH]c2ncccc12)c1ccc(-c2c3nc(c(-c4cc(S(=O)(=O)[O-])ccc4F)c4ccc([nH]4)c(-c4cc(S(=O)(=O)[O-])ccc4F)c4nc(c(-c5cc(S(=O)(=O)[O-])ccc5F)c5ccc2[nH]5)C=C4)C=C3)cc1
REMARK SMILES IDX 6 1 5 2 4 3 3 4 1 5 2 6 31 8 32 9 93 10 33 11 92 12 34 13
REMARK SMILES IDX 35 14 36 15 86 16 37 17 91 18 85 19 87 20 38 21 90 22 84 23
REMARK SMILES IDX 83 24 39 26 71 27 51 28 70 29 52 30 55 31 69 32 88 33 53 34
REMARK SMILES IDX 54 35 68 37 89 38 56 39 40 40 41 41 49 42 42 43 48 44 50 45
REMARK SMILES IDX 47 46 43 47 44 48 45 49 46 50 72 51 73 52 81 53 74 54 80 55
REMARK SMILES IDX 82 56 79 57 75 58 76 59 77 60 78 61 57 62 58 63 66 64 59 65
REMARK SMILES IDX 65 66 67 67 64 68 60 69 61 70 62 71 63 72 7 73 8 74 9 75
REMARK SMILES IDX 10 76 11 77 12 79 13 80 14 81 18 82 15 83 17 84 16 85 19 86
REMARK SMILES IDX 20 87 21 88 22 90 23 91 30 92 24 93 25 94 29 95 26 97 28 98
REMARK SMILES IDX 27 99
REMARK H PARENT 3 7 87 25 55 36 10 78 21 89 24 96
REMARK Flexibility Score: inf
ROOT
ATOM      1  C   UNL A   1      31.767  27.668  26.615  1.00  0.00     0.002 C 
ENDROOT
BRANCH   1   2
ATOM      2  C   UNL A   1      31.566  28.966  25.839  1.00  0.00     0.021 C 
BRANCH   2   3
ATOM      3  C   UNL A   1      32.827  29.790  25.692  1.00  0.00     0.116 C 
BRANCH   3   4
ATOM      4  N   UNL A   1      32.577  31.178  26.045  1.00  0.00    -0.352 N 
ATOM      5  O   UNL A   1      32.540  32.920  27.477  1.00  0.00    -0.269 OA
ATOM      6  C   UNL A   1      33.098  31.896  27.094  1.00  0.00     0.251 C 
ATOM      7  H   UNL A   1      31.956  31.664  25.456  1.00  0.00     0.163 HD
BRANCH   6   8
ATOM      8  C   UNL A   1      34.333  31.420  27.755  1.00  0.00     0.039 A 
ATOM      9  C   UNL A   1      35.382  32.310  27.990  1.00  0.00     0.014 A 
ATOM     10  C   UNL A   1      34.441  30.090  28.169  1.00  0.00     0.014 A 
ATOM     11  C   UNL A   1      36.591  31.845  28.479  1.00  0.00     0.010 A 
ATOM     12  C   UNL A   1      35.612  29.655  28.799  1.00  0.00     0.010 A 
ATOM     13  C   UNL A   1      36.702  30.530  28.949  1.00  0.00    -0.014 A 
BRANCH  13  14
ATOM     14  C   UNL A   1      37.922  30.145  29.702  1.00  0.00     0.031 A 
ATOM     15  C   UNL A   1      38.171  30.638  31.097  1.00  0.00     0.074 A 
ATOM     16  C   UNL A   1      38.803  29.316  29.102  1.00  0.00     0.049 A 
ATOM     17  N   UNL A   1      39.197  30.408  31.876  1.00  0.00    -0.248 NA
ATOM     18  C   UNL A   1      37.146  31.506  31.692  1.00  0.00     0.031 C 
ATOM     19  C   UNL A   1      38.656  28.773  27.746  1.00  0.00     0.029 A 
ATOM     20  N   UNL A   1      39.976  28.767  29.546  1.00  0.00    -0.354 N 
ATOM     21  C   UNL A   1      38.952  31.115  33.048  1.00  0.00     0.074 A 
ATOM     22  C   UNL A   1      37.695  31.810  32.860  1.00  0.00     0.031 C 
ATOM     23  C   UNL A   1      39.663  27.929  27.495  1.00  0.00     0.029 A 
ATOM     24  C   UNL A   1      40.585  27.949  28.621  1.00  0.00     0.049 A 
ATOM     25  H   UNL A   1      40.349  28.940  30.441  1.00  0.00     0.167 HD
ATOM     26  C   UNL A   1      39.709  31.168  34.172  1.00  0.00     0.034 A 
ATOM     27  C   UNL A   1      41.773  27.319  28.652  1.00  0.00     0.034 A 
ATOM     28  C   UNL A   1      40.967  30.475  34.326  1.00  0.00     0.049 A 
ATOM     29  C   UNL A   1      42.628  27.466  29.880  1.00  0.00     0.074 A 
ATOM     30  C   UNL A   1      41.802  30.443  35.429  1.00  0.00     0.029 A 
ATOM     31  N   UNL A   1      41.584  29.706  33.345  1.00  0.00    -0.354 N 
ATOM     32  N   UNL A   1      42.374  28.126  30.986  1.00  0.00    -0.248 NA
ATOM     33  C   UNL A   1      43.925  26.782  29.866  1.00  0.00     0.031 C 
ATOM     34  C   UNL A   1      42.960  29.740  35.086  1.00  0.00     0.029 A 
ATOM     35  C   UNL A   1      42.804  29.235  33.804  1.00  0.00     0.049 A 
ATOM     36  H   UNL A   1      41.208  29.523  32.453  1.00  0.00     0.167 HD
ATOM     37  C   UNL A   1      43.471  27.908  31.814  1.00  0.00     0.074 A 
ATOM     38  C   UNL A   1      44.374  27.042  31.084  1.00  0.00     0.031 C 
ATOM     39  C   UNL A   1      43.704  28.379  33.066  1.00  0.00     0.034 A 
BRANCH  26  40
ATOM     40  C   UNL A   1      39.224  32.045  35.303  1.00  0.00     0.023 A 
ATOM     41  C   UNL A   1      38.635  31.507  36.459  1.00  0.00     0.031 A 
ATOM     42  C   UNL A   1      39.347  33.444  35.220  1.00  0.00     0.131 A 
ATOM     43  C   UNL A   1      38.128  32.361  37.450  1.00  0.00     0.055 A 
ATOM     44  C   UNL A   1      38.921  34.285  36.249  1.00  0.00     0.041 A 
ATOM     45  F   UNL A   1      39.878  34.021  34.129  1.00  0.00    -0.206 F 
ATOM     46  C   UNL A   1      38.294  33.746  37.368  1.00  0.00     0.022 A 
BRANCH  43  47
ATOM     47  S   UNL A   1      37.113  31.644  38.771  1.00  0.00     0.124 S 
ATOM     48  O   UNL A   1      37.985  31.804  39.934  1.00  0.00    -0.237 OA
ATOM     49  O   UNL A   1      35.923  32.486  38.749  1.00  0.00    -0.237 OA
ATOM     50  O   UNL A   1      36.912  30.263  38.339  1.00  0.00    -0.744 OA
ENDBRANCH  43  47
ENDBRANCH  26  40
BRANCH  27  51
ATOM     51  C   UNL A   1      42.243  26.539  27.471  1.00  0.00     0.023 A 
ATOM     52  C   UNL A   1      41.917  25.184  27.324  1.00  0.00     0.031 A 
ATOM     53  C   UNL A   1      43.065  27.129  26.493  1.00  0.00     0.131 A 
ATOM     54  C   UNL A   1      42.456  24.449  26.257  1.00  0.00     0.055 A 
ATOM     55  C   UNL A   1      43.537  26.413  25.393  1.00  0.00     0.041 A 
ATOM     56  F   UNL A   1      43.411  28.424  26.584  1.00  0.00    -0.206 F 
ATOM     57  C   UNL A   1      43.246  25.058  25.280  1.00  0.00     0.022 A 
BRANCH  54  58
ATOM     58  S   UNL A   1      42.205  22.654  26.233  1.00  0.00     0.124 S 
ATOM     59  O   UNL A   1      42.725  22.302  24.917  1.00  0.00    -0.237 OA
ATOM     60  O   UNL A   1      43.004  22.221  27.375  1.00  0.00    -0.237 OA
ATOM     61  O   UNL A   1      40.760  22.511  26.394  1.00  0.00    -0.744 OA
ENDBRANCH  54  58
ENDBRANCH  27  51
BRANCH  39  62
ATOM     62  C   UNL A   1      44.966  27.911  33.749  1.00  0.00     0.023 A 
ATOM     63  C   UNL A   1      45.014  26.719  34.495  1.00  0.00     0.031 A 
ATOM     64  C   UNL A   1      46.140  28.681  33.663  1.00  0.00     0.131 A 
ATOM     65  C   UNL A   1      46.188  26.369  35.176  1.00  0.00     0.055 A 
ATOM     66  C   UNL A   1      47.328  28.286  34.278  1.00  0.00     0.041 A 
ATOM     67  F   UNL A   1      46.152  29.835  32.975  1.00  0.00    -0.206 F 
ATOM     68  C   UNL A   1      47.352  27.131  35.052  1.00  0.00     0.022 A 
BRANCH  65  69
ATOM     69  S   UNL A   1      46.141  24.967  36.326  1.00  0.00     0.124 S 
ATOM     70  O   UNL A   1      46.898  23.955  35.596  1.00  0.00    -0.237 OA
ATOM     71  O   UNL A   1      46.789  25.514  37.513  1.00  0.00    -0.237 OA
ATOM     72  O   UNL A   1      44.712  24.690  36.470  1.00  0.00    -0.744 OA
ENDBRANCH  65  69
ENDBRANCH  39  62
ENDBRANCH  13  14
ENDBRANCH   6   8
ENDBRANCH   3   4
ENDBRANCH   2   3
ENDBRANCH   1   2
BRANCH   1  73
ATOM     73  C   UNL A   1      33.018  26.823  26.277  1.00  0.00     0.002 C 
BRANCH  73  74
ATOM     74  C   UNL A   1      33.012  25.064  26.243  1.00  0.00     0.021 C 
BRANCH  74  75
ATOM     75  C   UNL A   1      31.386  23.585  26.110  1.00  0.00     0.116 C 
BRANCH  75  76
ATOM     76  N   UNL A   1      31.403  21.978  26.045  1.00  0.00    -0.351 N 
ATOM     77  C   UNL A   1      32.319  21.147  25.436  1.00  0.00     0.272 C 
ATOM     78  H   UNL A   1      30.658  21.528  26.502  1.00  0.00     0.163 HD
ATOM     79  O   UNL A   1      32.130  19.945  25.299  1.00  0.00    -0.267 OA
BRANCH  77  80
ATOM     80  C   UNL A   1      33.571  21.784  25.001  1.00  0.00     0.159 A 
ATOM     81  N   UNL A   1      34.526  21.783  25.990  1.00  0.00    -0.247 NA
ATOM     82  C   UNL A   1      33.705  22.491  23.814  1.00  0.00     0.159 A 
ATOM     83  C   UNL A   1      35.634  22.502  25.744  1.00  0.00     0.132 A 
ATOM     84  N   UNL A   1      34.850  23.212  23.584  1.00  0.00    -0.247 NA
ATOM     85  C   UNL A   1      35.792  23.199  24.564  1.00  0.00     0.132 A 
BRANCH  82  86
ATOM     86  C   UNL A   1      32.751  22.465  22.661  1.00  0.00     0.277 C 
ATOM     87  O   UNL A   1      32.535  21.369  22.132  1.00  0.00    -0.267 OA
ATOM     88  N   UNL A   1      32.051  23.552  22.180  1.00  0.00    -0.303 N 
ATOM     89  H   UNL A   1      31.337  23.329  21.540  1.00  0.00     0.172 HD
BRANCH  88  90
ATOM     90  C   UNL A   1      32.184  24.890  22.444  1.00  0.00     0.164 A 
ATOM     91  N   UNL A   1      33.312  25.506  22.040  1.00  0.00    -0.155 NA
ATOM     92  C   UNL A   1      31.223  25.773  22.977  1.00  0.00     0.063 A 
ATOM     93  N   UNL A   1      33.043  26.832  21.842  1.00  0.00    -0.259 N 
ATOM     94  C   UNL A   1      31.815  27.240  22.280  1.00  0.00     0.157 A 
ATOM     95  C   UNL A   1      29.641  25.798  23.794  1.00  0.00     0.017 A 
ATOM     96  H   UNL A   1      33.685  27.446  21.417  1.00  0.00     0.192 HD
ATOM     97  N   UNL A   1      30.866  28.697  22.147  1.00  0.00    -0.237 NA
ATOM     98  C   UNL A   1      28.623  27.253  23.763  1.00  0.00     0.021 A 
ATOM     99  C   UNL A   1      29.274  28.680  22.974  1.00  0.00     0.113 A 
ENDBRANCH  88  90
ENDBRANCH  82  86
ENDBRANCH  77  80
ENDBRANCH  75  76
ENDBRANCH  74  75
ENDBRANCH  73  74
ENDBRANCH   1  73
TORSDOF 18
ENDMDL
