MODEL 1
REMARK VINA RESULT:     -10.6      0.000      0.000
REMARK SMILES O=C(CCCCc1nc(C[C@H]2CCCO2)no1)NCCCCCCNC(=O)c1ccc(-c2c3nc(c(-c4cc(S(=O)(=O)[O-])ccc4F)c4ccc([nH]4)c(-c4cc(S(=O)(=O)[O-])ccc4F)c4nc(c(-c5cc(S(=O)(=O)[O-])ccc5F)c5ccc2[nH]5)C=C4)C=C3)cc1
REMARK SMILES IDX 20 1 19 2 18 3 1 4 2 5 3 7 4 8 5 9 6 10 7 11 8 12 17 13 9 14
REMARK SMILES IDX 16 15 10 16 11 17 12 18 15 19 13 20 14 21 21 22 22 23 23 24
REMARK SMILES IDX 24 25 25 26 26 27 27 29 28 30 29 31 90 32 30 33 89 34 31 35
REMARK SMILES IDX 32 36 33 37 83 38 34 39 88 40 82 41 84 42 35 43 87 44 81 45
REMARK SMILES IDX 80 46 36 48 68 49 48 50 67 51 49 52 52 53 66 54 85 55 50 56
REMARK SMILES IDX 51 57 65 59 86 60 53 61 37 62 38 63 46 64 39 65 45 66 47 67
REMARK SMILES IDX 44 68 40 69 41 70 42 71 43 72 69 73 70 74 78 75 71 76 77 77
REMARK SMILES IDX 79 78 76 79 72 80 73 81 74 82 75 83 54 84 55 85 63 86 56 87
REMARK SMILES IDX 62 88 64 89 61 90 57 91 58 92 59 93 60 94
REMARK H PARENT 18 6 25 28 84 47 52 58
REMARK Flexibility Score: inf
ROOT
ATOM      1  C   UNL A   1      30.770  29.557  24.273  1.00  0.00     0.021 C 
ENDROOT
BRANCH   1   2
ATOM      2  C   UNL A   1      31.184  29.273  22.829  1.00  0.00     0.116 C 
BRANCH   2   3
ATOM      3  N   UNL A   1      31.740  27.942  22.707  1.00  0.00    -0.356 N 
ATOM      4  O   UNL A   1      33.905  28.547  22.239  1.00  0.00    -0.275 OA
ATOM      5  C   UNL A   1      33.058  27.683  22.431  1.00  0.00     0.219 C 
ATOM      6  H   UNL A   1      31.135  27.176  22.830  1.00  0.00     0.163 HD
BRANCH   5   7
ATOM      7  C   UNL A   1      33.378  26.202  22.373  1.00  0.00     0.100 C 
BRANCH   7   8
ATOM      8  C   UNL A   1      32.183  25.312  22.721  1.00  0.00     0.010 C 
BRANCH   8   9
ATOM      9  C   UNL A   1      32.433  23.795  22.767  1.00  0.00     0.010 C 
BRANCH   9  10
ATOM     10  C   UNL A   1      33.890  23.355  22.936  1.00  0.00     0.100 C 
BRANCH  10  11
ATOM     11  C   UNL A   1      34.018  22.145  23.775  1.00  0.00     0.226 A 
ATOM     12  N   UNL A   1      33.111  21.253  24.100  1.00  0.00    -0.196 NA
ATOM     13  O   UNL A   1      35.251  21.885  24.296  1.00  0.00    -0.339 OA
ATOM     14  C   UNL A   1      33.833  20.386  24.878  1.00  0.00     0.174 A 
ATOM     15  N   UNL A   1      35.121  20.715  25.043  1.00  0.00    -0.062 NA
BRANCH  14  16
ATOM     16  C   UNL A   1      33.230  19.191  25.511  1.00  0.00     0.113 C 
BRANCH  16  17
ATOM     17  C   UNL A   1      32.483  18.285  24.525  1.00  0.00     0.126 C 
ATOM     18  C   UNL A   1      33.307  17.793  23.341  1.00  0.00     0.035 C 
ATOM     19  O   UNL A   1      32.091  17.088  25.238  1.00  0.00    -0.378 OA
ATOM     20  C   UNL A   1      33.972  16.559  23.895  1.00  0.00     0.031 C 
ATOM     21  C   UNL A   1      32.874  15.983  24.760  1.00  0.00     0.160 C 
ENDBRANCH  16  17
ENDBRANCH  14  16
ENDBRANCH  10  11
ENDBRANCH   9  10
ENDBRANCH   8   9
ENDBRANCH   7   8
ENDBRANCH   5   7
ENDBRANCH   2   3
ENDBRANCH   1   2
BRANCH   1  22
ATOM     22  C   UNL A   1      31.618  28.851  25.344  1.00  0.00     0.002 C 
BRANCH  22  23
ATOM     23  C   UNL A   1      31.804  29.627  26.651  1.00  0.00     0.002 C 
BRANCH  23  24
ATOM     24  C   UNL A   1      31.734  31.149  26.514  1.00  0.00     0.021 C 
BRANCH  24  25
ATOM     25  C   UNL A   1      32.972  31.900  26.999  1.00  0.00     0.116 C 
BRANCH  25  26
ATOM     26  N   UNL A   1      32.688  33.288  27.324  1.00  0.00    -0.352 N 
ATOM     27  C   UNL A   1      33.223  34.082  28.308  1.00  0.00     0.251 C 
ATOM     28  H   UNL A   1      32.012  33.723  26.756  1.00  0.00     0.163 HD
ATOM     29  O   UNL A   1      32.720  35.183  28.533  1.00  0.00    -0.269 OA
BRANCH  27  30
ATOM     30  C   UNL A   1      34.374  33.610  29.113  1.00  0.00     0.039 A 
ATOM     31  C   UNL A   1      34.130  32.764  30.198  1.00  0.00     0.014 A 
ATOM     32  C   UNL A   1      35.683  33.998  28.812  1.00  0.00     0.014 A 
ATOM     33  C   UNL A   1      35.201  32.259  30.938  1.00  0.00     0.010 A 
ATOM     34  C   UNL A   1      36.755  33.430  29.502  1.00  0.00     0.010 A 
ATOM     35  C   UNL A   1      36.527  32.554  30.573  1.00  0.00    -0.014 A 
BRANCH  35  36
ATOM     36  C   UNL A   1      37.667  31.924  31.292  1.00  0.00     0.031 A 
ATOM     37  C   UNL A   1      38.473  30.826  30.650  1.00  0.00     0.074 A 
ATOM     38  C   UNL A   1      37.956  32.325  32.546  1.00  0.00     0.049 A 
ATOM     39  N   UNL A   1      39.514  30.183  31.118  1.00  0.00    -0.248 NA
ATOM     40  C   UNL A   1      38.036  30.376  29.323  1.00  0.00     0.031 C 
ATOM     41  C   UNL A   1      37.214  33.342  33.297  1.00  0.00     0.029 A 
ATOM     42  N   UNL A   1      38.949  31.938  33.410  1.00  0.00    -0.354 N 
ATOM     43  C   UNL A   1      39.851  29.246  30.146  1.00  0.00     0.074 A 
ATOM     44  C   UNL A   1      38.861  29.365  29.095  1.00  0.00     0.031 C 
ATOM     45  C   UNL A   1      37.812  33.537  34.483  1.00  0.00     0.029 A 
ATOM     46  C   UNL A   1      38.946  32.627  34.601  1.00  0.00     0.049 A 
ATOM     47  H   UNL A   1      39.604  31.235  33.197  1.00  0.00     0.167 HD
ATOM     48  C   UNL A   1      40.900  28.384  30.123  1.00  0.00     0.034 A 
ATOM     49  C   UNL A   1      39.765  32.540  35.668  1.00  0.00     0.034 A 
ATOM     50  C   UNL A   1      41.876  28.281  31.182  1.00  0.00     0.049 A 
ATOM     51  C   UNL A   1      40.906  31.557  35.628  1.00  0.00     0.074 A 
ATOM     52  C   UNL A   1      43.016  27.495  31.231  1.00  0.00     0.029 A 
ATOM     53  N   UNL A   1      41.824  28.969  32.389  1.00  0.00    -0.354 N 
ATOM     54  N   UNL A   1      41.259  30.734  34.669  1.00  0.00    -0.248 NA
ATOM     55  C   UNL A   1      41.766  31.505  36.817  1.00  0.00     0.031 C 
ATOM     56  C   UNL A   1      43.600  27.642  32.495  1.00  0.00     0.029 A 
ATOM     57  C   UNL A   1      42.881  28.590  33.206  1.00  0.00     0.049 A 
ATOM     58  H   UNL A   1      41.136  29.631  32.630  1.00  0.00     0.167 HD
ATOM     59  C   UNL A   1      42.401  30.084  35.129  1.00  0.00     0.074 A 
ATOM     60  C   UNL A   1      42.690  30.636  36.438  1.00  0.00     0.031 C 
ATOM     61  C   UNL A   1      43.144  29.120  34.525  1.00  0.00     0.034 A 
BRANCH  48  62
ATOM     62  C   UNL A   1      41.014  27.459  28.931  1.00  0.00     0.023 A 
ATOM     63  C   UNL A   1      42.018  27.619  27.958  1.00  0.00     0.031 A 
ATOM     64  C   UNL A   1      40.086  26.419  28.744  1.00  0.00     0.131 A 
ATOM     65  C   UNL A   1      42.015  26.818  26.806  1.00  0.00     0.055 A 
ATOM     66  C   UNL A   1      40.144  25.565  27.641  1.00  0.00     0.041 A 
ATOM     67  F   UNL A   1      39.091  26.224  29.623  1.00  0.00    -0.206 F 
ATOM     68  C   UNL A   1      41.102  25.773  26.653  1.00  0.00     0.022 A 
BRANCH  65  69
ATOM     69  S   UNL A   1      43.113  27.271  25.433  1.00  0.00     0.124 S 
ATOM     70  O   UNL A   1      43.426  25.963  24.861  1.00  0.00    -0.237 OA
ATOM     71  O   UNL A   1      42.264  28.137  24.623  1.00  0.00    -0.237 OA
ATOM     72  O   UNL A   1      44.233  27.937  26.096  1.00  0.00    -0.744 OA
ENDBRANCH  65  69
ENDBRANCH  48  62
BRANCH  49  73
ATOM     73  C   UNL A   1      39.548  33.409  36.860  1.00  0.00     0.023 A 
ATOM     74  C   UNL A   1      38.907  32.914  38.006  1.00  0.00     0.031 A 
ATOM     75  C   UNL A   1      39.946  34.758  36.859  1.00  0.00     0.131 A 
ATOM     76  C   UNL A   1      38.640  33.771  39.085  1.00  0.00     0.055 A 
ATOM     77  C   UNL A   1      39.730  35.592  37.956  1.00  0.00     0.041 A 
ATOM     78  F   UNL A   1      40.568  35.282  35.790  1.00  0.00    -0.206 F 
ATOM     79  C   UNL A   1      39.062  35.103  39.075  1.00  0.00     0.022 A 
BRANCH  76  80
ATOM     80  S   UNL A   1      37.662  33.139  40.476  1.00  0.00     0.124 S 
ATOM     81  O   UNL A   1      38.343  31.885  40.772  1.00  0.00    -0.237 OA
ATOM     82  O   UNL A   1      37.816  34.203  41.462  1.00  0.00    -0.237 OA
ATOM     83  O   UNL A   1      36.319  33.004  39.913  1.00  0.00    -0.744 OA
ENDBRANCH  76  80
ENDBRANCH  49  73
BRANCH  61  84
ATOM     84  C   UNL A   1      44.358  28.625  35.280  1.00  0.00     0.023 A 
ATOM     85  C   UNL A   1      44.268  27.582  36.220  1.00  0.00     0.031 A 
ATOM     86  C   UNL A   1      45.610  29.240  35.099  1.00  0.00     0.131 A 
ATOM     87  C   UNL A   1      45.382  27.248  37.004  1.00  0.00     0.055 A 
ATOM     88  C   UNL A   1      46.736  28.846  35.825  1.00  0.00     0.041 A 
ATOM     89  F   UNL A   1      45.759  30.244  34.221  1.00  0.00    -0.206 F 
ATOM     90  C   UNL A   1      46.621  27.859  36.799  1.00  0.00     0.022 A 
BRANCH  87  91
ATOM     91  S   UNL A   1      45.153  26.104  38.394  1.00  0.00     0.124 S 
ATOM     92  O   UNL A   1      46.348  26.356  39.193  1.00  0.00    -0.237 OA
ATOM     93  O   UNL A   1      43.893  26.561  38.970  1.00  0.00    -0.237 OA
ATOM     94  O   UNL A   1      45.101  24.791  37.753  1.00  0.00    -0.744 OA
ENDBRANCH  87  91
ENDBRANCH  61  84
ENDBRANCH  35  36
ENDBRANCH  27  30
ENDBRANCH  25  26
ENDBRANCH  24  25
ENDBRANCH  23  24
ENDBRANCH  22  23
ENDBRANCH   1  22
TORSDOF 22
ENDMDL
MODEL 2
REMARK VINA RESULT:     -10.5      1.772      7.735
REMARK SMILES O=C(CCCCc1nc(C[C@H]2CCCO2)no1)NCCCCCCNC(=O)c1ccc(-c2c3nc(c(-c4cc(S(=O)(=O)[O-])ccc4F)c4ccc([nH]4)c(-c4cc(S(=O)(=O)[O-])ccc4F)c4nc(c(-c5cc(S(=O)(=O)[O-])ccc5F)c5ccc2[nH]5)C=C4)C=C3)cc1
REMARK SMILES IDX 20 1 19 2 18 3 1 4 2 5 3 7 4 8 5 9 6 10 7 11 8 12 17 13 9 14
REMARK SMILES IDX 16 15 10 16 11 17 12 18 15 19 13 20 14 21 21 22 22 23 23 24
REMARK SMILES IDX 24 25 25 26 26 27 27 29 28 30 29 31 90 32 30 33 89 34 31 35
REMARK SMILES IDX 32 36 33 37 83 38 34 39 88 40 82 41 84 42 35 43 87 44 81 45
REMARK SMILES IDX 80 46 36 48 68 49 48 50 67 51 49 52 52 53 66 54 85 55 50 56
REMARK SMILES IDX 51 57 65 59 86 60 53 61 37 62 38 63 46 64 39 65 45 66 47 67
REMARK SMILES IDX 44 68 40 69 41 70 42 71 43 72 69 73 70 74 78 75 71 76 77 77
REMARK SMILES IDX 79 78 76 79 72 80 73 81 74 82 75 83 54 84 55 85 63 86 56 87
REMARK SMILES IDX 62 88 64 89 61 90 57 91 58 92 59 93 60 94
REMARK H PARENT 18 6 25 28 84 47 52 58
REMARK Flexibility Score: inf
ROOT
ATOM      1  C   UNL A   1      31.208  29.504  24.408  1.00  0.00     0.021 C 
ENDROOT
BRANCH   1   2
ATOM      2  C   UNL A   1      30.704  28.523  23.349  1.00  0.00     0.116 C 
BRANCH   2   3
ATOM      3  N   UNL A   1      30.544  27.198  23.911  1.00  0.00    -0.356 N 
ATOM      4  O   UNL A   1      31.487  26.008  22.189  1.00  0.00    -0.275 OA
ATOM      5  C   UNL A   1      30.956  26.046  23.292  1.00  0.00     0.219 C 
ATOM      6  H   UNL A   1      30.113  27.120  24.792  1.00  0.00     0.163 HD
BRANCH   5   7
ATOM      7  C   UNL A   1      30.681  24.797  24.107  1.00  0.00     0.100 C 
BRANCH   7   8
ATOM      8  C   UNL A   1      31.120  24.919  25.567  1.00  0.00     0.010 C 
BRANCH   8   9
ATOM      9  C   UNL A   1      32.632  24.879  25.846  1.00  0.00     0.010 C 
BRANCH   9  10
ATOM     10  C   UNL A   1      33.497  24.195  24.784  1.00  0.00     0.100 C 
BRANCH  10  11
ATOM     11  C   UNL A   1      33.708  22.760  25.069  1.00  0.00     0.226 A 
ATOM     12  N   UNL A   1      33.964  21.772  24.242  1.00  0.00    -0.196 NA
ATOM     13  O   UNL A   1      33.644  22.376  26.375  1.00  0.00    -0.339 OA
ATOM     14  C   UNL A   1      34.059  20.706  25.097  1.00  0.00     0.174 A 
ATOM     15  N   UNL A   1      33.866  21.000  26.390  1.00  0.00    -0.062 NA
BRANCH  14  16
ATOM     16  C   UNL A   1      34.327  19.327  24.627  1.00  0.00     0.113 C 
BRANCH  16  17
ATOM     17  C   UNL A   1      33.070  18.583  24.161  1.00  0.00     0.126 C 
ATOM     18  C   UNL A   1      33.325  17.358  23.288  1.00  0.00     0.035 C 
ATOM     19  O   UNL A   1      32.396  18.076  25.338  1.00  0.00    -0.378 OA
ATOM     20  C   UNL A   1      33.533  16.268  24.308  1.00  0.00     0.031 C 
ATOM     21  C   UNL A   1      32.526  16.646  25.370  1.00  0.00     0.160 C 
ENDBRANCH  16  17
ENDBRANCH  14  16
ENDBRANCH  10  11
ENDBRANCH   9  10
ENDBRANCH   8   9
ENDBRANCH   7   8
ENDBRANCH   5   7
ENDBRANCH   2   3
ENDBRANCH   1   2
BRANCH   1  22
ATOM     22  C   UNL A   1      31.986  28.864  25.570  1.00  0.00     0.002 C 
BRANCH  22  23
ATOM     23  C   UNL A   1      31.829  29.558  26.925  1.00  0.00     0.002 C 
BRANCH  23  24
ATOM     24  C   UNL A   1      31.703  31.081  26.861  1.00  0.00     0.021 C 
BRANCH  24  25
ATOM     25  C   UNL A   1      33.008  31.849  27.061  1.00  0.00     0.116 C 
BRANCH  25  26
ATOM     26  N   UNL A   1      32.787  33.216  27.499  1.00  0.00    -0.352 N 
ATOM     27  C   UNL A   1      33.431  33.936  28.475  1.00  0.00     0.251 C 
ATOM     28  H   UNL A   1      32.071  33.699  27.027  1.00  0.00     0.163 HD
ATOM     29  O   UNL A   1      32.975  35.027  28.818  1.00  0.00    -0.269 OA
BRANCH  27  30
ATOM     30  C   UNL A   1      34.641  33.393  29.135  1.00  0.00     0.039 A 
ATOM     31  C   UNL A   1      34.485  32.421  30.126  1.00  0.00     0.014 A 
ATOM     32  C   UNL A   1      35.921  33.838  28.792  1.00  0.00     0.014 A 
ATOM     33  C   UNL A   1      35.611  31.852  30.723  1.00  0.00     0.010 A 
ATOM     34  C   UNL A   1      37.045  33.213  29.332  1.00  0.00     0.010 A 
ATOM     35  C   UNL A   1      36.904  32.212  30.305  1.00  0.00    -0.014 A 
BRANCH  35  36
ATOM     36  C   UNL A   1      38.100  31.523  30.861  1.00  0.00     0.031 A 
ATOM     37  C   UNL A   1      38.627  31.872  32.227  1.00  0.00     0.074 A 
ATOM     38  C   UNL A   1      38.733  30.598  30.112  1.00  0.00     0.049 A 
ATOM     39  N   UNL A   1      39.639  31.357  32.879  1.00  0.00    -0.248 NA
ATOM     40  C   UNL A   1      37.943  32.959  32.940  1.00  0.00     0.031 C 
ATOM     41  C   UNL A   1      38.350  30.210  28.752  1.00  0.00     0.029 A 
ATOM     42  N   UNL A   1      39.822  29.809  30.385  1.00  0.00    -0.354 N 
ATOM     43  C   UNL A   1      39.720  32.063  34.077  1.00  0.00     0.074 A 
ATOM     44  C   UNL A   1      38.693  33.083  34.025  1.00  0.00     0.031 C 
ATOM     45  C   UNL A   1      39.155  29.222  28.333  1.00  0.00     0.029 A 
ATOM     46  C   UNL A   1      40.141  28.937  29.370  1.00  0.00     0.049 A 
ATOM     47  H   UNL A   1      40.326  29.860  31.229  1.00  0.00     0.167 HD
ATOM     48  C   UNL A   1      40.556  31.863  35.127  1.00  0.00     0.034 A 
ATOM     49  C   UNL A   1      41.116  28.010  29.283  1.00  0.00     0.034 A 
ATOM     50  C   UNL A   1      41.574  30.838  35.158  1.00  0.00     0.049 A 
ATOM     51  C   UNL A   1      42.047  27.825  30.452  1.00  0.00     0.074 A 
ATOM     52  C   UNL A   1      42.427  30.501  36.195  1.00  0.00     0.029 A 
ATOM     53  N   UNL A   1      41.894  29.995  34.099  1.00  0.00    -0.354 N 
ATOM     54  N   UNL A   1      42.061  28.446  31.609  1.00  0.00    -0.248 NA
ATOM     55  C   UNL A   1      43.089  26.801  30.303  1.00  0.00     0.031 C 
ATOM     56  C   UNL A   1      43.315  29.521  35.737  1.00  0.00     0.029 A 
ATOM     57  C   UNL A   1      42.960  29.175  34.442  1.00  0.00     0.049 A 
ATOM     58  H   UNL A   1      41.430  29.981  33.231  1.00  0.00     0.167 HD
ATOM     59  C   UNL A   1      43.097  27.867  32.337  1.00  0.00     0.074 A 
ATOM     60  C   UNL A   1      43.662  26.829  31.497  1.00  0.00     0.031 C 
ATOM     61  C   UNL A   1      43.541  28.165  33.586  1.00  0.00     0.034 A 
BRANCH  48  62
ATOM     62  C   UNL A   1      40.427  32.801  36.307  1.00  0.00     0.023 A 
ATOM     63  C   UNL A   1      39.612  32.497  37.413  1.00  0.00     0.031 A 
ATOM     64  C   UNL A   1      41.104  34.034  36.315  1.00  0.00     0.131 A 
ATOM     65  C   UNL A   1      39.424  33.446  38.430  1.00  0.00     0.055 A 
ATOM     66  C   UNL A   1      40.985  34.935  37.375  1.00  0.00     0.041 A 
ATOM     67  F   UNL A   1      41.881  34.394  35.282  1.00  0.00    -0.206 F 
ATOM     68  C   UNL A   1      40.126  34.653  38.433  1.00  0.00     0.022 A 
BRANCH  65  69
ATOM     69  S   UNL A   1      38.119  33.154  39.657  1.00  0.00     0.124 S 
ATOM     70  O   UNL A   1      36.944  32.986  38.805  1.00  0.00    -0.237 OA
ATOM     71  O   UNL A   1      38.591  31.953  40.338  1.00  0.00    -0.237 OA
ATOM     72  O   UNL A   1      38.126  34.373  40.463  1.00  0.00    -0.744 OA
ENDBRANCH  65  69
ENDBRANCH  48  62
BRANCH  49  73
ATOM     73  C   UNL A   1      41.259  27.177  28.055  1.00  0.00     0.023 A 
ATOM     74  C   UNL A   1      40.875  25.827  28.050  1.00  0.00     0.031 A 
ATOM     75  C   UNL A   1      41.818  27.706  26.877  1.00  0.00     0.131 A 
ATOM     76  C   UNL A   1      41.094  25.039  26.910  1.00  0.00     0.055 A 
ATOM     77  C   UNL A   1      41.982  26.934  25.727  1.00  0.00     0.041 A 
ATOM     78  F   UNL A   1      42.199  28.992  26.825  1.00  0.00    -0.206 F 
ATOM     79  C   UNL A   1      41.630  25.587  25.742  1.00  0.00     0.022 A 
BRANCH  76  80
ATOM     80  S   UNL A   1      40.740  23.262  26.999  1.00  0.00     0.124 S 
ATOM     81  O   UNL A   1      39.290  23.240  26.846  1.00  0.00    -0.237 OA
ATOM     82  O   UNL A   1      41.513  22.743  25.877  1.00  0.00    -0.237 OA
ATOM     83  O   UNL A   1      41.235  22.883  28.322  1.00  0.00    -0.744 OA
ENDBRANCH  76  80
ENDBRANCH  49  73
BRANCH  61  84
ATOM     84  C   UNL A   1      44.684  27.329  34.118  1.00  0.00     0.023 A 
ATOM     85  C   UNL A   1      44.462  26.090  34.746  1.00  0.00     0.031 A 
ATOM     86  C   UNL A   1      46.007  27.800  34.044  1.00  0.00     0.131 A 
ATOM     87  C   UNL A   1      45.529  25.411  35.354  1.00  0.00     0.055 A 
ATOM     88  C   UNL A   1      47.077  27.079  34.579  1.00  0.00     0.041 A 
ATOM     89  F   UNL A   1      46.283  28.977  33.461  1.00  0.00    -0.206 F 
ATOM     90  C   UNL A   1      46.838  25.887  35.257  1.00  0.00     0.022 A 
BRANCH  87  91
ATOM     91  S   UNL A   1      45.161  23.971  36.396  1.00  0.00     0.124 S 
ATOM     92  O   UNL A   1      43.979  23.419  35.741  1.00  0.00    -0.237 OA
ATOM     93  O   UNL A   1      46.382  23.181  36.278  1.00  0.00    -0.237 OA
ATOM     94  O   UNL A   1      44.926  24.555  37.715  1.00  0.00    -0.744 OA
ENDBRANCH  87  91
ENDBRANCH  61  84
ENDBRANCH  35  36
ENDBRANCH  27  30
ENDBRANCH  25  26
ENDBRANCH  24  25
ENDBRANCH  23  24
ENDBRANCH  22  23
ENDBRANCH   1  22
TORSDOF 22
ENDMDL
MODEL 3
REMARK VINA RESULT:     -10.3      2.821      8.635
REMARK SMILES O=C(CCCCc1nc(C[C@H]2CCCO2)no1)NCCCCCCNC(=O)c1ccc(-c2c3nc(c(-c4cc(S(=O)(=O)[O-])ccc4F)c4ccc([nH]4)c(-c4cc(S(=O)(=O)[O-])ccc4F)c4nc(c(-c5cc(S(=O)(=O)[O-])ccc5F)c5ccc2[nH]5)C=C4)C=C3)cc1
REMARK SMILES IDX 20 1 19 2 18 3 1 4 2 5 3 7 4 8 5 9 6 10 7 11 8 12 17 13 9 14
REMARK SMILES IDX 16 15 10 16 11 17 12 18 15 19 13 20 14 21 21 22 22 23 23 24
REMARK SMILES IDX 24 25 25 26 26 27 27 29 28 30 29 31 90 32 30 33 89 34 31 35
REMARK SMILES IDX 32 36 33 37 83 38 34 39 88 40 82 41 84 42 35 43 87 44 81 45
REMARK SMILES IDX 80 46 36 48 68 49 48 50 67 51 49 52 52 53 66 54 85 55 50 56
REMARK SMILES IDX 51 57 65 59 86 60 53 61 37 62 38 63 46 64 39 65 45 66 47 67
REMARK SMILES IDX 44 68 40 69 41 70 42 71 43 72 69 73 70 74 78 75 71 76 77 77
REMARK SMILES IDX 79 78 76 79 72 80 73 81 74 82 75 83 54 84 55 85 63 86 56 87
REMARK SMILES IDX 62 88 64 89 61 90 57 91 58 92 59 93 60 94
REMARK H PARENT 18 6 25 28 84 47 52 58
REMARK Flexibility Score: inf
ROOT
ATOM      1  C   UNL A   1      30.574  26.644  26.024  1.00  0.00     0.021 C 
ENDROOT
BRANCH   1   2
ATOM      2  C   UNL A   1      30.196  25.184  25.773  1.00  0.00     0.116 C 
BRANCH   2   3
ATOM      3  N   UNL A   1      31.318  24.310  26.043  1.00  0.00    -0.356 N 
ATOM      4  O   UNL A   1      30.323  23.007  27.651  1.00  0.00    -0.275 OA
ATOM      5  C   UNL A   1      31.291  23.285  26.953  1.00  0.00     0.219 C 
ATOM      6  H   UNL A   1      32.152  24.461  25.542  1.00  0.00     0.163 HD
BRANCH   5   7
ATOM      7  C   UNL A   1      32.596  22.516  27.029  1.00  0.00     0.100 C 
BRANCH   7   8
ATOM      8  C   UNL A   1      33.729  23.169  26.234  1.00  0.00     0.010 C 
BRANCH   8   9
ATOM      9  C   UNL A   1      34.376  22.326  25.122  1.00  0.00     0.010 C 
BRANCH   9  10
ATOM     10  C   UNL A   1      33.493  22.014  23.910  1.00  0.00     0.100 C 
BRANCH  10  11
ATOM     11  C   UNL A   1      33.210  23.214  23.096  1.00  0.00     0.226 A 
ATOM     12  N   UNL A   1      32.490  24.272  23.391  1.00  0.00    -0.196 NA
ATOM     13  O   UNL A   1      33.772  23.264  21.856  1.00  0.00    -0.339 OA
ATOM     14  C   UNL A   1      32.614  25.024  22.251  1.00  0.00     0.174 A 
ATOM     15  N   UNL A   1      33.362  24.469  21.288  1.00  0.00    -0.062 NA
BRANCH  14  16
ATOM     16  C   UNL A   1      31.949  26.336  22.085  1.00  0.00     0.113 C 
BRANCH  16  17
ATOM     17  C   UNL A   1      32.928  27.507  21.943  1.00  0.00     0.126 C 
ATOM     18  C   UNL A   1      32.360  28.878  22.292  1.00  0.00     0.035 C 
ATOM     19  O   UNL A   1      34.009  27.294  22.883  1.00  0.00    -0.378 OA
ATOM     20  C   UNL A   1      32.569  28.949  23.783  1.00  0.00     0.031 C 
ATOM     21  C   UNL A   1      33.908  28.264  23.937  1.00  0.00     0.160 C 
ENDBRANCH  16  17
ENDBRANCH  14  16
ENDBRANCH  10  11
ENDBRANCH   9  10
ENDBRANCH   8   9
ENDBRANCH   7   8
ENDBRANCH   5   7
ENDBRANCH   2   3
ENDBRANCH   1   2
BRANCH   1  22
ATOM     22  C   UNL A   1      31.979  26.861  26.609  1.00  0.00     0.002 C 
BRANCH  22  23
ATOM     23  C   UNL A   1      32.071  27.904  27.725  1.00  0.00     0.002 C 
BRANCH  23  24
ATOM     24  C   UNL A   1      32.122  29.357  27.249  1.00  0.00     0.021 C 
BRANCH  24  25
ATOM     25  C   UNL A   1      33.506  30.001  27.278  1.00  0.00     0.116 C 
BRANCH  25  26
ATOM     26  N   UNL A   1      33.445  31.448  27.393  1.00  0.00    -0.352 N 
ATOM     27  C   UNL A   1      34.264  32.306  28.085  1.00  0.00     0.251 C 
ATOM     28  H   UNL A   1      32.707  31.878  26.903  1.00  0.00     0.163 HD
ATOM     29  O   UNL A   1      33.938  33.487  28.201  1.00  0.00    -0.269 OA
BRANCH  27  30
ATOM     30  C   UNL A   1      35.511  31.811  28.714  1.00  0.00     0.039 A 
ATOM     31  C   UNL A   1      35.431  30.743  29.611  1.00  0.00     0.014 A 
ATOM     32  C   UNL A   1      36.750  32.393  28.432  1.00  0.00     0.014 A 
ATOM     33  C   UNL A   1      36.598  30.221  30.173  1.00  0.00     0.010 A 
ATOM     34  C   UNL A   1      37.920  31.821  28.933  1.00  0.00     0.010 A 
ATOM     35  C   UNL A   1      37.858  30.728  29.810  1.00  0.00    -0.014 A 
BRANCH  35  36
ATOM     36  C   UNL A   1      39.104  30.096  30.323  1.00  0.00     0.031 A 
ATOM     37  C   UNL A   1      39.734  30.562  31.608  1.00  0.00     0.074 A 
ATOM     38  C   UNL A   1      39.688  29.117  29.604  1.00  0.00     0.049 A 
ATOM     39  N   UNL A   1      40.802  30.111  32.216  1.00  0.00    -0.248 NA
ATOM     40  C   UNL A   1      39.095  31.699  32.282  1.00  0.00     0.031 C 
ATOM     41  C   UNL A   1      39.203  28.615  28.315  1.00  0.00     0.029 A 
ATOM     42  N   UNL A   1      40.806  28.361  29.852  1.00  0.00    -0.354 N 
ATOM     43  C   UNL A   1      40.969  30.914  33.341  1.00  0.00     0.074 A 
ATOM     44  C   UNL A   1      39.927  31.919  33.289  1.00  0.00     0.031 C 
ATOM     45  C   UNL A   1      39.986  27.600  27.915  1.00  0.00     0.029 A 
ATOM     46  C   UNL A   1      41.056  27.410  28.889  1.00  0.00     0.049 A 
ATOM     47  H   UNL A   1      41.375  28.487  30.645  1.00  0.00     0.167 HD
ATOM     48  C   UNL A   1      41.890  30.809  34.332  1.00  0.00     0.034 A 
ATOM     49  C   UNL A   1      42.033  26.487  28.800  1.00  0.00     0.034 A 
ATOM     50  C   UNL A   1      42.921  29.798  34.365  1.00  0.00     0.049 A 
ATOM     51  C   UNL A   1      43.058  26.407  29.901  1.00  0.00     0.074 A 
ATOM     52  C   UNL A   1      43.860  29.555  35.354  1.00  0.00     0.029 A 
ATOM     53  N   UNL A   1      43.167  28.872  33.357  1.00  0.00    -0.354 N 
ATOM     54  N   UNL A   1      43.156  27.122  30.998  1.00  0.00    -0.248 NA
ATOM     55  C   UNL A   1      44.099  25.382  29.753  1.00  0.00     0.031 C 
ATOM     56  C   UNL A   1      44.722  28.546  34.908  1.00  0.00     0.029 A 
ATOM     57  C   UNL A   1      44.269  28.091  33.679  1.00  0.00     0.049 A 
ATOM     58  H   UNL A   1      42.635  28.783  32.534  1.00  0.00     0.167 HD
ATOM     59  C   UNL A   1      44.255  26.613  31.685  1.00  0.00     0.074 A 
ATOM     60  C   UNL A   1      44.765  25.514  30.890  1.00  0.00     0.031 C 
ATOM     61  C   UNL A   1      44.793  27.018  32.865  1.00  0.00     0.034 A 
BRANCH  48  62
ATOM     62  C   UNL A   1      41.842  31.841  35.438  1.00  0.00     0.023 A 
ATOM     63  C   UNL A   1      40.857  31.811  36.442  1.00  0.00     0.031 A 
ATOM     64  C   UNL A   1      42.778  32.891  35.473  1.00  0.00     0.131 A 
ATOM     65  C   UNL A   1      40.774  32.855  37.377  1.00  0.00     0.055 A 
ATOM     66  C   UNL A   1      42.746  33.876  36.462  1.00  0.00     0.041 A 
ATOM     67  F   UNL A   1      43.731  32.990  34.534  1.00  0.00    -0.206 F 
ATOM     68  C   UNL A   1      41.728  33.873  37.412  1.00  0.00     0.022 A 
BRANCH  65  69
ATOM     69  S   UNL A   1      39.304  32.953  38.437  1.00  0.00     0.124 S 
ATOM     70  O   UNL A   1      39.861  32.623  39.747  1.00  0.00    -0.237 OA
ATOM     71  O   UNL A   1      38.876  34.336  38.254  1.00  0.00    -0.237 OA
ATOM     72  O   UNL A   1      38.409  31.943  37.876  1.00  0.00    -0.744 OA
ENDBRANCH  65  69
ENDBRANCH  48  62
BRANCH  49  73
ATOM     73  C   UNL A   1      42.090  25.555  27.637  1.00  0.00     0.023 A 
ATOM     74  C   UNL A   1      41.398  24.334  27.658  1.00  0.00     0.031 A 
ATOM     75  C   UNL A   1      42.865  25.854  26.502  1.00  0.00     0.131 A 
ATOM     76  C   UNL A   1      41.530  23.436  26.588  1.00  0.00     0.055 A 
ATOM     77  C   UNL A   1      42.948  24.983  25.416  1.00  0.00     0.041 A 
ATOM     78  F   UNL A   1      43.543  27.010  26.429  1.00  0.00    -0.206 F 
ATOM     79  C   UNL A   1      42.288  23.758  25.459  1.00  0.00     0.022 A 
BRANCH  76  80
ATOM     80  S   UNL A   1      40.759  21.800  26.726  1.00  0.00     0.124 S 
ATOM     81  O   UNL A   1      39.468  22.025  26.085  1.00  0.00    -0.237 OA
ATOM     82  O   UNL A   1      41.700  20.958  25.996  1.00  0.00    -0.237 OA
ATOM     83  O   UNL A   1      40.709  21.568  28.168  1.00  0.00    -0.744 OA
ENDBRANCH  76  80
ENDBRANCH  49  73
BRANCH  61  84
ATOM     84  C   UNL A   1      45.987  26.237  33.369  1.00  0.00     0.023 A 
ATOM     85  C   UNL A   1      45.838  25.144  34.241  1.00  0.00     0.031 A 
ATOM     86  C   UNL A   1      47.292  26.624  33.017  1.00  0.00     0.131 A 
ATOM     87  C   UNL A   1      46.972  24.535  34.801  1.00  0.00     0.055 A 
ATOM     88  C   UNL A   1      48.417  25.961  33.514  1.00  0.00     0.041 A 
ATOM     89  F   UNL A   1      47.500  27.663  32.193  1.00  0.00    -0.206 F 
ATOM     90  C   UNL A   1      48.261  24.923  34.428  1.00  0.00     0.022 A 
BRANCH  87  91
ATOM     91  S   UNL A   1      46.739  23.324  36.133  1.00  0.00     0.124 S 
ATOM     92  O   UNL A   1      45.736  23.982  36.966  1.00  0.00    -0.237 OA
ATOM     93  O   UNL A   1      46.288  22.143  35.406  1.00  0.00    -0.237 OA
ATOM     94  O   UNL A   1      48.068  23.214  36.732  1.00  0.00    -0.744 OA
ENDBRANCH  87  91
ENDBRANCH  61  84
ENDBRANCH  35  36
ENDBRANCH  27  30
ENDBRANCH  25  26
ENDBRANCH  24  25
ENDBRANCH  23  24
ENDBRANCH  22  23
ENDBRANCH   1  22
TORSDOF 22
ENDMDL
