MODEL 1
REMARK VINA RESULT:     -12.3      0.000      0.000
REMARK SMILES Cc1cc(N2C[C@H](C(=O)NCCCCCCNC(=O)c3ccc(-c4c5nc(c(-c6cc(S(=O)(=O)[O-])ccc6F)c6ccc([nH]6)c(-c6cc(S(=O)(=O)[O-])ccc6F)c6nc(c(-c7cc(S(=O)(=O)[O-])ccc7F)c7ccc4[nH]7)C=C6)C=C5)cc3)CC2=O)cc(C)c1Br
REMARK SMILES IDX 14 1 13 2 12 3 11 4 10 5 8 6 9 7 7 9 5 10 6 11 84 12 83 13
REMARK SMILES IDX 85 14 4 15 1 16 2 17 3 18 89 19 87 20 90 21 86 22 88 23
REMARK SMILES IDX 15 24 16 25 17 26 18 27 19 29 20 30 21 31 82 32 22 33 81 34
REMARK SMILES IDX 23 35 24 36 25 37 75 38 26 39 80 40 74 41 76 42 27 43 79 44
REMARK SMILES IDX 73 45 72 46 28 48 60 49 40 50 59 51 41 52 44 53 58 54 77 55
REMARK SMILES IDX 42 56 43 57 57 59 78 60 45 61 29 62 30 63 38 64 31 65 37 66
REMARK SMILES IDX 39 67 36 68 32 69 33 70 34 71 35 72 61 73 62 74 70 75 63 76
REMARK SMILES IDX 69 77 71 78 68 79 64 80 65 81 66 82 67 83 46 84 47 85 55 86
REMARK SMILES IDX 48 87 54 88 56 89 53 90 49 91 50 92 51 93 52 94
REMARK H PARENT 10 8 17 28 76 47 44 58
REMARK Flexibility Score: inf
ROOT
ATOM      1  C   UNL A   1      31.658  30.628  26.155  1.00  0.00     0.002 C 
ENDROOT
BRANCH   1   2
ATOM      2  C   UNL A   1      32.465  29.767  27.132  1.00  0.00     0.002 C 
BRANCH   2   3
ATOM      3  C   UNL A   1      31.797  28.451  27.542  1.00  0.00     0.021 C 
BRANCH   3   4
ATOM      4  C   UNL A   1      31.312  27.602  26.369  1.00  0.00     0.116 C 
BRANCH   4   5
ATOM      5  N   UNL A   1      31.067  26.227  26.760  1.00  0.00    -0.356 N 
ATOM      6  C   UNL A   1      31.815  25.101  26.650  1.00  0.00     0.225 C 
ATOM      7  O   UNL A   1      31.323  24.059  27.098  1.00  0.00    -0.275 OA
ATOM      8  H   UNL A   1      30.190  26.083  27.184  1.00  0.00     0.163 HD
BRANCH   6   9
ATOM      9  C   UNL A   1      33.171  25.042  25.962  1.00  0.00     0.107 C 
ATOM     10  N   UNL A   1      33.944  23.028  25.017  1.00  0.00    -0.312 N 
ATOM     11  C   UNL A   1      33.901  23.753  26.262  1.00  0.00     0.139 C 
ATOM     12  C   UNL A   1      33.657  23.859  23.926  1.00  0.00     0.227 C 
ATOM     13  C   UNL A   1      33.187  25.196  24.453  1.00  0.00     0.116 C 
ATOM     14  O   UNL A   1      33.668  23.594  22.735  1.00  0.00    -0.274 OA
BRANCH  10  15
ATOM     15  C   UNL A   1      34.202  21.633  24.938  1.00  0.00     0.044 A 
ATOM     16  C   UNL A   1      37.191  19.274  24.978  1.00  0.00     0.045 C 
ATOM     17  C   UNL A   1      35.766  19.747  24.853  1.00  0.00    -0.035 A 
ATOM     18  C   UNL A   1      35.504  21.126  24.975  1.00  0.00     0.031 A 
ATOM     19  C   UNL A   1      34.697  18.863  24.623  1.00  0.00     0.023 A 
ATOM     20  C   UNL A   1      33.382  19.351  24.543  1.00  0.00    -0.035 A 
ATOM     21  Br  UNL A   1      35.026  16.995  24.419  1.00  0.00    -0.050 Br
ATOM     22  C   UNL A   1      33.153  20.723  24.757  1.00  0.00     0.031 A 
ATOM     23  C   UNL A   1      32.207  18.472  24.208  1.00  0.00     0.045 C 
ENDBRANCH  10  15
ENDBRANCH   6   9
ENDBRANCH   4   5
ENDBRANCH   3   4
ENDBRANCH   2   3
ENDBRANCH   1   2
BRANCH   1  24
ATOM     24  C   UNL A   1      31.534  32.107  26.536  1.00  0.00     0.021 C 
BRANCH  24  25
ATOM     25  C   UNL A   1      32.709  32.658  27.337  1.00  0.00     0.116 C 
BRANCH  25  26
ATOM     26  N   UNL A   1      32.528  34.065  27.659  1.00  0.00    -0.352 N 
ATOM     27  C   UNL A   1      33.105  34.811  28.656  1.00  0.00     0.251 C 
ATOM     28  H   UNL A   1      31.901  34.553  27.078  1.00  0.00     0.163 HD
ATOM     29  O   UNL A   1      32.647  35.916  28.930  1.00  0.00    -0.269 OA
BRANCH  27  30
ATOM     30  C   UNL A   1      34.262  34.272  29.402  1.00  0.00     0.039 A 
ATOM     31  C   UNL A   1      34.042  33.603  30.608  1.00  0.00     0.014 A 
ATOM     32  C   UNL A   1      35.563  34.441  28.919  1.00  0.00     0.014 A 
ATOM     33  C   UNL A   1      35.123  33.053  31.301  1.00  0.00     0.010 A 
ATOM     34  C   UNL A   1      36.629  33.828  29.571  1.00  0.00     0.010 A 
ATOM     35  C   UNL A   1      36.421  33.133  30.773  1.00  0.00    -0.014 A 
BRANCH  35  36
ATOM     36  C   UNL A   1      37.580  32.515  31.470  1.00  0.00     0.031 A 
ATOM     37  C   UNL A   1      38.314  31.367  30.832  1.00  0.00     0.074 A 
ATOM     38  C   UNL A   1      37.937  32.953  32.694  1.00  0.00     0.049 A 
ATOM     39  N   UNL A   1      39.289  30.638  31.311  1.00  0.00    -0.248 NA
ATOM     40  C   UNL A   1      37.876  30.972  29.484  1.00  0.00     0.031 C 
ATOM     41  C   UNL A   1      37.289  34.045  33.423  1.00  0.00     0.029 A 
ATOM     42  N   UNL A   1      38.929  32.533  33.545  1.00  0.00    -0.354 N 
ATOM     43  C   UNL A   1      39.578  29.697  30.328  1.00  0.00     0.074 A 
ATOM     44  C   UNL A   1      38.626  29.905  29.257  1.00  0.00     0.031 C 
ATOM     45  C   UNL A   1      37.918  34.226  34.595  1.00  0.00     0.029 A 
ATOM     46  C   UNL A   1      38.976  33.230  34.730  1.00  0.00     0.049 A 
ATOM     47  H   UNL A   1      39.549  31.800  33.327  1.00  0.00     0.167 HD
ATOM     48  C   UNL A   1      40.563  28.765  30.308  1.00  0.00     0.034 A 
ATOM     49  C   UNL A   1      39.772  33.075  35.808  1.00  0.00     0.034 A 
ATOM     50  C   UNL A   1      41.504  28.571  31.384  1.00  0.00     0.049 A 
ATOM     51  C   UNL A   1      40.818  31.985  35.786  1.00  0.00     0.074 A 
ATOM     52  C   UNL A   1      42.554  27.671  31.459  1.00  0.00     0.029 A 
ATOM     53  N   UNL A   1      41.509  29.284  32.575  1.00  0.00    -0.354 N 
ATOM     54  N   UNL A   1      41.096  31.124  34.835  1.00  0.00    -0.248 NA
ATOM     55  C   UNL A   1      41.662  31.855  36.981  1.00  0.00     0.031 C 
ATOM     56  C   UNL A   1      43.147  27.793  32.719  1.00  0.00     0.029 A 
ATOM     57  C   UNL A   1      42.526  28.827  33.400  1.00  0.00     0.049 A 
ATOM     58  H   UNL A   1      40.882  30.009  32.802  1.00  0.00     0.167 HD
ATOM     59  C   UNL A   1      42.179  30.381  35.302  1.00  0.00     0.074 A 
ATOM     60  C   UNL A   1      42.508  30.905  36.612  1.00  0.00     0.031 C 
ATOM     61  C   UNL A   1      42.845  29.362  34.702  1.00  0.00     0.034 A 
BRANCH  48  62
ATOM     62  C   UNL A   1      40.654  27.876  29.090  1.00  0.00     0.023 A 
ATOM     63  C   UNL A   1      41.577  28.132  28.061  1.00  0.00     0.031 A 
ATOM     64  C   UNL A   1      39.801  26.767  28.946  1.00  0.00     0.131 A 
ATOM     65  C   UNL A   1      41.576  27.339  26.904  1.00  0.00     0.055 A 
ATOM     66  C   UNL A   1      39.863  25.930  27.830  1.00  0.00     0.041 A 
ATOM     67  F   UNL A   1      38.883  26.484  29.885  1.00  0.00    -0.206 F 
ATOM     68  C   UNL A   1      40.745  26.222  26.794  1.00  0.00     0.022 A 
BRANCH  65  69
ATOM     69  S   UNL A   1      42.576  27.872  25.488  1.00  0.00     0.124 S 
ATOM     70  O   UNL A   1      42.562  26.676  24.650  1.00  0.00    -0.237 OA
ATOM     71  O   UNL A   1      41.826  29.016  24.983  1.00  0.00    -0.237 OA
ATOM     72  O   UNL A   1      43.872  28.191  26.085  1.00  0.00    -0.744 OA
ENDBRANCH  65  69
ENDBRANCH  48  62
BRANCH  49  73
ATOM     73  C   UNL A   1      39.618  33.952  37.006  1.00  0.00     0.023 A 
ATOM     74  C   UNL A   1      39.062  33.453  38.195  1.00  0.00     0.031 A 
ATOM     75  C   UNL A   1      39.950  35.317  36.959  1.00  0.00     0.131 A 
ATOM     76  C   UNL A   1      38.792  34.324  39.262  1.00  0.00     0.055 A 
ATOM     77  C   UNL A   1      39.742  36.166  38.047  1.00  0.00     0.041 A 
ATOM     78  F   UNL A   1      40.484  35.849  35.847  1.00  0.00    -0.206 F 
ATOM     79  C   UNL A   1      39.143  35.674  39.202  1.00  0.00     0.022 A 
BRANCH  76  80
ATOM     80  S   UNL A   1      37.859  33.688  40.682  1.00  0.00     0.124 S 
ATOM     81  O   UNL A   1      38.777  32.688  41.215  1.00  0.00    -0.237 OA
ATOM     82  O   UNL A   1      37.678  34.890  41.489  1.00  0.00    -0.237 OA
ATOM     83  O   UNL A   1      36.640  33.156  40.076  1.00  0.00    -0.744 OA
ENDBRANCH  76  80
ENDBRANCH  49  73
BRANCH  61  84
ATOM     84  C   UNL A   1      44.041  28.795  35.431  1.00  0.00     0.023 A 
ATOM     85  C   UNL A   1      43.925  27.719  36.329  1.00  0.00     0.031 A 
ATOM     86  C   UNL A   1      45.317  29.350  35.225  1.00  0.00     0.131 A 
ATOM     87  C   UNL A   1      45.056  27.270  37.028  1.00  0.00     0.055 A 
ATOM     88  C   UNL A   1      46.448  28.856  35.873  1.00  0.00     0.041 A 
ATOM     89  F   UNL A   1      45.485  30.382  34.381  1.00  0.00    -0.206 F 
ATOM     90  C   UNL A   1      46.319  27.818  36.792  1.00  0.00     0.022 A 
BRANCH  87  91
ATOM     91  S   UNL A   1      44.838  26.021  38.325  1.00  0.00     0.124 S 
ATOM     92  O   UNL A   1      43.790  25.177  37.761  1.00  0.00    -0.237 OA
ATOM     93  O   UNL A   1      46.167  25.419  38.405  1.00  0.00    -0.237 OA
ATOM     94  O   UNL A   1      44.443  26.803  39.494  1.00  0.00    -0.744 OA
ENDBRANCH  87  91
ENDBRANCH  61  84
ENDBRANCH  35  36
ENDBRANCH  27  30
ENDBRANCH  25  26
ENDBRANCH  24  25
ENDBRANCH   1  24
TORSDOF 17
ENDMDL
MODEL 2
REMARK VINA RESULT:     -12.2      1.997      7.909
REMARK SMILES Cc1cc(N2C[C@H](C(=O)NCCCCCCNC(=O)c3ccc(-c4c5nc(c(-c6cc(S(=O)(=O)[O-])ccc6F)c6ccc([nH]6)c(-c6cc(S(=O)(=O)[O-])ccc6F)c6nc(c(-c7cc(S(=O)(=O)[O-])ccc7F)c7ccc4[nH]7)C=C6)C=C5)cc3)CC2=O)cc(C)c1Br
REMARK SMILES IDX 14 1 13 2 12 3 11 4 10 5 8 6 9 7 7 9 5 10 6 11 84 12 83 13
REMARK SMILES IDX 85 14 4 15 1 16 2 17 3 18 89 19 87 20 90 21 86 22 88 23
REMARK SMILES IDX 15 24 16 25 17 26 18 27 19 29 20 30 21 31 82 32 22 33 81 34
REMARK SMILES IDX 23 35 24 36 25 37 75 38 26 39 80 40 74 41 76 42 27 43 79 44
REMARK SMILES IDX 73 45 72 46 28 48 60 49 40 50 59 51 41 52 44 53 58 54 77 55
REMARK SMILES IDX 42 56 43 57 57 59 78 60 45 61 29 62 30 63 38 64 31 65 37 66
REMARK SMILES IDX 39 67 36 68 32 69 33 70 34 71 35 72 61 73 62 74 70 75 63 76
REMARK SMILES IDX 69 77 71 78 68 79 64 80 65 81 66 82 67 83 46 84 47 85 55 86
REMARK SMILES IDX 48 87 54 88 56 89 53 90 49 91 50 92 51 93 52 94
REMARK H PARENT 10 8 17 28 76 47 44 58
REMARK Flexibility Score: inf
ROOT
ATOM      1  C   UNL A   1      31.324  30.601  25.473  1.00  0.00     0.002 C 
ENDROOT
BRANCH   1   2
ATOM      2  C   UNL A   1      31.810  29.260  26.032  1.00  0.00     0.002 C 
BRANCH   2   3
ATOM      3  C   UNL A   1      33.127  28.749  25.441  1.00  0.00     0.021 C 
BRANCH   3   4
ATOM      4  C   UNL A   1      32.964  27.626  24.420  1.00  0.00     0.116 C 
BRANCH   4   5
ATOM      5  N   UNL A   1      32.036  27.982  23.364  1.00  0.00    -0.356 N 
ATOM      6  C   UNL A   1      30.857  27.444  22.966  1.00  0.00     0.225 C 
ATOM      7  O   UNL A   1      30.285  27.995  22.019  1.00  0.00    -0.275 OA
ATOM      8  H   UNL A   1      32.316  28.764  22.834  1.00  0.00     0.163 HD
BRANCH   6   9
ATOM      9  C   UNL A   1      30.247  26.187  23.570  1.00  0.00     0.107 C 
ATOM     10  N   UNL A   1      31.628  24.507  24.474  1.00  0.00    -0.312 N 
ATOM     11  C   UNL A   1      31.050  24.951  23.232  1.00  0.00     0.139 C 
ATOM     12  C   UNL A   1      30.995  25.095  25.577  1.00  0.00     0.227 C 
ATOM     13  C   UNL A   1      30.055  26.167  25.075  1.00  0.00     0.116 C 
ATOM     14  O   UNL A   1      31.185  24.898  26.766  1.00  0.00    -0.274 OA
BRANCH  10  15
ATOM     15  C   UNL A   1      32.734  23.617  24.542  1.00  0.00     0.044 A 
ATOM     16  C   UNL A   1      33.394  19.868  24.451  1.00  0.00     0.045 C 
ATOM     17  C   UNL A   1      33.653  21.345  24.597  1.00  0.00    -0.035 A 
ATOM     18  C   UNL A   1      32.563  22.231  24.486  1.00  0.00     0.031 A 
ATOM     19  C   UNL A   1      34.938  21.864  24.837  1.00  0.00     0.023 A 
ATOM     20  C   UNL A   1      35.131  23.252  24.937  1.00  0.00    -0.035 A 
ATOM     21  Br  UNL A   1      36.426  20.686  25.027  1.00  0.00    -0.050 Br
ATOM     22  C   UNL A   1      34.032  24.107  24.733  1.00  0.00     0.031 A 
ATOM     23  C   UNL A   1      36.462  23.865  25.283  1.00  0.00     0.045 C 
ENDBRANCH  10  15
ENDBRANCH   6   9
ENDBRANCH   4   5
ENDBRANCH   3   4
ENDBRANCH   2   3
ENDBRANCH   1   2
BRANCH   1  24
ATOM     24  C   UNL A   1      31.274  31.751  26.483  1.00  0.00     0.021 C 
BRANCH  24  25
ATOM     25  C   UNL A   1      32.638  32.266  26.929  1.00  0.00     0.116 C 
BRANCH  25  26
ATOM     26  N   UNL A   1      32.582  33.663  27.330  1.00  0.00    -0.352 N 
ATOM     27  C   UNL A   1      33.261  34.309  28.332  1.00  0.00     0.251 C 
ATOM     28  H   UNL A   1      31.968  34.226  26.807  1.00  0.00     0.163 HD
ATOM     29  O   UNL A   1      32.903  35.429  28.683  1.00  0.00    -0.269 OA
BRANCH  27  30
ATOM     30  C   UNL A   1      34.407  33.647  28.991  1.00  0.00     0.039 A 
ATOM     31  C   UNL A   1      34.165  32.742  30.028  1.00  0.00     0.014 A 
ATOM     32  C   UNL A   1      35.718  33.929  28.595  1.00  0.00     0.014 A 
ATOM     33  C   UNL A   1      35.236  32.078  30.629  1.00  0.00     0.010 A 
ATOM     34  C   UNL A   1      36.776  33.211  29.143  1.00  0.00     0.010 A 
ATOM     35  C   UNL A   1      36.548  32.283  30.171  1.00  0.00    -0.014 A 
BRANCH  35  36
ATOM     36  C   UNL A   1      37.698  31.552  30.766  1.00  0.00     0.031 A 
ATOM     37  C   UNL A   1      38.142  31.866  32.169  1.00  0.00     0.074 A 
ATOM     38  C   UNL A   1      38.371  30.646  30.028  1.00  0.00     0.049 A 
ATOM     39  N   UNL A   1      39.169  31.407  32.836  1.00  0.00    -0.248 NA
ATOM     40  C   UNL A   1      37.335  32.848  32.911  1.00  0.00     0.031 C 
ATOM     41  C   UNL A   1      38.048  30.271  28.649  1.00  0.00     0.029 A 
ATOM     42  N   UNL A   1      39.468  29.878  30.329  1.00  0.00    -0.354 N 
ATOM     43  C   UNL A   1      39.135  32.044  34.072  1.00  0.00     0.074 A 
ATOM     44  C   UNL A   1      38.026  32.973  34.033  1.00  0.00     0.031 C 
ATOM     45  C   UNL A   1      38.908  29.327  28.237  1.00  0.00     0.029 A 
ATOM     46  C   UNL A   1      39.878  29.067  29.297  1.00  0.00     0.049 A 
ATOM     47  H   UNL A   1      39.920  29.905  31.203  1.00  0.00     0.167 HD
ATOM     48  C   UNL A   1      39.936  31.851  35.150  1.00  0.00     0.034 A 
ATOM     49  C   UNL A   1      40.925  28.222  29.208  1.00  0.00     0.034 A 
ATOM     50  C   UNL A   1      41.037  30.919  35.173  1.00  0.00     0.049 A 
ATOM     51  C   UNL A   1      41.841  28.074  30.400  1.00  0.00     0.074 A 
ATOM     52  C   UNL A   1      41.899  30.628  36.216  1.00  0.00     0.029 A 
ATOM     53  N   UNL A   1      41.432  30.128  34.102  1.00  0.00    -0.354 N 
ATOM     54  N   UNL A   1      41.776  28.663  31.572  1.00  0.00    -0.248 NA
ATOM     55  C   UNL A   1      42.967  27.141  30.259  1.00  0.00     0.031 C 
ATOM     56  C   UNL A   1      42.854  29.717  35.757  1.00  0.00     0.029 A 
ATOM     57  C   UNL A   1      42.540  29.371  34.452  1.00  0.00     0.049 A 
ATOM     58  H   UNL A   1      40.990  30.108  33.221  1.00  0.00     0.167 HD
ATOM     59  C   UNL A   1      42.825  28.134  32.320  1.00  0.00     0.074 A 
ATOM     60  C   UNL A   1      43.498  27.172  31.471  1.00  0.00     0.031 C 
ATOM     61  C   UNL A   1      43.197  28.412  33.596  1.00  0.00     0.034 A 
BRANCH  48  62
ATOM     62  C   UNL A   1      39.656  32.679  36.381  1.00  0.00     0.023 A 
ATOM     63  C   UNL A   1      38.800  32.220  37.397  1.00  0.00     0.031 A 
ATOM     64  C   UNL A   1      40.239  33.950  36.538  1.00  0.00     0.131 A 
ATOM     65  C   UNL A   1      38.493  33.050  38.485  1.00  0.00     0.055 A 
ATOM     66  C   UNL A   1      39.997  34.737  37.666  1.00  0.00     0.041 A 
ATOM     67  F   UNL A   1      41.048  34.452  35.592  1.00  0.00    -0.206 F 
ATOM     68  C   UNL A   1      39.108  34.294  38.641  1.00  0.00     0.022 A 
BRANCH  65  69
ATOM     69  S   UNL A   1      37.172  32.540  39.618  1.00  0.00     0.124 S 
ATOM     70  O   UNL A   1      37.544  31.155  39.899  1.00  0.00    -0.237 OA
ATOM     71  O   UNL A   1      37.322  33.479  40.723  1.00  0.00    -0.237 OA
ATOM     72  O   UNL A   1      35.957  32.701  38.823  1.00  0.00    -0.744 OA
ENDBRANCH  65  69
ENDBRANCH  48  62
BRANCH  49  73
ATOM     73  C   UNL A   1      41.185  27.453  27.955  1.00  0.00     0.023 A 
ATOM     74  C   UNL A   1      40.920  26.076  27.888  1.00  0.00     0.031 A 
ATOM     75  C   UNL A   1      41.773  28.063  26.833  1.00  0.00     0.131 A 
ATOM     76  C   UNL A   1      41.302  25.342  26.755  1.00  0.00     0.055 A 
ATOM     77  C   UNL A   1      42.090  27.341  25.681  1.00  0.00     0.041 A 
ATOM     78  F   UNL A   1      42.050  29.377  26.840  1.00  0.00    -0.206 F 
ATOM     79  C   UNL A   1      41.871  25.968  25.644  1.00  0.00     0.022 A 
BRANCH  76  80
ATOM     80  S   UNL A   1      41.160  23.534  26.807  1.00  0.00     0.124 S 
ATOM     81  O   UNL A   1      42.167  23.130  25.832  1.00  0.00    -0.237 OA
ATOM     82  O   UNL A   1      41.465  23.246  28.204  1.00  0.00    -0.237 OA
ATOM     83  O   UNL A   1      39.774  23.292  26.410  1.00  0.00    -0.744 OA
ENDBRANCH  76  80
ENDBRANCH  49  73
BRANCH  61  84
ATOM     84  C   UNL A   1      44.345  27.614  34.170  1.00  0.00     0.023 A 
ATOM     85  C   UNL A   1      44.149  26.372  34.798  1.00  0.00     0.031 A 
ATOM     86  C   UNL A   1      45.657  28.115  34.089  1.00  0.00     0.131 A 
ATOM     87  C   UNL A   1      45.239  25.700  35.370  1.00  0.00     0.055 A 
ATOM     88  C   UNL A   1      46.746  27.410  34.602  1.00  0.00     0.041 A 
ATOM     89  F   UNL A   1      45.903  29.298  33.504  1.00  0.00    -0.206 F 
ATOM     90  C   UNL A   1      46.539  26.201  35.259  1.00  0.00     0.022 A 
BRANCH  87  91
ATOM     91  S   UNL A   1      44.925  24.204  36.348  1.00  0.00     0.124 S 
ATOM     92  O   UNL A   1      43.790  23.615  35.646  1.00  0.00    -0.237 OA
ATOM     93  O   UNL A   1      46.190  23.484  36.231  1.00  0.00    -0.237 OA
ATOM     94  O   UNL A   1      44.629  24.722  37.682  1.00  0.00    -0.744 OA
ENDBRANCH  87  91
ENDBRANCH  61  84
ENDBRANCH  35  36
ENDBRANCH  27  30
ENDBRANCH  25  26
ENDBRANCH  24  25
ENDBRANCH   1  24
TORSDOF 17
ENDMDL
MODEL 3
REMARK VINA RESULT:     -12.0      5.722     10.677
REMARK SMILES Cc1cc(N2C[C@H](C(=O)NCCCCCCNC(=O)c3ccc(-c4c5nc(c(-c6cc(S(=O)(=O)[O-])ccc6F)c6ccc([nH]6)c(-c6cc(S(=O)(=O)[O-])ccc6F)c6nc(c(-c7cc(S(=O)(=O)[O-])ccc7F)c7ccc4[nH]7)C=C6)C=C5)cc3)CC2=O)cc(C)c1Br
REMARK SMILES IDX 14 1 13 2 12 3 11 4 10 5 8 6 9 7 7 9 5 10 6 11 84 12 83 13
REMARK SMILES IDX 85 14 4 15 1 16 2 17 3 18 89 19 87 20 90 21 86 22 88 23
REMARK SMILES IDX 15 24 16 25 17 26 18 27 19 29 20 30 21 31 82 32 22 33 81 34
REMARK SMILES IDX 23 35 24 36 25 37 75 38 26 39 80 40 74 41 76 42 27 43 79 44
REMARK SMILES IDX 73 45 72 46 28 48 60 49 40 50 59 51 41 52 44 53 58 54 77 55
REMARK SMILES IDX 42 56 43 57 57 59 78 60 45 61 29 62 30 63 38 64 31 65 37 66
REMARK SMILES IDX 39 67 36 68 32 69 33 70 34 71 35 72 61 73 62 74 70 75 63 76
REMARK SMILES IDX 69 77 71 78 68 79 64 80 65 81 66 82 67 83 46 84 47 85 55 86
REMARK SMILES IDX 48 87 54 88 56 89 53 90 49 91 50 92 51 93 52 94
REMARK H PARENT 10 8 17 28 76 47 44 58
REMARK Flexibility Score: inf
ROOT
ATOM      1  C   UNL A   1      35.095  23.193  23.083  1.00  0.00     0.002 C 
ENDROOT
BRANCH   1   2
ATOM      2  C   UNL A   1      34.752  24.571  23.659  1.00  0.00     0.002 C 
BRANCH   2   3
ATOM      3  C   UNL A   1      33.720  25.371  22.859  1.00  0.00     0.021 C 
BRANCH   3   4
ATOM      4  C   UNL A   1      33.295  26.682  23.516  1.00  0.00     0.116 C 
BRANCH   4   5
ATOM      5  N   UNL A   1      32.304  27.388  22.727  1.00  0.00    -0.356 N 
ATOM      6  C   UNL A   1      30.955  27.486  22.833  1.00  0.00     0.225 C 
ATOM      7  O   UNL A   1      30.381  28.189  21.995  1.00  0.00    -0.275 OA
ATOM      8  H   UNL A   1      32.681  27.892  21.971  1.00  0.00     0.163 HD
BRANCH   6   9
ATOM      9  C   UNL A   1      30.126  26.739  23.868  1.00  0.00     0.107 C 
ATOM     10  N   UNL A   1      30.928  24.743  24.827  1.00  0.00    -0.312 N 
ATOM     11  C   UNL A   1      30.207  25.241  23.683  1.00  0.00     0.139 C 
ATOM     12  C   UNL A   1      30.981  25.692  25.856  1.00  0.00     0.227 C 
ATOM     13  C   UNL A   1      30.443  27.002  25.328  1.00  0.00     0.116 C 
ATOM     14  O   UNL A   1      31.451  25.583  26.976  1.00  0.00    -0.274 OA
BRANCH  10  15
ATOM     15  C   UNL A   1      31.540  23.461  24.862  1.00  0.00     0.044 A 
ATOM     16  C   UNL A   1      33.653  21.367  27.240  1.00  0.00     0.045 C 
ATOM     17  C   UNL A   1      32.931  21.783  25.984  1.00  0.00    -0.035 A 
ATOM     18  C   UNL A   1      32.286  23.035  25.964  1.00  0.00     0.031 A 
ATOM     19  C   UNL A   1      32.879  20.966  24.841  1.00  0.00     0.023 A 
ATOM     20  C   UNL A   1      32.168  21.387  23.704  1.00  0.00    -0.035 A 
ATOM     21  Br  UNL A   1      33.772  19.280  24.827  1.00  0.00    -0.050 Br
ATOM     22  C   UNL A   1      31.465  22.605  23.755  1.00  0.00     0.031 A 
ATOM     23  C   UNL A   1      32.150  20.603  22.419  1.00  0.00     0.045 C 
ENDBRANCH  10  15
ENDBRANCH   6   9
ENDBRANCH   4   5
ENDBRANCH   3   4
ENDBRANCH   2   3
ENDBRANCH   1   2
BRANCH   1  24
ATOM     24  C   UNL A   1      36.410  22.585  23.580  1.00  0.00     0.021 C 
BRANCH  24  25
ATOM     25  C   UNL A   1      36.455  22.302  25.078  1.00  0.00     0.116 C 
BRANCH  25  26
ATOM     26  N   UNL A   1      37.297  21.156  25.384  1.00  0.00    -0.352 N 
ATOM     27  C   UNL A   1      38.610  21.122  25.781  1.00  0.00     0.251 C 
ATOM     28  H   UNL A   1      36.862  20.278  25.293  1.00  0.00     0.163 HD
ATOM     29  O   UNL A   1      39.225  20.061  25.754  1.00  0.00    -0.269 OA
BRANCH  27  30
ATOM     30  C   UNL A   1      39.277  22.365  26.224  1.00  0.00     0.039 A 
ATOM     31  C   UNL A   1      40.373  22.278  27.086  1.00  0.00     0.014 A 
ATOM     32  C   UNL A   1      38.812  23.614  25.801  1.00  0.00     0.014 A 
ATOM     33  C   UNL A   1      41.038  23.442  27.478  1.00  0.00     0.010 A 
ATOM     34  C   UNL A   1      39.521  24.764  26.132  1.00  0.00     0.010 A 
ATOM     35  C   UNL A   1      40.637  24.693  26.979  1.00  0.00    -0.014 A 
BRANCH  35  36
ATOM     36  C   UNL A   1      41.359  25.940  27.346  1.00  0.00     0.031 A 
ATOM     37  C   UNL A   1      40.670  26.989  28.176  1.00  0.00     0.074 A 
ATOM     38  C   UNL A   1      42.611  26.148  26.892  1.00  0.00     0.049 A 
ATOM     39  N   UNL A   1      41.092  28.176  28.529  1.00  0.00    -0.248 NA
ATOM     40  C   UNL A   1      39.315  26.667  28.652  1.00  0.00     0.031 C 
ATOM     41  C   UNL A   1      43.376  25.214  26.063  1.00  0.00     0.029 A 
ATOM     42  N   UNL A   1      43.462  27.213  27.058  1.00  0.00    -0.354 N 
ATOM     43  C   UNL A   1      40.055  28.744  29.263  1.00  0.00     0.074 A 
ATOM     44  C   UNL A   1      38.961  27.797  29.243  1.00  0.00     0.031 C 
ATOM     45  C   UNL A   1      44.589  25.734  25.819  1.00  0.00     0.029 A 
ATOM     46  C   UNL A   1      44.673  27.060  26.423  1.00  0.00     0.049 A 
ATOM     47  H   UNL A   1      43.227  28.012  27.583  1.00  0.00     0.167 HD
ATOM     48  C   UNL A   1      40.030  29.932  29.917  1.00  0.00     0.034 A 
ATOM     49  C   UNL A   1      45.724  27.899  26.326  1.00  0.00     0.034 A 
ATOM     50  C   UNL A   1      41.131  30.864  29.928  1.00  0.00     0.049 A 
ATOM     51  C   UNL A   1      45.644  29.244  27.009  1.00  0.00     0.074 A 
ATOM     52  C   UNL A   1      41.221  32.085  30.574  1.00  0.00     0.029 A 
ATOM     53  N   UNL A   1      42.334  30.682  29.259  1.00  0.00    -0.354 N 
ATOM     54  N   UNL A   1      44.668  29.752  27.724  1.00  0.00    -0.248 NA
ATOM     55  C   UNL A   1      46.814  30.123  26.878  1.00  0.00     0.031 C 
ATOM     56  C   UNL A   1      42.446  32.670  30.241  1.00  0.00     0.029 A 
ATOM     57  C   UNL A   1      43.159  31.779  29.456  1.00  0.00     0.049 A 
ATOM     58  H   UNL A   1      42.568  29.890  28.722  1.00  0.00     0.167 HD
ATOM     59  C   UNL A   1      45.127  30.992  28.165  1.00  0.00     0.074 A 
ATOM     60  C   UNL A   1      46.470  31.146  27.645  1.00  0.00     0.031 C 
ATOM     61  C   UNL A   1      44.499  31.917  28.935  1.00  0.00     0.034 A 
BRANCH  48  62
ATOM     62  C   UNL A   1      38.763  30.292  30.656  1.00  0.00     0.023 A 
ATOM     63  C   UNL A   1      37.742  31.039  30.043  1.00  0.00     0.031 A 
ATOM     64  C   UNL A   1      38.576  29.897  31.993  1.00  0.00     0.131 A 
ATOM     65  C   UNL A   1      36.617  31.430  30.784  1.00  0.00     0.055 A 
ATOM     66  C   UNL A   1      37.415  30.216  32.700  1.00  0.00     0.041 A 
ATOM     67  F   UNL A   1      39.525  29.201  32.640  1.00  0.00    -0.206 F 
ATOM     68  C   UNL A   1      36.433  31.000  32.100  1.00  0.00     0.022 A 
BRANCH  65  69
ATOM     69  S   UNL A   1      35.469  32.625  30.048  1.00  0.00     0.124 S 
ATOM     70  O   UNL A   1      36.305  33.820  29.957  1.00  0.00    -0.237 OA
ATOM     71  O   UNL A   1      35.120  31.991  28.782  1.00  0.00    -0.237 OA
ATOM     72  O   UNL A   1      34.385  32.705  31.025  1.00  0.00    -0.744 OA
ENDBRANCH  65  69
ENDBRANCH  48  62
BRANCH  49  73
ATOM     73  C   UNL A   1      46.941  27.516  25.550  1.00  0.00     0.023 A 
ATOM     74  C   UNL A   1      47.109  27.937  24.221  1.00  0.00     0.031 A 
ATOM     75  C   UNL A   1      47.915  26.662  26.096  1.00  0.00     0.131 A 
ATOM     76  C   UNL A   1      48.184  27.451  23.462  1.00  0.00     0.055 A 
ATOM     77  C   UNL A   1      49.021  26.235  25.357  1.00  0.00     0.041 A 
ATOM     78  F   UNL A   1      47.807  26.227  27.362  1.00  0.00    -0.206 F 
ATOM     79  C   UNL A   1      49.150  26.616  24.026  1.00  0.00     0.022 A 
BRANCH  76  80
ATOM     80  S   UNL A   1      48.230  27.828  21.688  1.00  0.00     0.124 S 
ATOM     81  O   UNL A   1      46.908  28.407  21.474  1.00  0.00    -0.237 OA
ATOM     82  O   UNL A   1      49.357  28.751  21.604  1.00  0.00    -0.237 OA
ATOM     83  O   UNL A   1      48.447  26.522  21.070  1.00  0.00    -0.744 OA
ENDBRANCH  76  80
ENDBRANCH  49  73
BRANCH  61  84
ATOM     84  C   UNL A   1      45.288  33.148  29.316  1.00  0.00     0.023 A 
ATOM     85  C   UNL A   1      45.268  34.317  28.536  1.00  0.00     0.031 A 
ATOM     86  C   UNL A   1      46.077  33.142  30.480  1.00  0.00     0.131 A 
ATOM     87  C   UNL A   1      46.068  35.412  28.900  1.00  0.00     0.055 A 
ATOM     88  C   UNL A   1      46.818  34.257  30.872  1.00  0.00     0.041 A 
ATOM     89  F   UNL A   1      46.136  32.051  31.261  1.00  0.00    -0.206 F 
ATOM     90  C   UNL A   1      46.827  35.396  30.073  1.00  0.00     0.022 A 
BRANCH  87  91
ATOM     91  S   UNL A   1      46.178  36.825  27.767  1.00  0.00     0.124 S 
ATOM     92  O   UNL A   1      46.816  36.228  26.598  1.00  0.00    -0.237 OA
ATOM     93  O   UNL A   1      44.777  37.204  27.604  1.00  0.00    -0.237 OA
ATOM     94  O   UNL A   1      46.998  37.788  28.498  1.00  0.00    -0.744 OA
ENDBRANCH  87  91
ENDBRANCH  61  84
ENDBRANCH  35  36
ENDBRANCH  27  30
ENDBRANCH  25  26
ENDBRANCH  24  25
ENDBRANCH   1  24
TORSDOF 17
ENDMDL
