MODEL 1
REMARK VINA RESULT:     -10.7      0.000      0.000
REMARK SMILES CCOc1cc(OCC)cc(-c2ccc([C@@H](C)C(=O)NCCCCCCNC(=O)c3ccc(-c4c5nc(c(-c6cc(S(=O)(=O)[O-])ccc6F)c6ccc([nH]6)c(-c6cc(S(=O)(=O)[O-])ccc6F)c6nc(c(-c7cc(S(=O)(=O)[O-])ccc7F)c7ccc4[nH]7)C=C6)C=C5)cc3)cc2)c1
REMARK SMILES IDX 23 1 22 2 21 3 20 4 18 5 19 6 16 8 17 9 15 10 12 11 13 12
REMARK SMILES IDX 94 13 14 14 93 15 11 16 4 17 5 18 95 19 6 20 10 21 3 22 2 23
REMARK SMILES IDX 1 24 7 25 8 26 9 27 24 28 25 29 26 30 27 31 28 32 29 34
REMARK SMILES IDX 30 35 31 36 92 37 32 38 91 39 33 40 34 41 35 42 85 43 36 44
REMARK SMILES IDX 90 45 84 46 86 47 37 48 89 49 83 50 82 51 38 53 70 54 50 55
REMARK SMILES IDX 69 56 51 57 54 58 68 59 87 60 52 61 53 62 67 64 88 65 55 66
REMARK SMILES IDX 39 67 40 68 48 69 41 70 47 71 49 72 46 73 42 74 43 75 44 76
REMARK SMILES IDX 45 77 71 78 72 79 80 80 73 81 79 82 81 83 78 84 74 85 75 86
REMARK SMILES IDX 76 87 77 88 56 89 57 90 65 91 58 92 64 93 66 94 63 95 59 96
REMARK SMILES IDX 60 97 61 98 62 99
REMARK H PARENT 20 7 27 33 86 52 54 63
REMARK Flexibility Score: inf
ROOT
ATOM      1  C   UNL A   1      33.879  27.787  23.900  1.00  0.00     0.002 C 
ENDROOT
BRANCH   1   2
ATOM      2  C   UNL A   1      33.773  28.593  22.600  1.00  0.00     0.021 C 
BRANCH   2   3
ATOM      3  C   UNL A   1      32.354  28.660  22.029  1.00  0.00     0.116 C 
BRANCH   3   4
ATOM      4  N   UNL A   1      31.491  29.506  22.826  1.00  0.00    -0.356 N 
ATOM      5  C   UNL A   1      30.211  29.346  23.259  1.00  0.00     0.227 C 
ATOM      6  O   UNL A   1      29.715  30.298  23.875  1.00  0.00    -0.274 OA
ATOM      7  H   UNL A   1      31.908  30.354  23.107  1.00  0.00     0.163 HD
BRANCH   5   8
ATOM      8  C   UNL A   1      29.384  28.069  23.036  1.00  0.00     0.105 C 
ATOM      9  C   UNL A   1      27.891  28.232  23.318  1.00  0.00     0.023 C 
BRANCH   8  10
ATOM     10  C   UNL A   1      30.034  26.826  23.617  1.00  0.00    -0.036 A 
ATOM     11  C   UNL A   1      31.431  24.538  24.586  1.00  0.00    -0.018 A 
ATOM     12  C   UNL A   1      31.164  25.644  25.408  1.00  0.00     0.009 A 
ATOM     13  C   UNL A   1      30.946  24.586  23.273  1.00  0.00     0.009 A 
ATOM     14  C   UNL A   1      30.445  26.745  24.947  1.00  0.00     0.005 A 
ATOM     15  C   UNL A   1      30.278  25.718  22.789  1.00  0.00     0.005 A 
BRANCH  11  16
ATOM     16  C   UNL A   1      32.228  23.407  25.102  1.00  0.00    -0.011 A 
ATOM     17  C   UNL A   1      32.619  21.019  25.352  1.00  0.00     0.123 A 
ATOM     18  C   UNL A   1      33.879  21.265  25.896  1.00  0.00     0.092 A 
ATOM     19  C   UNL A   1      31.796  22.081  24.976  1.00  0.00     0.055 A 
ATOM     20  C   UNL A   1      34.322  22.577  26.069  1.00  0.00     0.123 A 
ATOM     21  C   UNL A   1      33.486  23.628  25.690  1.00  0.00     0.055 A 
BRANCH  17  22
ATOM     22  O   UNL A   1      32.168  19.728  25.304  1.00  0.00    -0.494 OA
BRANCH  22  23
ATOM     23  C   UNL A   1      32.905  18.888  24.406  1.00  0.00     0.226 C 
ATOM     24  C   UNL A   1      32.307  18.876  23.007  1.00  0.00     0.049 C 
ENDBRANCH  22  23
ENDBRANCH  17  22
BRANCH  20  25
ATOM     25  O   UNL A   1      35.584  22.722  26.579  1.00  0.00    -0.494 OA
BRANCH  25  26
ATOM     26  C   UNL A   1      36.698  22.524  25.701  1.00  0.00     0.226 C 
ATOM     27  C   UNL A   1      37.859  23.454  26.027  1.00  0.00     0.049 C 
ENDBRANCH  25  26
ENDBRANCH  20  25
ENDBRANCH  11  16
ENDBRANCH   8  10
ENDBRANCH   5   8
ENDBRANCH   3   4
ENDBRANCH   2   3
ENDBRANCH   1   2
BRANCH   1  28
ATOM     28  C   UNL A   1      33.919  28.625  25.183  1.00  0.00     0.002 C 
BRANCH  28  29
ATOM     29  C   UNL A   1      33.738  27.841  26.488  1.00  0.00     0.021 C 
BRANCH  29  30
ATOM     30  C   UNL A   1      33.132  28.645  27.635  1.00  0.00     0.116 C 
BRANCH  30  31
ATOM     31  N   UNL A   1      33.308  30.074  27.437  1.00  0.00    -0.352 N 
ATOM     32  C   UNL A   1      34.327  30.897  27.849  1.00  0.00     0.251 C 
ATOM     33  H   UNL A   1      32.589  30.519  26.932  1.00  0.00     0.163 HD
ATOM     34  O   UNL A   1      34.166  32.113  27.822  1.00  0.00    -0.269 OA
BRANCH  32  35
ATOM     35  C   UNL A   1      35.605  30.323  28.324  1.00  0.00     0.039 A 
ATOM     36  C   UNL A   1      35.676  29.811  29.623  1.00  0.00     0.014 A 
ATOM     37  C   UNL A   1      36.746  30.336  27.516  1.00  0.00     0.014 A 
ATOM     38  C   UNL A   1      36.880  29.284  30.098  1.00  0.00     0.010 A 
ATOM     39  C   UNL A   1      37.924  29.746  27.964  1.00  0.00     0.010 A 
ATOM     40  C   UNL A   1      38.010  29.232  29.267  1.00  0.00    -0.014 A 
BRANCH  40  41
ATOM     41  C   UNL A   1      39.303  28.691  29.763  1.00  0.00     0.031 A 
ATOM     42  C   UNL A   1      39.964  29.315  30.965  1.00  0.00     0.074 A 
ATOM     43  C   UNL A   1      39.901  27.675  29.110  1.00  0.00     0.049 A 
ATOM     44  N   UNL A   1      41.118  29.036  31.515  1.00  0.00    -0.248 NA
ATOM     45  C   UNL A   1      39.243  30.421  31.610  1.00  0.00     0.031 C 
ATOM     46  C   UNL A   1      39.376  27.015  27.914  1.00  0.00     0.029 A 
ATOM     47  N   UNL A   1      41.082  27.024  29.357  1.00  0.00    -0.354 N 
ATOM     48  C   UNL A   1      41.267  29.942  32.562  1.00  0.00     0.074 A 
ATOM     49  C   UNL A   1      40.117  30.819  32.522  1.00  0.00     0.031 C 
ATOM     50  C   UNL A   1      40.218  26.036  27.546  1.00  0.00     0.029 A 
ATOM     51  C   UNL A   1      41.362  26.024  28.453  1.00  0.00     0.049 A 
ATOM     52  H   UNL A   1      41.675  27.249  30.110  1.00  0.00     0.167 HD
ATOM     53  C   UNL A   1      42.258  30.018  33.486  1.00  0.00     0.034 A 
ATOM     54  C   UNL A   1      42.422  25.197  28.364  1.00  0.00     0.034 A 
ATOM     55  C   UNL A   1      43.391  29.124  33.519  1.00  0.00     0.049 A 
ATOM     56  C   UNL A   1      43.514  25.302  29.399  1.00  0.00     0.074 A 
ATOM     57  C   UNL A   1      44.433  29.082  34.429  1.00  0.00     0.029 A 
ATOM     58  N   UNL A   1      43.631  28.112  32.597  1.00  0.00    -0.354 N 
ATOM     59  N   UNL A   1      43.621  26.137  30.407  1.00  0.00    -0.248 NA
ATOM     60  C   UNL A   1      44.616  24.339  29.294  1.00  0.00     0.031 C 
ATOM     61  C   UNL A   1      45.332  28.090  34.023  1.00  0.00     0.029 A 
ATOM     62  C   UNL A   1      44.815  27.456  32.905  1.00  0.00     0.049 A 
ATOM     63  H   UNL A   1      43.048  27.892  31.836  1.00  0.00     0.167 HD
ATOM     64  C   UNL A   1      44.786  25.774  31.078  1.00  0.00     0.074 A 
ATOM     65  C   UNL A   1      45.332  24.635  30.369  1.00  0.00     0.031 C 
ATOM     66  C   UNL A   1      45.351  26.326  32.182  1.00  0.00     0.034 A 
BRANCH  53  67
ATOM     67  C   UNL A   1      42.164  31.123  34.514  1.00  0.00     0.023 A 
ATOM     68  C   UNL A   1      42.726  32.392  34.289  1.00  0.00     0.031 A 
ATOM     69  C   UNL A   1      41.539  30.894  35.753  1.00  0.00     0.131 A 
ATOM     70  C   UNL A   1      42.730  33.351  35.313  1.00  0.00     0.055 A 
ATOM     71  C   UNL A   1      41.467  31.884  36.737  1.00  0.00     0.041 A 
ATOM     72  F   UNL A   1      41.001  29.697  36.038  1.00  0.00    -0.206 F 
ATOM     73  C   UNL A   1      42.081  33.115  36.526  1.00  0.00     0.022 A 
BRANCH  70  74
ATOM     74  S   UNL A   1      43.730  34.848  35.094  1.00  0.00     0.124 S 
ATOM     75  O   UNL A   1      44.889  34.552  35.932  1.00  0.00    -0.237 OA
ATOM     76  O   UNL A   1      43.969  34.861  33.655  1.00  0.00    -0.237 OA
ATOM     77  O   UNL A   1      42.866  35.916  35.593  1.00  0.00    -0.744 OA
ENDBRANCH  70  74
ENDBRANCH  53  67
BRANCH  54  78
ATOM     78  C   UNL A   1      42.510  24.195  27.262  1.00  0.00     0.023 A 
ATOM     79  C   UNL A   1      41.894  22.939  27.376  1.00  0.00     0.031 A 
ATOM     80  C   UNL A   1      43.250  24.463  26.097  1.00  0.00     0.131 A 
ATOM     81  C   UNL A   1      42.071  21.978  26.369  1.00  0.00     0.055 A 
ATOM     82  C   UNL A   1      43.380  23.523  25.074  1.00  0.00     0.041 A 
ATOM     83  F   UNL A   1      43.854  25.651  25.934  1.00  0.00    -0.206 F 
ATOM     84  C   UNL A   1      42.799  22.266  25.213  1.00  0.00     0.022 A 
BRANCH  81  85
ATOM     85  S   UNL A   1      41.407  20.311  26.633  1.00  0.00     0.124 S 
ATOM     86  O   UNL A   1      42.145  19.881  27.814  1.00  0.00    -0.237 OA
ATOM     87  O   UNL A   1      39.986  20.579  26.826  1.00  0.00    -0.237 OA
ATOM     88  O   UNL A   1      41.745  19.611  25.395  1.00  0.00    -0.744 OA
ENDBRANCH  81  85
ENDBRANCH  54  78
BRANCH  66  89
ATOM     89  C   UNL A   1      46.599  25.662  32.715  1.00  0.00     0.023 A 
ATOM     90  C   UNL A   1      46.545  24.665  33.705  1.00  0.00     0.031 A 
ATOM     91  C   UNL A   1      47.864  26.059  32.247  1.00  0.00     0.131 A 
ATOM     92  C   UNL A   1      47.733  24.152  34.246  1.00  0.00     0.055 A 
ATOM     93  C   UNL A   1      49.042  25.495  32.740  1.00  0.00     0.041 A 
ATOM     94  F   UNL A   1      47.977  27.007  31.303  1.00  0.00    -0.206 F 
ATOM     95  C   UNL A   1      48.981  24.549  33.759  1.00  0.00     0.022 A 
BRANCH  92  96
ATOM     96  S   UNL A   1      47.630  23.048  35.683  1.00  0.00     0.124 S 
ATOM     97  O   UNL A   1      46.869  21.924  35.147  1.00  0.00    -0.237 OA
ATOM     98  O   UNL A   1      49.035  22.784  35.974  1.00  0.00    -0.237 OA
ATOM     99  O   UNL A   1      46.929  23.850  36.683  1.00  0.00    -0.744 OA
ENDBRANCH  92  96
ENDBRANCH  66  89
ENDBRANCH  40  41
ENDBRANCH  32  35
ENDBRANCH  30  31
ENDBRANCH  29  30
ENDBRANCH  28  29
ENDBRANCH   1  28
TORSDOF 22
ENDMDL
MODEL 2
REMARK VINA RESULT:     -10.4      1.375      2.302
REMARK SMILES CCOc1cc(OCC)cc(-c2ccc([C@@H](C)C(=O)NCCCCCCNC(=O)c3ccc(-c4c5nc(c(-c6cc(S(=O)(=O)[O-])ccc6F)c6ccc([nH]6)c(-c6cc(S(=O)(=O)[O-])ccc6F)c6nc(c(-c7cc(S(=O)(=O)[O-])ccc7F)c7ccc4[nH]7)C=C6)C=C5)cc3)cc2)c1
REMARK SMILES IDX 23 1 22 2 21 3 20 4 18 5 19 6 16 8 17 9 15 10 12 11 13 12
REMARK SMILES IDX 94 13 14 14 93 15 11 16 4 17 5 18 95 19 6 20 10 21 3 22 2 23
REMARK SMILES IDX 1 24 7 25 8 26 9 27 24 28 25 29 26 30 27 31 28 32 29 34
REMARK SMILES IDX 30 35 31 36 92 37 32 38 91 39 33 40 34 41 35 42 85 43 36 44
REMARK SMILES IDX 90 45 84 46 86 47 37 48 89 49 83 50 82 51 38 53 70 54 50 55
REMARK SMILES IDX 69 56 51 57 54 58 68 59 87 60 52 61 53 62 67 64 88 65 55 66
REMARK SMILES IDX 39 67 40 68 48 69 41 70 47 71 49 72 46 73 42 74 43 75 44 76
REMARK SMILES IDX 45 77 71 78 72 79 80 80 73 81 79 82 81 83 78 84 74 85 75 86
REMARK SMILES IDX 76 87 77 88 56 89 57 90 65 91 58 92 64 93 66 94 63 95 59 96
REMARK SMILES IDX 60 97 61 98 62 99
REMARK H PARENT 20 7 27 33 86 52 54 63
REMARK Flexibility Score: inf
ROOT
ATOM      1  C   UNL A   1      34.071  27.882  23.910  1.00  0.00     0.002 C 
ENDROOT
BRANCH   1   2
ATOM      2  C   UNL A   1      34.007  28.677  22.601  1.00  0.00     0.021 C 
BRANCH   2   3
ATOM      3  C   UNL A   1      32.619  28.696  21.956  1.00  0.00     0.116 C 
BRANCH   3   4
ATOM      4  N   UNL A   1      31.630  29.303  22.823  1.00  0.00    -0.356 N 
ATOM      5  C   UNL A   1      30.439  28.848  23.299  1.00  0.00     0.227 C 
ATOM      6  O   UNL A   1      29.776  29.646  23.974  1.00  0.00    -0.274 OA
ATOM      7  H   UNL A   1      31.863  30.212  23.123  1.00  0.00     0.163 HD
BRANCH   5   8
ATOM      8  C   UNL A   1      29.905  27.427  23.056  1.00  0.00     0.105 C 
ATOM      9  C   UNL A   1      28.505  27.180  23.617  1.00  0.00     0.023 C 
BRANCH   8  10
ATOM     10  C   UNL A   1      30.931  26.345  23.339  1.00  0.00    -0.036 A 
ATOM     11  C   UNL A   1      32.692  24.186  23.939  1.00  0.00    -0.018 A 
ATOM     12  C   UNL A   1      32.427  24.577  22.618  1.00  0.00     0.009 A 
ATOM     13  C   UNL A   1      32.085  24.929  24.960  1.00  0.00     0.009 A 
ATOM     14  C   UNL A   1      31.599  25.659  22.324  1.00  0.00     0.005 A 
ATOM     15  C   UNL A   1      31.203  25.976  24.666  1.00  0.00     0.005 A 
BRANCH  11  16
ATOM     16  C   UNL A   1      33.547  23.012  24.206  1.00  0.00    -0.011 A 
ATOM     17  C   UNL A   1      35.740  21.983  24.430  1.00  0.00     0.123 A 
ATOM     18  C   UNL A   1      35.162  20.822  24.942  1.00  0.00     0.092 A 
ATOM     19  C   UNL A   1      34.937  23.059  24.049  1.00  0.00     0.055 A 
ATOM     20  C   UNL A   1      33.776  20.731  25.075  1.00  0.00     0.123 A 
ATOM     21  C   UNL A   1      32.987  21.815  24.688  1.00  0.00     0.055 A 
BRANCH  17  22
ATOM     22  O   UNL A   1      37.089  21.997  24.203  1.00  0.00    -0.494 OA
BRANCH  22  23
ATOM     23  C   UNL A   1      37.879  22.034  25.399  1.00  0.00     0.226 C 
ATOM     24  C   UNL A   1      37.941  23.429  26.004  1.00  0.00     0.049 C 
ENDBRANCH  22  23
ENDBRANCH  17  22
BRANCH  20  25
ATOM     25  O   UNL A   1      33.301  19.567  25.617  1.00  0.00    -0.494 OA
BRANCH  25  26
ATOM     26  C   UNL A   1      32.607  18.653  24.760  1.00  0.00     0.226 C 
ATOM     27  C   UNL A   1      33.530  18.013  23.734  1.00  0.00     0.049 C 
ENDBRANCH  25  26
ENDBRANCH  20  25
ENDBRANCH  11  16
ENDBRANCH   8  10
ENDBRANCH   5   8
ENDBRANCH   3   4
ENDBRANCH   2   3
ENDBRANCH   1   2
BRANCH   1  28
ATOM     28  C   UNL A   1      33.996  28.726  25.188  1.00  0.00     0.002 C 
BRANCH  28  29
ATOM     29  C   UNL A   1      33.895  27.933  26.496  1.00  0.00     0.021 C 
BRANCH  29  30
ATOM     30  C   UNL A   1      33.225  28.683  27.644  1.00  0.00     0.116 C 
BRANCH  30  31
ATOM     31  N   UNL A   1      33.358  30.122  27.492  1.00  0.00    -0.352 N 
ATOM     32  C   UNL A   1      34.359  30.960  27.918  1.00  0.00     0.251 C 
ATOM     33  H   UNL A   1      32.619  30.562  27.012  1.00  0.00     0.163 HD
ATOM     34  O   UNL A   1      34.164  32.171  27.935  1.00  0.00    -0.269 OA
BRANCH  32  35
ATOM     35  C   UNL A   1      35.659  30.407  28.357  1.00  0.00     0.039 A 
ATOM     36  C   UNL A   1      35.750  29.809  29.617  1.00  0.00     0.014 A 
ATOM     37  C   UNL A   1      36.799  30.523  27.555  1.00  0.00     0.014 A 
ATOM     38  C   UNL A   1      36.974  29.300  30.058  1.00  0.00     0.010 A 
ATOM     39  C   UNL A   1      38.000  29.951  27.965  1.00  0.00     0.010 A 
ATOM     40  C   UNL A   1      38.107  29.353  29.230  1.00  0.00    -0.014 A 
BRANCH  40  41
ATOM     41  C   UNL A   1      39.420  28.832  29.691  1.00  0.00     0.031 A 
ATOM     42  C   UNL A   1      40.154  29.532  30.805  1.00  0.00     0.074 A 
ATOM     43  C   UNL A   1      39.972  27.764  29.082  1.00  0.00     0.049 A 
ATOM     44  N   UNL A   1      41.335  29.279  31.310  1.00  0.00    -0.248 NA
ATOM     45  C   UNL A   1      39.480  30.692  31.407  1.00  0.00     0.031 C 
ATOM     46  C   UNL A   1      39.374  27.025  27.968  1.00  0.00     0.029 A 
ATOM     47  N   UNL A   1      41.159  27.116  29.309  1.00  0.00    -0.354 N 
ATOM     48  C   UNL A   1      41.551  30.256  32.278  1.00  0.00     0.074 A 
ATOM     49  C   UNL A   1      40.409  31.144  32.237  1.00  0.00     0.031 C 
ATOM     50  C   UNL A   1      40.184  26.011  27.627  1.00  0.00     0.029 A 
ATOM     51  C   UNL A   1      41.377  26.050  28.467  1.00  0.00     0.049 A 
ATOM     52  H   UNL A   1      41.795  27.388  30.010  1.00  0.00     0.167 HD
ATOM     53  C   UNL A   1      42.593  30.386  33.137  1.00  0.00     0.034 A 
ATOM     54  C   UNL A   1      42.423  25.205  28.380  1.00  0.00     0.034 A 
ATOM     55  C   UNL A   1      43.718  29.482  33.172  1.00  0.00     0.049 A 
ATOM     56  C   UNL A   1      43.573  25.370  29.343  1.00  0.00     0.074 A 
ATOM     57  C   UNL A   1      44.809  29.492  34.024  1.00  0.00     0.029 A 
ATOM     58  N   UNL A   1      43.896  28.403  32.315  1.00  0.00    -0.354 N 
ATOM     59  N   UNL A   1      43.745  26.275  30.279  1.00  0.00    -0.248 NA
ATOM     60  C   UNL A   1      44.659  24.388  29.247  1.00  0.00     0.031 C 
ATOM     61  C   UNL A   1      45.675  28.462  33.642  1.00  0.00     0.029 A 
ATOM     62  C   UNL A   1      45.089  27.756  32.603  1.00  0.00     0.049 A 
ATOM     63  H   UNL A   1      43.269  28.136  31.605  1.00  0.00     0.167 HD
ATOM     64  C   UNL A   1      44.942  25.946  30.909  1.00  0.00     0.074 A 
ATOM     65  C   UNL A   1      45.437  24.751  30.256  1.00  0.00     0.031 C 
ATOM     66  C   UNL A   1      45.574  26.569  31.937  1.00  0.00     0.034 A 
BRANCH  53  67
ATOM     67  C   UNL A   1      42.567  31.564  34.085  1.00  0.00     0.023 A 
ATOM     68  C   UNL A   1      41.759  31.569  35.236  1.00  0.00     0.031 A 
ATOM     69  C   UNL A   1      43.328  32.716  33.814  1.00  0.00     0.131 A 
ATOM     70  C   UNL A   1      41.664  32.726  36.023  1.00  0.00     0.055 A 
ATOM     71  C   UNL A   1      43.297  33.833  34.651  1.00  0.00     0.041 A 
ATOM     72  F   UNL A   1      44.103  32.782  32.720  1.00  0.00    -0.206 F 
ATOM     73  C   UNL A   1      42.448  33.850  35.754  1.00  0.00     0.022 A 
BRANCH  70  74
ATOM     74  S   UNL A   1      40.386  32.797  37.308  1.00  0.00     0.124 S 
ATOM     75  O   UNL A   1      41.063  32.156  38.432  1.00  0.00    -0.237 OA
ATOM     76  O   UNL A   1      40.148  34.230  37.438  1.00  0.00    -0.237 OA
ATOM     77  O   UNL A   1      39.281  32.030  36.736  1.00  0.00    -0.744 OA
ENDBRANCH  70  74
ENDBRANCH  53  67
BRANCH  54  78
ATOM     78  C   UNL A   1      42.441  24.125  27.352  1.00  0.00     0.023 A 
ATOM     79  C   UNL A   1      41.854  22.875  27.606  1.00  0.00     0.031 A 
ATOM     80  C   UNL A   1      43.083  24.311  26.115  1.00  0.00     0.131 A 
ATOM     81  C   UNL A   1      41.966  21.843  26.661  1.00  0.00     0.055 A 
ATOM     82  C   UNL A   1      43.146  23.299  25.156  1.00  0.00     0.041 A 
ATOM     83  F   UNL A   1      43.654  25.489  25.818  1.00  0.00    -0.206 F 
ATOM     84  C   UNL A   1      42.597  22.051  25.433  1.00  0.00     0.022 A 
BRANCH  81  85
ATOM     85  S   UNL A   1      41.350  20.194  27.099  1.00  0.00     0.124 S 
ATOM     86  O   UNL A   1      40.412  19.930  26.013  1.00  0.00    -0.237 OA
ATOM     87  O   UNL A   1      42.576  19.403  27.094  1.00  0.00    -0.237 OA
ATOM     88  O   UNL A   1      40.744  20.395  28.413  1.00  0.00    -0.744 OA
ENDBRANCH  81  85
ENDBRANCH  54  78
BRANCH  66  89
ATOM     89  C   UNL A   1      46.844  25.929  32.447  1.00  0.00     0.023 A 
ATOM     90  C   UNL A   1      46.837  25.010  33.511  1.00  0.00     0.031 A 
ATOM     91  C   UNL A   1      48.084  26.271  31.878  1.00  0.00     0.131 A 
ATOM     92  C   UNL A   1      48.049  24.522  34.021  1.00  0.00     0.055 A 
ATOM     93  C   UNL A   1      49.282  25.729  32.345  1.00  0.00     0.041 A 
ATOM     94  F   UNL A   1      48.151  27.144  30.861  1.00  0.00    -0.206 F 
ATOM     95  C   UNL A   1      49.271  24.864  33.434  1.00  0.00     0.022 A 
BRANCH  92  96
ATOM     96  S   UNL A   1      48.018  23.530  35.540  1.00  0.00     0.124 S 
ATOM     97  O   UNL A   1      48.331  22.197  35.038  1.00  0.00    -0.237 OA
ATOM     98  O   UNL A   1      49.054  24.166  36.347  1.00  0.00    -0.237 OA
ATOM     99  O   UNL A   1      46.654  23.703  36.035  1.00  0.00    -0.744 OA
ENDBRANCH  92  96
ENDBRANCH  66  89
ENDBRANCH  40  41
ENDBRANCH  32  35
ENDBRANCH  30  31
ENDBRANCH  29  30
ENDBRANCH  28  29
ENDBRANCH   1  28
TORSDOF 22
ENDMDL
MODEL 3
REMARK VINA RESULT:      -9.9      3.397      8.062
REMARK SMILES CCOc1cc(OCC)cc(-c2ccc([C@@H](C)C(=O)NCCCCCCNC(=O)c3ccc(-c4c5nc(c(-c6cc(S(=O)(=O)[O-])ccc6F)c6ccc([nH]6)c(-c6cc(S(=O)(=O)[O-])ccc6F)c6nc(c(-c7cc(S(=O)(=O)[O-])ccc7F)c7ccc4[nH]7)C=C6)C=C5)cc3)cc2)c1
REMARK SMILES IDX 23 1 22 2 21 3 20 4 18 5 19 6 16 8 17 9 15 10 12 11 13 12
REMARK SMILES IDX 94 13 14 14 93 15 11 16 4 17 5 18 95 19 6 20 10 21 3 22 2 23
REMARK SMILES IDX 1 24 7 25 8 26 9 27 24 28 25 29 26 30 27 31 28 32 29 34
REMARK SMILES IDX 30 35 31 36 92 37 32 38 91 39 33 40 34 41 35 42 85 43 36 44
REMARK SMILES IDX 90 45 84 46 86 47 37 48 89 49 83 50 82 51 38 53 70 54 50 55
REMARK SMILES IDX 69 56 51 57 54 58 68 59 87 60 52 61 53 62 67 64 88 65 55 66
REMARK SMILES IDX 39 67 40 68 48 69 41 70 47 71 49 72 46 73 42 74 43 75 44 76
REMARK SMILES IDX 45 77 71 78 72 79 80 80 73 81 79 82 81 83 78 84 74 85 75 86
REMARK SMILES IDX 76 87 77 88 56 89 57 90 65 91 58 92 64 93 66 94 63 95 59 96
REMARK SMILES IDX 60 97 61 98 62 99
REMARK H PARENT 20 7 27 33 86 52 54 63
REMARK Flexibility Score: inf
ROOT
ATOM      1  C   UNL A   1      31.118  31.174  25.832  1.00  0.00     0.002 C 
ENDROOT
BRANCH   1   2
ATOM      2  C   UNL A   1      31.826  29.881  26.254  1.00  0.00     0.021 C 
BRANCH   2   3
ATOM      3  C   UNL A   1      31.745  28.764  25.211  1.00  0.00     0.116 C 
BRANCH   3   4
ATOM      4  N   UNL A   1      31.729  29.287  23.860  1.00  0.00    -0.356 N 
ATOM      5  C   UNL A   1      31.061  28.893  22.743  1.00  0.00     0.227 C 
ATOM      6  O   UNL A   1      31.317  29.512  21.702  1.00  0.00    -0.274 OA
ATOM      7  H   UNL A   1      32.308  30.074  23.727  1.00  0.00     0.163 HD
BRANCH   5   8
ATOM      8  C   UNL A   1      30.024  27.758  22.719  1.00  0.00     0.105 C 
ATOM      9  C   UNL A   1      28.698  28.106  23.395  1.00  0.00     0.023 C 
BRANCH   8  10
ATOM     10  C   UNL A   1      30.612  26.404  23.075  1.00  0.00    -0.036 A 
ATOM     11  C   UNL A   1      31.901  23.966  23.795  1.00  0.00    -0.018 A 
ATOM     12  C   UNL A   1      30.858  24.505  24.564  1.00  0.00     0.009 A 
ATOM     13  C   UNL A   1      32.259  24.655  22.630  1.00  0.00     0.009 A 
ATOM     14  C   UNL A   1      30.199  25.675  24.190  1.00  0.00     0.005 A 
ATOM     15  C   UNL A   1      31.641  25.864  22.286  1.00  0.00     0.005 A 
BRANCH  11  16
ATOM     16  C   UNL A   1      32.596  22.744  24.246  1.00  0.00    -0.011 A 
ATOM     17  C   UNL A   1      32.767  20.321  24.383  1.00  0.00     0.123 A 
ATOM     18  C   UNL A   1      34.053  20.425  24.911  1.00  0.00     0.092 A 
ATOM     19  C   UNL A   1      32.040  21.470  24.070  1.00  0.00     0.055 A 
ATOM     20  C   UNL A   1      34.620  21.681  25.131  1.00  0.00     0.123 A 
ATOM     21  C   UNL A   1      33.879  22.820  24.816  1.00  0.00     0.055 A 
BRANCH  17  22
ATOM     22  O   UNL A   1      32.196  19.080  24.288  1.00  0.00    -0.494 OA
BRANCH  22  23
ATOM     23  C   UNL A   1      32.460  18.413  23.048  1.00  0.00     0.226 C 
ATOM     24  C   UNL A   1      33.494  17.307  23.198  1.00  0.00     0.049 C 
ENDBRANCH  22  23
ENDBRANCH  17  22
BRANCH  20  25
ATOM     25  O   UNL A   1      35.898  21.684  25.621  1.00  0.00    -0.494 OA
BRANCH  25  26
ATOM     26  C   UNL A   1      36.899  22.411  24.900  1.00  0.00     0.226 C 
ATOM     27  C   UNL A   1      37.390  23.631  25.667  1.00  0.00     0.049 C 
ENDBRANCH  25  26
ENDBRANCH  20  25
ENDBRANCH  11  16
ENDBRANCH   8  10
ENDBRANCH   5   8
ENDBRANCH   3   4
ENDBRANCH   2   3
ENDBRANCH   1   2
BRANCH   1  28
ATOM     28  C   UNL A   1      31.388  32.387  26.732  1.00  0.00     0.002 C 
BRANCH  28  29
ATOM     29  C   UNL A   1      32.697  32.339  27.527  1.00  0.00     0.021 C 
BRANCH  29  30
ATOM     30  C   UNL A   1      33.509  33.631  27.495  1.00  0.00     0.116 C 
BRANCH  30  31
ATOM     31  N   UNL A   1      33.020  34.593  28.468  1.00  0.00    -0.352 N 
ATOM     32  C   UNL A   1      33.344  34.740  29.794  1.00  0.00     0.251 C 
ATOM     33  H   UNL A   1      32.357  35.235  28.126  1.00  0.00     0.163 HD
ATOM     34  O   UNL A   1      32.631  35.430  30.516  1.00  0.00    -0.269 OA
BRANCH  32  35
ATOM     35  C   UNL A   1      34.540  34.068  30.350  1.00  0.00     0.039 A 
ATOM     36  C   UNL A   1      34.367  32.977  31.206  1.00  0.00     0.014 A 
ATOM     37  C   UNL A   1      35.826  34.542  30.075  1.00  0.00     0.014 A 
ATOM     38  C   UNL A   1      35.483  32.343  31.758  1.00  0.00     0.010 A 
ATOM     39  C   UNL A   1      36.939  33.866  30.566  1.00  0.00     0.010 A 
ATOM     40  C   UNL A   1      36.779  32.771  31.430  1.00  0.00    -0.014 A 
BRANCH  40  41
ATOM     41  C   UNL A   1      37.977  32.119  32.023  1.00  0.00     0.031 A 
ATOM     42  C   UNL A   1      38.680  31.020  31.269  1.00  0.00     0.074 A 
ATOM     43  C   UNL A   1      38.402  32.482  33.249  1.00  0.00     0.049 A 
ATOM     44  N   UNL A   1      39.698  30.283  31.635  1.00  0.00    -0.248 NA
ATOM     45  C   UNL A   1      38.144  30.687  29.942  1.00  0.00     0.031 C 
ATOM     46  C   UNL A   1      37.781  33.507  34.089  1.00  0.00     0.029 A 
ATOM     47  N   UNL A   1      39.453  32.027  34.004  1.00  0.00    -0.354 N 
ATOM     48  C   UNL A   1      39.914  29.389  30.590  1.00  0.00     0.074 A 
ATOM     49  C   UNL A   1      38.877  29.634  29.610  1.00  0.00     0.031 C 
ATOM     50  C   UNL A   1      38.476  33.620  35.232  1.00  0.00     0.029 A 
ATOM     51  C   UNL A   1      39.568  32.651  35.225  1.00  0.00     0.049 A 
ATOM     52  H   UNL A   1      40.069  31.321  33.700  1.00  0.00     0.167 HD
ATOM     53  C   UNL A   1      40.899  28.467  30.449  1.00  0.00     0.034 A 
ATOM     54  C   UNL A   1      40.449  32.458  36.226  1.00  0.00     0.034 A 
ATOM     55  C   UNL A   1      41.934  28.246  31.431  1.00  0.00     0.049 A 
ATOM     56  C   UNL A   1      41.534  31.425  36.049  1.00  0.00     0.074 A 
ATOM     57  C   UNL A   1      43.003  27.370  31.377  1.00  0.00     0.029 A 
ATOM     58  N   UNL A   1      42.028  28.910  32.648  1.00  0.00    -0.354 N 
ATOM     59  N   UNL A   1      41.749  30.615  35.038  1.00  0.00    -0.248 NA
ATOM     60  C   UNL A   1      42.505  31.295  37.142  1.00  0.00     0.031 C 
ATOM     61  C   UNL A   1      43.705  27.457  32.585  1.00  0.00     0.029 A 
ATOM     62  C   UNL A   1      43.123  28.445  33.362  1.00  0.00     0.049 A 
ATOM     63  H   UNL A   1      41.407  29.607  32.960  1.00  0.00     0.167 HD
ATOM     64  C   UNL A   1      42.904  29.906  35.358  1.00  0.00     0.074 A 
ATOM     65  C   UNL A   1      43.346  30.399  36.647  1.00  0.00     0.031 C 
ATOM     66  C   UNL A   1      43.546  28.941  34.652  1.00  0.00     0.034 A 
BRANCH  53  67
ATOM     67  C   UNL A   1      40.880  27.618  29.197  1.00  0.00     0.023 A 
ATOM     68  C   UNL A   1      41.792  27.827  28.148  1.00  0.00     0.031 A 
ATOM     69  C   UNL A   1      39.911  26.612  29.032  1.00  0.00     0.131 A 
ATOM     70  C   UNL A   1      41.665  27.106  26.951  1.00  0.00     0.055 A 
ATOM     71  C   UNL A   1      39.845  25.835  27.873  1.00  0.00     0.041 A 
ATOM     72  F   UNL A   1      38.999  26.377  29.988  1.00  0.00    -0.206 F 
ATOM     73  C   UNL A   1      40.714  26.093  26.816  1.00  0.00     0.022 A 
BRANCH  70  74
ATOM     74  S   UNL A   1      42.654  27.620  25.521  1.00  0.00     0.124 S 
ATOM     75  O   UNL A   1      43.946  27.902  26.142  1.00  0.00    -0.237 OA
ATOM     76  O   UNL A   1      42.602  26.443  24.661  1.00  0.00    -0.237 OA
ATOM     77  O   UNL A   1      41.945  28.794  25.016  1.00  0.00    -0.744 OA
ENDBRANCH  70  74
ENDBRANCH  53  67
BRANCH  54  78
ATOM     78  C   UNL A   1      40.353  33.254  37.483  1.00  0.00     0.023 A 
ATOM     79  C   UNL A   1      39.665  32.758  38.602  1.00  0.00     0.031 A 
ATOM     80  C   UNL A   1      40.910  34.542  37.570  1.00  0.00     0.131 A 
ATOM     81  C   UNL A   1      39.505  33.564  39.740  1.00  0.00     0.055 A 
ATOM     82  C   UNL A   1      40.795  35.319  38.724  1.00  0.00     0.041 A 
ATOM     83  F   UNL A   1      41.585  35.061  36.532  1.00  0.00    -0.206 F 
ATOM     84  C   UNL A   1      40.077  34.836  39.813  1.00  0.00     0.022 A 
BRANCH  81  85
ATOM     85  S   UNL A   1      38.462  32.958  41.095  1.00  0.00     0.124 S 
ATOM     86  O   UNL A   1      38.110  31.623  40.624  1.00  0.00    -0.237 OA
ATOM     87  O   UNL A   1      39.377  33.017  42.230  1.00  0.00    -0.237 OA
ATOM     88  O   UNL A   1      37.361  33.918  41.132  1.00  0.00    -0.744 OA
ENDBRANCH  81  85
ENDBRANCH  54  78
BRANCH  66  89
ATOM     89  C   UNL A   1      44.826  28.398  35.243  1.00  0.00     0.023 A 
ATOM     90  C   UNL A   1      44.830  27.302  36.123  1.00  0.00     0.031 A 
ATOM     91  C   UNL A   1      46.056  29.011  34.945  1.00  0.00     0.131 A 
ATOM     92  C   UNL A   1      46.028  26.898  36.731  1.00  0.00     0.055 A 
ATOM     93  C   UNL A   1      47.255  28.561  35.500  1.00  0.00     0.041 A 
ATOM     94  F   UNL A   1      46.112  30.062  34.113  1.00  0.00    -0.206 F 
ATOM     95  C   UNL A   1      47.244  27.511  36.413  1.00  0.00     0.022 A 
BRANCH  92  96
ATOM     96  S   UNL A   1      45.961  25.641  38.038  1.00  0.00     0.124 S 
ATOM     97  O   UNL A   1      45.145  26.301  39.052  1.00  0.00    -0.237 OA
ATOM     98  O   UNL A   1      45.338  24.514  37.353  1.00  0.00    -0.237 OA
ATOM     99  O   UNL A   1      47.364  25.448  38.401  1.00  0.00    -0.744 OA
ENDBRANCH  92  96
ENDBRANCH  66  89
ENDBRANCH  40  41
ENDBRANCH  32  35
ENDBRANCH  30  31
ENDBRANCH  29  30
ENDBRANCH  28  29
ENDBRANCH   1  28
TORSDOF 22
ENDMDL
