MODEL 1
REMARK VINA RESULT:     -12.1      0.000      0.000
REMARK SMILES O=C(Cc1cccc(-c2ccn(C(F)F)c(=O)c2)c1)NCCCCCCNC(=O)c1ccc(-c2c3nc(c(-c4cc(S(=O)(=O)[O-])ccc4F)c4ccc([nH]4)c(-c4cc(S(=O)(=O)[O-])ccc4F)c4nc(c(-c5cc(S(=O)(=O)[O-])ccc5F)c5ccc2[nH]5)C=C4)C=C3)cc1
REMARK SMILES IDX 23 1 22 2 21 3 20 4 1 5 2 6 3 8 4 9 5 10 19 11 6 12 8 13
REMARK SMILES IDX 7 14 9 15 10 16 18 17 11 18 16 19 12 20 17 21 13 22 14 23
REMARK SMILES IDX 15 24 24 25 25 26 26 27 27 28 28 29 29 31 30 32 31 33 92 34
REMARK SMILES IDX 32 35 91 36 33 37 34 38 35 39 85 40 36 41 90 42 84 43 86 44
REMARK SMILES IDX 37 45 89 46 83 47 82 48 38 50 70 51 50 52 69 53 51 54 54 55
REMARK SMILES IDX 68 56 87 57 52 58 53 59 67 61 88 62 55 63 39 64 40 65 48 66
REMARK SMILES IDX 41 67 47 68 49 69 46 70 42 71 43 72 44 73 45 74 71 75 72 76
REMARK SMILES IDX 80 77 73 78 79 79 81 80 78 81 74 82 75 83 76 84 77 85 56 86
REMARK SMILES IDX 57 87 65 88 58 89 64 90 66 91 63 92 59 93 60 94 61 95 62 96
REMARK H PARENT 20 7 27 30 86 49 54 60
REMARK Flexibility Score: inf
ROOT
ATOM      1  C   UNL A   1      34.830  23.654  26.166  1.00  0.00     0.002 C 
ENDROOT
BRANCH   1   2
ATOM      2  C   UNL A   1      34.797  22.440  27.107  1.00  0.00     0.021 C 
BRANCH   2   3
ATOM      3  C   UNL A   1      33.405  22.044  27.593  1.00  0.00     0.116 C 
BRANCH   3   4
ATOM      4  N   UNL A   1      32.382  22.817  26.926  1.00  0.00    -0.356 N 
ATOM      5  O   UNL A   1      31.688  21.183  25.461  1.00  0.00    -0.275 OA
ATOM      6  C   UNL A   1      31.570  22.305  25.939  1.00  0.00     0.224 C 
ATOM      7  H   UNL A   1      32.260  23.758  27.189  1.00  0.00     0.163 HD
BRANCH   6   8
ATOM      8  C   UNL A   1      30.487  23.276  25.509  1.00  0.00     0.135 C 
BRANCH   8   9
ATOM      9  C   UNL A   1      30.898  24.231  24.409  1.00  0.00    -0.038 A 
ATOM     10  C   UNL A   1      31.911  23.944  23.481  1.00  0.00     0.004 A 
ATOM     11  C   UNL A   1      30.195  25.435  24.270  1.00  0.00     0.013 A 
ATOM     12  C   UNL A   1      32.229  24.846  22.463  1.00  0.00     0.001 A 
ATOM     13  C   UNL A   1      30.520  26.357  23.263  1.00  0.00    -0.018 A 
ATOM     14  C   UNL A   1      31.541  26.052  22.358  1.00  0.00     0.009 A 
BRANCH  13  15
ATOM     15  C   UNL A   1      29.819  27.651  23.221  1.00  0.00    -0.011 A 
ATOM     16  C   UNL A   1      30.542  28.908  23.229  1.00  0.00     0.027 A 
ATOM     17  C   UNL A   1      28.476  27.667  23.195  1.00  0.00     0.080 A 
ATOM     18  C   UNL A   1      29.885  30.071  23.228  1.00  0.00     0.095 A 
ATOM     19  C   UNL A   1      27.729  28.957  23.186  1.00  0.00     0.255 A 
ATOM     20  N   UNL A   1      28.504  30.106  23.211  1.00  0.00    -0.258 N 
ATOM     21  O   UNL A   1      26.503  28.924  23.164  1.00  0.00    -0.269 OA
BRANCH  20  22
ATOM     22  C   UNL A   1      27.809  31.365  23.231  1.00  0.00     0.451 C 
ATOM     23  F   UNL A   1      26.998  31.463  24.311  1.00  0.00    -0.185 F 
ATOM     24  F   UNL A   1      28.682  32.402  23.264  1.00  0.00    -0.185 F 
ENDBRANCH  20  22
ENDBRANCH  13  15
ENDBRANCH   8   9
ENDBRANCH   6   8
ENDBRANCH   3   4
ENDBRANCH   2   3
ENDBRANCH   1   2
BRANCH   1  25
ATOM     25  C   UNL A   1      35.165  23.340  24.705  1.00  0.00     0.002 C 
BRANCH  25  26
ATOM     26  C   UNL A   1      35.741  21.944  24.461  1.00  0.00     0.021 C 
BRANCH  26  27
ATOM     27  C   UNL A   1      37.252  21.900  24.257  1.00  0.00     0.116 C 
BRANCH  27  28
ATOM     28  N   UNL A   1      37.868  20.755  24.907  1.00  0.00    -0.352 N 
ATOM     29  C   UNL A   1      38.948  20.722  25.757  1.00  0.00     0.251 C 
ATOM     30  H   UNL A   1      37.455  19.884  24.712  1.00  0.00     0.163 HD
ATOM     31  O   UNL A   1      39.441  19.642  26.074  1.00  0.00    -0.269 OA
BRANCH  29  32
ATOM     32  C   UNL A   1      39.528  21.987  26.258  1.00  0.00     0.039 A 
ATOM     33  C   UNL A   1      40.746  21.950  26.938  1.00  0.00     0.014 A 
ATOM     34  C   UNL A   1      38.881  23.209  26.043  1.00  0.00     0.014 A 
ATOM     35  C   UNL A   1      41.350  23.144  27.344  1.00  0.00     0.010 A 
ATOM     36  C   UNL A   1      39.520  24.400  26.380  1.00  0.00     0.010 A 
ATOM     37  C   UNL A   1      40.762  24.382  27.032  1.00  0.00    -0.014 A 
BRANCH  37  38
ATOM     38  C   UNL A   1      41.434  25.662  27.381  1.00  0.00     0.031 A 
ATOM     39  C   UNL A   1      40.708  26.700  28.195  1.00  0.00     0.074 A 
ATOM     40  C   UNL A   1      42.676  25.913  26.920  1.00  0.00     0.049 A 
ATOM     41  N   UNL A   1      41.095  27.901  28.540  1.00  0.00    -0.248 NA
ATOM     42  C   UNL A   1      39.357  26.349  28.660  1.00  0.00     0.031 C 
ATOM     43  C   UNL A   1      43.470  25.001  26.093  1.00  0.00     0.029 A 
ATOM     44  N   UNL A   1      43.490  27.009  27.072  1.00  0.00    -0.354 N 
ATOM     45  C   UNL A   1      40.037  28.453  29.256  1.00  0.00     0.074 A 
ATOM     46  C   UNL A   1      38.968  27.475  29.238  1.00  0.00     0.031 C 
ATOM     47  C   UNL A   1      44.662  25.562  25.836  1.00  0.00     0.029 A 
ATOM     48  C   UNL A   1      44.702  26.895  26.430  1.00  0.00     0.049 A 
ATOM     49  H   UNL A   1      43.229  27.803  27.593  1.00  0.00     0.167 HD
ATOM     50  C   UNL A   1      39.972  29.650  29.889  1.00  0.00     0.034 A 
ATOM     51  C   UNL A   1      45.723  27.768  26.319  1.00  0.00     0.034 A 
ATOM     52  C   UNL A   1      41.049  30.610  29.902  1.00  0.00     0.049 A 
ATOM     53  C   UNL A   1      45.607  29.113  26.994  1.00  0.00     0.074 A 
ATOM     54  C   UNL A   1      41.104  31.831  30.551  1.00  0.00     0.029 A 
ATOM     55  N   UNL A   1      42.257  30.463  29.232  1.00  0.00    -0.354 N 
ATOM     56  N   UNL A   1      44.617  29.597  27.707  1.00  0.00    -0.248 NA
ATOM     57  C   UNL A   1      46.751  30.023  26.859  1.00  0.00     0.031 C 
ATOM     58  C   UNL A   1      42.308  32.456  30.210  1.00  0.00     0.029 A 
ATOM     59  C   UNL A   1      43.046  31.588  29.421  1.00  0.00     0.049 A 
ATOM     60  H   UNL A   1      42.514  29.677  28.699  1.00  0.00     0.167 HD
ATOM     61  C   UNL A   1      45.036  30.855  28.133  1.00  0.00     0.074 A 
ATOM     62  C   UNL A   1      46.373  31.045  27.613  1.00  0.00     0.031 C 
ATOM     63  C   UNL A   1      44.377  31.770  28.891  1.00  0.00     0.034 A 
BRANCH  50  64
ATOM     64  C   UNL A   1      38.683  29.995  30.597  1.00  0.00     0.023 A 
ATOM     65  C   UNL A   1      37.666  30.732  29.965  1.00  0.00     0.031 A 
ATOM     66  C   UNL A   1      38.469  29.589  31.926  1.00  0.00     0.131 A 
ATOM     67  C   UNL A   1      36.516  31.099  30.680  1.00  0.00     0.055 A 
ATOM     68  C   UNL A   1      37.286  29.885  32.606  1.00  0.00     0.041 A 
ATOM     69  F   UNL A   1      39.411  28.902  32.591  1.00  0.00    -0.206 F 
ATOM     70  C   UNL A   1      36.306  30.656  31.988  1.00  0.00     0.022 A 
BRANCH  67  71
ATOM     71  S   UNL A   1      35.366  32.279  29.925  1.00  0.00     0.124 S 
ATOM     72  O   UNL A   1      34.424  32.513  31.017  1.00  0.00    -0.237 OA
ATOM     73  O   UNL A   1      36.238  33.396  29.582  1.00  0.00    -0.237 OA
ATOM     74  O   UNL A   1      34.817  31.543  28.787  1.00  0.00    -0.744 OA
ENDBRANCH  67  71
ENDBRANCH  50  64
BRANCH  51  75
ATOM     75  C   UNL A   1      46.938  27.421  25.523  1.00  0.00     0.023 A 
ATOM     76  C   UNL A   1      47.081  27.849  24.193  1.00  0.00     0.031 A 
ATOM     77  C   UNL A   1      47.948  26.603  26.061  1.00  0.00     0.131 A 
ATOM     78  C   UNL A   1      48.172  27.410  23.428  1.00  0.00     0.055 A 
ATOM     79  C   UNL A   1      49.065  26.221  25.316  1.00  0.00     0.041 A 
ATOM     80  F   UNL A   1      47.866  26.163  27.327  1.00  0.00    -0.206 F 
ATOM     81  C   UNL A   1      49.173  26.611  23.985  1.00  0.00     0.022 A 
BRANCH  78  82
ATOM     82  S   UNL A   1      48.205  27.804  21.658  1.00  0.00     0.124 S 
ATOM     83  O   UNL A   1      49.305  28.759  21.588  1.00  0.00    -0.237 OA
ATOM     84  O   UNL A   1      48.453  26.495  21.062  1.00  0.00    -0.237 OA
ATOM     85  O   UNL A   1      46.876  28.359  21.408  1.00  0.00    -0.744 OA
ENDBRANCH  78  82
ENDBRANCH  51  75
BRANCH  63  86
ATOM     86  C   UNL A   1      45.120  33.037  29.242  1.00  0.00     0.023 A 
ATOM     87  C   UNL A   1      45.921  33.136  30.392  1.00  0.00     0.031 A 
ATOM     88  C   UNL A   1      45.012  34.170  28.413  1.00  0.00     0.131 A 
ATOM     89  C   UNL A   1      46.535  34.356  30.714  1.00  0.00     0.055 A 
ATOM     90  C   UNL A   1      45.681  35.360  28.702  1.00  0.00     0.041 A 
ATOM     91  F   UNL A   1      44.257  34.136  27.304  1.00  0.00    -0.206 F 
ATOM     92  C   UNL A   1      46.436  35.462  29.866  1.00  0.00     0.022 A 
BRANCH  89  93
ATOM     93  S   UNL A   1      47.382  34.510  32.311  1.00  0.00     0.124 S 
ATOM     94  O   UNL A   1      46.422  33.899  33.224  1.00  0.00    -0.237 OA
ATOM     95  O   UNL A   1      48.614  33.760  32.084  1.00  0.00    -0.237 OA
ATOM     96  O   UNL A   1      47.557  35.952  32.469  1.00  0.00    -0.744 OA
ENDBRANCH  89  93
ENDBRANCH  63  86
ENDBRANCH  37  38
ENDBRANCH  29  32
ENDBRANCH  27  28
ENDBRANCH  26  27
ENDBRANCH  25  26
ENDBRANCH   1  25
TORSDOF 19
ENDMDL
MODEL 2
REMARK VINA RESULT:     -11.9      1.998      7.638
REMARK SMILES O=C(Cc1cccc(-c2ccn(C(F)F)c(=O)c2)c1)NCCCCCCNC(=O)c1ccc(-c2c3nc(c(-c4cc(S(=O)(=O)[O-])ccc4F)c4ccc([nH]4)c(-c4cc(S(=O)(=O)[O-])ccc4F)c4nc(c(-c5cc(S(=O)(=O)[O-])ccc5F)c5ccc2[nH]5)C=C4)C=C3)cc1
REMARK SMILES IDX 23 1 22 2 21 3 20 4 1 5 2 6 3 8 4 9 5 10 19 11 6 12 8 13
REMARK SMILES IDX 7 14 9 15 10 16 18 17 11 18 16 19 12 20 17 21 13 22 14 23
REMARK SMILES IDX 15 24 24 25 25 26 26 27 27 28 28 29 29 31 30 32 31 33 92 34
REMARK SMILES IDX 32 35 91 36 33 37 34 38 35 39 85 40 36 41 90 42 84 43 86 44
REMARK SMILES IDX 37 45 89 46 83 47 82 48 38 50 70 51 50 52 69 53 51 54 54 55
REMARK SMILES IDX 68 56 87 57 52 58 53 59 67 61 88 62 55 63 39 64 40 65 48 66
REMARK SMILES IDX 41 67 47 68 49 69 46 70 42 71 43 72 44 73 45 74 71 75 72 76
REMARK SMILES IDX 80 77 73 78 79 79 81 80 78 81 74 82 75 83 76 84 77 85 56 86
REMARK SMILES IDX 57 87 65 88 58 89 64 90 66 91 63 92 59 93 60 94 61 95 62 96
REMARK H PARENT 20 7 27 30 86 49 54 60
REMARK Flexibility Score: inf
ROOT
ATOM      1  C   UNL A   1      34.850  23.579  26.330  1.00  0.00     0.002 C 
ENDROOT
BRANCH   1   2
ATOM      2  C   UNL A   1      34.659  22.371  27.261  1.00  0.00     0.021 C 
BRANCH   2   3
ATOM      3  C   UNL A   1      33.249  22.213  27.823  1.00  0.00     0.116 C 
BRANCH   3   4
ATOM      4  N   UNL A   1      32.316  23.084  27.143  1.00  0.00    -0.356 N 
ATOM      5  O   UNL A   1      31.413  21.505  25.733  1.00  0.00    -0.275 OA
ATOM      6  C   UNL A   1      31.436  22.646  26.180  1.00  0.00     0.224 C 
ATOM      7  H   UNL A   1      32.312  24.039  27.380  1.00  0.00     0.163 HD
BRANCH   6   8
ATOM      8  C   UNL A   1      30.472  23.728  25.732  1.00  0.00     0.135 C 
BRANCH   8   9
ATOM      9  C   UNL A   1      30.957  24.560  24.565  1.00  0.00    -0.038 A 
ATOM     10  C   UNL A   1      32.060  24.204  23.772  1.00  0.00     0.004 A 
ATOM     11  C   UNL A   1      30.238  25.713  24.219  1.00  0.00     0.013 A 
ATOM     12  C   UNL A   1      32.446  24.991  22.685  1.00  0.00     0.001 A 
ATOM     13  C   UNL A   1      30.630  26.520  23.140  1.00  0.00    -0.018 A 
ATOM     14  C   UNL A   1      31.738  26.149  22.373  1.00  0.00     0.009 A 
BRANCH  13  15
ATOM     15  C   UNL A   1      29.901  27.772  22.880  1.00  0.00    -0.011 A 
ATOM     16  C   UNL A   1      30.575  28.953  22.374  1.00  0.00     0.027 A 
ATOM     17  C   UNL A   1      28.584  27.829  23.136  1.00  0.00     0.080 A 
ATOM     18  C   UNL A   1      29.901  30.090  22.180  1.00  0.00     0.095 A 
ATOM     19  C   UNL A   1      27.817  29.088  22.917  1.00  0.00     0.255 A 
ATOM     20  N   UNL A   1      28.548  30.168  22.447  1.00  0.00    -0.258 N 
ATOM     21  O   UNL A   1      26.617  29.094  23.167  1.00  0.00    -0.269 OA
BRANCH  20  22
ATOM     22  C   UNL A   1      27.839  31.404  22.253  1.00  0.00     0.451 C 
ATOM     23  F   UNL A   1      28.496  32.444  22.821  1.00  0.00    -0.185 F 
ATOM     24  F   UNL A   1      27.684  31.674  20.933  1.00  0.00    -0.185 F 
ENDBRANCH  20  22
ENDBRANCH  13  15
ENDBRANCH   8   9
ENDBRANCH   6   8
ENDBRANCH   3   4
ENDBRANCH   2   3
ENDBRANCH   1   2
BRANCH   1  25
ATOM     25  C   UNL A   1      35.316  23.243  24.911  1.00  0.00     0.002 C 
BRANCH  25  26
ATOM     26  C   UNL A   1      35.904  21.843  24.739  1.00  0.00     0.021 C 
BRANCH  26  27
ATOM     27  C   UNL A   1      37.406  21.806  24.470  1.00  0.00     0.116 C 
BRANCH  27  28
ATOM     28  N   UNL A   1      38.072  20.725  25.178  1.00  0.00    -0.352 N 
ATOM     29  C   UNL A   1      39.135  20.788  26.046  1.00  0.00     0.251 C 
ATOM     30  H   UNL A   1      37.712  19.825  25.012  1.00  0.00     0.163 HD
ATOM     31  O   UNL A   1      39.681  19.751  26.417  1.00  0.00    -0.269 OA
BRANCH  29  32
ATOM     32  C   UNL A   1      39.634  22.103  26.504  1.00  0.00     0.039 A 
ATOM     33  C   UNL A   1      40.772  22.152  27.311  1.00  0.00     0.014 A 
ATOM     34  C   UNL A   1      38.993  23.287  26.124  1.00  0.00     0.014 A 
ATOM     35  C   UNL A   1      41.306  23.388  27.682  1.00  0.00     0.010 A 
ATOM     36  C   UNL A   1      39.569  24.517  26.431  1.00  0.00     0.010 A 
ATOM     37  C   UNL A   1      40.733  24.583  27.212  1.00  0.00    -0.014 A 
BRANCH  37  38
ATOM     38  C   UNL A   1      41.340  25.904  27.526  1.00  0.00     0.031 A 
ATOM     39  C   UNL A   1      42.749  26.210  27.094  1.00  0.00     0.074 A 
ATOM     40  C   UNL A   1      40.642  26.806  28.246  1.00  0.00     0.049 A 
ATOM     41  N   UNL A   1      43.476  27.272  27.334  1.00  0.00    -0.248 NA
ATOM     42  C   UNL A   1      43.442  25.174  26.314  1.00  0.00     0.031 C 
ATOM     43  C   UNL A   1      39.281  26.613  28.750  1.00  0.00     0.029 A 
ATOM     44  N   UNL A   1      40.979  28.064  28.685  1.00  0.00    -0.354 N 
ATOM     45  C   UNL A   1      44.711  27.032  26.740  1.00  0.00     0.074 A 
ATOM     46  C   UNL A   1      44.653  25.695  26.186  1.00  0.00     0.031 C 
ATOM     47  C   UNL A   1      38.891  27.719  29.403  1.00  0.00     0.029 A 
ATOM     48  C   UNL A   1      39.988  28.681  29.414  1.00  0.00     0.049 A 
ATOM     49  H   UNL A   1      41.849  28.484  28.495  1.00  0.00     0.167 HD
ATOM     50  C   UNL A   1      45.783  27.856  26.644  1.00  0.00     0.034 A 
ATOM     51  C   UNL A   1      39.971  29.877  30.035  1.00  0.00     0.034 A 
ATOM     52  C   UNL A   1      45.821  29.189  27.196  1.00  0.00     0.049 A 
ATOM     53  C   UNL A   1      41.194  30.758  29.952  1.00  0.00     0.074 A 
ATOM     54  C   UNL A   1      46.839  30.124  27.115  1.00  0.00     0.029 A 
ATOM     55  N   UNL A   1      44.803  29.775  27.938  1.00  0.00    -0.354 N 
ATOM     56  N   UNL A   1      42.335  30.532  29.345  1.00  0.00    -0.248 NA
ATOM     57  C   UNL A   1      41.120  32.059  30.629  1.00  0.00     0.031 C 
ATOM     58  C   UNL A   1      46.470  31.241  27.872  1.00  0.00     0.029 A 
ATOM     59  C   UNL A   1      45.185  31.043  28.351  1.00  0.00     0.049 A 
ATOM     60  H   UNL A   1      43.938  29.353  28.140  1.00  0.00     0.167 HD
ATOM     61  C   UNL A   1      43.101  31.679  29.539  1.00  0.00     0.074 A 
ATOM     62  C   UNL A   1      42.285  32.599  30.302  1.00  0.00     0.031 C 
ATOM     63  C   UNL A   1      44.364  31.950  29.119  1.00  0.00     0.034 A 
BRANCH  50  64
ATOM     64  C   UNL A   1      47.008  27.328  25.936  1.00  0.00     0.023 A 
ATOM     65  C   UNL A   1      48.021  26.638  26.625  1.00  0.00     0.031 A 
ATOM     66  C   UNL A   1      47.171  27.523  24.553  1.00  0.00     0.131 A 
ATOM     67  C   UNL A   1      49.179  26.231  25.947  1.00  0.00     0.055 A 
ATOM     68  C   UNL A   1      48.288  27.040  23.867  1.00  0.00     0.041 A 
ATOM     69  F   UNL A   1      46.250  28.193  23.843  1.00  0.00    -0.206 F 
ATOM     70  C   UNL A   1      49.307  26.402  24.567  1.00  0.00     0.022 A 
BRANCH  67  71
ATOM     71  S   UNL A   1      50.575  25.601  26.917  1.00  0.00     0.124 S 
ATOM     72  O   UNL A   1      51.537  25.268  25.869  1.00  0.00    -0.237 OA
ATOM     73  O   UNL A   1      50.917  26.743  27.757  1.00  0.00    -0.237 OA
ATOM     74  O   UNL A   1      50.011  24.453  27.624  1.00  0.00    -0.744 OA
ENDBRANCH  67  71
ENDBRANCH  50  64
BRANCH  51  75
ATOM     75  C   UNL A   1      38.771  30.316  30.809  1.00  0.00     0.023 A 
ATOM     76  C   UNL A   1      37.735  31.037  30.194  1.00  0.00     0.031 A 
ATOM     77  C   UNL A   1      38.671  30.075  32.192  1.00  0.00     0.131 A 
ATOM     78  C   UNL A   1      36.678  31.543  30.965  1.00  0.00     0.055 A 
ATOM     79  C   UNL A   1      37.585  30.525  32.944  1.00  0.00     0.041 A 
ATOM     80  F   UNL A   1      39.632  29.391  32.834  1.00  0.00    -0.206 F 
ATOM     81  C   UNL A   1      36.588  31.279  32.334  1.00  0.00     0.022 A 
BRANCH  78  82
ATOM     82  S   UNL A   1      35.479  32.651  30.175  1.00  0.00     0.124 S 
ATOM     83  O   UNL A   1      36.242  33.889  30.073  1.00  0.00    -0.237 OA
ATOM     84  O   UNL A   1      35.209  31.956  28.920  1.00  0.00    -0.237 OA
ATOM     85  O   UNL A   1      34.365  32.677  31.122  1.00  0.00    -0.744 OA
ENDBRANCH  78  82
ENDBRANCH  51  75
BRANCH  63  86
ATOM     86  C   UNL A   1      44.917  33.319  29.438  1.00  0.00     0.023 A 
ATOM     87  C   UNL A   1      44.662  34.434  28.620  1.00  0.00     0.031 A 
ATOM     88  C   UNL A   1      45.724  33.506  30.576  1.00  0.00     0.131 A 
ATOM     89  C   UNL A   1      45.256  35.670  28.918  1.00  0.00     0.055 A 
ATOM     90  C   UNL A   1      46.255  34.754  30.905  1.00  0.00     0.041 A 
ATOM     91  F   UNL A   1      46.006  32.478  31.391  1.00  0.00    -0.206 F 
ATOM     92  C   UNL A   1      46.034  35.842  30.065  1.00  0.00     0.022 A 
BRANCH  89  93
ATOM     93  S   UNL A   1      45.081  37.028  27.729  1.00  0.00     0.124 S 
ATOM     94  O   UNL A   1      46.402  37.064  27.112  1.00  0.00    -0.237 OA
ATOM     95  O   UNL A   1      43.992  36.560  26.877  1.00  0.00    -0.237 OA
ATOM     96  O   UNL A   1      44.757  38.180  28.568  1.00  0.00    -0.744 OA
ENDBRANCH  89  93
ENDBRANCH  63  86
ENDBRANCH  37  38
ENDBRANCH  29  32
ENDBRANCH  27  28
ENDBRANCH  26  27
ENDBRANCH  25  26
ENDBRANCH   1  25
TORSDOF 19
ENDMDL
MODEL 3
REMARK VINA RESULT:     -11.9      5.334     11.426
REMARK SMILES O=C(Cc1cccc(-c2ccn(C(F)F)c(=O)c2)c1)NCCCCCCNC(=O)c1ccc(-c2c3nc(c(-c4cc(S(=O)(=O)[O-])ccc4F)c4ccc([nH]4)c(-c4cc(S(=O)(=O)[O-])ccc4F)c4nc(c(-c5cc(S(=O)(=O)[O-])ccc5F)c5ccc2[nH]5)C=C4)C=C3)cc1
REMARK SMILES IDX 23 1 22 2 21 3 20 4 1 5 2 6 3 8 4 9 5 10 19 11 6 12 8 13
REMARK SMILES IDX 7 14 9 15 10 16 18 17 11 18 16 19 12 20 17 21 13 22 14 23
REMARK SMILES IDX 15 24 24 25 25 26 26 27 27 28 28 29 29 31 30 32 31 33 92 34
REMARK SMILES IDX 32 35 91 36 33 37 34 38 35 39 85 40 36 41 90 42 84 43 86 44
REMARK SMILES IDX 37 45 89 46 83 47 82 48 38 50 70 51 50 52 69 53 51 54 54 55
REMARK SMILES IDX 68 56 87 57 52 58 53 59 67 61 88 62 55 63 39 64 40 65 48 66
REMARK SMILES IDX 41 67 47 68 49 69 46 70 42 71 43 72 44 73 45 74 71 75 72 76
REMARK SMILES IDX 80 77 73 78 79 79 81 80 78 81 74 82 75 83 76 84 77 85 56 86
REMARK SMILES IDX 57 87 65 88 58 89 64 90 66 91 63 92 59 93 60 94 61 95 62 96
REMARK H PARENT 20 7 27 30 86 49 54 60
REMARK Flexibility Score: inf
ROOT
ATOM      1  C   UNL A   1      42.499  19.153  25.562  1.00  0.00     0.002 C 
ENDROOT
BRANCH   1   2
ATOM      2  C   UNL A   1      43.865  18.508  25.279  1.00  0.00     0.021 C 
BRANCH   2   3
ATOM      3  C   UNL A   1      44.669  19.175  24.165  1.00  0.00     0.116 C 
BRANCH   3   4
ATOM      4  N   UNL A   1      44.488  20.609  24.181  1.00  0.00    -0.356 N 
ATOM      5  O   UNL A   1      46.401  21.133  25.349  1.00  0.00    -0.275 OA
ATOM      6  C   UNL A   1      45.400  21.480  24.734  1.00  0.00     0.224 C 
ATOM      7  H   UNL A   1      43.673  20.982  23.776  1.00  0.00     0.163 HD
BRANCH   6   8
ATOM      8  C   UNL A   1      45.044  22.934  24.489  1.00  0.00     0.135 C 
BRANCH   8   9
ATOM      9  C   UNL A   1      45.646  23.906  25.481  1.00  0.00    -0.038 A 
ATOM     10  C   UNL A   1      46.551  24.915  25.117  1.00  0.00     0.004 A 
ATOM     11  C   UNL A   1      45.237  23.835  26.820  1.00  0.00     0.013 A 
ATOM     12  C   UNL A   1      47.051  25.808  26.066  1.00  0.00     0.001 A 
ATOM     13  C   UNL A   1      45.749  24.716  27.785  1.00  0.00    -0.018 A 
ATOM     14  C   UNL A   1      46.657  25.705  27.398  1.00  0.00     0.009 A 
BRANCH  13  15
ATOM     15  C   UNL A   1      45.364  24.537  29.195  1.00  0.00    -0.011 A 
ATOM     16  C   UNL A   1      44.514  23.440  29.618  1.00  0.00     0.027 A 
ATOM     17  C   UNL A   1      45.793  25.423  30.109  1.00  0.00     0.080 A 
ATOM     18  C   UNL A   1      44.146  23.318  30.897  1.00  0.00     0.095 A 
ATOM     19  C   UNL A   1      45.398  25.296  31.540  1.00  0.00     0.255 A 
ATOM     20  N   UNL A   1      44.572  24.226  31.848  1.00  0.00    -0.258 N 
ATOM     21  O   UNL A   1      45.812  26.129  32.339  1.00  0.00    -0.269 OA
BRANCH  20  22
ATOM     22  C   UNL A   1      44.152  24.094  33.216  1.00  0.00     0.451 C 
ATOM     23  F   UNL A   1      43.128  23.216  33.336  1.00  0.00    -0.185 F 
ATOM     24  F   UNL A   1      45.171  23.662  33.999  1.00  0.00    -0.185 F 
ENDBRANCH  20  22
ENDBRANCH  13  15
ENDBRANCH   8   9
ENDBRANCH   6   8
ENDBRANCH   3   4
ENDBRANCH   2   3
ENDBRANCH   1   2
BRANCH   1  25
ATOM     25  C   UNL A   1      42.257  19.559  27.018  1.00  0.00     0.002 C 
BRANCH  25  26
ATOM     26  C   UNL A   1      42.347  21.060  27.292  1.00  0.00     0.021 C 
BRANCH  26  27
ATOM     27  C   UNL A   1      41.072  21.689  27.846  1.00  0.00     0.116 C 
BRANCH  27  28
ATOM     28  N   UNL A   1      39.967  21.628  26.903  1.00  0.00    -0.352 N 
ATOM     29  C   UNL A   1      39.131  22.636  26.486  1.00  0.00     0.251 C 
ATOM     30  H   UNL A   1      39.794  20.743  26.509  1.00  0.00     0.163 HD
ATOM     31  O   UNL A   1      38.138  22.365  25.815  1.00  0.00    -0.269 OA
BRANCH  29  32
ATOM     32  C   UNL A   1      39.415  24.035  26.874  1.00  0.00     0.039 A 
ATOM     33  C   UNL A   1      39.107  24.453  28.170  1.00  0.00     0.014 A 
ATOM     34  C   UNL A   1      39.998  24.927  25.969  1.00  0.00     0.014 A 
ATOM     35  C   UNL A   1      39.445  25.746  28.579  1.00  0.00     0.010 A 
ATOM     36  C   UNL A   1      40.403  26.188  26.402  1.00  0.00     0.010 A 
ATOM     37  C   UNL A   1      40.133  26.612  27.712  1.00  0.00    -0.014 A 
BRANCH  37  38
ATOM     38  C   UNL A   1      40.576  27.959  28.160  1.00  0.00     0.031 A 
ATOM     39  C   UNL A   1      42.038  28.318  28.142  1.00  0.00     0.074 A 
ATOM     40  C   UNL A   1      39.670  28.838  28.633  1.00  0.00     0.049 A 
ATOM     41  N   UNL A   1      42.628  29.410  28.558  1.00  0.00    -0.248 NA
ATOM     42  C   UNL A   1      42.962  27.303  27.611  1.00  0.00     0.031 C 
ATOM     43  C   UNL A   1      38.230  28.595  28.732  1.00  0.00     0.029 A 
ATOM     44  N   UNL A   1      39.822  30.112  29.126  1.00  0.00    -0.354 N 
ATOM     45  C   UNL A   1      43.989  29.214  28.345  1.00  0.00     0.074 A 
ATOM     46  C   UNL A   1      44.139  27.871  27.824  1.00  0.00     0.031 C 
ATOM     47  C   UNL A   1      37.630  29.690  29.225  1.00  0.00     0.029 A 
ATOM     48  C   UNL A   1      38.643  30.695  29.530  1.00  0.00     0.049 A 
ATOM     49  H   UNL A   1      40.695  30.565  29.184  1.00  0.00     0.167 HD
ATOM     50  C   UNL A   1      45.013  30.080  28.542  1.00  0.00     0.034 A 
ATOM     51  C   UNL A   1      38.406  31.895  30.097  1.00  0.00     0.034 A 
ATOM     52  C   UNL A   1      44.844  31.418  29.057  1.00  0.00     0.049 A 
ATOM     53  C   UNL A   1      39.569  32.823  30.349  1.00  0.00     0.074 A 
ATOM     54  C   UNL A   1      45.808  32.392  29.251  1.00  0.00     0.029 A 
ATOM     55  N   UNL A   1      43.636  31.969  29.466  1.00  0.00    -0.354 N 
ATOM     56  N   UNL A   1      40.844  32.638  30.097  1.00  0.00    -0.248 NA
ATOM     57  C   UNL A   1      39.258  34.126  30.951  1.00  0.00     0.031 C 
ATOM     58  C   UNL A   1      45.199  33.500  29.849  1.00  0.00     0.029 A 
ATOM     59  C   UNL A   1      43.838  33.255  29.946  1.00  0.00     0.049 A 
ATOM     60  H   UNL A   1      42.765  31.514  29.422  1.00  0.00     0.167 HD
ATOM     61  C   UNL A   1      41.481  33.817  30.478  1.00  0.00     0.074 A 
ATOM     62  C   UNL A   1      40.448  34.709  30.959  1.00  0.00     0.031 C 
ATOM     63  C   UNL A   1      42.800  34.135  30.431  1.00  0.00     0.034 A 
BRANCH  50  64
ATOM     64  C   UNL A   1      46.407  29.596  28.224  1.00  0.00     0.023 A 
ATOM     65  C   UNL A   1      47.212  28.966  29.190  1.00  0.00     0.031 A 
ATOM     66  C   UNL A   1      46.946  29.771  26.936  1.00  0.00     0.131 A 
ATOM     67  C   UNL A   1      48.529  28.600  28.877  1.00  0.00     0.055 A 
ATOM     68  C   UNL A   1      48.228  29.327  26.607  1.00  0.00     0.041 A 
ATOM     69  F   UNL A   1      46.236  30.384  25.976  1.00  0.00    -0.206 F 
ATOM     70  C   UNL A   1      49.033  28.750  27.584  1.00  0.00     0.022 A 
BRANCH  67  71
ATOM     71  S   UNL A   1      49.618  28.054  30.220  1.00  0.00     0.124 S 
ATOM     72  O   UNL A   1      50.625  27.287  29.489  1.00  0.00    -0.237 OA
ATOM     73  O   UNL A   1      50.070  29.316  30.794  1.00  0.00    -0.237 OA
ATOM     74  O   UNL A   1      48.738  27.258  31.073  1.00  0.00    -0.744 OA
ENDBRANCH  67  71
ENDBRANCH  50  64
BRANCH  51  75
ATOM     75  C   UNL A   1      37.020  32.292  30.488  1.00  0.00     0.023 A 
ATOM     76  C   UNL A   1      36.135  32.851  29.553  1.00  0.00     0.031 A 
ATOM     77  C   UNL A   1      36.581  32.176  31.820  1.00  0.00     0.131 A 
ATOM     78  C   UNL A   1      34.882  33.327  29.970  1.00  0.00     0.055 A 
ATOM     79  C   UNL A   1      35.309  32.592  32.217  1.00  0.00     0.041 A 
ATOM     80  F   UNL A   1      37.385  31.649  32.758  1.00  0.00    -0.206 F 
ATOM     81  C   UNL A   1      34.458  33.188  31.293  1.00  0.00     0.022 A 
BRANCH  78  82
ATOM     82  S   UNL A   1      33.860  34.237  28.780  1.00  0.00     0.124 S 
ATOM     83  O   UNL A   1      33.464  33.178  27.859  1.00  0.00    -0.237 OA
ATOM     84  O   UNL A   1      32.806  34.773  29.636  1.00  0.00    -0.237 OA
ATOM     85  O   UNL A   1      34.780  35.232  28.232  1.00  0.00    -0.744 OA
ENDBRANCH  78  82
ENDBRANCH  51  75
BRANCH  63  86
ATOM     86  C   UNL A   1      43.190  35.527  30.867  1.00  0.00     0.023 A 
ATOM     87  C   UNL A   1      43.316  35.874  32.223  1.00  0.00     0.031 A 
ATOM     88  C   UNL A   1      43.428  36.527  29.905  1.00  0.00     0.131 A 
ATOM     89  C   UNL A   1      43.611  37.198  32.582  1.00  0.00     0.055 A 
ATOM     90  C   UNL A   1      43.789  37.825  30.267  1.00  0.00     0.041 A 
ATOM     91  F   UNL A   1      43.318  36.255  28.595  1.00  0.00    -0.206 F 
ATOM     92  C   UNL A   1      43.868  38.171  31.612  1.00  0.00     0.022 A 
BRANCH  89  93
ATOM     93  S   UNL A   1      43.554  37.659  34.335  1.00  0.00     0.124 S 
ATOM     94  O   UNL A   1      43.640  39.114  34.270  1.00  0.00    -0.237 OA
ATOM     95  O   UNL A   1      42.269  37.113  34.760  1.00  0.00    -0.237 OA
ATOM     96  O   UNL A   1      44.726  36.993  34.903  1.00  0.00    -0.744 OA
ENDBRANCH  89  93
ENDBRANCH  63  86
ENDBRANCH  37  38
ENDBRANCH  29  32
ENDBRANCH  27  28
ENDBRANCH  26  27
ENDBRANCH  25  26
ENDBRANCH   1  25
TORSDOF 19
ENDMDL
