MODEL 1
REMARK VINA RESULT:      -9.9      0.000      0.000
REMARK SMILES COCCOc1ccc(C(=O)NCCCCCCNC(=O)c2ccc(-c3c4nc(c(-c5cc(S(=O)(=O)[O-])ccc5F)c5ccc([nH]5)c(-c5cc(S(=O)(=O)[O-])ccc5F)c5nc(c(-c6cc(S(=O)(=O)[O-])ccc6F)c6ccc3[nH]6)C=C5)C=C4)cc2)cc1Br
REMARK SMILES IDX 15 1 14 2 13 3 12 4 10 5 11 6 9 8 6 9 7 10 86 11 8 12 85 13
REMARK SMILES IDX 87 14 5 15 4 16 3 17 2 18 1 19 16 20 17 21 18 22 19 23 20 24
REMARK SMILES IDX 21 26 22 27 23 28 84 29 24 30 83 31 25 32 26 33 27 34 77 35
REMARK SMILES IDX 28 36 82 37 76 38 78 39 29 40 81 41 75 42 74 43 30 45 62 46
REMARK SMILES IDX 42 47 61 48 43 49 46 50 60 51 79 52 44 53 45 54 59 56 80 57
REMARK SMILES IDX 47 58 31 59 32 60 40 61 33 62 39 63 41 64 38 65 34 66 35 67
REMARK SMILES IDX 36 68 37 69 63 70 64 71 72 72 65 73 71 74 73 75 70 76 66 77
REMARK SMILES IDX 67 78 68 79 69 80 48 81 49 82 57 83 50 84 56 85 58 86 55 87
REMARK SMILES IDX 51 88 52 89 53 90 54 91
REMARK H PARENT 12 7 19 25 78 44 46 55
REMARK Flexibility Score: inf
ROOT
ATOM      1  C   UNL A   1      35.083  31.589  27.714  1.00  0.00     0.002 C 
ENDROOT
BRANCH   1   2
ATOM      2  C   UNL A   1      35.547  30.132  27.748  1.00  0.00     0.021 C 
BRANCH   2   3
ATOM      3  C   UNL A   1      34.651  29.227  26.890  1.00  0.00     0.116 C 
BRANCH   3   4
ATOM      4  N   UNL A   1      33.575  28.669  27.693  1.00  0.00    -0.352 N 
ATOM      5  C   UNL A   1      32.298  28.255  27.406  1.00  0.00     0.251 C 
ATOM      6  O   UNL A   1      31.622  27.817  28.338  1.00  0.00    -0.269 OA
ATOM      7  H   UNL A   1      33.813  28.565  28.643  1.00  0.00     0.163 HD
BRANCH   5   8
ATOM      8  C   UNL A   1      31.715  28.261  26.034  1.00  0.00     0.041 A 
ATOM      9  C   UNL A   1      30.458  28.346  23.484  1.00  0.00     0.133 A 
ATOM     10  C   UNL A   1      30.766  29.521  24.192  1.00  0.00     0.048 A 
ATOM     11  C   UNL A   1      30.747  27.126  24.098  1.00  0.00     0.060 A 
ATOM     12  C   UNL A   1      31.334  29.482  25.473  1.00  0.00     0.018 A 
ATOM     13  C   UNL A   1      31.494  27.116  25.282  1.00  0.00     0.033 A 
ATOM     14  Br  UNL A   1      30.157  25.382  23.617  1.00  0.00    -0.047 Br
BRANCH   9  15
ATOM     15  O   UNL A   1      30.023  28.612  22.218  1.00  0.00    -0.490 OA
BRANCH  15  16
ATOM     16  C   UNL A   1      30.041  29.933  21.693  1.00  0.00     0.258 C 
BRANCH  16  17
ATOM     17  C   UNL A   1      28.649  30.543  21.454  1.00  0.00     0.201 C 
BRANCH  17  18
ATOM     18  O   UNL A   1      28.304  31.677  22.243  1.00  0.00    -0.381 OA
ATOM     19  C   UNL A   1      27.692  31.376  23.488  1.00  0.00     0.195 C 
ENDBRANCH  17  18
ENDBRANCH  16  17
ENDBRANCH  15  16
ENDBRANCH   9  15
ENDBRANCH   5   8
ENDBRANCH   3   4
ENDBRANCH   2   3
ENDBRANCH   1   2
BRANCH   1  20
ATOM     20  C   UNL A   1      33.594  31.762  28.038  1.00  0.00     0.002 C 
BRANCH  20  21
ATOM     21  C   UNL A   1      32.986  33.087  27.568  1.00  0.00     0.021 C 
BRANCH  21  22
ATOM     22  C   UNL A   1      33.776  34.322  27.985  1.00  0.00     0.116 C 
BRANCH  22  23
ATOM     23  N   UNL A   1      33.170  34.968  29.138  1.00  0.00    -0.352 N 
ATOM     24  C   UNL A   1      33.379  34.750  30.474  1.00  0.00     0.251 C 
ATOM     25  H   UNL A   1      32.510  35.669  28.926  1.00  0.00     0.163 HD
ATOM     26  O   UNL A   1      32.551  35.151  31.286  1.00  0.00    -0.269 OA
BRANCH  24  27
ATOM     27  C   UNL A   1      34.594  34.041  30.930  1.00  0.00     0.039 A 
ATOM     28  C   UNL A   1      35.844  34.577  30.617  1.00  0.00     0.014 A 
ATOM     29  C   UNL A   1      34.504  32.824  31.615  1.00  0.00     0.014 A 
ATOM     30  C   UNL A   1      37.001  33.908  31.017  1.00  0.00     0.010 A 
ATOM     31  C   UNL A   1      35.656  32.202  32.085  1.00  0.00     0.010 A 
ATOM     32  C   UNL A   1      36.918  32.727  31.773  1.00  0.00    -0.014 A 
BRANCH  32  33
ATOM     33  C   UNL A   1      38.149  32.029  32.224  1.00  0.00     0.031 A 
ATOM     34  C   UNL A   1      38.775  32.373  33.549  1.00  0.00     0.074 A 
ATOM     35  C   UNL A   1      38.710  31.102  31.425  1.00  0.00     0.049 A 
ATOM     36  N   UNL A   1      39.840  31.868  34.116  1.00  0.00    -0.248 NA
ATOM     37  C   UNL A   1      38.134  33.445  34.327  1.00  0.00     0.031 C 
ATOM     38  C   UNL A   1      38.218  30.725  30.098  1.00  0.00     0.029 A 
ATOM     39  N   UNL A   1      39.809  30.303  31.609  1.00  0.00    -0.354 N 
ATOM     40  C   UNL A   1      40.001  32.561  35.312  1.00  0.00     0.074 A 
ATOM     41  C   UNL A   1      38.964  33.570  35.352  1.00  0.00     0.031 C 
ATOM     42  C   UNL A   1      38.985  29.739  29.607  1.00  0.00     0.029 A 
ATOM     43  C   UNL A   1      40.049  29.445  30.561  1.00  0.00     0.049 A 
ATOM     44  H   UNL A   1      40.373  30.339  32.415  1.00  0.00     0.167 HD
ATOM     45  C   UNL A   1      40.911  32.356  36.296  1.00  0.00     0.034 A 
ATOM     46  C   UNL A   1      41.021  28.526  30.388  1.00  0.00     0.034 A 
ATOM     47  C   UNL A   1      41.935  31.339  36.237  1.00  0.00     0.049 A 
ATOM     48  C   UNL A   1      42.030  28.327  31.490  1.00  0.00     0.074 A 
ATOM     49  C   UNL A   1      42.879  31.009  37.193  1.00  0.00     0.029 A 
ATOM     50  N   UNL A   1      42.155  30.494  35.156  1.00  0.00    -0.354 N 
ATOM     51  N   UNL A   1      42.131  28.949  32.642  1.00  0.00    -0.248 NA
ATOM     52  C   UNL A   1      43.044  27.290  31.273  1.00  0.00     0.031 C 
ATOM     53  C   UNL A   1      43.715  30.020  36.662  1.00  0.00     0.029 A 
ATOM     54  C   UNL A   1      43.241  29.667  35.409  1.00  0.00     0.049 A 
ATOM     55  H   UNL A   1      41.620  30.484  34.330  1.00  0.00     0.167 HD
ATOM     56  C   UNL A   1      43.203  28.354  33.301  1.00  0.00     0.074 A 
ATOM     57  C   UNL A   1      43.696  27.310  32.425  1.00  0.00     0.031 C 
ATOM     58  C   UNL A   1      43.732  28.642  34.519  1.00  0.00     0.034 A 
BRANCH  45  59
ATOM     59  C   UNL A   1      40.852  33.266  37.502  1.00  0.00     0.023 A 
ATOM     60  C   UNL A   1      39.979  33.018  38.577  1.00  0.00     0.031 A 
ATOM     61  C   UNL A   1      41.663  34.413  37.571  1.00  0.00     0.131 A 
ATOM     62  C   UNL A   1      39.882  33.938  39.632  1.00  0.00     0.055 A 
ATOM     63  C   UNL A   1      41.625  35.281  38.665  1.00  0.00     0.041 A 
ATOM     64  F   UNL A   1      42.501  34.720  36.566  1.00  0.00    -0.206 F 
ATOM     65  C   UNL A   1      40.719  35.054  39.696  1.00  0.00     0.022 A 
BRANCH  62  66
ATOM     66  S   UNL A   1      38.544  33.737  40.839  1.00  0.00     0.124 S 
ATOM     67  O   UNL A   1      39.193  32.923  41.866  1.00  0.00    -0.237 OA
ATOM     68  O   UNL A   1      38.244  35.115  41.211  1.00  0.00    -0.237 OA
ATOM     69  O   UNL A   1      37.499  33.052  40.083  1.00  0.00    -0.744 OA
ENDBRANCH  62  66
ENDBRANCH  45  59
BRANCH  46  70
ATOM     70  C   UNL A   1      41.088  27.725  29.131  1.00  0.00     0.023 A 
ATOM     71  C   UNL A   1      42.096  27.949  28.180  1.00  0.00     0.031 A 
ATOM     72  C   UNL A   1      40.118  26.748  28.844  1.00  0.00     0.131 A 
ATOM     73  C   UNL A   1      42.081  27.247  26.965  1.00  0.00     0.055 A 
ATOM     74  C   UNL A   1      40.143  26.009  27.660  1.00  0.00     0.041 A 
ATOM     75  F   UNL A   1      39.135  26.488  29.721  1.00  0.00    -0.206 F 
ATOM     76  C   UNL A   1      41.121  26.268  26.705  1.00  0.00     0.022 A 
BRANCH  73  77
ATOM     77  S   UNL A   1      43.284  27.700  25.685  1.00  0.00     0.124 S 
ATOM     78  O   UNL A   1      43.699  29.027  26.125  1.00  0.00    -0.237 OA
ATOM     79  O   UNL A   1      44.278  26.640  25.815  1.00  0.00    -0.237 OA
ATOM     80  O   UNL A   1      42.499  27.668  24.454  1.00  0.00    -0.744 OA
ENDBRANCH  73  77
ENDBRANCH  46  70
BRANCH  58  81
ATOM     81  C   UNL A   1      44.882  27.778  34.982  1.00  0.00     0.023 A 
ATOM     82  C   UNL A   1      44.681  26.654  35.803  1.00  0.00     0.031 A 
ATOM     83  C   UNL A   1      46.203  28.105  34.624  1.00  0.00     0.131 A 
ATOM     84  C   UNL A   1      45.785  25.946  36.303  1.00  0.00     0.055 A 
ATOM     85  C   UNL A   1      47.292  27.352  35.064  1.00  0.00     0.041 A 
ATOM     86  F   UNL A   1      46.457  29.169  33.846  1.00  0.00    -0.206 F 
ATOM     87  C   UNL A   1      47.088  26.276  35.923  1.00  0.00     0.022 A 
BRANCH  84  88
ATOM     88  S   UNL A   1      45.500  24.670  37.560  1.00  0.00     0.124 S 
ATOM     89  O   UNL A   1      45.462  23.455  36.754  1.00  0.00    -0.237 OA
ATOM     90  O   UNL A   1      46.663  24.823  38.427  1.00  0.00    -0.237 OA
ATOM     91  O   UNL A   1      44.224  25.058  38.159  1.00  0.00    -0.744 OA
ENDBRANCH  84  88
ENDBRANCH  58  81
ENDBRANCH  32  33
ENDBRANCH  24  27
ENDBRANCH  22  23
ENDBRANCH  21  22
ENDBRANCH  20  21
ENDBRANCH   1  20
TORSDOF 20
ENDMDL
MODEL 2
REMARK VINA RESULT:      -9.4      1.643      1.849
REMARK SMILES COCCOc1ccc(C(=O)NCCCCCCNC(=O)c2ccc(-c3c4nc(c(-c5cc(S(=O)(=O)[O-])ccc5F)c5ccc([nH]5)c(-c5cc(S(=O)(=O)[O-])ccc5F)c5nc(c(-c6cc(S(=O)(=O)[O-])ccc6F)c6ccc3[nH]6)C=C5)C=C4)cc2)cc1Br
REMARK SMILES IDX 15 1 14 2 13 3 12 4 10 5 11 6 9 8 6 9 7 10 86 11 8 12 85 13
REMARK SMILES IDX 87 14 5 15 4 16 3 17 2 18 1 19 16 20 17 21 18 22 19 23 20 24
REMARK SMILES IDX 21 26 22 27 23 28 84 29 24 30 83 31 25 32 26 33 27 34 77 35
REMARK SMILES IDX 28 36 82 37 76 38 78 39 29 40 81 41 75 42 74 43 30 45 62 46
REMARK SMILES IDX 42 47 61 48 43 49 46 50 60 51 79 52 44 53 45 54 59 56 80 57
REMARK SMILES IDX 47 58 31 59 32 60 40 61 33 62 39 63 41 64 38 65 34 66 35 67
REMARK SMILES IDX 36 68 37 69 63 70 64 71 72 72 65 73 71 74 73 75 70 76 66 77
REMARK SMILES IDX 67 78 68 79 69 80 48 81 49 82 57 83 50 84 56 85 58 86 55 87
REMARK SMILES IDX 51 88 52 89 53 90 54 91
REMARK H PARENT 12 7 19 25 78 44 46 55
REMARK Flexibility Score: inf
ROOT
ATOM      1  C   UNL A   1      35.140  31.537  27.650  1.00  0.00     0.002 C 
ENDROOT
BRANCH   1   2
ATOM      2  C   UNL A   1      35.592  30.076  27.695  1.00  0.00     0.021 C 
BRANCH   2   3
ATOM      3  C   UNL A   1      34.688  29.173  26.845  1.00  0.00     0.116 C 
BRANCH   3   4
ATOM      4  N   UNL A   1      33.618  28.617  27.655  1.00  0.00    -0.352 N 
ATOM      5  C   UNL A   1      32.340  28.200  27.377  1.00  0.00     0.251 C 
ATOM      6  O   UNL A   1      31.669  27.765  28.314  1.00  0.00    -0.269 OA
ATOM      7  H   UNL A   1      33.860  28.518  28.605  1.00  0.00     0.163 HD
BRANCH   5   8
ATOM      8  C   UNL A   1      31.750  28.197  26.007  1.00  0.00     0.041 A 
ATOM      9  C   UNL A   1      30.478  28.259  23.464  1.00  0.00     0.133 A 
ATOM     10  C   UNL A   1      30.730  29.438  24.190  1.00  0.00     0.048 A 
ATOM     11  C   UNL A   1      30.830  27.047  24.059  1.00  0.00     0.060 A 
ATOM     12  C   UNL A   1      31.306  29.406  25.467  1.00  0.00     0.018 A 
ATOM     13  C   UNL A   1      31.582  27.054  25.238  1.00  0.00     0.033 A 
ATOM     14  Br  UNL A   1      30.324  25.283  23.552  1.00  0.00    -0.047 Br
BRANCH   9  15
ATOM     15  O   UNL A   1      30.023  28.523  22.205  1.00  0.00    -0.490 OA
BRANCH  15  16
ATOM     16  C   UNL A   1      30.131  29.822  21.638  1.00  0.00     0.258 C 
BRANCH  16  17
ATOM     17  C   UNL A   1      28.784  30.523  21.388  1.00  0.00     0.201 C 
BRANCH  17  18
ATOM     18  O   UNL A   1      28.479  31.636  22.222  1.00  0.00    -0.381 OA
ATOM     19  C   UNL A   1      27.969  32.772  21.540  1.00  0.00     0.195 C 
ENDBRANCH  17  18
ENDBRANCH  16  17
ENDBRANCH  15  16
ENDBRANCH   9  15
ENDBRANCH   5   8
ENDBRANCH   3   4
ENDBRANCH   2   3
ENDBRANCH   1   2
BRANCH   1  20
ATOM     20  C   UNL A   1      33.643  31.721  27.933  1.00  0.00     0.002 C 
BRANCH  20  21
ATOM     21  C   UNL A   1      33.089  33.103  27.574  1.00  0.00     0.021 C 
BRANCH  21  22
ATOM     22  C   UNL A   1      33.973  34.265  28.012  1.00  0.00     0.116 C 
BRANCH  22  23
ATOM     23  N   UNL A   1      33.484  34.860  29.245  1.00  0.00    -0.352 N 
ATOM     24  C   UNL A   1      33.796  34.560  30.545  1.00  0.00     0.251 C 
ATOM     25  H   UNL A   1      32.831  35.589  29.129  1.00  0.00     0.163 HD
ATOM     26  O   UNL A   1      33.052  34.935  31.445  1.00  0.00    -0.269 OA
BRANCH  24  27
ATOM     27  C   UNL A   1      35.021  33.793  30.857  1.00  0.00     0.039 A 
ATOM     28  C   UNL A   1      36.257  34.308  30.462  1.00  0.00     0.014 A 
ATOM     29  C   UNL A   1      34.950  32.545  31.485  1.00  0.00     0.014 A 
ATOM     30  C   UNL A   1      37.421  33.587  30.725  1.00  0.00     0.010 A 
ATOM     31  C   UNL A   1      36.118  31.866  31.822  1.00  0.00     0.010 A 
ATOM     32  C   UNL A   1      37.365  32.370  31.427  1.00  0.00    -0.014 A 
BRANCH  32  33
ATOM     33  C   UNL A   1      38.606  31.615  31.733  1.00  0.00     0.031 A 
ATOM     34  C   UNL A   1      39.361  31.879  33.008  1.00  0.00     0.074 A 
ATOM     35  C   UNL A   1      39.060  30.707  30.847  1.00  0.00     0.049 A 
ATOM     36  N   UNL A   1      40.455  31.316  33.453  1.00  0.00    -0.248 NA
ATOM     37  C   UNL A   1      38.832  32.935  33.886  1.00  0.00     0.031 C 
ATOM     38  C   UNL A   1      38.437  30.406  29.556  1.00  0.00     0.029 A 
ATOM     39  N   UNL A   1      40.142  29.867  30.896  1.00  0.00    -0.354 N 
ATOM     40  C   UNL A   1      40.748  31.950  34.657  1.00  0.00     0.074 A 
ATOM     41  C   UNL A   1      39.755  32.988  34.834  1.00  0.00     0.031 C 
ATOM     42  C   UNL A   1      39.120  29.420  28.957  1.00  0.00     0.029 A 
ATOM     43  C   UNL A   1      40.256  29.050  29.794  1.00  0.00     0.049 A 
ATOM     44  H   UNL A   1      40.778  29.850  31.647  1.00  0.00     0.167 HD
ATOM     45  C   UNL A   1      41.736  31.672  35.543  1.00  0.00     0.034 A 
ATOM     46  C   UNL A   1      41.175  28.110  29.495  1.00  0.00     0.034 A 
ATOM     47  C   UNL A   1      42.714  30.628  35.347  1.00  0.00     0.049 A 
ATOM     48  C   UNL A   1      42.272  27.830  30.489  1.00  0.00     0.074 A 
ATOM     49  C   UNL A   1      43.728  30.225  36.198  1.00  0.00     0.029 A 
ATOM     50  N   UNL A   1      42.806  29.825  34.217  1.00  0.00    -0.354 N 
ATOM     51  N   UNL A   1      42.499  28.396  31.653  1.00  0.00    -0.248 NA
ATOM     52  C   UNL A   1      43.226  26.773  30.137  1.00  0.00     0.031 C 
ATOM     53  C   UNL A   1      44.477  29.236  35.552  1.00  0.00     0.029 A 
ATOM     54  C   UNL A   1      43.880  28.954  34.334  1.00  0.00     0.049 A 
ATOM     55  H   UNL A   1      42.197  29.869  33.443  1.00  0.00     0.167 HD
ATOM     56  C   UNL A   1      43.605  27.739  32.185  1.00  0.00     0.074 A 
ATOM     57  C   UNL A   1      43.979  26.721  31.224  1.00  0.00     0.031 C 
ATOM     58  C   UNL A   1      44.252  27.955  33.360  1.00  0.00     0.034 A 
BRANCH  45  59
ATOM     59  C   UNL A   1      41.818  32.529  36.786  1.00  0.00     0.023 A 
ATOM     60  C   UNL A   1      41.027  32.270  37.920  1.00  0.00     0.031 A 
ATOM     61  C   UNL A   1      42.685  33.636  36.834  1.00  0.00     0.131 A 
ATOM     62  C   UNL A   1      41.059  33.145  39.016  1.00  0.00     0.055 A 
ATOM     63  C   UNL A   1      42.777  34.454  37.963  1.00  0.00     0.041 A 
ATOM     64  F   UNL A   1      43.451  33.951  35.777  1.00  0.00    -0.206 F 
ATOM     65  C   UNL A   1      41.949  34.219  39.056  1.00  0.00     0.022 A 
BRANCH  62  66
ATOM     66  S   UNL A   1      39.816  32.946  40.323  1.00  0.00     0.124 S 
ATOM     67  O   UNL A   1      40.514  32.069  41.262  1.00  0.00    -0.237 OA
ATOM     68  O   UNL A   1      39.604  34.319  40.768  1.00  0.00    -0.237 OA
ATOM     69  O   UNL A   1      38.686  32.332  39.631  1.00  0.00    -0.744 OA
ENDBRANCH  62  66
ENDBRANCH  45  59
BRANCH  46  70
ATOM     70  C   UNL A   1      41.100  27.364  28.205  1.00  0.00     0.023 A 
ATOM     71  C   UNL A   1      40.644  26.037  28.158  1.00  0.00     0.031 A 
ATOM     72  C   UNL A   1      41.524  27.956  27.002  1.00  0.00     0.131 A 
ATOM     73  C   UNL A   1      40.673  25.329  26.947  1.00  0.00     0.055 A 
ATOM     74  C   UNL A   1      41.494  27.267  25.789  1.00  0.00     0.041 A 
ATOM     75  F   UNL A   1      41.965  29.225  26.987  1.00  0.00    -0.206 F 
ATOM     76  C   UNL A   1      41.080  25.939  25.760  1.00  0.00     0.022 A 
BRANCH  73  77
ATOM     77  S   UNL A   1      40.259  23.563  26.963  1.00  0.00     0.124 S 
ATOM     78  O   UNL A   1      40.580  23.196  28.338  1.00  0.00    -0.237 OA
ATOM     79  O   UNL A   1      38.841  23.582  26.619  1.00  0.00    -0.237 OA
ATOM     80  O   UNL A   1      41.138  22.998  25.944  1.00  0.00    -0.744 OA
ENDBRANCH  73  77
ENDBRANCH  46  70
BRANCH  58  81
ATOM     81  C   UNL A   1      45.408  27.036  33.679  1.00  0.00     0.023 A 
ATOM     82  C   UNL A   1      45.223  25.824  34.367  1.00  0.00     0.031 A 
ATOM     83  C   UNL A   1      46.719  27.396  33.318  1.00  0.00     0.131 A 
ATOM     84  C   UNL A   1      46.336  25.055  34.742  1.00  0.00     0.055 A 
ATOM     85  C   UNL A   1      47.815  26.590  33.628  1.00  0.00     0.041 A 
ATOM     86  F   UNL A   1      46.959  28.543  32.663  1.00  0.00    -0.206 F 
ATOM     87  C   UNL A   1      47.629  25.421  34.360  1.00  0.00     0.022 A 
BRANCH  84  88
ATOM     88  S   UNL A   1      46.080  23.641  35.847  1.00  0.00     0.124 S 
ATOM     89  O   UNL A   1      46.102  22.519  34.914  1.00  0.00    -0.237 OA
ATOM     90  O   UNL A   1      47.221  23.741  36.751  1.00  0.00    -0.237 OA
ATOM     91  O   UNL A   1      44.780  23.914  36.458  1.00  0.00    -0.744 OA
ENDBRANCH  84  88
ENDBRANCH  58  81
ENDBRANCH  32  33
ENDBRANCH  24  27
ENDBRANCH  22  23
ENDBRANCH  21  22
ENDBRANCH  20  21
ENDBRANCH   1  20
TORSDOF 20
ENDMDL
MODEL 3
REMARK VINA RESULT:      -9.2      1.855      2.813
REMARK SMILES COCCOc1ccc(C(=O)NCCCCCCNC(=O)c2ccc(-c3c4nc(c(-c5cc(S(=O)(=O)[O-])ccc5F)c5ccc([nH]5)c(-c5cc(S(=O)(=O)[O-])ccc5F)c5nc(c(-c6cc(S(=O)(=O)[O-])ccc6F)c6ccc3[nH]6)C=C5)C=C4)cc2)cc1Br
REMARK SMILES IDX 15 1 14 2 13 3 12 4 10 5 11 6 9 8 6 9 7 10 86 11 8 12 85 13
REMARK SMILES IDX 87 14 5 15 4 16 3 17 2 18 1 19 16 20 17 21 18 22 19 23 20 24
REMARK SMILES IDX 21 26 22 27 23 28 84 29 24 30 83 31 25 32 26 33 27 34 77 35
REMARK SMILES IDX 28 36 82 37 76 38 78 39 29 40 81 41 75 42 74 43 30 45 62 46
REMARK SMILES IDX 42 47 61 48 43 49 46 50 60 51 79 52 44 53 45 54 59 56 80 57
REMARK SMILES IDX 47 58 31 59 32 60 40 61 33 62 39 63 41 64 38 65 34 66 35 67
REMARK SMILES IDX 36 68 37 69 63 70 64 71 72 72 65 73 71 74 73 75 70 76 66 77
REMARK SMILES IDX 67 78 68 79 69 80 48 81 49 82 57 83 50 84 56 85 58 86 55 87
REMARK SMILES IDX 51 88 52 89 53 90 54 91
REMARK H PARENT 12 7 19 25 78 44 46 55
REMARK Flexibility Score: inf
ROOT
ATOM      1  C   UNL A   1      34.787  31.701  28.175  1.00  0.00     0.002 C 
ENDROOT
BRANCH   1   2
ATOM      2  C   UNL A   1      35.143  30.218  28.287  1.00  0.00     0.021 C 
BRANCH   2   3
ATOM      3  C   UNL A   1      34.452  29.381  27.201  1.00  0.00     0.116 C 
BRANCH   3   4
ATOM      4  N   UNL A   1      33.151  28.925  27.660  1.00  0.00    -0.352 N 
ATOM      5  C   UNL A   1      32.323  27.896  27.286  1.00  0.00     0.251 C 
ATOM      6  O   UNL A   1      31.258  27.776  27.891  1.00  0.00    -0.269 OA
ATOM      7  H   UNL A   1      32.785  29.470  28.394  1.00  0.00     0.163 HD
BRANCH   5   8
ATOM      8  C   UNL A   1      32.669  26.898  26.233  1.00  0.00     0.041 A 
ATOM      9  C   UNL A   1      33.247  25.097  24.109  1.00  0.00     0.133 A 
ATOM     10  C   UNL A   1      33.769  26.403  24.129  1.00  0.00     0.048 A 
ATOM     11  C   UNL A   1      32.391  24.727  25.147  1.00  0.00     0.060 A 
ATOM     12  C   UNL A   1      33.441  27.311  25.145  1.00  0.00     0.018 A 
ATOM     13  C   UNL A   1      32.241  25.577  26.248  1.00  0.00     0.033 A 
ATOM     14  Br  UNL A   1      31.241  23.214  25.257  1.00  0.00    -0.047 Br
BRANCH   9  15
ATOM     15  O   UNL A   1      33.783  24.350  23.101  1.00  0.00    -0.490 OA
BRANCH  15  16
ATOM     16  C   UNL A   1      34.467  23.133  23.366  1.00  0.00     0.258 C 
BRANCH  16  17
ATOM     17  C   UNL A   1      35.615  23.255  24.383  1.00  0.00     0.201 C 
BRANCH  17  18
ATOM     18  O   UNL A   1      36.911  22.871  23.935  1.00  0.00    -0.381 OA
ATOM     19  C   UNL A   1      37.342  21.593  24.377  1.00  0.00     0.195 C 
ENDBRANCH  17  18
ENDBRANCH  16  17
ENDBRANCH  15  16
ENDBRANCH   9  15
ENDBRANCH   5   8
ENDBRANCH   3   4
ENDBRANCH   2   3
ENDBRANCH   1   2
BRANCH   1  20
ATOM     20  C   UNL A   1      33.404  31.951  27.558  1.00  0.00     0.002 C 
BRANCH  20  21
ATOM     21  C   UNL A   1      32.944  33.412  27.590  1.00  0.00     0.021 C 
BRANCH  21  22
ATOM     22  C   UNL A   1      33.944  34.370  28.227  1.00  0.00     0.116 C 
BRANCH  22  23
ATOM     23  N   UNL A   1      33.389  34.992  29.418  1.00  0.00    -0.352 N 
ATOM     24  C   UNL A   1      33.630  34.723  30.739  1.00  0.00     0.251 C 
ATOM     25  H   UNL A   1      32.743  35.717  29.250  1.00  0.00     0.163 HD
ATOM     26  O   UNL A   1      32.838  35.117  31.589  1.00  0.00    -0.269 OA
BRANCH  24  27
ATOM     27  C   UNL A   1      34.838  33.966  31.134  1.00  0.00     0.039 A 
ATOM     28  C   UNL A   1      36.094  34.485  30.814  1.00  0.00     0.014 A 
ATOM     29  C   UNL A   1      34.734  32.723  31.769  1.00  0.00     0.014 A 
ATOM     30  C   UNL A   1      37.243  33.773  31.156  1.00  0.00     0.010 A 
ATOM     31  C   UNL A   1      35.882  32.054  32.184  1.00  0.00     0.010 A 
ATOM     32  C   UNL A   1      37.149  32.562  31.864  1.00  0.00    -0.014 A 
BRANCH  32  33
ATOM     33  C   UNL A   1      38.373  31.817  32.254  1.00  0.00     0.031 A 
ATOM     34  C   UNL A   1      39.070  32.129  33.551  1.00  0.00     0.074 A 
ATOM     35  C   UNL A   1      38.862  30.875  31.425  1.00  0.00     0.049 A 
ATOM     36  N   UNL A   1      40.141  31.582  34.066  1.00  0.00    -0.248 NA
ATOM     37  C   UNL A   1      38.506  33.219  34.363  1.00  0.00     0.031 C 
ATOM     38  C   UNL A   1      38.297  30.526  30.120  1.00  0.00     0.029 A 
ATOM     39  N   UNL A   1      39.938  30.036  31.555  1.00  0.00    -0.354 N 
ATOM     40  C   UNL A   1      40.381  32.260  35.257  1.00  0.00     0.074 A 
ATOM     41  C   UNL A   1      39.385  33.306  35.349  1.00  0.00     0.031 C 
ATOM     42  C   UNL A   1      39.003  29.516  29.590  1.00  0.00     0.029 A 
ATOM     43  C   UNL A   1      40.099  29.177  30.492  1.00  0.00     0.049 A 
ATOM     44  H   UNL A   1      40.539  30.046  32.334  1.00  0.00     0.167 HD
ATOM     45  C   UNL A   1      41.328  32.015  36.197  1.00  0.00     0.034 A 
ATOM     46  C   UNL A   1      41.027  28.224  30.270  1.00  0.00     0.034 A 
ATOM     47  C   UNL A   1      42.309  30.962  36.085  1.00  0.00     0.049 A 
ATOM     48  C   UNL A   1      42.077  27.981  31.323  1.00  0.00     0.074 A 
ATOM     49  C   UNL A   1      43.283  30.591  36.996  1.00  0.00     0.029 A 
ATOM     50  N   UNL A   1      42.449  30.117  34.992  1.00  0.00    -0.354 N 
ATOM     51  N   UNL A   1      42.253  28.591  32.473  1.00  0.00    -0.248 NA
ATOM     52  C   UNL A   1      43.042  26.910  31.055  1.00  0.00     0.031 C 
ATOM     53  C   UNL A   1      44.057  29.576  36.422  1.00  0.00     0.029 A 
ATOM     54  C   UNL A   1      43.514  29.249  35.190  1.00  0.00     0.049 A 
ATOM     55  H   UNL A   1      41.877  30.132  34.191  1.00  0.00     0.167 HD
ATOM     56  C   UNL A   1      43.332  27.953  33.079  1.00  0.00     0.074 A 
ATOM     57  C   UNL A   1      43.746  26.898  32.176  1.00  0.00     0.031 C 
ATOM     58  C   UNL A   1      43.926  28.213  34.273  1.00  0.00     0.034 A 
BRANCH  45  59
ATOM     59  C   UNL A   1      41.357  32.918  37.409  1.00  0.00     0.023 A 
ATOM     60  C   UNL A   1      40.575  32.657  38.549  1.00  0.00     0.031 A 
ATOM     61  C   UNL A   1      42.161  34.072  37.420  1.00  0.00     0.131 A 
ATOM     62  C   UNL A   1      40.554  33.571  39.613  1.00  0.00     0.055 A 
ATOM     63  C   UNL A   1      42.203  34.934  38.518  1.00  0.00     0.041 A 
ATOM     64  F   UNL A   1      42.914  34.391  36.354  1.00  0.00    -0.206 F 
ATOM     65  C   UNL A   1      41.384  34.694  39.617  1.00  0.00     0.022 A 
BRANCH  62  66
ATOM     66  S   UNL A   1      39.318  33.352  40.922  1.00  0.00     0.124 S 
ATOM     67  O   UNL A   1      39.798  34.284  41.940  1.00  0.00    -0.237 OA
ATOM     68  O   UNL A   1      38.077  33.722  40.250  1.00  0.00    -0.237 OA
ATOM     69  O   UNL A   1      39.439  31.939  41.276  1.00  0.00    -0.744 OA
ENDBRANCH  62  66
ENDBRANCH  45  59
BRANCH  46  70
ATOM     70  C   UNL A   1      41.008  27.430  29.007  1.00  0.00     0.023 A 
ATOM     71  C   UNL A   1      41.975  27.629  28.009  1.00  0.00     0.031 A 
ATOM     72  C   UNL A   1      39.994  26.486  28.763  1.00  0.00     0.131 A 
ATOM     73  C   UNL A   1      41.878  26.935  26.793  1.00  0.00     0.055 A 
ATOM     74  C   UNL A   1      39.937  25.755  27.575  1.00  0.00     0.041 A 
ATOM     75  F   UNL A   1      39.047  26.251  29.685  1.00  0.00    -0.206 F 
ATOM     76  C   UNL A   1      40.876  25.989  26.575  1.00  0.00     0.022 A 
BRANCH  73  77
ATOM     77  S   UNL A   1      43.030  27.359  25.458  1.00  0.00     0.124 S 
ATOM     78  O   UNL A   1      44.146  27.934  26.200  1.00  0.00    -0.237 OA
ATOM     79  O   UNL A   1      43.271  26.058  24.842  1.00  0.00    -0.237 OA
ATOM     80  O   UNL A   1      42.272  28.302  24.640  1.00  0.00    -0.744 OA
ENDBRANCH  73  77
ENDBRANCH  46  70
BRANCH  58  81
ATOM     81  C   UNL A   1      45.064  27.304  34.679  1.00  0.00     0.023 A 
ATOM     82  C   UNL A   1      44.835  26.061  35.295  1.00  0.00     0.031 A 
ATOM     83  C   UNL A   1      46.397  27.705  34.476  1.00  0.00     0.131 A 
ATOM     84  C   UNL A   1      45.920  25.300  35.758  1.00  0.00     0.055 A 
ATOM     85  C   UNL A   1      47.473  26.909  34.872  1.00  0.00     0.041 A 
ATOM     86  F   UNL A   1      46.677  28.884  33.897  1.00  0.00    -0.206 F 
ATOM     87  C   UNL A   1      47.237  25.707  35.532  1.00  0.00     0.022 A 
BRANCH  84  88
ATOM     88  S   UNL A   1      45.582  23.835  36.772  1.00  0.00     0.124 S 
ATOM     89  O   UNL A   1      45.019  24.427  37.981  1.00  0.00    -0.237 OA
ATOM     90  O   UNL A   1      44.651  23.085  35.936  1.00  0.00    -0.237 OA
ATOM     91  O   UNL A   1      46.899  23.222  36.937  1.00  0.00    -0.744 OA
ENDBRANCH  84  88
ENDBRANCH  58  81
ENDBRANCH  32  33
ENDBRANCH  24  27
ENDBRANCH  22  23
ENDBRANCH  21  22
ENDBRANCH  20  21
ENDBRANCH   1  20
TORSDOF 20
ENDMDL
