MODEL 1
REMARK VINA RESULT:     -12.1      0.000      0.000
REMARK SMILES Nc1cc(C(=O)NCCCCCCNC(=O)c2ccc(-c3c4nc(c(-c5cc(S(=O)(=O)[O-])ccc5F)c5ccc([nH]5)c(-c5cc(S(=O)(=O)[O-])ccc5F)c5nc(c(-c6cc(S(=O)(=O)[O-])ccc6F)c6ccc3[nH]6)C=C5)C=C4)cc2)ccc1N1CC2(CCOCC2)C1
REMARK SMILES IDX 11 1 10 2 9 3 8 4 7 5 5 6 6 7 4 9 2 10 3 11 82 12 81 13
REMARK SMILES IDX 80 14 1 15 83 18 84 19 91 20 85 21 86 22 90 23 87 24 89 25
REMARK SMILES IDX 88 26 12 27 13 28 14 29 15 30 16 32 17 33 18 34 79 35 19 36
REMARK SMILES IDX 78 37 20 38 21 39 22 40 72 41 23 42 77 43 71 44 73 45 24 46
REMARK SMILES IDX 76 47 70 48 69 49 25 51 57 52 37 53 56 54 38 55 41 56 55 57
REMARK SMILES IDX 74 58 39 59 40 60 54 62 75 63 42 64 26 65 27 66 35 67 28 68
REMARK SMILES IDX 34 69 36 70 33 71 29 72 30 73 31 74 32 75 58 76 59 77 67 78
REMARK SMILES IDX 60 79 66 80 68 81 65 82 61 83 62 84 63 85 64 86 43 87 44 88
REMARK SMILES IDX 52 89 45 90 51 91 53 92 50 93 46 94 47 95 48 96 49 97
REMARK H PARENT 7 8 1 16 1 17 14 31 73 50 41 61
REMARK Flexibility Score: inf
ROOT
ATOM      1  C   UNL A   1      32.111  26.982  26.518  1.00  0.00     0.002 C 
ENDROOT
BRANCH   1   2
ATOM      2  C   UNL A   1      33.508  26.582  26.026  1.00  0.00     0.002 C 
BRANCH   2   3
ATOM      3  C   UNL A   1      33.792  25.072  26.070  1.00  0.00     0.021 C 
BRANCH   3   4
ATOM      4  C   UNL A   1      34.331  24.535  24.745  1.00  0.00     0.116 C 
BRANCH   4   5
ATOM      5  N   UNL A   1      33.331  23.705  24.111  1.00  0.00    -0.352 N 
ATOM      6  C   UNL A   1      32.109  23.947  23.555  1.00  0.00     0.251 C 
ATOM      7  O   UNL A   1      31.480  22.949  23.187  1.00  0.00    -0.269 OA
ATOM      8  H   UNL A   1      33.590  22.756  24.072  1.00  0.00     0.163 HD
BRANCH   6   9
ATOM      9  C   UNL A   1      31.517  25.300  23.315  1.00  0.00     0.041 A 
ATOM     10  C   UNL A   1      29.473  26.638  23.525  1.00  0.00     0.056 A 
ATOM     11  C   UNL A   1      30.185  25.451  23.729  1.00  0.00     0.041 A 
ATOM     12  C   UNL A   1      30.079  27.692  22.811  1.00  0.00     0.060 A 
ATOM     13  C   UNL A   1      31.412  27.560  22.421  1.00  0.00     0.029 A 
ATOM     14  C   UNL A   1      32.139  26.397  22.717  1.00  0.00     0.016 A 
BRANCH  10  15
ATOM     15  N   UNL A   1      28.120  26.668  23.867  1.00  0.00    -0.397 N 
ATOM     16  H   UNL A   1      27.801  27.289  24.562  1.00  0.00     0.156 HD
ATOM     17  H   UNL A   1      27.484  26.069  23.414  1.00  0.00     0.156 HD
ENDBRANCH  10  15
BRANCH  12  18
ATOM     18  N   UNL A   1      29.342  28.833  22.476  1.00  0.00    -0.369 N 
ATOM     19  C   UNL A   1      29.728  30.021  21.793  1.00  0.00     0.125 C 
ATOM     20  C   UNL A   1      27.947  29.051  22.273  1.00  0.00     0.125 C 
ATOM     21  C   UNL A   1      28.319  30.556  22.171  1.00  0.00     0.010 C 
ATOM     22  C   UNL A   1      27.592  31.380  21.114  1.00  0.00     0.039 C 
ATOM     23  C   UNL A   1      28.271  31.291  23.525  1.00  0.00     0.039 C 
ATOM     24  C   UNL A   1      28.214  32.773  21.069  1.00  0.00     0.161 C 
ATOM     25  C   UNL A   1      28.872  32.678  23.346  1.00  0.00     0.161 C 
ATOM     26  O   UNL A   1      28.147  33.404  22.353  1.00  0.00    -0.381 OA
ENDBRANCH  12  18
ENDBRANCH   6   9
ENDBRANCH   4   5
ENDBRANCH   3   4
ENDBRANCH   2   3
ENDBRANCH   1   2
BRANCH   1  27
ATOM     27  C   UNL A   1      31.835  28.487  26.501  1.00  0.00     0.021 C 
BRANCH  27  28
ATOM     28  C   UNL A   1      32.998  29.319  25.974  1.00  0.00     0.116 C 
BRANCH  28  29
ATOM     29  N   UNL A   1      32.807  30.732  26.263  1.00  0.00    -0.352 N 
ATOM     30  C   UNL A   1      33.462  31.525  27.171  1.00  0.00     0.251 C 
ATOM     31  H   UNL A   1      32.110  31.182  25.732  1.00  0.00     0.163 HD
ATOM     32  O   UNL A   1      32.991  32.611  27.486  1.00  0.00    -0.269 OA
BRANCH  30  33
ATOM     33  C   UNL A   1      34.728  31.050  27.769  1.00  0.00     0.039 A 
ATOM     34  C   UNL A   1      35.807  31.931  27.867  1.00  0.00     0.014 A 
ATOM     35  C   UNL A   1      34.848  29.733  28.223  1.00  0.00     0.014 A 
ATOM     36  C   UNL A   1      36.992  31.503  28.469  1.00  0.00     0.010 A 
ATOM     37  C   UNL A   1      36.001  29.333  28.890  1.00  0.00     0.010 A 
ATOM     38  C   UNL A   1      37.088  30.211  29.013  1.00  0.00    -0.014 A 
BRANCH  38  39
ATOM     39  C   UNL A   1      38.323  29.757  29.703  1.00  0.00     0.031 A 
ATOM     40  C   UNL A   1      38.673  30.310  31.058  1.00  0.00     0.074 A 
ATOM     41  C   UNL A   1      39.153  28.895  29.084  1.00  0.00     0.049 A 
ATOM     42  N   UNL A   1      39.738  30.099  31.789  1.00  0.00    -0.248 NA
ATOM     43  C   UNL A   1      37.711  31.248  31.657  1.00  0.00     0.031 C 
ATOM     44  C   UNL A   1      38.935  28.321  27.754  1.00  0.00     0.029 A 
ATOM     45  N   UNL A   1      40.350  28.356  29.485  1.00  0.00    -0.354 N 
ATOM     46  C   UNL A   1      39.579  30.884  32.926  1.00  0.00     0.074 A 
ATOM     47  C   UNL A   1      38.347  31.625  32.755  1.00  0.00     0.031 C 
ATOM     48  C   UNL A   1      39.948  27.489  27.463  1.00  0.00     0.029 A 
ATOM     49  C   UNL A   1      40.914  27.510  28.557  1.00  0.00     0.049 A 
ATOM     50  H   UNL A   1      40.765  28.555  30.354  1.00  0.00     0.167 HD
ATOM     51  C   UNL A   1      40.375  30.959  34.021  1.00  0.00     0.034 A 
ATOM     52  C   UNL A   1      42.082  26.839  28.579  1.00  0.00     0.034 A 
ATOM     53  C   UNL A   1      41.595  30.205  34.176  1.00  0.00     0.049 A 
ATOM     54  C   UNL A   1      42.969  26.966  29.793  1.00  0.00     0.074 A 
ATOM     55  C   UNL A   1      42.453  30.167  35.261  1.00  0.00     0.029 A 
ATOM     56  N   UNL A   1      42.138  29.362  33.213  1.00  0.00    -0.354 N 
ATOM     57  N   UNL A   1      42.782  27.677  30.882  1.00  0.00    -0.248 NA
ATOM     58  C   UNL A   1      44.218  26.195  29.786  1.00  0.00     0.031 C 
ATOM     59  C   UNL A   1      43.549  29.365  34.927  1.00  0.00     0.029 A 
ATOM     60  C   UNL A   1      43.335  28.828  33.667  1.00  0.00     0.049 A 
ATOM     61  H   UNL A   1      41.732  29.171  32.337  1.00  0.00     0.167 HD
ATOM     62  C   UNL A   1      43.872  27.405  31.704  1.00  0.00     0.074 A 
ATOM     63  C   UNL A   1      44.704  26.459  30.990  1.00  0.00     0.031 C 
ATOM     64  C   UNL A   1      44.158  27.889  32.941  1.00  0.00     0.034 A 
BRANCH  51  65
ATOM     65  C   UNL A   1      39.961  31.910  35.120  1.00  0.00     0.023 A 
ATOM     66  C   UNL A   1      39.185  31.486  36.214  1.00  0.00     0.031 A 
ATOM     67  C   UNL A   1      40.328  33.267  35.064  1.00  0.00     0.131 A 
ATOM     68  C   UNL A   1      38.739  32.418  37.162  1.00  0.00     0.055 A 
ATOM     69  C   UNL A   1      39.954  34.174  36.058  1.00  0.00     0.041 A 
ATOM     70  F   UNL A   1      41.048  33.740  34.034  1.00  0.00    -0.206 F 
ATOM     71  C   UNL A   1      39.141  33.754  37.107  1.00  0.00     0.022 A 
BRANCH  68  72
ATOM     72  S   UNL A   1      37.503  31.890  38.380  1.00  0.00     0.124 S 
ATOM     73  O   UNL A   1      36.450  32.882  38.179  1.00  0.00    -0.237 OA
ATOM     74  O   UNL A   1      37.194  30.532  37.947  1.00  0.00    -0.237 OA
ATOM     75  O   UNL A   1      38.212  31.995  39.654  1.00  0.00    -0.744 OA
ENDBRANCH  68  72
ENDBRANCH  51  65
BRANCH  52  76
ATOM     76  C   UNL A   1      42.494  25.997  27.419  1.00  0.00     0.023 A 
ATOM     77  C   UNL A   1      42.087  24.657  27.316  1.00  0.00     0.031 A 
ATOM     78  C   UNL A   1      43.339  26.506  26.416  1.00  0.00     0.131 A 
ATOM     79  C   UNL A   1      42.565  23.858  26.267  1.00  0.00     0.055 A 
ATOM     80  C   UNL A   1      43.764  25.724  25.341  1.00  0.00     0.041 A 
ATOM     81  F   UNL A   1      43.756  27.781  26.462  1.00  0.00    -0.206 F 
ATOM     82  C   UNL A   1      43.389  24.385  25.270  1.00  0.00     0.022 A 
BRANCH  79  83
ATOM     83  S   UNL A   1      42.176  22.086  26.278  1.00  0.00     0.124 S 
ATOM     84  O   UNL A   1      42.629  21.692  27.607  1.00  0.00    -0.237 OA
ATOM     85  O   UNL A   1      40.732  22.093  26.068  1.00  0.00    -0.237 OA
ATOM     86  O   UNL A   1      42.964  21.558  25.167  1.00  0.00    -0.744 OA
ENDBRANCH  79  83
ENDBRANCH  52  76
BRANCH  64  87
ATOM     87  C   UNL A   1      45.397  27.355  33.620  1.00  0.00     0.023 A 
ATOM     88  C   UNL A   1      45.369  26.196  34.415  1.00  0.00     0.031 A 
ATOM     89  C   UNL A   1      46.625  28.024  33.469  1.00  0.00     0.131 A 
ATOM     90  C   UNL A   1      46.533  25.773  35.073  1.00  0.00     0.055 A 
ATOM     91  C   UNL A   1      47.794  27.560  34.073  1.00  0.00     0.041 A 
ATOM     92  F   UNL A   1      46.709  29.139  32.725  1.00  0.00    -0.206 F 
ATOM     93  C   UNL A   1      47.750  26.436  34.891  1.00  0.00     0.022 A 
BRANCH  90  94
ATOM     94  S   UNL A   1      46.418  24.397  36.249  1.00  0.00     0.124 S 
ATOM     95  O   UNL A   1      47.479  24.719  37.197  1.00  0.00    -0.237 OA
ATOM     96  O   UNL A   1      45.053  24.529  36.751  1.00  0.00    -0.237 OA
ATOM     97  O   UNL A   1      46.662  23.216  35.422  1.00  0.00    -0.744 OA
ENDBRANCH  90  94
ENDBRANCH  64  87
ENDBRANCH  38  39
ENDBRANCH  30  33
ENDBRANCH  28  29
ENDBRANCH  27  28
ENDBRANCH   1  27
TORSDOF 18
ENDMDL
MODEL 2
REMARK VINA RESULT:     -12.0      2.579      9.025
REMARK SMILES Nc1cc(C(=O)NCCCCCCNC(=O)c2ccc(-c3c4nc(c(-c5cc(S(=O)(=O)[O-])ccc5F)c5ccc([nH]5)c(-c5cc(S(=O)(=O)[O-])ccc5F)c5nc(c(-c6cc(S(=O)(=O)[O-])ccc6F)c6ccc3[nH]6)C=C5)C=C4)cc2)ccc1N1CC2(CCOCC2)C1
REMARK SMILES IDX 11 1 10 2 9 3 8 4 7 5 5 6 6 7 4 9 2 10 3 11 82 12 81 13
REMARK SMILES IDX 80 14 1 15 83 18 84 19 91 20 85 21 86 22 90 23 87 24 89 25
REMARK SMILES IDX 88 26 12 27 13 28 14 29 15 30 16 32 17 33 18 34 79 35 19 36
REMARK SMILES IDX 78 37 20 38 21 39 22 40 72 41 23 42 77 43 71 44 73 45 24 46
REMARK SMILES IDX 76 47 70 48 69 49 25 51 57 52 37 53 56 54 38 55 41 56 55 57
REMARK SMILES IDX 74 58 39 59 40 60 54 62 75 63 42 64 26 65 27 66 35 67 28 68
REMARK SMILES IDX 34 69 36 70 33 71 29 72 30 73 31 74 32 75 58 76 59 77 67 78
REMARK SMILES IDX 60 79 66 80 68 81 65 82 61 83 62 84 63 85 64 86 43 87 44 88
REMARK SMILES IDX 52 89 45 90 51 91 53 92 50 93 46 94 47 95 48 96 49 97
REMARK H PARENT 7 8 1 16 1 17 14 31 73 50 41 61
REMARK Flexibility Score: inf
ROOT
ATOM      1  C   UNL A   1      31.383  30.290  25.512  1.00  0.00     0.002 C 
ENDROOT
BRANCH   1   2
ATOM      2  C   UNL A   1      32.118  29.222  26.332  1.00  0.00     0.002 C 
BRANCH   2   3
ATOM      3  C   UNL A   1      33.160  28.416  25.541  1.00  0.00     0.021 C 
BRANCH   3   4
ATOM      4  C   UNL A   1      32.567  27.170  24.883  1.00  0.00     0.116 C 
BRANCH   4   5
ATOM      5  N   UNL A   1      33.020  27.078  23.514  1.00  0.00    -0.352 N 
ATOM      6  C   UNL A   1      33.534  26.071  22.749  1.00  0.00     0.251 C 
ATOM      7  O   UNL A   1      33.908  26.396  21.617  1.00  0.00    -0.269 OA
ATOM      8  H   UNL A   1      32.939  27.928  23.025  1.00  0.00     0.163 HD
BRANCH   6   9
ATOM      9  C   UNL A   1      33.623  24.633  23.153  1.00  0.00     0.041 A 
ATOM     10  C   UNL A   1      32.767  22.384  22.683  1.00  0.00     0.056 A 
ATOM     11  C   UNL A   1      32.836  23.751  22.396  1.00  0.00     0.041 A 
ATOM     12  C   UNL A   1      33.442  21.882  23.815  1.00  0.00     0.060 A 
ATOM     13  C   UNL A   1      34.248  22.747  24.556  1.00  0.00     0.029 A 
ATOM     14  C   UNL A   1      34.378  24.097  24.196  1.00  0.00     0.016 A 
BRANCH  10  15
ATOM     15  N   UNL A   1      31.878  21.595  21.952  1.00  0.00    -0.397 N 
ATOM     16  H   UNL A   1      32.220  20.895  21.351  1.00  0.00     0.156 HD
ATOM     17  H   UNL A   1      30.908  21.739  22.037  1.00  0.00     0.156 HD
ENDBRANCH  10  15
BRANCH  12  18
ATOM     18  N   UNL A   1      33.278  20.547  24.200  1.00  0.00    -0.369 N 
ATOM     19  C   UNL A   1      34.230  19.579  24.628  1.00  0.00     0.125 C 
ATOM     20  C   UNL A   1      32.164  19.830  24.730  1.00  0.00     0.125 C 
ATOM     21  C   UNL A   1      33.053  18.566  24.568  1.00  0.00     0.010 C 
ATOM     22  C   UNL A   1      32.988  17.524  25.679  1.00  0.00     0.039 C 
ATOM     23  C   UNL A   1      32.891  17.876  23.199  1.00  0.00     0.039 C 
ATOM     24  C   UNL A   1      34.046  16.457  25.409  1.00  0.00     0.161 C 
ATOM     25  C   UNL A   1      33.965  16.805  23.064  1.00  0.00     0.161 C 
ATOM     26  O   UNL A   1      33.849  15.856  24.125  1.00  0.00    -0.381 OA
ENDBRANCH  12  18
ENDBRANCH   6   9
ENDBRANCH   4   5
ENDBRANCH   3   4
ENDBRANCH   2   3
ENDBRANCH   1   2
BRANCH   1  27
ATOM     27  C   UNL A   1      31.279  31.657  26.191  1.00  0.00     0.021 C 
BRANCH  27  28
ATOM     28  C   UNL A   1      32.556  32.087  26.906  1.00  0.00     0.116 C 
BRANCH  28  29
ATOM     29  N   UNL A   1      32.497  33.490  27.287  1.00  0.00    -0.352 N 
ATOM     30  C   UNL A   1      33.196  34.148  28.268  1.00  0.00     0.251 C 
ATOM     31  H   UNL A   1      31.869  34.043  26.770  1.00  0.00     0.163 HD
ATOM     32  O   UNL A   1      32.826  35.254  28.644  1.00  0.00    -0.269 OA
BRANCH  30  33
ATOM     33  C   UNL A   1      34.385  33.506  28.867  1.00  0.00     0.039 A 
ATOM     34  C   UNL A   1      35.644  34.072  28.652  1.00  0.00     0.014 A 
ATOM     35  C   UNL A   1      34.255  32.343  29.631  1.00  0.00     0.014 A 
ATOM     36  C   UNL A   1      36.768  33.497  29.248  1.00  0.00     0.010 A 
ATOM     37  C   UNL A   1      35.364  31.818  30.286  1.00  0.00     0.010 A 
ATOM     38  C   UNL A   1      36.633  32.384  30.095  1.00  0.00    -0.014 A 
BRANCH  38  39
ATOM     39  C   UNL A   1      37.810  31.791  30.779  1.00  0.00     0.031 A 
ATOM     40  C   UNL A   1      38.663  30.776  30.066  1.00  0.00     0.074 A 
ATOM     41  C   UNL A   1      38.075  32.123  32.058  1.00  0.00     0.049 A 
ATOM     42  N   UNL A   1      39.683  30.090  30.514  1.00  0.00    -0.248 NA
ATOM     43  C   UNL A   1      38.299  30.472  28.674  1.00  0.00     0.031 C 
ATOM     44  C   UNL A   1      37.296  33.068  32.862  1.00  0.00     0.029 A 
ATOM     45  N   UNL A   1      39.064  31.701  32.911  1.00  0.00    -0.354 N 
ATOM     46  C   UNL A   1      40.077  29.267  29.464  1.00  0.00     0.074 A 
ATOM     47  C   UNL A   1      39.142  29.493  28.382  1.00  0.00     0.031 C 
ATOM     48  C   UNL A   1      37.854  33.174  34.079  1.00  0.00     0.029 A 
ATOM     49  C   UNL A   1      38.995  32.268  34.163  1.00  0.00     0.049 A 
ATOM     50  H   UNL A   1      39.758  31.053  32.650  1.00  0.00     0.167 HD
ATOM     51  C   UNL A   1      41.135  28.421  29.401  1.00  0.00     0.034 A 
ATOM     52  C   UNL A   1      39.757  32.071  35.257  1.00  0.00     0.034 A 
ATOM     53  C   UNL A   1      42.060  28.217  30.489  1.00  0.00     0.049 A 
ATOM     54  C   UNL A   1      40.906  31.097  35.175  1.00  0.00     0.074 A 
ATOM     55  C   UNL A   1      43.192  27.421  30.520  1.00  0.00     0.029 A 
ATOM     56  N   UNL A   1      41.956  28.805  31.745  1.00  0.00    -0.354 N 
ATOM     57  N   UNL A   1      41.294  30.360  34.159  1.00  0.00    -0.248 NA
ATOM     58  C   UNL A   1      41.726  30.936  36.382  1.00  0.00     0.031 C 
ATOM     59  C   UNL A   1      43.727  27.468  31.811  1.00  0.00     0.029 A 
ATOM     60  C   UNL A   1      42.984  28.362  32.564  1.00  0.00     0.049 A 
ATOM     61  H   UNL A   1      41.256  29.442  32.012  1.00  0.00     0.167 HD
ATOM     62  C   UNL A   1      42.427  29.679  34.595  1.00  0.00     0.074 A 
ATOM     63  C   UNL A   1      42.664  30.101  35.960  1.00  0.00     0.031 C 
ATOM     64  C   UNL A   1      43.205  28.788  33.927  1.00  0.00     0.034 A 
BRANCH  51  65
ATOM     65  C   UNL A   1      41.325  27.635  28.125  1.00  0.00     0.023 A 
ATOM     66  C   UNL A   1      40.977  26.275  28.033  1.00  0.00     0.031 A 
ATOM     67  C   UNL A   1      41.882  28.247  26.988  1.00  0.00     0.131 A 
ATOM     68  C   UNL A   1      41.259  25.555  26.862  1.00  0.00     0.055 A 
ATOM     69  C   UNL A   1      42.079  27.547  25.796  1.00  0.00     0.041 A 
ATOM     70  F   UNL A   1      42.256  29.536  27.018  1.00  0.00    -0.206 F 
ATOM     71  C   UNL A   1      41.782  26.189  25.733  1.00  0.00     0.022 A 
BRANCH  68  72
ATOM     72  S   UNL A   1      41.073  23.752  26.890  1.00  0.00     0.124 S 
ATOM     73  O   UNL A   1      42.004  23.345  25.840  1.00  0.00    -0.237 OA
ATOM     74  O   UNL A   1      41.461  23.415  28.255  1.00  0.00    -0.237 OA
ATOM     75  O   UNL A   1      39.661  23.548  26.572  1.00  0.00    -0.744 OA
ENDBRANCH  68  72
ENDBRANCH  51  65
BRANCH  52  76
ATOM     76  C   UNL A   1      39.458  32.794  36.528  1.00  0.00     0.023 A 
ATOM     77  C   UNL A   1      38.592  32.243  37.486  1.00  0.00     0.031 A 
ATOM     78  C   UNL A   1      39.999  34.066  36.783  1.00  0.00     0.131 A 
ATOM     79  C   UNL A   1      38.251  32.983  38.628  1.00  0.00     0.055 A 
ATOM     80  C   UNL A   1      39.703  34.773  37.949  1.00  0.00     0.041 A 
ATOM     81  F   UNL A   1      40.835  34.639  35.903  1.00  0.00    -0.206 F 
ATOM     82  C   UNL A   1      38.811  34.239  38.874  1.00  0.00     0.022 A 
BRANCH  79  83
ATOM     83  S   UNL A   1      36.981  32.323  39.743  1.00  0.00     0.124 S 
ATOM     84  O   UNL A   1      37.236  30.889  39.666  1.00  0.00    -0.237 OA
ATOM     85  O   UNL A   1      37.321  32.970  41.005  1.00  0.00    -0.237 OA
ATOM     86  O   UNL A   1      35.730  32.767  39.133  1.00  0.00    -0.744 OA
ENDBRANCH  79  83
ENDBRANCH  52  76
BRANCH  64  87
ATOM     87  C   UNL A   1      44.419  28.256  34.650  1.00  0.00     0.023 A 
ATOM     88  C   UNL A   1      44.377  27.067  35.400  1.00  0.00     0.031 A 
ATOM     89  C   UNL A   1      45.638  28.956  34.588  1.00  0.00     0.131 A 
ATOM     90  C   UNL A   1      45.516  26.646  36.103  1.00  0.00     0.055 A 
ATOM     91  C   UNL A   1      46.785  28.496  35.234  1.00  0.00     0.041 A 
ATOM     92  F   UNL A   1      45.734  30.099  33.889  1.00  0.00    -0.206 F 
ATOM     93  C   UNL A   1      46.725  27.341  36.008  1.00  0.00     0.022 A 
BRANCH  90  94
ATOM     94  S   UNL A   1      45.373  25.225  37.221  1.00  0.00     0.124 S 
ATOM     95  O   UNL A   1      46.225  25.629  38.335  1.00  0.00    -0.237 OA
ATOM     96  O   UNL A   1      43.939  25.187  37.496  1.00  0.00    -0.237 OA
ATOM     97  O   UNL A   1      45.880  24.108  36.425  1.00  0.00    -0.744 OA
ENDBRANCH  90  94
ENDBRANCH  64  87
ENDBRANCH  38  39
ENDBRANCH  30  33
ENDBRANCH  28  29
ENDBRANCH  27  28
ENDBRANCH   1  27
TORSDOF 18
ENDMDL
MODEL 3
REMARK VINA RESULT:     -11.8      1.430      7.582
REMARK SMILES Nc1cc(C(=O)NCCCCCCNC(=O)c2ccc(-c3c4nc(c(-c5cc(S(=O)(=O)[O-])ccc5F)c5ccc([nH]5)c(-c5cc(S(=O)(=O)[O-])ccc5F)c5nc(c(-c6cc(S(=O)(=O)[O-])ccc6F)c6ccc3[nH]6)C=C5)C=C4)cc2)ccc1N1CC2(CCOCC2)C1
REMARK SMILES IDX 11 1 10 2 9 3 8 4 7 5 5 6 6 7 4 9 2 10 3 11 82 12 81 13
REMARK SMILES IDX 80 14 1 15 83 18 84 19 91 20 85 21 86 22 90 23 87 24 89 25
REMARK SMILES IDX 88 26 12 27 13 28 14 29 15 30 16 32 17 33 18 34 79 35 19 36
REMARK SMILES IDX 78 37 20 38 21 39 22 40 72 41 23 42 77 43 71 44 73 45 24 46
REMARK SMILES IDX 76 47 70 48 69 49 25 51 57 52 37 53 56 54 38 55 41 56 55 57
REMARK SMILES IDX 74 58 39 59 40 60 54 62 75 63 42 64 26 65 27 66 35 67 28 68
REMARK SMILES IDX 34 69 36 70 33 71 29 72 30 73 31 74 32 75 58 76 59 77 67 78
REMARK SMILES IDX 60 79 66 80 68 81 65 82 61 83 62 84 63 85 64 86 43 87 44 88
REMARK SMILES IDX 52 89 45 90 51 91 53 92 50 93 46 94 47 95 48 96 49 97
REMARK H PARENT 7 8 1 16 1 17 14 31 73 50 41 61
REMARK Flexibility Score: inf
ROOT
ATOM      1  C   UNL A   1      32.639  26.732  26.543  1.00  0.00     0.002 C 
ENDROOT
BRANCH   1   2
ATOM      2  C   UNL A   1      33.859  26.262  25.740  1.00  0.00     0.002 C 
BRANCH   2   3
ATOM      3  C   UNL A   1      34.114  24.748  25.797  1.00  0.00     0.021 C 
BRANCH   3   4
ATOM      4  C   UNL A   1      34.682  24.197  24.489  1.00  0.00     0.116 C 
BRANCH   4   5
ATOM      5  N   UNL A   1      33.684  23.386  23.827  1.00  0.00    -0.352 N 
ATOM      6  C   UNL A   1      32.448  23.636  23.307  1.00  0.00     0.251 C 
ATOM      7  O   UNL A   1      31.830  22.649  22.895  1.00  0.00    -0.269 OA
ATOM      8  H   UNL A   1      33.958  22.445  23.730  1.00  0.00     0.163 HD
BRANCH   6   9
ATOM      9  C   UNL A   1      31.829  24.989  23.154  1.00  0.00     0.041 A 
ATOM     10  C   UNL A   1      29.840  26.330  23.660  1.00  0.00     0.056 A 
ATOM     11  C   UNL A   1      30.573  25.143  23.759  1.00  0.00     0.041 A 
ATOM     12  C   UNL A   1      30.335  27.382  22.862  1.00  0.00     0.060 A 
ATOM     13  C   UNL A   1      31.596  27.247  22.279  1.00  0.00     0.029 A 
ATOM     14  C   UNL A   1      32.357  26.084  22.467  1.00  0.00     0.016 A 
BRANCH  10  15
ATOM     15  N   UNL A   1      28.552  26.364  24.198  1.00  0.00    -0.397 N 
ATOM     16  H   UNL A   1      27.778  26.135  23.636  1.00  0.00     0.156 HD
ATOM     17  H   UNL A   1      28.419  26.615  25.140  1.00  0.00     0.156 HD
ENDBRANCH  10  15
BRANCH  12  18
ATOM     18  N   UNL A   1      29.558  28.524  22.637  1.00  0.00    -0.369 N 
ATOM     19  C   UNL A   1      29.861  29.733  21.949  1.00  0.00     0.125 C 
ATOM     20  C   UNL A   1      28.148  28.731  22.585  1.00  0.00     0.125 C 
ATOM     21  C   UNL A   1      28.494  30.243  22.486  1.00  0.00     0.010 C 
ATOM     22  C   UNL A   1      27.655  31.086  21.533  1.00  0.00     0.039 C 
ATOM     23  C   UNL A   1      28.582  30.941  23.858  1.00  0.00     0.039 C 
ATOM     24  C   UNL A   1      28.258  32.487  21.463  1.00  0.00     0.161 C 
ATOM     25  C   UNL A   1      29.150  32.339  23.656  1.00  0.00     0.161 C 
ATOM     26  O   UNL A   1      28.319  33.083  22.763  1.00  0.00    -0.381 OA
ENDBRANCH  12  18
ENDBRANCH   6   9
ENDBRANCH   4   5
ENDBRANCH   3   4
ENDBRANCH   2   3
ENDBRANCH   1   2
BRANCH   1  27
ATOM     27  C   UNL A   1      32.019  28.043  26.054  1.00  0.00     0.021 C 
BRANCH  27  28
ATOM     28  C   UNL A   1      33.044  29.070  25.586  1.00  0.00     0.116 C 
BRANCH  28  29
ATOM     29  N   UNL A   1      32.620  30.422  25.915  1.00  0.00    -0.352 N 
ATOM     30  C   UNL A   1      33.065  31.247  26.918  1.00  0.00     0.251 C 
ATOM     31  H   UNL A   1      31.917  30.798  25.337  1.00  0.00     0.163 HD
ATOM     32  O   UNL A   1      32.412  32.236  27.230  1.00  0.00    -0.269 OA
BRANCH  30  33
ATOM     33  C   UNL A   1      34.326  30.924  27.617  1.00  0.00     0.039 A 
ATOM     34  C   UNL A   1      35.278  31.929  27.805  1.00  0.00     0.014 A 
ATOM     35  C   UNL A   1      34.570  29.627  28.079  1.00  0.00     0.014 A 
ATOM     36  C   UNL A   1      36.452  31.643  28.501  1.00  0.00     0.010 A 
ATOM     37  C   UNL A   1      35.705  29.364  28.838  1.00  0.00     0.010 A 
ATOM     38  C   UNL A   1      36.662  30.367  29.051  1.00  0.00    -0.014 A 
BRANCH  38  39
ATOM     39  C   UNL A   1      37.882  30.060  29.840  1.00  0.00     0.031 A 
ATOM     40  C   UNL A   1      38.904  29.096  29.300  1.00  0.00     0.074 A 
ATOM     41  C   UNL A   1      38.039  30.602  31.063  1.00  0.00     0.049 A 
ATOM     42  N   UNL A   1      39.993  28.641  29.864  1.00  0.00    -0.248 NA
ATOM     43  C   UNL A   1      38.650  28.549  27.958  1.00  0.00     0.031 C 
ATOM     44  C   UNL A   1      37.096  31.522  31.705  1.00  0.00     0.029 A 
ATOM     45  N   UNL A   1      39.041  30.458  31.989  1.00  0.00    -0.354 N 
ATOM     46  C   UNL A   1      40.549  27.749  28.954  1.00  0.00     0.074 A 
ATOM     47  C   UNL A   1      39.639  27.678  27.829  1.00  0.00     0.031 C 
ATOM     48  C   UNL A   1      37.579  31.880  32.906  1.00  0.00     0.029 A 
ATOM     49  C   UNL A   1      38.835  31.177  33.145  1.00  0.00     0.049 A 
ATOM     50  H   UNL A   1      39.833  29.892  31.841  1.00  0.00     0.167 HD
ATOM     51  C   UNL A   1      41.720  27.071  29.037  1.00  0.00     0.034 A 
ATOM     52  C   UNL A   1      39.569  31.251  34.273  1.00  0.00     0.034 A 
ATOM     53  C   UNL A   1      42.617  27.163  30.164  1.00  0.00     0.049 A 
ATOM     54  C   UNL A   1      40.851  30.460  34.358  1.00  0.00     0.074 A 
ATOM     55  C   UNL A   1      43.851  26.559  30.334  1.00  0.00     0.029 A 
ATOM     56  N   UNL A   1      42.374  27.897  31.318  1.00  0.00    -0.354 N 
ATOM     57  N   UNL A   1      41.386  29.656  33.468  1.00  0.00    -0.248 NA
ATOM     58  C   UNL A   1      41.632  30.594  35.593  1.00  0.00     0.031 C 
ATOM     59  C   UNL A   1      44.317  26.866  31.617  1.00  0.00     0.029 A 
ATOM     60  C   UNL A   1      43.418  27.734  32.216  1.00  0.00     0.049 A 
ATOM     61  H   UNL A   1      41.577  28.453  31.476  1.00  0.00     0.167 HD
ATOM     62  C   UNL A   1      42.587  29.220  34.023  1.00  0.00     0.074 A 
ATOM     63  C   UNL A   1      42.699  29.860  35.318  1.00  0.00     0.031 C 
ATOM     64  C   UNL A   1      43.515  28.373  33.508  1.00  0.00     0.034 A 
BRANCH  51  65
ATOM     65  C   UNL A   1      42.079  26.153  27.892  1.00  0.00     0.023 A 
ATOM     66  C   UNL A   1      41.633  24.820  27.844  1.00  0.00     0.031 A 
ATOM     67  C   UNL A   1      42.897  26.609  26.843  1.00  0.00     0.131 A 
ATOM     68  C   UNL A   1      42.067  23.971  26.814  1.00  0.00     0.055 A 
ATOM     69  C   UNL A   1      43.254  25.784  25.774  1.00  0.00     0.041 A 
ATOM     70  F   UNL A   1      43.374  27.864  26.842  1.00  0.00    -0.206 F 
ATOM     71  C   UNL A   1      42.852  24.451  25.764  1.00  0.00     0.022 A 
BRANCH  68  72
ATOM     72  S   UNL A   1      41.716  22.197  26.951  1.00  0.00     0.124 S 
ATOM     73  O   UNL A   1      41.430  22.063  28.377  1.00  0.00    -0.237 OA
ATOM     74  O   UNL A   1      40.580  22.030  26.052  1.00  0.00    -0.237 OA
ATOM     75  O   UNL A   1      42.960  21.568  26.511  1.00  0.00    -0.744 OA
ENDBRANCH  68  72
ENDBRANCH  51  65
BRANCH  52  76
ATOM     76  C   UNL A   1      39.113  32.090  35.419  1.00  0.00     0.023 A 
ATOM     77  C   UNL A   1      39.571  33.407  35.579  1.00  0.00     0.031 A 
ATOM     78  C   UNL A   1      38.245  31.572  36.397  1.00  0.00     0.131 A 
ATOM     79  C   UNL A   1      39.205  34.143  36.715  1.00  0.00     0.055 A 
ATOM     80  C   UNL A   1      37.835  32.329  37.495  1.00  0.00     0.041 A 
ATOM     81  F   UNL A   1      37.773  30.319  36.293  1.00  0.00    -0.206 F 
ATOM     82  C   UNL A   1      38.328  33.619  37.668  1.00  0.00     0.022 A 
BRANCH  79  83
ATOM     83  S   UNL A   1      39.972  35.765  36.985  1.00  0.00     0.124 S 
ATOM     84  O   UNL A   1      39.653  36.453  35.739  1.00  0.00    -0.237 OA
ATOM     85  O   UNL A   1      39.273  36.235  38.176  1.00  0.00    -0.237 OA
ATOM     86  O   UNL A   1      41.384  35.445  37.177  1.00  0.00    -0.744 OA
ENDBRANCH  79  83
ENDBRANCH  52  76
BRANCH  64  87
ATOM     87  C   UNL A   1      44.761  28.136  34.327  1.00  0.00     0.023 A 
ATOM     88  C   UNL A   1      44.854  27.083  35.254  1.00  0.00     0.031 A 
ATOM     89  C   UNL A   1      45.874  28.985  34.177  1.00  0.00     0.131 A 
ATOM     90  C   UNL A   1      46.011  26.941  36.034  1.00  0.00     0.055 A 
ATOM     91  C   UNL A   1      47.046  28.796  34.908  1.00  0.00     0.041 A 
ATOM     92  F   UNL A   1      45.839  30.009  33.309  1.00  0.00    -0.206 F 
ATOM     93  C   UNL A   1      47.115  27.778  35.853  1.00  0.00     0.022 A 
BRANCH  90  94
ATOM     94  S   UNL A   1      46.020  25.702  37.360  1.00  0.00     0.124 S 
ATOM     95  O   UNL A   1      47.281  25.009  37.118  1.00  0.00    -0.237 OA
ATOM     96  O   UNL A   1      45.969  26.531  38.561  1.00  0.00    -0.237 OA
ATOM     97  O   UNL A   1      44.817  24.912  37.101  1.00  0.00    -0.744 OA
ENDBRANCH  90  94
ENDBRANCH  64  87
ENDBRANCH  38  39
ENDBRANCH  30  33
ENDBRANCH  28  29
ENDBRANCH  27  28
ENDBRANCH   1  27
TORSDOF 18
ENDMDL
