MODEL 1
REMARK VINA RESULT:     -12.8      0.000      0.000
REMARK SMILES Cc1ccc([C@H](C)NC(=O)[C@H]2[C@@H]3CC[C@@H](C3)[C@@H]2C(=O)NCCCCCCNC(=O)c2ccc(-c3c4nc(c(-c5cc(S(=O)(=O)[O-])ccc5F)c5ccc([nH]5)c(-c5cc(S(=O)(=O)[O-])ccc5F)c5nc(c(-c6cc(S(=O)(=O)[O-])ccc6F)c6ccc3[nH]6)C=C5)C=C4)cc2)cc1
REMARK SMILES IDX 23 1 22 2 21 3 20 4 18 5 19 6 17 8 11 9 12 10 13 11 16 12
REMARK SMILES IDX 15 13 14 14 9 15 8 16 10 18 6 19 7 20 5 21 1 22 2 23 3 24
REMARK SMILES IDX 94 25 4 26 93 27 24 28 25 29 26 30 27 31 28 32 29 34 30 35
REMARK SMILES IDX 31 36 92 37 32 38 91 39 33 40 34 41 35 42 85 43 36 44 90 45
REMARK SMILES IDX 84 46 86 47 37 48 89 49 83 50 82 51 38 53 70 54 50 55 69 56
REMARK SMILES IDX 51 57 54 58 68 59 87 60 52 61 53 62 67 64 88 65 55 66 39 67
REMARK SMILES IDX 40 68 48 69 41 70 47 71 49 72 46 73 42 74 43 75 44 76 45 77
REMARK SMILES IDX 71 78 72 79 80 80 73 81 79 82 81 83 78 84 74 85 75 86 76 87
REMARK SMILES IDX 77 88 56 89 57 90 65 91 58 92 64 93 66 94 63 95 59 96 60 97
REMARK SMILES IDX 61 98 62 99
REMARK H PARENT 20 7 8 17 27 33 86 52 54 63
REMARK Flexibility Score: inf
ROOT
ATOM      1  C   UNL A   1      33.612  27.958  25.149  1.00  0.00     0.002 C 
ENDROOT
BRANCH   1   2
ATOM      2  C   UNL A   1      33.665  26.839  26.201  1.00  0.00     0.021 C 
BRANCH   2   3
ATOM      3  C   UNL A   1      34.008  25.461  25.633  1.00  0.00     0.116 C 
BRANCH   3   4
ATOM      4  N   UNL A   1      33.954  25.464  24.185  1.00  0.00    -0.356 N 
ATOM      5  C   UNL A   1      34.250  24.524  23.255  1.00  0.00     0.224 C 
ATOM      6  O   UNL A   1      34.080  24.843  22.073  1.00  0.00    -0.275 OA
ATOM      7  H   UNL A   1      33.643  26.316  23.801  1.00  0.00     0.163 HD
BRANCH   5   8
ATOM      8  C   UNL A   1      34.587  23.075  23.611  1.00  0.00     0.094 C 
ATOM      9  C   UNL A   1      34.165  22.473  24.955  1.00  0.00     0.094 C 
ATOM     10  C   UNL A   1      35.485  21.913  25.547  1.00  0.00     0.002 C 
ATOM     11  C   UNL A   1      36.337  23.102  26.030  1.00  0.00     0.005 C 
ATOM     12  C   UNL A   1      36.268  21.483  24.314  1.00  0.00     0.009 C 
ATOM     13  C   UNL A   1      36.132  22.849  23.639  1.00  0.00     0.002 C 
ATOM     14  C   UNL A   1      36.793  23.745  24.711  1.00  0.00     0.005 C 
BRANCH   9  15
ATOM     15  C   UNL A   1      33.045  21.427  24.992  1.00  0.00     0.224 C 
ATOM     16  N   UNL A   1      31.848  21.519  25.610  1.00  0.00    -0.349 N 
ATOM     17  H   UNL A   1      31.333  20.683  25.538  1.00  0.00     0.164 HD
ATOM     18  O   UNL A   1      33.219  20.368  24.370  1.00  0.00    -0.275 OA
BRANCH  16  19
ATOM     19  C   UNL A   1      31.118  22.539  26.357  1.00  0.00     0.109 C 
ATOM     20  C   UNL A   1      31.947  22.980  27.567  1.00  0.00     0.036 C 
BRANCH  19  21
ATOM     21  C   UNL A   1      30.752  23.734  25.489  1.00  0.00    -0.026 A 
ATOM     22  C   UNL A   1      29.991  27.274  23.113  1.00  0.00     0.044 C 
ATOM     23  C   UNL A   1      30.230  26.035  23.924  1.00  0.00    -0.051 A 
ATOM     24  C   UNL A   1      30.159  26.095  25.318  1.00  0.00     0.004 A 
ATOM     25  C   UNL A   1      30.533  24.813  23.314  1.00  0.00     0.004 A 
ATOM     26  C   UNL A   1      30.424  24.960  26.089  1.00  0.00     0.006 A 
ATOM     27  C   UNL A   1      30.784  23.673  24.087  1.00  0.00     0.006 A 
ENDBRANCH  19  21
ENDBRANCH  16  19
ENDBRANCH   9  15
ENDBRANCH   5   8
ENDBRANCH   3   4
ENDBRANCH   2   3
ENDBRANCH   1   2
BRANCH   1  28
ATOM     28  C   UNL A   1      32.535  29.040  25.357  1.00  0.00     0.002 C 
BRANCH  28  29
ATOM     29  C   UNL A   1      33.003  30.317  26.059  1.00  0.00     0.021 C 
BRANCH  29  30
ATOM     30  C   UNL A   1      33.300  30.123  27.541  1.00  0.00     0.116 C 
BRANCH  30  31
ATOM     31  N   UNL A   1      33.886  31.288  28.195  1.00  0.00    -0.352 N 
ATOM     32  C   UNL A   1      35.109  31.405  28.833  1.00  0.00     0.251 C 
ATOM     33  H   UNL A   1      33.335  32.105  28.179  1.00  0.00     0.163 HD
ATOM     34  O   UNL A   1      35.416  32.432  29.419  1.00  0.00    -0.269 OA
BRANCH  32  35
ATOM     35  C   UNL A   1      36.087  30.296  28.717  1.00  0.00     0.039 A 
ATOM     36  C   UNL A   1      36.475  29.635  29.890  1.00  0.00     0.014 A 
ATOM     37  C   UNL A   1      36.753  30.054  27.520  1.00  0.00     0.014 A 
ATOM     38  C   UNL A   1      37.662  28.903  29.903  1.00  0.00     0.010 A 
ATOM     39  C   UNL A   1      37.978  29.419  27.555  1.00  0.00     0.010 A 
ATOM     40  C   UNL A   1      38.457  28.886  28.757  1.00  0.00    -0.014 A 
BRANCH  40  41
ATOM     41  C   UNL A   1      39.851  28.458  28.752  1.00  0.00     0.031 A 
ATOM     42  C   UNL A   1      40.216  27.036  28.575  1.00  0.00     0.074 A 
ATOM     43  C   UNL A   1      40.842  29.372  28.849  1.00  0.00     0.049 A 
ATOM     44  N   UNL A   1      41.310  26.515  29.023  1.00  0.00    -0.248 NA
ATOM     45  C   UNL A   1      39.355  26.068  27.908  1.00  0.00     0.031 C 
ATOM     46  C   UNL A   1      42.259  29.166  28.561  1.00  0.00     0.029 A 
ATOM     47  N   UNL A   1      40.793  30.625  29.441  1.00  0.00    -0.354 N 
ATOM     48  C   UNL A   1      41.445  25.271  28.456  1.00  0.00     0.074 A 
ATOM     49  C   UNL A   1      40.164  25.004  27.841  1.00  0.00     0.031 C 
ATOM     50  C   UNL A   1      42.972  30.125  29.171  1.00  0.00     0.029 A 
ATOM     51  C   UNL A   1      42.054  30.898  29.987  1.00  0.00     0.049 A 
ATOM     52  H   UNL A   1      40.009  31.220  29.472  1.00  0.00     0.167 HD
ATOM     53  C   UNL A   1      42.667  24.668  28.437  1.00  0.00     0.034 A 
ATOM     54  C   UNL A   1      42.217  31.156  31.317  1.00  0.00     0.034 A 
ATOM     55  C   UNL A   1      43.695  25.500  29.064  1.00  0.00     0.049 A 
ATOM     56  C   UNL A   1      43.131  30.181  32.025  1.00  0.00     0.074 A 
ATOM     57  C   UNL A   1      44.705  26.296  28.546  1.00  0.00     0.029 A 
ATOM     58  N   UNL A   1      43.631  25.784  30.422  1.00  0.00    -0.354 N 
ATOM     59  N   UNL A   1      43.507  29.034  31.530  1.00  0.00    -0.248 NA
ATOM     60  C   UNL A   1      43.669  30.405  33.362  1.00  0.00     0.031 C 
ATOM     61  C   UNL A   1      45.262  27.051  29.609  1.00  0.00     0.029 A 
ATOM     62  C   UNL A   1      44.598  26.708  30.772  1.00  0.00     0.049 A 
ATOM     63  H   UNL A   1      42.987  25.383  31.048  1.00  0.00     0.167 HD
ATOM     64  C   UNL A   1      44.288  28.360  32.441  1.00  0.00     0.074 A 
ATOM     65  C   UNL A   1      44.367  29.273  33.568  1.00  0.00     0.031 C 
ATOM     66  C   UNL A   1      44.771  27.108  32.164  1.00  0.00     0.034 A 
BRANCH  53  67
ATOM     67  C   UNL A   1      43.019  23.462  27.589  1.00  0.00     0.023 A 
ATOM     68  C   UNL A   1      44.183  23.501  26.792  1.00  0.00     0.031 A 
ATOM     69  C   UNL A   1      42.266  22.277  27.491  1.00  0.00     0.131 A 
ATOM     70  C   UNL A   1      44.488  22.481  25.874  1.00  0.00     0.055 A 
ATOM     71  C   UNL A   1      42.538  21.282  26.540  1.00  0.00     0.041 A 
ATOM     72  F   UNL A   1      41.273  22.000  28.345  1.00  0.00    -0.206 F 
ATOM     73  C   UNL A   1      43.644  21.389  25.711  1.00  0.00     0.022 A 
BRANCH  70  74
ATOM     74  S   UNL A   1      46.006  22.610  24.890  1.00  0.00     0.124 S 
ATOM     75  O   UNL A   1      46.480  21.230  24.867  1.00  0.00    -0.237 OA
ATOM     76  O   UNL A   1      45.512  23.146  23.627  1.00  0.00    -0.237 OA
ATOM     77  O   UNL A   1      46.835  23.532  25.667  1.00  0.00    -0.744 OA
ENDBRANCH  70  74
ENDBRANCH  53  67
BRANCH  54  78
ATOM     78  C   UNL A   1      41.043  31.840  31.927  1.00  0.00     0.023 A 
ATOM     79  C   UNL A   1      40.179  31.056  32.719  1.00  0.00     0.031 A 
ATOM     80  C   UNL A   1      41.006  33.231  32.089  1.00  0.00     0.131 A 
ATOM     81  C   UNL A   1      39.423  31.650  33.739  1.00  0.00     0.055 A 
ATOM     82  C   UNL A   1      40.210  33.826  33.077  1.00  0.00     0.041 A 
ATOM     83  F   UNL A   1      41.833  34.024  31.390  1.00  0.00    -0.206 F 
ATOM     84  C   UNL A   1      39.445  33.032  33.934  1.00  0.00     0.022 A 
BRANCH  81  85
ATOM     85  S   UNL A   1      38.618  30.567  34.956  1.00  0.00     0.124 S 
ATOM     86  O   UNL A   1      37.723  31.493  35.641  1.00  0.00    -0.237 OA
ATOM     87  O   UNL A   1      37.975  29.564  34.109  1.00  0.00    -0.237 OA
ATOM     88  O   UNL A   1      39.731  30.060  35.756  1.00  0.00    -0.744 OA
ENDBRANCH  81  85
ENDBRANCH  54  78
BRANCH  66  89
ATOM     89  C   UNL A   1      45.505  26.150  33.099  1.00  0.00     0.023 A 
ATOM     90  C   UNL A   1      44.877  25.299  34.017  1.00  0.00     0.031 A 
ATOM     91  C   UNL A   1      46.924  26.046  33.066  1.00  0.00     0.131 A 
ATOM     92  C   UNL A   1      45.618  24.430  34.848  1.00  0.00     0.055 A 
ATOM     93  C   UNL A   1      47.656  25.162  33.864  1.00  0.00     0.041 A 
ATOM     94  F   UNL A   1      47.677  26.789  32.243  1.00  0.00    -0.206 F 
ATOM     95  C   UNL A   1      47.005  24.346  34.769  1.00  0.00     0.022 A 
BRANCH  92  96
ATOM     96  S   UNL A   1      44.722  23.426  36.062  1.00  0.00     0.124 S 
ATOM     97  O   UNL A   1      44.099  24.447  36.901  1.00  0.00    -0.237 OA
ATOM     98  O   UNL A   1      43.810  22.660  35.217  1.00  0.00    -0.237 OA
ATOM     99  O   UNL A   1      45.772  22.644  36.711  1.00  0.00    -0.744 OA
ENDBRANCH  92  96
ENDBRANCH  66  89
ENDBRANCH  40  41
ENDBRANCH  32  35
ENDBRANCH  30  31
ENDBRANCH  29  30
ENDBRANCH  28  29
ENDBRANCH   1  28
TORSDOF 19
ENDMDL
MODEL 2
REMARK VINA RESULT:     -12.7      3.900      9.258
REMARK SMILES Cc1ccc([C@H](C)NC(=O)[C@H]2[C@@H]3CC[C@@H](C3)[C@@H]2C(=O)NCCCCCCNC(=O)c2ccc(-c3c4nc(c(-c5cc(S(=O)(=O)[O-])ccc5F)c5ccc([nH]5)c(-c5cc(S(=O)(=O)[O-])ccc5F)c5nc(c(-c6cc(S(=O)(=O)[O-])ccc6F)c6ccc3[nH]6)C=C5)C=C4)cc2)cc1
REMARK SMILES IDX 23 1 22 2 21 3 20 4 18 5 19 6 17 8 11 9 12 10 13 11 16 12
REMARK SMILES IDX 15 13 14 14 9 15 8 16 10 18 6 19 7 20 5 21 1 22 2 23 3 24
REMARK SMILES IDX 94 25 4 26 93 27 24 28 25 29 26 30 27 31 28 32 29 34 30 35
REMARK SMILES IDX 31 36 92 37 32 38 91 39 33 40 34 41 35 42 85 43 36 44 90 45
REMARK SMILES IDX 84 46 86 47 37 48 89 49 83 50 82 51 38 53 70 54 50 55 69 56
REMARK SMILES IDX 51 57 54 58 68 59 87 60 52 61 53 62 67 64 88 65 55 66 39 67
REMARK SMILES IDX 40 68 48 69 41 70 47 71 49 72 46 73 42 74 43 75 44 76 45 77
REMARK SMILES IDX 71 78 72 79 80 80 73 81 79 82 81 83 78 84 74 85 75 86 76 87
REMARK SMILES IDX 77 88 56 89 57 90 65 91 58 92 64 93 66 94 63 95 59 96 60 97
REMARK SMILES IDX 61 98 62 99
REMARK H PARENT 20 7 8 17 27 33 86 52 54 63
REMARK Flexibility Score: inf
ROOT
ATOM      1  C   UNL A   1      36.963  21.799  24.769  1.00  0.00     0.002 C 
ENDROOT
BRANCH   1   2
ATOM      2  C   UNL A   1      36.919  23.327  24.605  1.00  0.00     0.021 C 
BRANCH   2   3
ATOM      3  C   UNL A   1      36.141  24.052  25.705  1.00  0.00     0.116 C 
BRANCH   3   4
ATOM      4  N   UNL A   1      35.582  23.113  26.656  1.00  0.00    -0.356 N 
ATOM      5  C   UNL A   1      34.317  22.685  26.885  1.00  0.00     0.224 C 
ATOM      6  O   UNL A   1      34.170  21.848  27.783  1.00  0.00    -0.275 OA
ATOM      7  H   UNL A   1      36.251  22.707  27.253  1.00  0.00     0.163 HD
BRANCH   5   8
ATOM      8  C   UNL A   1      33.138  23.042  25.978  1.00  0.00     0.094 C 
ATOM      9  C   UNL A   1      31.739  22.477  26.241  1.00  0.00     0.094 C 
ATOM     10  C   UNL A   1      31.336  21.827  24.890  1.00  0.00     0.002 C 
ATOM     11  C   UNL A   1      32.137  20.521  24.729  1.00  0.00     0.005 C 
ATOM     12  C   UNL A   1      32.020  22.712  23.857  1.00  0.00     0.009 C 
ATOM     13  C   UNL A   1      33.395  22.569  24.511  1.00  0.00     0.002 C 
ATOM     14  C   UNL A   1      33.561  21.032  24.457  1.00  0.00     0.005 C 
BRANCH   9  15
ATOM     15  C   UNL A   1      30.639  23.407  26.765  1.00  0.00     0.224 C 
ATOM     16  N   UNL A   1      30.387  24.681  26.392  1.00  0.00    -0.349 N 
ATOM     17  H   UNL A   1      29.665  25.082  26.927  1.00  0.00     0.164 HD
ATOM     18  O   UNL A   1      29.856  22.960  27.617  1.00  0.00    -0.275 OA
BRANCH  16  19
ATOM     19  C   UNL A   1      30.907  25.615  25.399  1.00  0.00     0.109 C 
ATOM     20  C   UNL A   1      29.742  26.316  24.694  1.00  0.00     0.036 C 
BRANCH  19  21
ATOM     21  C   UNL A   1      31.859  26.632  26.010  1.00  0.00    -0.026 A 
ATOM     22  C   UNL A   1      34.561  29.687  27.466  1.00  0.00     0.044 C 
ATOM     23  C   UNL A   1      33.625  28.617  26.990  1.00  0.00    -0.051 A 
ATOM     24  C   UNL A   1      34.058  27.690  26.038  1.00  0.00     0.004 A 
ATOM     25  C   UNL A   1      32.315  28.529  27.472  1.00  0.00     0.004 A 
ATOM     26  C   UNL A   1      33.183  26.716  25.551  1.00  0.00     0.006 A 
ATOM     27  C   UNL A   1      31.443  27.543  26.994  1.00  0.00     0.006 A 
ENDBRANCH  19  21
ENDBRANCH  16  19
ENDBRANCH   9  15
ENDBRANCH   5   8
ENDBRANCH   3   4
ENDBRANCH   2   3
ENDBRANCH   1   2
BRANCH   1  28
ATOM     28  C   UNL A   1      38.309  21.199  25.218  1.00  0.00     0.002 C 
BRANCH  28  29
ATOM     29  C   UNL A   1      39.156  22.082  26.137  1.00  0.00     0.021 C 
BRANCH  29  30
ATOM     30  C   UNL A   1      40.160  21.301  26.975  1.00  0.00     0.116 C 
BRANCH  30  31
ATOM     31  N   UNL A   1      41.139  20.551  26.196  1.00  0.00    -0.352 N 
ATOM     32  C   UNL A   1      42.461  20.862  25.928  1.00  0.00     0.251 C 
ATOM     33  H   UNL A   1      40.814  19.706  25.808  1.00  0.00     0.163 HD
ATOM     34  O   UNL A   1      43.128  20.171  25.172  1.00  0.00    -0.269 OA
BRANCH  32  35
ATOM     35  C   UNL A   1      43.091  21.997  26.645  1.00  0.00     0.039 A 
ATOM     36  C   UNL A   1      43.127  21.951  28.045  1.00  0.00     0.014 A 
ATOM     37  C   UNL A   1      43.447  23.160  25.969  1.00  0.00     0.014 A 
ATOM     38  C   UNL A   1      43.309  23.132  28.764  1.00  0.00     0.010 A 
ATOM     39  C   UNL A   1      43.522  24.343  26.675  1.00  0.00     0.010 A 
ATOM     40  C   UNL A   1      43.404  24.338  28.070  1.00  0.00    -0.014 A 
BRANCH  40  41
ATOM     41  C   UNL A   1      43.251  25.644  28.700  1.00  0.00     0.031 A 
ATOM     42  C   UNL A   1      41.978  26.392  28.615  1.00  0.00     0.074 A 
ATOM     43  C   UNL A   1      44.260  26.168  29.429  1.00  0.00     0.049 A 
ATOM     44  N   UNL A   1      41.895  27.678  28.698  1.00  0.00    -0.248 NA
ATOM     45  C   UNL A   1      40.690  25.751  28.388  1.00  0.00     0.031 C 
ATOM     46  C   UNL A   1      44.182  27.291  30.361  1.00  0.00     0.029 A 
ATOM     47  N   UNL A   1      45.620  25.921  29.308  1.00  0.00    -0.354 N 
ATOM     48  C   UNL A   1      40.568  28.004  28.849  1.00  0.00     0.074 A 
ATOM     49  C   UNL A   1      39.853  26.780  28.562  1.00  0.00     0.031 C 
ATOM     50  C   UNL A   1      45.413  27.788  30.549  1.00  0.00     0.029 A 
ATOM     51  C   UNL A   1      46.308  27.097  29.640  1.00  0.00     0.049 A 
ATOM     52  H   UNL A   1      46.031  25.069  29.036  1.00  0.00     0.167 HD
ATOM     53  C   UNL A   1      40.227  29.226  29.345  1.00  0.00     0.034 A 
ATOM     54  C   UNL A   1      47.150  27.706  28.756  1.00  0.00     0.034 A 
ATOM     55  C   UNL A   1      41.405  30.038  29.653  1.00  0.00     0.049 A 
ATOM     56  C   UNL A   1      46.753  29.122  28.404  1.00  0.00     0.074 A 
ATOM     57  C   UNL A   1      42.042  30.358  30.843  1.00  0.00     0.029 A 
ATOM     58  N   UNL A   1      42.247  30.462  28.633  1.00  0.00    -0.354 N 
ATOM     59  N   UNL A   1      45.584  29.641  28.656  1.00  0.00    -0.248 NA
ATOM     60  C   UNL A   1      47.630  30.056  27.707  1.00  0.00     0.031 C 
ATOM     61  C   UNL A   1      43.268  30.995  30.530  1.00  0.00     0.029 A 
ATOM     62  C   UNL A   1      43.373  31.071  29.154  1.00  0.00     0.049 A 
ATOM     63  H   UNL A   1      42.066  30.345  27.673  1.00  0.00     0.167 HD
ATOM     64  C   UNL A   1      45.519  30.923  28.161  1.00  0.00     0.074 A 
ATOM     65  C   UNL A   1      46.837  31.136  27.586  1.00  0.00     0.031 C 
ATOM     66  C   UNL A   1      44.371  31.664  28.269  1.00  0.00     0.034 A 
BRANCH  53  67
ATOM     67  C   UNL A   1      38.845  29.597  29.846  1.00  0.00     0.023 A 
ATOM     68  C   UNL A   1      38.254  30.799  29.401  1.00  0.00     0.031 A 
ATOM     69  C   UNL A   1      38.075  28.854  30.759  1.00  0.00     0.131 A 
ATOM     70  C   UNL A   1      37.045  31.273  29.937  1.00  0.00     0.055 A 
ATOM     71  C   UNL A   1      36.894  29.347  31.334  1.00  0.00     0.041 A 
ATOM     72  F   UNL A   1      38.394  27.596  31.093  1.00  0.00    -0.206 F 
ATOM     73  C   UNL A   1      36.381  30.573  30.938  1.00  0.00     0.022 A 
BRANCH  70  74
ATOM     74  S   UNL A   1      36.355  32.827  29.306  1.00  0.00     0.124 S 
ATOM     75  O   UNL A   1      35.082  32.913  30.015  1.00  0.00    -0.237 OA
ATOM     76  O   UNL A   1      37.375  33.797  29.690  1.00  0.00    -0.237 OA
ATOM     77  O   UNL A   1      36.243  32.589  27.868  1.00  0.00    -0.744 OA
ENDBRANCH  70  74
ENDBRANCH  53  67
BRANCH  54  78
ATOM     78  C   UNL A   1      47.833  26.746  27.845  1.00  0.00     0.023 A 
ATOM     79  C   UNL A   1      47.582  26.878  26.464  1.00  0.00     0.031 A 
ATOM     80  C   UNL A   1      48.977  26.042  28.243  1.00  0.00     0.131 A 
ATOM     81  C   UNL A   1      48.533  26.446  25.529  1.00  0.00     0.055 A 
ATOM     82  C   UNL A   1      49.901  25.567  27.303  1.00  0.00     0.041 A 
ATOM     83  F   UNL A   1      49.286  25.917  29.543  1.00  0.00    -0.206 F 
ATOM     84  C   UNL A   1      49.702  25.804  25.942  1.00  0.00     0.022 A 
BRANCH  81  85
ATOM     85  S   UNL A   1      48.337  26.965  23.798  1.00  0.00     0.124 S 
ATOM     86  O   UNL A   1      49.493  27.833  23.608  1.00  0.00    -0.237 OA
ATOM     87  O   UNL A   1      48.368  25.691  23.081  1.00  0.00    -0.237 OA
ATOM     88  O   UNL A   1      47.038  27.635  23.785  1.00  0.00    -0.744 OA
ENDBRANCH  81  85
ENDBRANCH  54  78
BRANCH  66  89
ATOM     89  C   UNL A   1      44.060  33.021  27.645  1.00  0.00     0.023 A 
ATOM     90  C   UNL A   1      43.761  34.181  28.372  1.00  0.00     0.031 A 
ATOM     91  C   UNL A   1      44.086  33.195  26.232  1.00  0.00     0.131 A 
ATOM     92  C   UNL A   1      43.490  35.408  27.729  1.00  0.00     0.055 A 
ATOM     93  C   UNL A   1      43.851  34.419  25.597  1.00  0.00     0.041 A 
ATOM     94  F   UNL A   1      44.357  32.187  25.393  1.00  0.00    -0.206 F 
ATOM     95  C   UNL A   1      43.546  35.539  26.345  1.00  0.00     0.022 A 
BRANCH  92  96
ATOM     96  S   UNL A   1      43.033  36.834  28.751  1.00  0.00     0.124 S 
ATOM     97  O   UNL A   1      43.036  36.259  30.094  1.00  0.00    -0.237 OA
ATOM     98  O   UNL A   1      44.109  37.778  28.466  1.00  0.00    -0.237 OA
ATOM     99  O   UNL A   1      41.718  37.219  28.244  1.00  0.00    -0.744 OA
ENDBRANCH  92  96
ENDBRANCH  66  89
ENDBRANCH  40  41
ENDBRANCH  32  35
ENDBRANCH  30  31
ENDBRANCH  29  30
ENDBRANCH  28  29
ENDBRANCH   1  28
TORSDOF 19
ENDMDL
MODEL 3
REMARK VINA RESULT:     -12.7      2.704      4.502
REMARK SMILES Cc1ccc([C@H](C)NC(=O)[C@H]2[C@@H]3CC[C@@H](C3)[C@@H]2C(=O)NCCCCCCNC(=O)c2ccc(-c3c4nc(c(-c5cc(S(=O)(=O)[O-])ccc5F)c5ccc([nH]5)c(-c5cc(S(=O)(=O)[O-])ccc5F)c5nc(c(-c6cc(S(=O)(=O)[O-])ccc6F)c6ccc3[nH]6)C=C5)C=C4)cc2)cc1
REMARK SMILES IDX 23 1 22 2 21 3 20 4 18 5 19 6 17 8 11 9 12 10 13 11 16 12
REMARK SMILES IDX 15 13 14 14 9 15 8 16 10 18 6 19 7 20 5 21 1 22 2 23 3 24
REMARK SMILES IDX 94 25 4 26 93 27 24 28 25 29 26 30 27 31 28 32 29 34 30 35
REMARK SMILES IDX 31 36 92 37 32 38 91 39 33 40 34 41 35 42 85 43 36 44 90 45
REMARK SMILES IDX 84 46 86 47 37 48 89 49 83 50 82 51 38 53 70 54 50 55 69 56
REMARK SMILES IDX 51 57 54 58 68 59 87 60 52 61 53 62 67 64 88 65 55 66 39 67
REMARK SMILES IDX 40 68 48 69 41 70 47 71 49 72 46 73 42 74 43 75 44 76 45 77
REMARK SMILES IDX 71 78 72 79 80 80 73 81 79 82 81 83 78 84 74 85 75 86 76 87
REMARK SMILES IDX 77 88 56 89 57 90 65 91 58 92 64 93 66 94 63 95 59 96 60 97
REMARK SMILES IDX 61 98 62 99
REMARK H PARENT 20 7 8 17 27 33 86 52 54 63
REMARK Flexibility Score: inf
ROOT
ATOM      1  C   UNL A   1      32.536  29.670  26.809  1.00  0.00     0.002 C 
ENDROOT
BRANCH   1   2
ATOM      2  C   UNL A   1      33.549  28.632  27.318  1.00  0.00     0.021 C 
BRANCH   2   3
ATOM      3  C   UNL A   1      34.110  27.717  26.228  1.00  0.00     0.116 C 
BRANCH   3   4
ATOM      4  N   UNL A   1      34.206  28.412  24.960  1.00  0.00    -0.356 N 
ATOM      5  C   UNL A   1      33.741  28.125  23.720  1.00  0.00     0.224 C 
ATOM      6  O   UNL A   1      33.987  28.949  22.833  1.00  0.00    -0.275 OA
ATOM      7  H   UNL A   1      34.707  29.258  25.008  1.00  0.00     0.163 HD
BRANCH   5   8
ATOM      8  C   UNL A   1      32.794  26.958  23.434  1.00  0.00     0.094 C 
ATOM      9  C   UNL A   1      32.246  26.713  22.025  1.00  0.00     0.094 C 
ATOM     10  C   UNL A   1      30.708  26.654  22.225  1.00  0.00     0.002 C 
ATOM     11  C   UNL A   1      30.201  28.087  22.476  1.00  0.00     0.005 C 
ATOM     12  C   UNL A   1      30.558  26.051  23.616  1.00  0.00     0.009 C 
ATOM     13  C   UNL A   1      31.477  27.088  24.263  1.00  0.00     0.002 C 
ATOM     14  C   UNL A   1      30.725  28.386  23.889  1.00  0.00     0.005 C 
BRANCH   9  15
ATOM     15  C   UNL A   1      32.752  25.511  21.220  1.00  0.00     0.224 C 
ATOM     16  N   UNL A   1      32.996  24.260  21.667  1.00  0.00    -0.349 N 
ATOM     17  H   UNL A   1      33.379  23.688  20.964  1.00  0.00     0.164 HD
ATOM     18  O   UNL A   1      32.950  25.667  20.005  1.00  0.00    -0.275 OA
BRANCH  16  19
ATOM     19  C   UNL A   1      32.837  23.537  22.925  1.00  0.00     0.109 C 
ATOM     20  C   UNL A   1      32.396  22.098  22.637  1.00  0.00     0.036 C 
BRANCH  19  21
ATOM     21  C   UNL A   1      34.106  23.556  23.763  1.00  0.00    -0.026 A 
ATOM     22  C   UNL A   1      37.837  23.839  25.944  1.00  0.00     0.044 C 
ATOM     23  C   UNL A   1      36.534  23.722  25.210  1.00  0.00    -0.051 A 
ATOM     24  C   UNL A   1      36.503  23.135  23.943  1.00  0.00     0.004 A 
ATOM     25  C   UNL A   1      35.342  24.199  25.764  1.00  0.00     0.004 A 
ATOM     26  C   UNL A   1      35.306  23.060  23.227  1.00  0.00     0.006 A 
ATOM     27  C   UNL A   1      34.139  24.110  25.052  1.00  0.00     0.006 A 
ENDBRANCH  19  21
ENDBRANCH  16  19
ENDBRANCH   9  15
ENDBRANCH   5   8
ENDBRANCH   3   4
ENDBRANCH   2   3
ENDBRANCH   1   2
BRANCH   1  28
ATOM     28  C   UNL A   1      32.802  31.135  27.205  1.00  0.00     0.002 C 
BRANCH  28  29
ATOM     29  C   UNL A   1      34.151  31.407  27.876  1.00  0.00     0.021 C 
BRANCH  29  30
ATOM     30  C   UNL A   1      34.551  32.877  27.865  1.00  0.00     0.116 C 
BRANCH  30  31
ATOM     31  N   UNL A   1      33.821  33.706  28.817  1.00  0.00    -0.352 N 
ATOM     32  C   UNL A   1      34.202  34.121  30.082  1.00  0.00     0.251 C 
ATOM     33  H   UNL A   1      32.933  34.013  28.519  1.00  0.00     0.163 HD
ATOM     34  O   UNL A   1      33.430  34.739  30.800  1.00  0.00    -0.269 OA
BRANCH  32  35
ATOM     35  C   UNL A   1      35.599  33.888  30.522  1.00  0.00     0.039 A 
ATOM     36  C   UNL A   1      36.633  34.396  29.725  1.00  0.00     0.014 A 
ATOM     37  C   UNL A   1      35.881  33.022  31.573  1.00  0.00     0.014 A 
ATOM     38  C   UNL A   1      37.917  33.864  29.848  1.00  0.00     0.010 A 
ATOM     39  C   UNL A   1      37.122  32.421  31.627  1.00  0.00     0.010 A 
ATOM     40  C   UNL A   1      38.127  32.805  30.732  1.00  0.00    -0.014 A 
BRANCH  40  41
ATOM     41  C   UNL A   1      39.311  31.954  30.701  1.00  0.00     0.031 A 
ATOM     42  C   UNL A   1      39.296  30.646  30.011  1.00  0.00     0.074 A 
ATOM     43  C   UNL A   1      40.467  32.379  31.255  1.00  0.00     0.049 A 
ATOM     44  N   UNL A   1      40.071  29.661  30.325  1.00  0.00    -0.248 NA
ATOM     45  C   UNL A   1      38.375  30.324  28.929  1.00  0.00     0.031 C 
ATOM     46  C   UNL A   1      41.798  31.811  31.057  1.00  0.00     0.029 A 
ATOM     47  N   UNL A   1      40.635  33.289  32.289  1.00  0.00    -0.354 N 
ATOM     48  C   UNL A   1      39.980  28.721  29.327  1.00  0.00     0.074 A 
ATOM     49  C   UNL A   1      38.849  29.140  28.528  1.00  0.00     0.031 C 
ATOM     50  C   UNL A   1      42.591  32.196  32.068  1.00  0.00     0.029 A 
ATOM     51  C   UNL A   1      41.765  32.907  33.026  1.00  0.00     0.049 A 
ATOM     52  H   UNL A   1      40.062  34.067  32.473  1.00  0.00     0.167 HD
ATOM     53  C   UNL A   1      40.957  27.780  29.195  1.00  0.00     0.034 A 
ATOM     54  C   UNL A   1      41.686  32.620  34.357  1.00  0.00     0.034 A 
ATOM     55  C   UNL A   1      42.005  27.940  30.205  1.00  0.00     0.049 A 
ATOM     56  C   UNL A   1      42.108  31.211  34.709  1.00  0.00     0.074 A 
ATOM     57  C   UNL A   1      43.287  28.467  30.154  1.00  0.00     0.029 A 
ATOM     58  N   UNL A   1      41.716  27.745  31.549  1.00  0.00    -0.354 N 
ATOM     59  N   UNL A   1      42.252  30.249  33.840  1.00  0.00    -0.248 NA
ATOM     60  C   UNL A   1      42.369  30.763  36.072  1.00  0.00     0.031 C 
ATOM     61  C   UNL A   1      43.775  28.571  31.480  1.00  0.00     0.029 A 
ATOM     62  C   UNL A   1      42.796  28.100  32.335  1.00  0.00     0.049 A 
ATOM     63  H   UNL A   1      40.861  27.401  31.893  1.00  0.00     0.167 HD
ATOM     64  C   UNL A   1      42.587  29.079  34.483  1.00  0.00     0.074 A 
ATOM     65  C   UNL A   1      42.659  29.463  35.882  1.00  0.00     0.031 C 
ATOM     66  C   UNL A   1      42.753  27.913  33.781  1.00  0.00     0.034 A 
BRANCH  53  67
ATOM     67  C   UNL A   1      41.143  26.896  27.979  1.00  0.00     0.023 A 
ATOM     68  C   UNL A   1      41.273  25.502  28.158  1.00  0.00     0.031 A 
ATOM     69  C   UNL A   1      41.229  27.339  26.646  1.00  0.00     0.131 A 
ATOM     70  C   UNL A   1      41.594  24.645  27.092  1.00  0.00     0.055 A 
ATOM     71  C   UNL A   1      41.599  26.495  25.589  1.00  0.00     0.041 A 
ATOM     72  F   UNL A   1      40.902  28.589  26.295  1.00  0.00    -0.206 F 
ATOM     73  C   UNL A   1      41.803  25.141  25.811  1.00  0.00     0.022 A 
BRANCH  70  74
ATOM     74  S   UNL A   1      41.739  22.865  27.411  1.00  0.00     0.124 S 
ATOM     75  O   UNL A   1      42.746  22.819  28.466  1.00  0.00    -0.237 OA
ATOM     76  O   UNL A   1      40.378  22.508  27.799  1.00  0.00    -0.237 OA
ATOM     77  O   UNL A   1      42.172  22.324  26.123  1.00  0.00    -0.744 OA
ENDBRANCH  70  74
ENDBRANCH  53  67
BRANCH  54  78
ATOM     78  C   UNL A   1      40.642  33.413  35.065  1.00  0.00     0.023 A 
ATOM     79  C   UNL A   1      39.582  32.698  35.660  1.00  0.00     0.031 A 
ATOM     80  C   UNL A   1      40.885  34.720  35.505  1.00  0.00     0.131 A 
ATOM     81  C   UNL A   1      38.899  33.234  36.760  1.00  0.00     0.055 A 
ATOM     82  C   UNL A   1      40.166  35.272  36.573  1.00  0.00     0.041 A 
ATOM     83  F   UNL A   1      41.904  35.434  35.002  1.00  0.00    -0.206 F 
ATOM     84  C   UNL A   1      39.196  34.514  37.232  1.00  0.00     0.022 A 
BRANCH  81  85
ATOM     85  S   UNL A   1      37.806  32.138  37.712  1.00  0.00     0.124 S 
ATOM     86  O   UNL A   1      37.851  30.909  36.928  1.00  0.00    -0.237 OA
ATOM     87  O   UNL A   1      38.466  32.089  39.016  1.00  0.00    -0.237 OA
ATOM     88  O   UNL A   1      36.525  32.840  37.708  1.00  0.00    -0.744 OA
ENDBRANCH  81  85
ENDBRANCH  54  78
BRANCH  66  89
ATOM     89  C   UNL A   1      42.960  26.503  34.328  1.00  0.00     0.023 A 
ATOM     90  C   UNL A   1      44.146  25.768  34.205  1.00  0.00     0.031 A 
ATOM     91  C   UNL A   1      41.923  25.843  35.048  1.00  0.00     0.131 A 
ATOM     92  C   UNL A   1      44.271  24.468  34.743  1.00  0.00     0.055 A 
ATOM     93  C   UNL A   1      42.058  24.570  35.610  1.00  0.00     0.041 A 
ATOM     94  F   UNL A   1      40.727  26.408  35.256  1.00  0.00    -0.206 F 
ATOM     95  C   UNL A   1      43.239  23.868  35.457  1.00  0.00     0.022 A 
BRANCH  92  96
ATOM     96  S   UNL A   1      45.816  23.565  34.461  1.00  0.00     0.124 S 
ATOM     97  O   UNL A   1      45.347  22.364  33.774  1.00  0.00    -0.237 OA
ATOM     98  O   UNL A   1      46.579  24.503  33.643  1.00  0.00    -0.237 OA
ATOM     99  O   UNL A   1      46.342  23.344  35.807  1.00  0.00    -0.744 OA
ENDBRANCH  92  96
ENDBRANCH  66  89
ENDBRANCH  40  41
ENDBRANCH  32  35
ENDBRANCH  30  31
ENDBRANCH  29  30
ENDBRANCH  28  29
ENDBRANCH   1  28
TORSDOF 19
ENDMDL
