MODEL 1
REMARK VINA RESULT:     -12.2      0.000      0.000
REMARK SMILES Cc1ccc(Nc2c(Cl)cc(Cl)cc2Cl)c(CC(=O)NCCCCCCNC(=O)c2ccc(-c3c4nc(c(-c5cc(S(=O)(=O)[O-])ccc5F)c5ccc([nH]5)c(-c5cc(S(=O)(=O)[O-])ccc5F)c5nc(c(-c6cc(S(=O)(=O)[O-])ccc6F)c6ccc3[nH]6)C=C5)C=C4)cc2)c1
REMARK SMILES IDX 23 1 22 2 21 3 20 4 18 5 19 6 17 8 16 9 1 10 2 11 3 12 93 13
REMARK SMILES IDX 4 14 5 15 6 16 7 18 8 19 14 20 9 21 10 22 13 23 15 24 11 25
REMARK SMILES IDX 12 26 24 27 25 28 26 29 27 30 28 31 29 33 30 34 31 35 92 36
REMARK SMILES IDX 32 37 91 38 33 39 34 40 35 41 85 42 36 43 90 44 84 45 86 46
REMARK SMILES IDX 37 47 89 48 83 49 82 50 38 52 70 53 50 54 69 55 51 56 54 57
REMARK SMILES IDX 68 58 87 59 52 60 53 61 67 63 88 64 55 65 39 66 40 67 48 68
REMARK SMILES IDX 41 69 47 70 49 71 46 72 42 73 43 74 44 75 45 76 71 77 72 78
REMARK SMILES IDX 80 79 73 80 79 81 81 82 78 83 74 84 75 85 76 86 77 87 56 88
REMARK SMILES IDX 57 89 65 90 58 91 64 92 66 93 63 94 59 95 60 96 61 97 62 98
REMARK H PARENT 20 7 6 17 27 32 86 51 54 62
REMARK Flexibility Score: inf
ROOT
ATOM      1  C   UNL A   1      32.776  29.251  24.304  1.00  0.00     0.002 C 
ENDROOT
BRANCH   1   2
ATOM      2  C   UNL A   1      34.071  28.592  23.802  1.00  0.00     0.021 C 
BRANCH   2   3
ATOM      3  C   UNL A   1      34.077  28.209  22.321  1.00  0.00     0.116 C 
BRANCH   3   4
ATOM      4  N   UNL A   1      32.842  27.569  21.912  1.00  0.00    -0.356 N 
ATOM      5  C   UNL A   1      32.489  26.256  21.986  1.00  0.00     0.224 C 
ATOM      6  O   UNL A   1      31.421  25.897  21.482  1.00  0.00    -0.275 OA
ATOM      7  H   UNL A   1      32.163  28.168  21.528  1.00  0.00     0.163 HD
BRANCH   5   8
ATOM      8  C   UNL A   1      33.391  25.242  22.667  1.00  0.00     0.137 C 
BRANCH   8   9
ATOM      9  C   UNL A   1      32.971  24.892  24.078  1.00  0.00    -0.015 A 
ATOM     10  C   UNL A   1      31.078  26.681  26.884  1.00  0.00     0.044 C 
ATOM     11  C   UNL A   1      31.841  25.642  26.120  1.00  0.00    -0.051 A 
ATOM     12  C   UNL A   1      32.210  24.450  26.738  1.00  0.00     0.005 A 
ATOM     13  C   UNL A   1      32.208  25.846  24.789  1.00  0.00     0.009 A 
ATOM     14  C   UNL A   1      32.926  23.479  26.032  1.00  0.00     0.026 A 
ATOM     15  C   UNL A   1      33.321  23.673  24.698  1.00  0.00     0.042 A 
BRANCH  15  16
ATOM     16  N   UNL A   1      33.993  22.655  23.981  1.00  0.00    -0.353 N 
ATOM     17  H   UNL A   1      34.697  22.962  23.366  1.00  0.00     0.167 HD
BRANCH  16  18
ATOM     18  C   UNL A   1      33.790  21.254  24.029  1.00  0.00     0.076 A 
ATOM     19  C   UNL A   1      32.747  20.607  23.333  1.00  0.00     0.067 A 
ATOM     20  C   UNL A   1      34.603  20.463  24.869  1.00  0.00     0.067 A 
ATOM     21  Cl  UNL A   1      31.759  21.440  22.178  1.00  0.00    -0.082 Cl
ATOM     22  C   UNL A   1      32.515  19.237  23.494  1.00  0.00     0.043 A 
ATOM     23  C   UNL A   1      34.374  19.094  25.029  1.00  0.00     0.043 A 
ATOM     24  Cl  UNL A   1      35.919  21.167  25.747  1.00  0.00    -0.082 Cl
ATOM     25  C   UNL A   1      33.325  18.492  24.344  1.00  0.00     0.044 A 
ATOM     26  Cl  UNL A   1      33.039  16.806  24.532  1.00  0.00    -0.084 Cl
ENDBRANCH  16  18
ENDBRANCH  15  16
ENDBRANCH   8   9
ENDBRANCH   5   8
ENDBRANCH   3   4
ENDBRANCH   2   3
ENDBRANCH   1   2
BRANCH   1  27
ATOM     27  C   UNL A   1      32.798  29.820  25.731  1.00  0.00     0.002 C 
BRANCH  27  28
ATOM     28  C   UNL A   1      34.104  29.644  26.508  1.00  0.00     0.021 C 
BRANCH  28  29
ATOM     29  C   UNL A   1      34.000  29.988  27.991  1.00  0.00     0.116 C 
BRANCH  29  30
ATOM     30  N   UNL A   1      34.835  31.118  28.387  1.00  0.00    -0.352 N 
ATOM     31  C   UNL A   1      36.155  31.129  28.805  1.00  0.00     0.251 C 
ATOM     32  H   UNL A   1      34.398  31.999  28.353  1.00  0.00     0.163 HD
ATOM     33  O   UNL A   1      36.692  32.158  29.184  1.00  0.00    -0.269 OA
BRANCH  31  34
ATOM     34  C   UNL A   1      36.952  29.885  28.681  1.00  0.00     0.039 A 
ATOM     35  C   UNL A   1      37.089  29.090  29.825  1.00  0.00     0.014 A 
ATOM     36  C   UNL A   1      37.718  29.631  27.547  1.00  0.00     0.014 A 
ATOM     37  C   UNL A   1      38.158  28.202  29.914  1.00  0.00     0.010 A 
ATOM     38  C   UNL A   1      38.830  28.821  27.667  1.00  0.00     0.010 A 
ATOM     39  C   UNL A   1      39.089  28.167  28.877  1.00  0.00    -0.014 A 
BRANCH  39  40
ATOM     40  C   UNL A   1      40.441  27.637  29.032  1.00  0.00     0.031 A 
ATOM     41  C   UNL A   1      40.766  26.244  28.669  1.00  0.00     0.074 A 
ATOM     42  C   UNL A   1      41.431  28.478  29.405  1.00  0.00     0.049 A 
ATOM     43  N   UNL A   1      41.872  25.659  28.977  1.00  0.00    -0.248 NA
ATOM     44  C   UNL A   1      39.821  25.357  27.996  1.00  0.00     0.031 C 
ATOM     45  C   UNL A   1      42.872  28.269  29.295  1.00  0.00     0.029 A 
ATOM     46  N   UNL A   1      41.307  29.595  30.231  1.00  0.00    -0.354 N 
ATOM     47  C   UNL A   1      41.923  24.469  28.296  1.00  0.00     0.074 A 
ATOM     48  C   UNL A   1      40.575  24.265  27.830  1.00  0.00     0.031 C 
ATOM     49  C   UNL A   1      43.490  29.027  30.211  1.00  0.00     0.029 A 
ATOM     50  C   UNL A   1      42.462  29.628  31.039  1.00  0.00     0.049 A 
ATOM     51  H   UNL A   1      40.558  30.235  30.247  1.00  0.00     0.167 HD
ATOM     52  C   UNL A   1      43.138  23.882  28.100  1.00  0.00     0.034 A 
ATOM     53  C   UNL A   1      42.359  29.496  32.395  1.00  0.00     0.034 A 
ATOM     54  C   UNL A   1      44.151  24.445  29.006  1.00  0.00     0.049 A 
ATOM     55  C   UNL A   1      43.053  28.268  32.958  1.00  0.00     0.074 A 
ATOM     56  C   UNL A   1      45.270  25.248  28.869  1.00  0.00     0.029 A 
ATOM     57  N   UNL A   1      43.923  24.352  30.371  1.00  0.00    -0.354 N 
ATOM     58  N   UNL A   1      43.686  27.378  32.242  1.00  0.00    -0.248 NA
ATOM     59  C   UNL A   1      43.010  27.905  34.376  1.00  0.00     0.031 C 
ATOM     60  C   UNL A   1      45.664  25.684  30.175  1.00  0.00     0.029 A 
ATOM     61  C   UNL A   1      44.809  25.115  31.103  1.00  0.00     0.049 A 
ATOM     62  H   UNL A   1      43.210  23.803  30.772  1.00  0.00     0.167 HD
ATOM     63  C   UNL A   1      44.051  26.324  33.037  1.00  0.00     0.074 A 
ATOM     64  C   UNL A   1      43.614  26.705  34.370  1.00  0.00     0.031 C 
ATOM     65  C   UNL A   1      44.634  25.189  32.547  1.00  0.00     0.034 A 
BRANCH  52  66
ATOM     66  C   UNL A   1      43.475  22.906  26.984  1.00  0.00     0.023 A 
ATOM     67  C   UNL A   1      42.832  21.648  26.970  1.00  0.00     0.031 A 
ATOM     68  C   UNL A   1      44.478  23.067  26.000  1.00  0.00     0.131 A 
ATOM     69  C   UNL A   1      43.200  20.637  26.057  1.00  0.00     0.055 A 
ATOM     70  C   UNL A   1      44.809  22.080  25.062  1.00  0.00     0.041 A 
ATOM     71  F   UNL A   1      45.238  24.159  25.905  1.00  0.00    -0.206 F 
ATOM     72  C   UNL A   1      44.179  20.852  25.093  1.00  0.00     0.022 A 
BRANCH  69  73
ATOM     73  S   UNL A   1      42.444  18.996  26.195  1.00  0.00     0.124 S 
ATOM     74  O   UNL A   1      43.306  18.189  25.338  1.00  0.00    -0.237 OA
ATOM     75  O   UNL A   1      42.525  18.737  27.628  1.00  0.00    -0.237 OA
ATOM     76  O   UNL A   1      41.090  19.203  25.681  1.00  0.00    -0.744 OA
ENDBRANCH  69  73
ENDBRANCH  52  66
BRANCH  53  77
ATOM     77  C   UNL A   1      41.116  30.129  32.933  1.00  0.00     0.023 A 
ATOM     78  C   UNL A   1      41.095  31.540  32.996  1.00  0.00     0.031 A 
ATOM     79  C   UNL A   1      39.890  29.454  32.988  1.00  0.00     0.131 A 
ATOM     80  C   UNL A   1      39.879  32.232  32.924  1.00  0.00     0.055 A 
ATOM     81  C   UNL A   1      38.676  30.153  33.005  1.00  0.00     0.041 A 
ATOM     82  F   UNL A   1      39.837  28.117  32.892  1.00  0.00    -0.206 F 
ATOM     83  C   UNL A   1      38.665  31.547  32.926  1.00  0.00     0.022 A 
BRANCH  80  84
ATOM     84  S   UNL A   1      39.931  34.008  32.536  1.00  0.00     0.124 S 
ATOM     85  O   UNL A   1      39.516  34.027  31.138  1.00  0.00    -0.237 OA
ATOM     86  O   UNL A   1      38.979  34.568  33.494  1.00  0.00    -0.237 OA
ATOM     87  O   UNL A   1      41.324  34.375  32.783  1.00  0.00    -0.744 OA
ENDBRANCH  80  84
ENDBRANCH  53  77
BRANCH  65  88
ATOM     88  C   UNL A   1      45.037  24.032  33.428  1.00  0.00     0.023 A 
ATOM     89  C   UNL A   1      46.335  23.916  33.952  1.00  0.00     0.031 A 
ATOM     90  C   UNL A   1      44.150  22.970  33.715  1.00  0.00     0.131 A 
ATOM     91  C   UNL A   1      46.683  22.833  34.779  1.00  0.00     0.055 A 
ATOM     92  C   UNL A   1      44.527  21.851  34.462  1.00  0.00     0.041 A 
ATOM     93  F   UNL A   1      42.868  22.997  33.323  1.00  0.00    -0.206 F 
ATOM     94  C   UNL A   1      45.797  21.783  35.013  1.00  0.00     0.022 A 
BRANCH  91  95
ATOM     95  S   UNL A   1      48.288  22.863  35.617  1.00  0.00     0.124 S 
ATOM     96  O   UNL A   1      49.232  22.780  34.508  1.00  0.00    -0.237 OA
ATOM     97  O   UNL A   1      48.234  24.148  36.310  1.00  0.00    -0.237 OA
ATOM     98  O   UNL A   1      48.246  21.690  36.487  1.00  0.00    -0.744 OA
ENDBRANCH  91  95
ENDBRANCH  65  88
ENDBRANCH  39  40
ENDBRANCH  31  34
ENDBRANCH  29  30
ENDBRANCH  28  29
ENDBRANCH  27  28
ENDBRANCH   1  27
TORSDOF 19
ENDMDL
MODEL 2
REMARK VINA RESULT:     -12.2      1.465      2.387
REMARK SMILES Cc1ccc(Nc2c(Cl)cc(Cl)cc2Cl)c(CC(=O)NCCCCCCNC(=O)c2ccc(-c3c4nc(c(-c5cc(S(=O)(=O)[O-])ccc5F)c5ccc([nH]5)c(-c5cc(S(=O)(=O)[O-])ccc5F)c5nc(c(-c6cc(S(=O)(=O)[O-])ccc6F)c6ccc3[nH]6)C=C5)C=C4)cc2)c1
REMARK SMILES IDX 23 1 22 2 21 3 20 4 18 5 19 6 17 8 16 9 1 10 2 11 3 12 93 13
REMARK SMILES IDX 4 14 5 15 6 16 7 18 8 19 14 20 9 21 10 22 13 23 15 24 11 25
REMARK SMILES IDX 12 26 24 27 25 28 26 29 27 30 28 31 29 33 30 34 31 35 92 36
REMARK SMILES IDX 32 37 91 38 33 39 34 40 35 41 85 42 36 43 90 44 84 45 86 46
REMARK SMILES IDX 37 47 89 48 83 49 82 50 38 52 70 53 50 54 69 55 51 56 54 57
REMARK SMILES IDX 68 58 87 59 52 60 53 61 67 63 88 64 55 65 39 66 40 67 48 68
REMARK SMILES IDX 41 69 47 70 49 71 46 72 42 73 43 74 44 75 45 76 71 77 72 78
REMARK SMILES IDX 80 79 73 80 79 81 81 82 78 83 74 84 75 85 76 86 77 87 56 88
REMARK SMILES IDX 57 89 65 90 58 91 64 92 66 93 63 94 59 95 60 96 61 97 62 98
REMARK H PARENT 20 7 6 17 27 32 86 51 54 62
REMARK Flexibility Score: inf
ROOT
ATOM      1  C   UNL A   1      32.779  27.590  25.891  1.00  0.00     0.002 C 
ENDROOT
BRANCH   1   2
ATOM      2  C   UNL A   1      31.266  27.611  26.161  1.00  0.00     0.021 C 
BRANCH   2   3
ATOM      3  C   UNL A   1      30.591  26.238  26.205  1.00  0.00     0.116 C 
BRANCH   3   4
ATOM      4  N   UNL A   1      31.355  25.273  26.971  1.00  0.00    -0.356 N 
ATOM      5  C   UNL A   1      31.564  23.950  26.724  1.00  0.00     0.224 C 
ATOM      6  O   UNL A   1      32.165  23.275  27.564  1.00  0.00    -0.275 OA
ATOM      7  H   UNL A   1      31.784  25.624  27.785  1.00  0.00     0.163 HD
BRANCH   5   8
ATOM      8  C   UNL A   1      31.064  23.308  25.442  1.00  0.00     0.137 C 
BRANCH   8   9
ATOM      9  C   UNL A   1      31.824  23.728  24.203  1.00  0.00    -0.015 A 
ATOM     10  C   UNL A   1      31.312  26.329  21.441  1.00  0.00     0.044 C 
ATOM     11  C   UNL A   1      31.896  25.217  22.257  1.00  0.00    -0.051 A 
ATOM     12  C   UNL A   1      33.044  24.560  21.822  1.00  0.00     0.005 A 
ATOM     13  C   UNL A   1      31.306  24.809  23.454  1.00  0.00     0.009 A 
ATOM     14  C   UNL A   1      33.592  23.518  22.576  1.00  0.00     0.026 A 
ATOM     15  C   UNL A   1      33.003  23.081  23.774  1.00  0.00     0.042 A 
BRANCH  15  16
ATOM     16  N   UNL A   1      33.604  22.065  24.555  1.00  0.00    -0.353 N 
ATOM     17  H   UNL A   1      33.010  21.331  24.830  1.00  0.00     0.167 HD
BRANCH  16  18
ATOM     18  C   UNL A   1      34.947  21.964  24.995  1.00  0.00     0.076 A 
ATOM     19  C   UNL A   1      35.711  23.082  25.389  1.00  0.00     0.067 A 
ATOM     20  C   UNL A   1      35.594  20.710  24.967  1.00  0.00     0.067 A 
ATOM     21  Cl  UNL A   1      35.005  24.653  25.584  1.00  0.00    -0.082 Cl
ATOM     22  C   UNL A   1      37.065  22.952  25.713  1.00  0.00     0.043 A 
ATOM     23  C   UNL A   1      36.946  20.577  25.292  1.00  0.00     0.043 A 
ATOM     24  Cl  UNL A   1      34.730  19.278  24.515  1.00  0.00    -0.082 Cl
ATOM     25  C   UNL A   1      37.674  21.703  25.656  1.00  0.00     0.044 A 
ATOM     26  Cl  UNL A   1      39.338  21.549  26.063  1.00  0.00    -0.084 Cl
ENDBRANCH  16  18
ENDBRANCH  15  16
ENDBRANCH   8   9
ENDBRANCH   5   8
ENDBRANCH   3   4
ENDBRANCH   2   3
ENDBRANCH   1   2
BRANCH   1  27
ATOM     27  C   UNL A   1      33.442  28.939  25.571  1.00  0.00     0.002 C 
BRANCH  27  28
ATOM     28  C   UNL A   1      34.677  29.297  26.400  1.00  0.00     0.021 C 
BRANCH  28  29
ATOM     29  C   UNL A   1      34.359  29.899  27.765  1.00  0.00     0.116 C 
BRANCH  29  30
ATOM     30  N   UNL A   1      35.194  31.048  28.104  1.00  0.00    -0.352 N 
ATOM     31  C   UNL A   1      36.518  31.081  28.506  1.00  0.00     0.251 C 
ATOM     32  H   UNL A   1      34.752  31.925  28.039  1.00  0.00     0.163 HD
ATOM     33  O   UNL A   1      37.055  32.127  28.837  1.00  0.00    -0.269 OA
BRANCH  31  34
ATOM     34  C   UNL A   1      37.319  29.836  28.425  1.00  0.00     0.039 A 
ATOM     35  C   UNL A   1      37.396  29.042  29.576  1.00  0.00     0.014 A 
ATOM     36  C   UNL A   1      38.141  29.580  27.333  1.00  0.00     0.014 A 
ATOM     37  C   UNL A   1      38.458  28.153  29.720  1.00  0.00     0.010 A 
ATOM     38  C   UNL A   1      39.245  28.768  27.510  1.00  0.00     0.010 A 
ATOM     39  C   UNL A   1      39.441  28.115  28.733  1.00  0.00    -0.014 A 
BRANCH  39  40
ATOM     40  C   UNL A   1      40.782  27.584  28.957  1.00  0.00     0.031 A 
ATOM     41  C   UNL A   1      41.127  26.194  28.604  1.00  0.00     0.074 A 
ATOM     42  C   UNL A   1      41.751  28.423  29.389  1.00  0.00     0.049 A 
ATOM     43  N   UNL A   1      42.215  25.607  28.967  1.00  0.00    -0.248 NA
ATOM     44  C   UNL A   1      40.220  25.311  27.875  1.00  0.00     0.031 C 
ATOM     45  C   UNL A   1      43.195  28.214  29.355  1.00  0.00     0.029 A 
ATOM     46  N   UNL A   1      41.582  29.535  30.214  1.00  0.00    -0.354 N 
ATOM     47  C   UNL A   1      42.303  24.421  28.282  1.00  0.00     0.074 A 
ATOM     48  C   UNL A   1      40.982  24.220  27.743  1.00  0.00     0.031 C 
ATOM     49  C   UNL A   1      43.763  28.966  30.309  1.00  0.00     0.029 A 
ATOM     50  C   UNL A   1      42.692  29.562  31.084  1.00  0.00     0.049 A 
ATOM     51  H   UNL A   1      40.833  30.175  30.193  1.00  0.00     0.167 HD
ATOM     52  C   UNL A   1      43.527  23.835  28.149  1.00  0.00     0.034 A 
ATOM     53  C   UNL A   1      42.515  29.422  32.431  1.00  0.00     0.034 A 
ATOM     54  C   UNL A   1      44.489  24.391  29.112  1.00  0.00     0.049 A 
ATOM     55  C   UNL A   1      43.178  28.190  33.024  1.00  0.00     0.074 A 
ATOM     56  C   UNL A   1      45.614  25.196  29.041  1.00  0.00     0.029 A 
ATOM     57  N   UNL A   1      44.187  24.290  30.462  1.00  0.00    -0.354 N 
ATOM     58  N   UNL A   1      43.849  27.305  32.337  1.00  0.00    -0.248 NA
ATOM     59  C   UNL A   1      43.058  27.817  34.434  1.00  0.00     0.031 C 
ATOM     60  C   UNL A   1      45.936  25.623  30.369  1.00  0.00     0.029 A 
ATOM     61  C   UNL A   1      45.033  25.049  31.245  1.00  0.00     0.049 A 
ATOM     62  H   UNL A   1      43.453  23.739  30.820  1.00  0.00     0.167 HD
ATOM     63  C   UNL A   1      44.171  26.245  33.144  1.00  0.00     0.074 A 
ATOM     64  C   UNL A   1      43.661  26.617  34.453  1.00  0.00     0.031 C 
ATOM     65  C   UNL A   1      44.779  25.113  32.679  1.00  0.00     0.034 A 
BRANCH  52  66
ATOM     66  C   UNL A   1      43.924  22.867  27.046  1.00  0.00     0.023 A 
ATOM     67  C   UNL A   1      43.218  21.648  26.932  1.00  0.00     0.031 A 
ATOM     68  C   UNL A   1      45.030  22.991  26.175  1.00  0.00     0.131 A 
ATOM     69  C   UNL A   1      43.623  20.638  26.034  1.00  0.00     0.055 A 
ATOM     70  C   UNL A   1      45.403  22.007  25.249  1.00  0.00     0.041 A 
ATOM     71  F   UNL A   1      45.855  24.040  26.189  1.00  0.00    -0.206 F 
ATOM     72  C   UNL A   1      44.707  20.817  25.181  1.00  0.00     0.022 A 
BRANCH  69  73
ATOM     73  S   UNL A   1      42.768  19.040  26.047  1.00  0.00     0.124 S 
ATOM     74  O   UNL A   1      41.582  19.321  25.244  1.00  0.00    -0.237 OA
ATOM     75  O   UNL A   1      43.761  18.153  25.453  1.00  0.00    -0.237 OA
ATOM     76  O   UNL A   1      42.506  18.808  27.467  1.00  0.00    -0.744 OA
ENDBRANCH  69  73
ENDBRANCH  52  66
BRANCH  53  77
ATOM     77  C   UNL A   1      41.245  30.051  32.905  1.00  0.00     0.023 A 
ATOM     78  C   UNL A   1      41.225  31.461  32.990  1.00  0.00     0.031 A 
ATOM     79  C   UNL A   1      40.015  29.381  32.877  1.00  0.00     0.131 A 
ATOM     80  C   UNL A   1      40.018  32.160  32.858  1.00  0.00     0.055 A 
ATOM     81  C   UNL A   1      38.805  30.085  32.833  1.00  0.00     0.041 A 
ATOM     82  F   UNL A   1      39.963  28.046  32.756  1.00  0.00    -0.206 F 
ATOM     83  C   UNL A   1      38.804  31.480  32.777  1.00  0.00     0.022 A 
BRANCH  80  84
ATOM     84  S   UNL A   1      40.099  33.942  32.503  1.00  0.00     0.124 S 
ATOM     85  O   UNL A   1      41.176  34.379  33.384  1.00  0.00    -0.237 OA
ATOM     86  O   UNL A   1      40.395  33.964  31.071  1.00  0.00    -0.237 OA
ATOM     87  O   UNL A   1      38.766  34.424  32.852  1.00  0.00    -0.744 OA
ENDBRANCH  80  84
ENDBRANCH  53  77
BRANCH  65  88
ATOM     88  C   UNL A   1      45.133  23.950  33.572  1.00  0.00     0.023 A 
ATOM     89  C   UNL A   1      46.460  23.687  33.955  1.00  0.00     0.031 A 
ATOM     90  C   UNL A   1      44.160  23.026  34.015  1.00  0.00     0.131 A 
ATOM     91  C   UNL A   1      46.763  22.603  34.798  1.00  0.00     0.055 A 
ATOM     92  C   UNL A   1      44.479  21.899  34.777  1.00  0.00     0.041 A 
ATOM     93  F   UNL A   1      42.855  23.205  33.767  1.00  0.00    -0.206 F 
ATOM     94  C   UNL A   1      45.786  21.688  35.186  1.00  0.00     0.022 A 
BRANCH  91  95
ATOM     95  S   UNL A   1      48.446  22.456  35.450  1.00  0.00     0.124 S 
ATOM     96  O   UNL A   1      48.928  23.833  35.410  1.00  0.00    -0.237 OA
ATOM     97  O   UNL A   1      48.199  21.909  36.782  1.00  0.00    -0.237 OA
ATOM     98  O   UNL A   1      49.100  21.542  34.517  1.00  0.00    -0.744 OA
ENDBRANCH  91  95
ENDBRANCH  65  88
ENDBRANCH  39  40
ENDBRANCH  31  34
ENDBRANCH  29  30
ENDBRANCH  28  29
ENDBRANCH  27  28
ENDBRANCH   1  27
TORSDOF 19
ENDMDL
MODEL 3
REMARK VINA RESULT:     -11.8      2.363      2.688
REMARK SMILES Cc1ccc(Nc2c(Cl)cc(Cl)cc2Cl)c(CC(=O)NCCCCCCNC(=O)c2ccc(-c3c4nc(c(-c5cc(S(=O)(=O)[O-])ccc5F)c5ccc([nH]5)c(-c5cc(S(=O)(=O)[O-])ccc5F)c5nc(c(-c6cc(S(=O)(=O)[O-])ccc6F)c6ccc3[nH]6)C=C5)C=C4)cc2)c1
REMARK SMILES IDX 23 1 22 2 21 3 20 4 18 5 19 6 17 8 16 9 1 10 2 11 3 12 93 13
REMARK SMILES IDX 4 14 5 15 6 16 7 18 8 19 14 20 9 21 10 22 13 23 15 24 11 25
REMARK SMILES IDX 12 26 24 27 25 28 26 29 27 30 28 31 29 33 30 34 31 35 92 36
REMARK SMILES IDX 32 37 91 38 33 39 34 40 35 41 85 42 36 43 90 44 84 45 86 46
REMARK SMILES IDX 37 47 89 48 83 49 82 50 38 52 70 53 50 54 69 55 51 56 54 57
REMARK SMILES IDX 68 58 87 59 52 60 53 61 67 63 88 64 55 65 39 66 40 67 48 68
REMARK SMILES IDX 41 69 47 70 49 71 46 72 42 73 43 74 44 75 45 76 71 77 72 78
REMARK SMILES IDX 80 79 73 80 79 81 81 82 78 83 74 84 75 85 76 86 77 87 56 88
REMARK SMILES IDX 57 89 65 90 58 91 64 92 66 93 63 94 59 95 60 96 61 97 62 98
REMARK H PARENT 20 7 6 17 27 32 86 51 54 62
REMARK Flexibility Score: inf
ROOT
ATOM      1  C   UNL A   1      32.365  29.123  24.409  1.00  0.00     0.002 C 
ENDROOT
BRANCH   1   2
ATOM      2  C   UNL A   1      33.282  29.172  23.177  1.00  0.00     0.021 C 
BRANCH   2   3
ATOM      3  C   UNL A   1      34.002  27.863  22.846  1.00  0.00     0.116 C 
BRANCH   3   4
ATOM      4  N   UNL A   1      33.470  27.228  21.656  1.00  0.00    -0.356 N 
ATOM      5  C   UNL A   1      33.124  25.926  21.458  1.00  0.00     0.224 C 
ATOM      6  O   UNL A   1      32.785  25.565  20.328  1.00  0.00    -0.275 OA
ATOM      7  H   UNL A   1      33.339  27.822  20.882  1.00  0.00     0.163 HD
BRANCH   5   8
ATOM      8  C   UNL A   1      33.160  24.927  22.601  1.00  0.00     0.137 C 
BRANCH   8   9
ATOM      9  C   UNL A   1      32.136  25.190  23.684  1.00  0.00    -0.015 A 
ATOM     10  C   UNL A   1      28.671  26.813  23.825  1.00  0.00     0.044 C 
ATOM     11  C   UNL A   1      29.942  26.135  24.236  1.00  0.00    -0.051 A 
ATOM     12  C   UNL A   1      30.180  25.850  25.579  1.00  0.00     0.005 A 
ATOM     13  C   UNL A   1      30.914  25.785  23.297  1.00  0.00     0.009 A 
ATOM     14  C   UNL A   1      31.366  25.221  25.969  1.00  0.00     0.026 A 
ATOM     15  C   UNL A   1      32.364  24.879  25.042  1.00  0.00     0.042 A 
BRANCH  15  16
ATOM     16  N   UNL A   1      33.531  24.189  25.447  1.00  0.00    -0.353 N 
ATOM     17  H   UNL A   1      34.167  24.710  25.987  1.00  0.00     0.167 HD
BRANCH  16  18
ATOM     18  C   UNL A   1      33.908  22.850  25.179  1.00  0.00     0.076 A 
ATOM     19  C   UNL A   1      33.002  21.771  25.249  1.00  0.00     0.067 A 
ATOM     20  C   UNL A   1      35.260  22.549  24.910  1.00  0.00     0.067 A 
ATOM     21  Cl  UNL A   1      31.297  22.016  25.449  1.00  0.00    -0.082 Cl
ATOM     22  C   UNL A   1      33.437  20.452  25.084  1.00  0.00     0.043 A 
ATOM     23  C   UNL A   1      35.697  21.233  24.743  1.00  0.00     0.043 A 
ATOM     24  Cl  UNL A   1      36.440  23.811  24.787  1.00  0.00    -0.082 Cl
ATOM     25  C   UNL A   1      34.781  20.192  24.839  1.00  0.00     0.044 A 
ATOM     26  Cl  UNL A   1      35.309  18.569  24.628  1.00  0.00    -0.084 Cl
ENDBRANCH  16  18
ENDBRANCH  15  16
ENDBRANCH   8   9
ENDBRANCH   5   8
ENDBRANCH   3   4
ENDBRANCH   2   3
ENDBRANCH   1   2
BRANCH   1  27
ATOM     27  C   UNL A   1      32.932  28.444  25.666  1.00  0.00     0.002 C 
BRANCH  27  28
ATOM     28  C   UNL A   1      34.187  29.079  26.268  1.00  0.00     0.021 C 
BRANCH  28  29
ATOM     29  C   UNL A   1      33.947  29.807  27.588  1.00  0.00     0.116 C 
BRANCH  29  30
ATOM     30  N   UNL A   1      34.647  31.084  27.684  1.00  0.00    -0.352 N 
ATOM     31  C   UNL A   1      35.962  31.339  28.033  1.00  0.00     0.251 C 
ATOM     32  H   UNL A   1      34.106  31.879  27.472  1.00  0.00     0.163 HD
ATOM     33  O   UNL A   1      36.377  32.482  28.149  1.00  0.00    -0.269 OA
BRANCH  31  34
ATOM     34  C   UNL A   1      36.900  30.198  28.158  1.00  0.00     0.039 A 
ATOM     35  C   UNL A   1      36.889  29.482  29.361  1.00  0.00     0.014 A 
ATOM     36  C   UNL A   1      37.904  29.987  27.219  1.00  0.00     0.014 A 
ATOM     37  C   UNL A   1      38.009  28.738  29.722  1.00  0.00     0.010 A 
ATOM     38  C   UNL A   1      39.052  29.326  27.613  1.00  0.00     0.010 A 
ATOM     39  C   UNL A   1      39.130  28.768  28.894  1.00  0.00    -0.014 A 
BRANCH  39  40
ATOM     40  C   UNL A   1      40.471  28.416  29.350  1.00  0.00     0.031 A 
ATOM     41  C   UNL A   1      41.103  27.140  28.965  1.00  0.00     0.074 A 
ATOM     42  C   UNL A   1      41.186  29.333  30.041  1.00  0.00     0.049 A 
ATOM     43  N   UNL A   1      42.183  26.681  29.499  1.00  0.00    -0.248 NA
ATOM     44  C   UNL A   1      40.514  26.222  27.995  1.00  0.00     0.031 C 
ATOM     45  C   UNL A   1      42.623  29.343  30.292  1.00  0.00     0.029 A 
ATOM     46  N   UNL A   1      40.678  30.308  30.899  1.00  0.00    -0.354 N 
ATOM     47  C   UNL A   1      42.597  25.606  28.754  1.00  0.00     0.074 A 
ATOM     48  C   UNL A   1      41.457  25.276  27.937  1.00  0.00     0.031 C 
ATOM     49  C   UNL A   1      42.863  30.058  31.401  1.00  0.00     0.029 A 
ATOM     50  C   UNL A   1      41.579  30.400  31.981  1.00  0.00     0.049 A 
ATOM     51  H   UNL A   1      39.852  30.830  30.774  1.00  0.00     0.167 HD
ATOM     52  C   UNL A   1      43.903  25.223  28.832  1.00  0.00     0.034 A 
ATOM     53  C   UNL A   1      41.171  30.084  33.245  1.00  0.00     0.034 A 
ATOM     54  C   UNL A   1      44.555  25.802  30.017  1.00  0.00     0.049 A 
ATOM     55  C   UNL A   1      41.902  28.904  33.862  1.00  0.00     0.074 A 
ATOM     56  C   UNL A   1      45.524  26.765  30.247  1.00  0.00     0.029 A 
ATOM     57  N   UNL A   1      44.020  25.506  31.261  1.00  0.00    -0.354 N 
ATOM     58  N   UNL A   1      42.830  28.209  33.261  1.00  0.00    -0.248 NA
ATOM     59  C   UNL A   1      41.575  28.361  35.181  1.00  0.00     0.031 C 
ATOM     60  C   UNL A   1      45.508  27.083  31.643  1.00  0.00     0.029 A 
ATOM     61  C   UNL A   1      44.560  26.288  32.262  1.00  0.00     0.049 A 
ATOM     62  H   UNL A   1      43.332  24.817  31.413  1.00  0.00     0.167 HD
ATOM     63  C   UNL A   1      43.161  27.123  34.029  1.00  0.00     0.074 A 
ATOM     64  C   UNL A   1      42.354  27.267  35.229  1.00  0.00     0.031 C 
ATOM     65  C   UNL A   1      44.027  26.153  33.612  1.00  0.00     0.034 A 
BRANCH  52  66
ATOM     66  C   UNL A   1      44.661  24.454  27.762  1.00  0.00     0.023 A 
ATOM     67  C   UNL A   1      45.605  25.149  26.972  1.00  0.00     0.031 A 
ATOM     68  C   UNL A   1      44.436  23.114  27.369  1.00  0.00     0.131 A 
ATOM     69  C   UNL A   1      46.236  24.542  25.866  1.00  0.00     0.055 A 
ATOM     70  C   UNL A   1      45.099  22.498  26.300  1.00  0.00     0.041 A 
ATOM     71  F   UNL A   1      43.530  22.326  27.952  1.00  0.00    -0.206 F 
ATOM     72  C   UNL A   1      45.996  23.213  25.533  1.00  0.00     0.022 A 
BRANCH  69  73
ATOM     73  S   UNL A   1      47.318  25.535  24.803  1.00  0.00     0.124 S 
ATOM     74  O   UNL A   1      47.551  24.635  23.678  1.00  0.00    -0.237 OA
ATOM     75  O   UNL A   1      46.496  26.710  24.537  1.00  0.00    -0.237 OA
ATOM     76  O   UNL A   1      48.488  25.779  25.645  1.00  0.00    -0.744 OA
ENDBRANCH  69  73
ENDBRANCH  52  66
BRANCH  53  77
ATOM     77  C   UNL A   1      39.747  30.464  33.493  1.00  0.00     0.023 A 
ATOM     78  C   UNL A   1      39.480  31.835  33.701  1.00  0.00     0.031 A 
ATOM     79  C   UNL A   1      38.673  29.635  33.142  1.00  0.00     0.131 A 
ATOM     80  C   UNL A   1      38.224  32.367  33.380  1.00  0.00     0.055 A 
ATOM     81  C   UNL A   1      37.396  30.161  32.906  1.00  0.00     0.041 A 
ATOM     82  F   UNL A   1      38.866  28.332  32.890  1.00  0.00    -0.206 F 
ATOM     83  C   UNL A   1      37.177  31.538  32.979  1.00  0.00     0.022 A 
BRANCH  80  84
ATOM     84  S   UNL A   1      38.080  34.173  33.216  1.00  0.00     0.124 S 
ATOM     85  O   UNL A   1      37.246  34.305  32.027  1.00  0.00    -0.237 OA
ATOM     86  O   UNL A   1      37.456  34.555  34.481  1.00  0.00    -0.237 OA
ATOM     87  O   UNL A   1      39.463  34.617  33.065  1.00  0.00    -0.744 OA
ENDBRANCH  80  84
ENDBRANCH  53  77
BRANCH  65  88
ATOM     88  C   UNL A   1      44.390  24.961  34.463  1.00  0.00     0.023 A 
ATOM     89  C   UNL A   1      45.198  25.084  35.606  1.00  0.00     0.031 A 
ATOM     90  C   UNL A   1      43.994  23.649  34.117  1.00  0.00     0.131 A 
ATOM     91  C   UNL A   1      45.513  23.960  36.389  1.00  0.00     0.055 A 
ATOM     92  C   UNL A   1      44.386  22.523  34.847  1.00  0.00     0.041 A 
ATOM     93  F   UNL A   1      43.172  23.410  33.084  1.00  0.00    -0.206 F 
ATOM     94  C   UNL A   1      45.139  22.675  36.000  1.00  0.00     0.022 A 
BRANCH  91  95
ATOM     95  S   UNL A   1      46.350  24.214  37.975  1.00  0.00     0.124 S 
ATOM     96  O   UNL A   1      46.573  25.656  37.993  1.00  0.00    -0.237 OA
ATOM     97  O   UNL A   1      45.353  23.714  38.917  1.00  0.00    -0.237 OA
ATOM     98  O   UNL A   1      47.558  23.400  37.862  1.00  0.00    -0.744 OA
ENDBRANCH  91  95
ENDBRANCH  65  88
ENDBRANCH  39  40
ENDBRANCH  31  34
ENDBRANCH  29  30
ENDBRANCH  28  29
ENDBRANCH  27  28
ENDBRANCH   1  27
TORSDOF 19
ENDMDL
