MODEL 1
REMARK VINA RESULT:     -11.2      0.000      0.000
REMARK SMILES CN(CC(C)(C)O)S(=O)(=O)c1cc(Cl)cc(C(=O)NCCCCCCNC(=O)c2ccc(-c3c4nc(c(-c5cc(S(=O)(=O)[O-])ccc5F)c5ccc([nH]5)c(-c5cc(S(=O)(=O)[O-])ccc5F)c5nc(c(-c6cc(S(=O)(=O)[O-])ccc6F)c6ccc3[nH]6)C=C5)C=C4)cc2)c1Cl
REMARK SMILES IDX 21 1 20 2 19 3 17 4 18 5 16 7 11 8 12 9 92 10 13 11 93 12
REMARK SMILES IDX 14 13 15 14 8 15 9 16 10 17 2 18 1 19 3 20 4 21 5 22 6 23
REMARK SMILES IDX 7 24 22 26 23 27 24 28 25 29 26 30 27 31 28 33 29 34 30 35
REMARK SMILES IDX 91 36 31 37 90 38 32 39 33 40 34 41 84 42 35 43 89 44 83 45
REMARK SMILES IDX 85 46 36 47 88 48 82 49 81 50 37 52 69 53 49 54 68 55 50 56
REMARK SMILES IDX 53 57 67 58 86 59 51 60 52 61 66 63 87 64 54 65 38 66 39 67
REMARK SMILES IDX 47 68 40 69 46 70 48 71 45 72 41 73 42 74 43 75 44 76 70 77
REMARK SMILES IDX 71 78 79 79 72 80 78 81 80 82 77 83 73 84 74 85 75 86 76 87
REMARK SMILES IDX 55 88 56 89 64 90 57 91 63 92 65 93 62 94 58 95 59 96 60 97
REMARK SMILES IDX 61 98
REMARK H PARENT 19 6 7 25 26 32 85 51 53 62
REMARK Flexibility Score: inf
ROOT
ATOM      1  C   UNL A   1      30.801  29.215  22.767  1.00  0.00     0.021 C 
ENDROOT
BRANCH   1   2
ATOM      2  C   UNL A   1      30.594  27.776  22.312  1.00  0.00     0.116 C 
BRANCH   2   3
ATOM      3  N   UNL A   1      31.684  27.188  21.563  1.00  0.00    -0.352 N 
ATOM      4  C   UNL A   1      32.633  26.274  21.961  1.00  0.00     0.252 C 
ATOM      5  O   UNL A   1      33.405  25.832  21.108  1.00  0.00    -0.269 OA
ATOM      6  H   UNL A   1      31.757  27.486  20.627  1.00  0.00     0.163 HD
BRANCH   4   7
ATOM      7  C   UNL A   1      32.875  25.893  23.389  1.00  0.00     0.061 A 
ATOM      8  C   UNL A   1      32.881  24.479  25.360  1.00  0.00     0.103 A 
ATOM      9  C   UNL A   1      33.366  25.551  26.130  1.00  0.00     0.044 A 
ATOM     10  C   UNL A   1      32.747  24.612  23.966  1.00  0.00     0.073 A 
ATOM     11  C   UNL A   1      33.628  26.773  25.533  1.00  0.00     0.043 A 
ATOM     12  Cl  UNL A   1      32.688  23.216  22.950  1.00  0.00    -0.082 Cl
ATOM     13  Cl  UNL A   1      34.285  28.056  26.467  1.00  0.00    -0.084 Cl
ATOM     14  C   UNL A   1      33.345  26.960  24.187  1.00  0.00     0.036 A 
BRANCH   8  15
ATOM     15  S   UNL A   1      32.452  22.995  26.260  1.00  0.00     0.244 S 
ATOM     16  O   UNL A   1      31.545  22.247  25.414  1.00  0.00    -0.207 OA
ATOM     17  O   UNL A   1      32.034  23.343  27.595  1.00  0.00    -0.207 OA
BRANCH  15  18
ATOM     18  N   UNL A   1      33.925  22.154  26.345  1.00  0.00    -0.198 NA
ATOM     19  C   UNL A   1      34.093  21.257  27.507  1.00  0.00     0.124 C 
BRANCH  18  20
ATOM     20  C   UNL A   1      34.699  21.752  25.132  1.00  0.00     0.136 C 
BRANCH  20  21
ATOM     21  C   UNL A   1      36.145  22.303  24.952  1.00  0.00     0.073 C 
ATOM     22  C   UNL A   1      36.480  22.752  23.530  1.00  0.00     0.043 C 
ATOM     23  C   UNL A   1      36.309  23.521  25.879  1.00  0.00     0.043 C 
BRANCH  21  24
ATOM     24  O   UNL A   1      37.105  21.343  25.404  1.00  0.00    -0.389 OA
ATOM     25  H   UNL A   1      37.978  21.565  25.046  1.00  0.00     0.211 HD
ENDBRANCH  21  24
ENDBRANCH  20  21
ENDBRANCH  18  20
ENDBRANCH  15  18
ENDBRANCH   8  15
ENDBRANCH   4   7
ENDBRANCH   2   3
ENDBRANCH   1   2
BRANCH   1  26
ATOM     26  C   UNL A   1      30.380  29.541  24.205  1.00  0.00     0.002 C 
BRANCH  26  27
ATOM     27  C   UNL A   1      31.494  29.859  25.213  1.00  0.00     0.002 C 
BRANCH  27  28
ATOM     28  C   UNL A   1      31.308  31.098  26.095  1.00  0.00     0.021 C 
BRANCH  28  29
ATOM     29  C   UNL A   1      32.515  31.513  26.930  1.00  0.00     0.116 C 
BRANCH  29  30
ATOM     30  N   UNL A   1      32.572  32.945  27.152  1.00  0.00    -0.352 N 
ATOM     31  C   UNL A   1      33.415  33.685  27.940  1.00  0.00     0.251 C 
ATOM     32  H   UNL A   1      31.898  33.468  26.659  1.00  0.00     0.163 HD
ATOM     33  O   UNL A   1      33.164  34.873  28.131  1.00  0.00    -0.269 OA
BRANCH  31  34
ATOM     34  C   UNL A   1      34.604  33.067  28.568  1.00  0.00     0.039 A 
ATOM     35  C   UNL A   1      34.409  32.075  29.533  1.00  0.00     0.014 A 
ATOM     36  C   UNL A   1      35.900  33.482  28.249  1.00  0.00     0.014 A 
ATOM     37  C   UNL A   1      35.511  31.475  30.147  1.00  0.00     0.010 A 
ATOM     38  C   UNL A   1      37.000  32.826  28.802  1.00  0.00     0.010 A 
ATOM     39  C   UNL A   1      36.817  31.826  29.768  1.00  0.00    -0.014 A 
BRANCH  39  40
ATOM     40  C   UNL A   1      37.994  31.168  30.398  1.00  0.00     0.031 A 
ATOM     41  C   UNL A   1      38.343  31.452  31.834  1.00  0.00     0.074 A 
ATOM     42  C   UNL A   1      38.759  30.333  29.667  1.00  0.00     0.049 A 
ATOM     43  N   UNL A   1      39.336  30.990  32.552  1.00  0.00    -0.248 NA
ATOM     44  C   UNL A   1      37.480  32.403  32.550  1.00  0.00     0.031 C 
ATOM     45  C   UNL A   1      38.541  30.009  28.255  1.00  0.00     0.029 A 
ATOM     46  N   UNL A   1      39.868  29.600  30.007  1.00  0.00    -0.354 N 
ATOM     47  C   UNL A   1      39.219  31.596  33.799  1.00  0.00     0.074 A 
ATOM     48  C   UNL A   1      38.104  32.514  33.712  1.00  0.00     0.031 C 
ATOM     49  C   UNL A   1      39.463  29.115  27.862  1.00  0.00     0.029 A 
ATOM     50  C   UNL A   1      40.366  28.839  28.974  1.00  0.00     0.049 A 
ATOM     51  H   UNL A   1      40.271  29.618  30.905  1.00  0.00     0.167 HD
ATOM     52  C   UNL A   1      39.957  31.387  34.919  1.00  0.00     0.034 A 
ATOM     53  C   UNL A   1      41.434  28.018  28.926  1.00  0.00     0.034 A 
ATOM     54  C   UNL A   1      41.065  30.465  34.986  1.00  0.00     0.049 A 
ATOM     55  C   UNL A   1      42.258  27.828  30.173  1.00  0.00     0.074 A 
ATOM     56  C   UNL A   1      41.852  30.143  36.078  1.00  0.00     0.029 A 
ATOM     57  N   UNL A   1      41.552  29.724  33.915  1.00  0.00    -0.354 N 
ATOM     58  N   UNL A   1      42.103  28.370  31.360  1.00  0.00    -0.248 NA
ATOM     59  C   UNL A   1      43.394  26.903  30.078  1.00  0.00     0.031 C 
ATOM     60  C   UNL A   1      42.863  29.274  35.649  1.00  0.00     0.029 A 
ATOM     61  C   UNL A   1      42.650  28.976  34.313  1.00  0.00     0.049 A 
ATOM     62  H   UNL A   1      41.172  29.729  33.007  1.00  0.00     0.167 HD
ATOM     63  C   UNL A   1      43.102  27.822  32.161  1.00  0.00     0.074 A 
ATOM     64  C   UNL A   1      43.835  26.892  31.326  1.00  0.00     0.031 C 
ATOM     65  C   UNL A   1      43.388  28.064  33.467  1.00  0.00     0.034 A 
BRANCH  52  66
ATOM     66  C   UNL A   1      39.603  32.196  36.147  1.00  0.00     0.023 A 
ATOM     67  C   UNL A   1      38.718  31.708  37.127  1.00  0.00     0.031 A 
ATOM     68  C   UNL A   1      40.132  33.486  36.330  1.00  0.00     0.131 A 
ATOM     69  C   UNL A   1      38.327  32.532  38.194  1.00  0.00     0.055 A 
ATOM     70  C   UNL A   1      39.811  34.266  37.443  1.00  0.00     0.041 A 
ATOM     71  F   UNL A   1      40.962  34.020  35.420  1.00  0.00    -0.206 F 
ATOM     72  C   UNL A   1      38.890  33.796  38.375  1.00  0.00     0.022 A 
BRANCH  69  73
ATOM     73  S   UNL A   1      36.955  31.990  39.248  1.00  0.00     0.124 S 
ATOM     74  O   UNL A   1      35.879  32.876  38.809  1.00  0.00    -0.237 OA
ATOM     75  O   UNL A   1      36.813  30.584  38.885  1.00  0.00    -0.237 OA
ATOM     76  O   UNL A   1      37.443  32.239  40.602  1.00  0.00    -0.744 OA
ENDBRANCH  69  73
ENDBRANCH  52  66
BRANCH  53  77
ATOM     77  C   UNL A   1      41.795  27.318  27.658  1.00  0.00     0.023 A 
ATOM     78  C   UNL A   1      41.660  25.925  27.532  1.00  0.00     0.031 A 
ATOM     79  C   UNL A   1      42.328  28.027  26.566  1.00  0.00     0.131 A 
ATOM     80  C   UNL A   1      42.102  25.281  26.367  1.00  0.00     0.055 A 
ATOM     81  C   UNL A   1      42.707  27.388  25.385  1.00  0.00     0.041 A 
ATOM     82  F   UNL A   1      42.479  29.359  26.630  1.00  0.00    -0.206 F 
ATOM     83  C   UNL A   1      42.610  26.004  25.286  1.00  0.00     0.022 A 
BRANCH  80  84
ATOM     84  S   UNL A   1      42.099  23.467  26.322  1.00  0.00     0.124 S 
ATOM     85  O   UNL A   1      42.620  23.202  24.986  1.00  0.00    -0.237 OA
ATOM     86  O   UNL A   1      42.984  23.135  27.433  1.00  0.00    -0.237 OA
ATOM     87  O   UNL A   1      40.693  23.123  26.525  1.00  0.00    -0.744 OA
ENDBRANCH  80  84
ENDBRANCH  53  77
BRANCH  65  88
ATOM     88  C   UNL A   1      44.519  27.268  34.079  1.00  0.00     0.023 A 
ATOM     89  C   UNL A   1      44.303  26.019  34.686  1.00  0.00     0.031 A 
ATOM     90  C   UNL A   1      45.826  27.787  34.087  1.00  0.00     0.131 A 
ATOM     91  C   UNL A   1      45.358  25.370  35.346  1.00  0.00     0.055 A 
ATOM     92  C   UNL A   1      46.889  27.099  34.675  1.00  0.00     0.041 A 
ATOM     93  F   UNL A   1      46.094  28.978  33.527  1.00  0.00    -0.206 F 
ATOM     94  C   UNL A   1      46.654  25.892  35.326  1.00  0.00     0.022 A 
BRANCH  91  95
ATOM     95  S   UNL A   1      44.985  23.905  36.347  1.00  0.00     0.124 S 
ATOM     96  O   UNL A   1      44.463  24.501  37.573  1.00  0.00    -0.237 OA
ATOM     97  O   UNL A   1      44.014  23.199  35.519  1.00  0.00    -0.237 OA
ATOM     98  O   UNL A   1      46.282  23.243  36.484  1.00  0.00    -0.744 OA
ENDBRANCH  91  95
ENDBRANCH  65  88
ENDBRANCH  39  40
ENDBRANCH  31  34
ENDBRANCH  29  30
ENDBRANCH  28  29
ENDBRANCH  27  28
ENDBRANCH  26  27
ENDBRANCH   1  26
TORSDOF 21
ENDMDL
MODEL 2
REMARK VINA RESULT:     -11.1      2.159      2.815
REMARK SMILES CN(CC(C)(C)O)S(=O)(=O)c1cc(Cl)cc(C(=O)NCCCCCCNC(=O)c2ccc(-c3c4nc(c(-c5cc(S(=O)(=O)[O-])ccc5F)c5ccc([nH]5)c(-c5cc(S(=O)(=O)[O-])ccc5F)c5nc(c(-c6cc(S(=O)(=O)[O-])ccc6F)c6ccc3[nH]6)C=C5)C=C4)cc2)c1Cl
REMARK SMILES IDX 21 1 20 2 19 3 17 4 18 5 16 7 11 8 12 9 92 10 13 11 93 12
REMARK SMILES IDX 14 13 15 14 8 15 9 16 10 17 2 18 1 19 3 20 4 21 5 22 6 23
REMARK SMILES IDX 7 24 22 26 23 27 24 28 25 29 26 30 27 31 28 33 29 34 30 35
REMARK SMILES IDX 91 36 31 37 90 38 32 39 33 40 34 41 84 42 35 43 89 44 83 45
REMARK SMILES IDX 85 46 36 47 88 48 82 49 81 50 37 52 69 53 49 54 68 55 50 56
REMARK SMILES IDX 53 57 67 58 86 59 51 60 52 61 66 63 87 64 54 65 38 66 39 67
REMARK SMILES IDX 47 68 40 69 46 70 48 71 45 72 41 73 42 74 43 75 44 76 70 77
REMARK SMILES IDX 71 78 79 79 72 80 78 81 80 82 77 83 73 84 74 85 75 86 76 87
REMARK SMILES IDX 55 88 56 89 64 90 57 91 63 92 65 93 62 94 58 95 59 96 60 97
REMARK SMILES IDX 61 98
REMARK H PARENT 19 6 7 25 26 32 85 51 53 62
REMARK Flexibility Score: inf
ROOT
ATOM      1  C   UNL A   1      33.018  28.740  27.203  1.00  0.00     0.021 C 
ENDROOT
BRANCH   1   2
ATOM      2  C   UNL A   1      31.687  28.069  26.892  1.00  0.00     0.116 C 
BRANCH   2   3
ATOM      3  N   UNL A   1      31.461  27.728  25.504  1.00  0.00    -0.352 N 
ATOM      4  C   UNL A   1      31.295  26.494  24.917  1.00  0.00     0.252 C 
ATOM      5  O   UNL A   1      31.005  26.457  23.720  1.00  0.00    -0.269 OA
ATOM      6  H   UNL A   1      31.419  28.494  24.886  1.00  0.00     0.163 HD
BRANCH   4   7
ATOM      7  C   UNL A   1      31.585  25.197  25.608  1.00  0.00     0.061 A 
ATOM      8  C   UNL A   1      32.918  23.336  26.412  1.00  0.00     0.103 A 
ATOM      9  C   UNL A   1      31.755  22.707  26.889  1.00  0.00     0.044 A 
ATOM     10  C   UNL A   1      32.851  24.636  25.877  1.00  0.00     0.073 A 
ATOM     11  C   UNL A   1      30.523  23.326  26.752  1.00  0.00     0.043 A 
ATOM     12  Cl  UNL A   1      34.264  25.626  25.792  1.00  0.00    -0.082 Cl
ATOM     13  Cl  UNL A   1      29.117  22.582  27.398  1.00  0.00    -0.084 Cl
ATOM     14  C   UNL A   1      30.429  24.537  26.079  1.00  0.00     0.036 A 
BRANCH   8  15
ATOM     15  S   UNL A   1      34.428  22.386  26.522  1.00  0.00     0.244 S 
ATOM     16  O   UNL A   1      34.187  21.341  27.495  1.00  0.00    -0.207 OA
ATOM     17  O   UNL A   1      35.545  23.276  26.716  1.00  0.00    -0.207 OA
BRANCH  15  18
ATOM     18  N   UNL A   1      34.551  21.673  24.986  1.00  0.00    -0.198 NA
ATOM     19  C   UNL A   1      35.375  22.399  23.998  1.00  0.00     0.124 C 
BRANCH  18  20
ATOM     20  C   UNL A   1      34.479  20.196  24.771  1.00  0.00     0.136 C 
BRANCH  20  21
ATOM     21  C   UNL A   1      33.087  19.544  24.519  1.00  0.00     0.073 C 
ATOM     22  C   UNL A   1      32.267  20.205  23.412  1.00  0.00     0.043 C 
ATOM     23  C   UNL A   1      33.316  18.074  24.119  1.00  0.00     0.043 C 
BRANCH  21  24
ATOM     24  O   UNL A   1      32.330  19.498  25.733  1.00  0.00    -0.389 OA
ATOM     25  H   UNL A   1      32.170  18.575  25.980  1.00  0.00     0.211 HD
ENDBRANCH  21  24
ENDBRANCH  20  21
ENDBRANCH  18  20
ENDBRANCH  15  18
ENDBRANCH   8  15
ENDBRANCH   4   7
ENDBRANCH   2   3
ENDBRANCH   1   2
BRANCH   1  26
ATOM     26  C   UNL A   1      33.039  30.272  27.139  1.00  0.00     0.002 C 
BRANCH  26  27
ATOM     27  C   UNL A   1      31.751  30.979  26.697  1.00  0.00     0.002 C 
BRANCH  27  28
ATOM     28  C   UNL A   1      31.696  32.502  26.857  1.00  0.00     0.021 C 
BRANCH  28  29
ATOM     29  C   UNL A   1      33.000  33.181  27.264  1.00  0.00     0.116 C 
BRANCH  29  30
ATOM     30  N   UNL A   1      32.783  34.350  28.095  1.00  0.00    -0.352 N 
ATOM     31  C   UNL A   1      33.402  34.737  29.256  1.00  0.00     0.251 C 
ATOM     32  H   UNL A   1      32.081  34.961  27.775  1.00  0.00     0.163 HD
ATOM     33  O   UNL A   1      32.929  35.670  29.901  1.00  0.00    -0.269 OA
BRANCH  31  34
ATOM     34  C   UNL A   1      34.612  34.036  29.741  1.00  0.00     0.039 A 
ATOM     35  C   UNL A   1      34.458  33.002  30.667  1.00  0.00     0.014 A 
ATOM     36  C   UNL A   1      35.893  34.415  29.327  1.00  0.00     0.014 A 
ATOM     37  C   UNL A   1      35.582  32.324  31.146  1.00  0.00     0.010 A 
ATOM     38  C   UNL A   1      37.005  33.685  29.742  1.00  0.00     0.010 A 
ATOM     39  C   UNL A   1      36.864  32.642  30.669  1.00  0.00    -0.014 A 
BRANCH  39  40
ATOM     40  C   UNL A   1      38.060  31.901  31.154  1.00  0.00     0.031 A 
ATOM     41  C   UNL A   1      38.653  32.218  32.501  1.00  0.00     0.074 A 
ATOM     42  C   UNL A   1      38.624  30.961  30.369  1.00  0.00     0.049 A 
ATOM     43  N   UNL A   1      39.700  31.695  33.089  1.00  0.00    -0.248 NA
ATOM     44  C   UNL A   1      38.001  33.283  33.277  1.00  0.00     0.031 C 
ATOM     45  C   UNL A   1      38.161  30.594  29.030  1.00  0.00     0.029 A 
ATOM     46  N   UNL A   1      39.702  30.140  30.583  1.00  0.00    -0.354 N 
ATOM     47  C   UNL A   1      39.834  32.369  34.298  1.00  0.00     0.074 A 
ATOM     48  C   UNL A   1      38.805  33.387  34.324  1.00  0.00     0.031 C 
ATOM     49  C   UNL A   1      38.926  29.596  28.559  1.00  0.00     0.029 A 
ATOM     50  C   UNL A   1      39.962  29.286  29.537  1.00  0.00     0.049 A 
ATOM     51  H   UNL A   1      40.239  30.161  31.408  1.00  0.00     0.167 HD
ATOM     52  C   UNL A   1      40.715  32.142  35.305  1.00  0.00     0.034 A 
ATOM     53  C   UNL A   1      40.932  28.362  29.379  1.00  0.00     0.034 A 
ATOM     54  C   UNL A   1      41.732  31.120  35.262  1.00  0.00     0.049 A 
ATOM     55  C   UNL A   1      41.920  28.152  30.498  1.00  0.00     0.074 A 
ATOM     56  C   UNL A   1      42.648  30.774  36.240  1.00  0.00     0.029 A 
ATOM     57  N   UNL A   1      41.979  30.284  34.178  1.00  0.00    -0.354 N 
ATOM     58  N   UNL A   1      42.000  28.762  31.658  1.00  0.00    -0.248 NA
ATOM     59  C   UNL A   1      42.939  27.116  30.290  1.00  0.00     0.031 C 
ATOM     60  C   UNL A   1      43.498  29.791  35.719  1.00  0.00     0.029 A 
ATOM     61  C   UNL A   1      43.054  29.451  34.452  1.00  0.00     0.049 A 
ATOM     62  H   UNL A   1      41.463  30.283  33.339  1.00  0.00     0.167 HD
ATOM     63  C   UNL A   1      43.059  28.158  32.333  1.00  0.00     0.074 A 
ATOM     64  C   UNL A   1      43.567  27.121  31.456  1.00  0.00     0.031 C 
ATOM     65  C   UNL A   1      43.565  28.432  33.563  1.00  0.00     0.034 A 
BRANCH  52  66
ATOM     66  C   UNL A   1      40.631  33.040  36.520  1.00  0.00     0.023 A 
ATOM     67  C   UNL A   1      39.859  32.694  37.645  1.00  0.00     0.031 A 
ATOM     68  C   UNL A   1      41.306  34.273  36.545  1.00  0.00     0.131 A 
ATOM     69  C   UNL A   1      39.716  33.603  38.705  1.00  0.00     0.055 A 
ATOM     70  C   UNL A   1      41.234  35.132  37.644  1.00  0.00     0.041 A 
ATOM     71  F   UNL A   1      42.039  34.672  35.494  1.00  0.00    -0.206 F 
ATOM     72  C   UNL A   1      40.421  34.807  38.726  1.00  0.00     0.022 A 
BRANCH  69  73
ATOM     73  S   UNL A   1      38.470  33.260  39.977  1.00  0.00     0.124 S 
ATOM     74  O   UNL A   1      38.495  34.496  40.755  1.00  0.00    -0.237 OA
ATOM     75  O   UNL A   1      37.266  33.026  39.186  1.00  0.00    -0.237 OA
ATOM     76  O   UNL A   1      38.999  32.087  40.668  1.00  0.00    -0.744 OA
ENDBRANCH  69  73
ENDBRANCH  52  66
BRANCH  53  77
ATOM     77  C   UNL A   1      41.026  27.570  28.118  1.00  0.00     0.023 A 
ATOM     78  C   UNL A   1      40.673  26.211  28.084  1.00  0.00     0.031 A 
ATOM     79  C   UNL A   1      41.519  28.150  26.935  1.00  0.00     0.131 A 
ATOM     80  C   UNL A   1      40.868  25.465  26.912  1.00  0.00     0.055 A 
ATOM     81  C   UNL A   1      41.652  27.419  25.753  1.00  0.00     0.041 A 
ATOM     82  F   UNL A   1      41.872  29.445  26.908  1.00  0.00    -0.206 F 
ATOM     83  C   UNL A   1      41.340  26.064  25.741  1.00  0.00     0.022 A 
BRANCH  80  84
ATOM     84  S   UNL A   1      40.593  23.673  26.965  1.00  0.00     0.124 S 
ATOM     85  O   UNL A   1      39.159  23.585  26.714  1.00  0.00    -0.237 OA
ATOM     86  O   UNL A   1      41.461  23.201  25.892  1.00  0.00    -0.237 OA
ATOM     87  O   UNL A   1      41.015  23.303  28.314  1.00  0.00    -0.744 OA
ENDBRANCH  80  84
ENDBRANCH  53  77
BRANCH  65  88
ATOM     88  C   UNL A   1      44.702  27.559  34.046  1.00  0.00     0.023 A 
ATOM     89  C   UNL A   1      46.047  27.905  33.828  1.00  0.00     0.031 A 
ATOM     90  C   UNL A   1      44.432  26.343  34.700  1.00  0.00     0.131 A 
ATOM     91  C   UNL A   1      47.066  27.010  34.186  1.00  0.00     0.055 A 
ATOM     92  C   UNL A   1      45.455  25.494  35.127  1.00  0.00     0.041 A 
ATOM     93  F   UNL A   1      43.167  25.956  34.932  1.00  0.00    -0.206 F 
ATOM     94  C   UNL A   1      46.780  25.816  34.853  1.00  0.00     0.022 A 
BRANCH  91  95
ATOM     95  S   UNL A   1      48.761  27.364  33.646  1.00  0.00     0.124 S 
ATOM     96  O   UNL A   1      49.530  26.378  34.398  1.00  0.00    -0.237 OA
ATOM     97  O   UNL A   1      48.681  27.147  32.205  1.00  0.00    -0.237 OA
ATOM     98  O   UNL A   1      48.968  28.753  34.053  1.00  0.00    -0.744 OA
ENDBRANCH  91  95
ENDBRANCH  65  88
ENDBRANCH  39  40
ENDBRANCH  31  34
ENDBRANCH  29  30
ENDBRANCH  28  29
ENDBRANCH  27  28
ENDBRANCH  26  27
ENDBRANCH   1  26
TORSDOF 21
ENDMDL
MODEL 3
REMARK VINA RESULT:     -11.0      2.754      3.505
REMARK SMILES CN(CC(C)(C)O)S(=O)(=O)c1cc(Cl)cc(C(=O)NCCCCCCNC(=O)c2ccc(-c3c4nc(c(-c5cc(S(=O)(=O)[O-])ccc5F)c5ccc([nH]5)c(-c5cc(S(=O)(=O)[O-])ccc5F)c5nc(c(-c6cc(S(=O)(=O)[O-])ccc6F)c6ccc3[nH]6)C=C5)C=C4)cc2)c1Cl
REMARK SMILES IDX 21 1 20 2 19 3 17 4 18 5 16 7 11 8 12 9 92 10 13 11 93 12
REMARK SMILES IDX 14 13 15 14 8 15 9 16 10 17 2 18 1 19 3 20 4 21 5 22 6 23
REMARK SMILES IDX 7 24 22 26 23 27 24 28 25 29 26 30 27 31 28 33 29 34 30 35
REMARK SMILES IDX 91 36 31 37 90 38 32 39 33 40 34 41 84 42 35 43 89 44 83 45
REMARK SMILES IDX 85 46 36 47 88 48 82 49 81 50 37 52 69 53 49 54 68 55 50 56
REMARK SMILES IDX 53 57 67 58 86 59 51 60 52 61 66 63 87 64 54 65 38 66 39 67
REMARK SMILES IDX 47 68 40 69 46 70 48 71 45 72 41 73 42 74 43 75 44 76 70 77
REMARK SMILES IDX 71 78 79 79 72 80 78 81 80 82 77 83 73 84 74 85 75 86 76 87
REMARK SMILES IDX 55 88 56 89 64 90 57 91 63 92 65 93 62 94 58 95 59 96 60 97
REMARK SMILES IDX 61 98
REMARK H PARENT 19 6 7 25 26 32 85 51 53 62
REMARK Flexibility Score: inf
ROOT
ATOM      1  C   UNL A   1      33.742  28.588  23.888  1.00  0.00     0.021 C 
ENDROOT
BRANCH   1   2
ATOM      2  C   UNL A   1      33.539  28.595  22.378  1.00  0.00     0.116 C 
BRANCH   2   3
ATOM      3  N   UNL A   1      33.654  27.312  21.720  1.00  0.00    -0.352 N 
ATOM      4  C   UNL A   1      32.914  26.164  21.894  1.00  0.00     0.252 C 
ATOM      5  O   UNL A   1      33.127  25.217  21.135  1.00  0.00    -0.269 OA
ATOM      6  H   UNL A   1      34.369  27.250  21.045  1.00  0.00     0.163 HD
BRANCH   4   7
ATOM      7  C   UNL A   1      31.970  25.948  23.036  1.00  0.00     0.061 A 
ATOM      8  C   UNL A   1      31.197  25.102  25.175  1.00  0.00     0.103 A 
ATOM      9  C   UNL A   1      29.929  25.661  24.941  1.00  0.00     0.044 A 
ATOM     10  C   UNL A   1      32.255  25.345  24.280  1.00  0.00     0.073 A 
ATOM     11  C   UNL A   1      29.690  26.378  23.780  1.00  0.00     0.043 A 
ATOM     12  Cl  UNL A   1      33.897  25.153  24.783  1.00  0.00    -0.082 Cl
ATOM     13  Cl  UNL A   1      28.158  27.116  23.533  1.00  0.00    -0.084 Cl
ATOM     14  C   UNL A   1      30.682  26.485  22.815  1.00  0.00     0.036 A 
BRANCH   8  15
ATOM     15  S   UNL A   1      31.351  24.087  26.639  1.00  0.00     0.244 S 
ATOM     16  O   UNL A   1      30.011  23.664  26.990  1.00  0.00    -0.207 OA
ATOM     17  O   UNL A   1      32.146  24.777  27.623  1.00  0.00    -0.207 OA
BRANCH  15  18
ATOM     18  N   UNL A   1      32.213  22.734  26.083  1.00  0.00    -0.198 NA
ATOM     19  C   UNL A   1      33.124  22.099  27.059  1.00  0.00     0.124 C 
BRANCH  18  20
ATOM     20  C   UNL A   1      31.684  21.810  25.036  1.00  0.00     0.136 C 
BRANCH  20  21
ATOM     21  C   UNL A   1      32.485  21.644  23.710  1.00  0.00     0.073 C 
ATOM     22  C   UNL A   1      33.990  21.874  23.844  1.00  0.00     0.043 C 
ATOM     23  C   UNL A   1      32.274  20.205  23.203  1.00  0.00     0.043 C 
BRANCH  21  24
ATOM     24  O   UNL A   1      31.946  22.494  22.692  1.00  0.00    -0.389 OA
ATOM     25  H   UNL A   1      32.240  23.405  22.842  1.00  0.00     0.211 HD
ENDBRANCH  21  24
ENDBRANCH  20  21
ENDBRANCH  18  20
ENDBRANCH  15  18
ENDBRANCH   8  15
ENDBRANCH   4   7
ENDBRANCH   2   3
ENDBRANCH   1   2
BRANCH   1  26
ATOM     26  C   UNL A   1      32.580  29.124  24.732  1.00  0.00     0.002 C 
BRANCH  26  27
ATOM     27  C   UNL A   1      32.373  28.509  26.123  1.00  0.00     0.002 C 
BRANCH  27  28
ATOM     28  C   UNL A   1      32.805  29.346  27.332  1.00  0.00     0.021 C 
BRANCH  28  29
ATOM     29  C   UNL A   1      34.016  30.248  27.124  1.00  0.00     0.116 C 
BRANCH  29  30
ATOM     30  N   UNL A   1      33.876  31.530  27.788  1.00  0.00    -0.352 N 
ATOM     31  C   UNL A   1      34.637  32.105  28.773  1.00  0.00     0.251 C 
ATOM     32  H   UNL A   1      33.114  32.074  27.481  1.00  0.00     0.163 HD
ATOM     33  O   UNL A   1      34.226  33.121  29.328  1.00  0.00    -0.269 OA
BRANCH  31  34
ATOM     34  C   UNL A   1      35.928  31.506  29.180  1.00  0.00     0.039 A 
ATOM     35  C   UNL A   1      35.911  30.383  30.010  1.00  0.00     0.014 A 
ATOM     36  C   UNL A   1      37.149  32.064  28.789  1.00  0.00     0.014 A 
ATOM     37  C   UNL A   1      37.113  29.798  30.415  1.00  0.00     0.010 A 
ATOM     38  C   UNL A   1      38.345  31.431  29.125  1.00  0.00     0.010 A 
ATOM     39  C   UNL A   1      38.341  30.301  29.954  1.00  0.00    -0.014 A 
BRANCH  39  40
ATOM     40  C   UNL A   1      39.623  29.662  30.358  1.00  0.00     0.031 A 
ATOM     41  C   UNL A   1      40.394  30.189  31.539  1.00  0.00     0.074 A 
ATOM     42  C   UNL A   1      40.101  28.622  29.646  1.00  0.00     0.049 A 
ATOM     43  N   UNL A   1      41.536  29.779  32.033  1.00  0.00    -0.248 NA
ATOM     44  C   UNL A   1      39.822  31.349  32.239  1.00  0.00     0.031 C 
ATOM     45  C   UNL A   1      39.462  28.048  28.461  1.00  0.00     0.029 A 
ATOM     46  N   UNL A   1      41.230  27.861  29.814  1.00  0.00    -0.354 N 
ATOM     47  C   UNL A   1      41.819  30.630  33.096  1.00  0.00     0.074 A 
ATOM     48  C   UNL A   1      40.767  31.623  33.125  1.00  0.00     0.031 C 
ATOM     49  C   UNL A   1      40.187  27.002  28.033  1.00  0.00     0.029 A 
ATOM     50  C   UNL A   1      41.367  26.861  28.879  1.00  0.00     0.049 A 
ATOM     51  H   UNL A   1      41.881  28.015  30.536  1.00  0.00     0.167 HD
ATOM     52  C   UNL A   1      42.846  30.573  33.981  1.00  0.00     0.034 A 
ATOM     53  C   UNL A   1      42.337  25.940  28.716  1.00  0.00     0.034 A 
ATOM     54  C   UNL A   1      43.884  29.572  33.937  1.00  0.00     0.049 A 
ATOM     55  C   UNL A   1      43.486  25.917  29.691  1.00  0.00     0.074 A 
ATOM     56  C   UNL A   1      44.946  29.393  34.807  1.00  0.00     0.029 A 
ATOM     57  N   UNL A   1      44.001  28.586  32.964  1.00  0.00    -0.354 N 
ATOM     58  N   UNL A   1      43.712  26.698  30.723  1.00  0.00    -0.248 NA
ATOM     59  C   UNL A   1      44.503  24.878  29.488  1.00  0.00     0.031 C 
ATOM     60  C   UNL A   1      45.747  28.356  34.315  1.00  0.00     0.029 A 
ATOM     61  C   UNL A   1      45.136  27.821  33.193  1.00  0.00     0.049 A 
ATOM     62  H   UNL A   1      43.369  28.449  32.222  1.00  0.00     0.167 HD
ATOM     63  C   UNL A   1      44.881  26.220  31.312  1.00  0.00     0.074 A 
ATOM     64  C   UNL A   1      45.294  25.071  30.533  1.00  0.00     0.031 C 
ATOM     65  C   UNL A   1      45.550  26.686  32.399  1.00  0.00     0.034 A 
BRANCH  52  66
ATOM     66  C   UNL A   1      42.906  31.643  35.048  1.00  0.00     0.023 A 
ATOM     67  C   UNL A   1      42.111  31.579  36.208  1.00  0.00     0.031 A 
ATOM     68  C   UNL A   1      43.747  32.760  34.894  1.00  0.00     0.131 A 
ATOM     69  C   UNL A   1      42.112  32.646  37.120  1.00  0.00     0.055 A 
ATOM     70  C   UNL A   1      43.812  33.774  35.852  1.00  0.00     0.041 A 
ATOM     71  F   UNL A   1      44.512  32.893  33.799  1.00  0.00    -0.206 F 
ATOM     72  C   UNL A   1      42.979  33.729  36.965  1.00  0.00     0.022 A 
BRANCH  69  73
ATOM     73  S   UNL A   1      40.850  32.672  38.422  1.00  0.00     0.124 S 
ATOM     74  O   UNL A   1      41.528  31.960  39.503  1.00  0.00    -0.237 OA
ATOM     75  O   UNL A   1      40.640  34.101  38.631  1.00  0.00    -0.237 OA
ATOM     76  O   UNL A   1      39.725  31.957  37.824  1.00  0.00    -0.744 OA
ENDBRANCH  69  73
ENDBRANCH  52  66
BRANCH  53  77
ATOM     77  C   UNL A   1      42.277  24.966  27.585  1.00  0.00     0.023 A 
ATOM     78  C   UNL A   1      41.492  23.804  27.668  1.00  0.00     0.031 A 
ATOM     79  C   UNL A   1      43.043  25.160  26.422  1.00  0.00     0.131 A 
ATOM     80  C   UNL A   1      41.533  22.857  26.634  1.00  0.00     0.055 A 
ATOM     81  C   UNL A   1      43.031  24.246  25.368  1.00  0.00     0.041 A 
ATOM     82  F   UNL A   1      43.811  26.253  26.288  1.00  0.00    -0.206 F 
ATOM     83  C   UNL A   1      42.285  23.077  25.477  1.00  0.00     0.022 A 
BRANCH  80  84
ATOM     84  S   UNL A   1      40.668  21.279  26.865  1.00  0.00     0.124 S 
ATOM     85  O   UNL A   1      40.769  21.094  28.308  1.00  0.00    -0.237 OA
ATOM     86  O   UNL A   1      39.337  21.586  26.351  1.00  0.00    -0.237 OA
ATOM     87  O   UNL A   1      41.444  20.342  26.058  1.00  0.00    -0.744 OA
ENDBRANCH  80  84
ENDBRANCH  53  77
BRANCH  65  88
ATOM     88  C   UNL A   1      46.778  25.915  32.829  1.00  0.00     0.023 A 
ATOM     89  C   UNL A   1      48.030  26.115  32.222  1.00  0.00     0.031 A 
ATOM     90  C   UNL A   1      46.683  24.938  33.836  1.00  0.00     0.131 A 
ATOM     91  C   UNL A   1      49.115  25.296  32.568  1.00  0.00     0.055 A 
ATOM     92  C   UNL A   1      47.787  24.180  34.233  1.00  0.00     0.041 A 
ATOM     93  F   UNL A   1      45.513  24.697  34.450  1.00  0.00    -0.206 F 
ATOM     94  C   UNL A   1      49.006  24.343  33.585  1.00  0.00     0.022 A 
BRANCH  91  95
ATOM     95  S   UNL A   1      50.630  25.397  31.577  1.00  0.00     0.124 S 
ATOM     96  O   UNL A   1      51.070  26.764  31.835  1.00  0.00    -0.237 OA
ATOM     97  O   UNL A   1      51.454  24.342  32.158  1.00  0.00    -0.237 OA
ATOM     98  O   UNL A   1      50.167  25.141  30.214  1.00  0.00    -0.744 OA
ENDBRANCH  91  95
ENDBRANCH  65  88
ENDBRANCH  39  40
ENDBRANCH  31  34
ENDBRANCH  29  30
ENDBRANCH  28  29
ENDBRANCH  27  28
ENDBRANCH  26  27
ENDBRANCH   1  26
TORSDOF 21
ENDMDL
