MODEL 1
REMARK VINA RESULT:     -11.5      0.000      0.000
REMARK SMILES CC1=Nn2c(nnc(CCC(=O)NCCCCCCNC(=O)c3ccc(-c4c5nc(c(-c6cc(S(=O)(=O)[O-])ccc6F)c6ccc([nH]6)c(-c6cc(S(=O)(=O)[O-])ccc6F)c6nc(c(-c7cc(S(=O)(=O)[O-])ccc7F)c7ccc4[nH]7)C=C6)C=C5)cc3)c2=O)SC1
REMARK SMILES IDX 17 1 16 2 15 3 14 4 13 5 11 6 12 7 10 9 9 10 8 11 1 12 2 13
REMARK SMILES IDX 3 14 89 15 4 16 88 17 5 18 86 19 6 20 87 21 7 22 18 23 19 24
REMARK SMILES IDX 20 25 21 26 22 28 23 29 24 30 85 31 25 32 84 33 26 34 27 35
REMARK SMILES IDX 28 36 78 37 29 38 83 39 77 40 79 41 30 42 82 43 76 44 75 45
REMARK SMILES IDX 31 47 63 48 43 49 62 50 44 51 47 52 61 53 80 54 45 55 46 56
REMARK SMILES IDX 60 58 81 59 48 60 32 61 33 62 41 63 34 64 40 65 42 66 39 67
REMARK SMILES IDX 35 68 36 69 37 70 38 71 64 72 65 73 73 74 66 75 72 76 74 77
REMARK SMILES IDX 71 78 67 79 68 80 69 81 70 82 49 83 50 84 58 85 51 86 57 87
REMARK SMILES IDX 59 88 56 89 52 90 53 91 54 92 55 93
REMARK H PARENT 13 8 20 27 79 46 47 57
REMARK Flexibility Score: inf
ROOT
ATOM      1  C   UNL A   1      35.786  23.299  23.936  1.00  0.00     0.002 C 
ENDROOT
BRANCH   1   2
ATOM      2  C   UNL A   1      35.340  24.272  25.033  1.00  0.00     0.002 C 
BRANCH   2   3
ATOM      3  C   UNL A   1      34.138  25.166  24.710  1.00  0.00     0.021 C 
BRANCH   3   4
ATOM      4  C   UNL A   1      34.164  26.574  25.305  1.00  0.00     0.116 C 
BRANCH   4   5
ATOM      5  N   UNL A   1      34.063  27.592  24.268  1.00  0.00    -0.356 N 
ATOM      6  C   UNL A   1      33.198  28.633  24.110  1.00  0.00     0.220 C 
ATOM      7  O   UNL A   1      33.326  29.353  23.118  1.00  0.00    -0.275 OA
ATOM      8  H   UNL A   1      34.738  27.514  23.556  1.00  0.00     0.163 HD
BRANCH   6   9
ATOM      9  C   UNL A   1      32.107  28.910  25.124  1.00  0.00     0.106 C 
BRANCH   9  10
ATOM     10  C   UNL A   1      30.762  28.340  24.679  1.00  0.00     0.074 C 
BRANCH  10  11
ATOM     11  C   UNL A   1      30.643  26.885  25.065  1.00  0.00     0.131 A 
ATOM     12  C   UNL A   1      32.183  21.633  22.606  1.00  0.00     0.064 C 
ATOM     13  C   UNL A   1      31.682  22.509  23.730  1.00  0.00     0.046 C 
ATOM     14  N   UNL A   1      31.158  23.652  23.408  1.00  0.00    -0.172 NA
ATOM     15  C   UNL A   1      31.978  22.070  25.138  1.00  0.00     0.131 C 
ATOM     16  N   UNL A   1      30.833  24.571  24.397  1.00  0.00    -0.169 N 
ATOM     17  S   UNL A   1      30.683  22.629  26.232  1.00  0.00    -0.078 SA
ATOM     18  C   UNL A   1      30.708  24.301  25.740  1.00  0.00     0.214 A 
ATOM     19  C   UNL A   1      30.610  25.862  23.963  1.00  0.00     0.296 A 
ATOM     20  N   UNL A   1      30.583  25.202  26.659  1.00  0.00    -0.123 NA
ATOM     21  O   UNL A   1      30.447  26.242  22.809  1.00  0.00    -0.265 OA
ATOM     22  N   UNL A   1      30.647  26.555  26.319  1.00  0.00    -0.147 NA
ENDBRANCH  10  11
ENDBRANCH   9  10
ENDBRANCH   6   9
ENDBRANCH   4   5
ENDBRANCH   3   4
ENDBRANCH   2   3
ENDBRANCH   1   2
BRANCH   1  23
ATOM     23  C   UNL A   1      36.043  21.842  24.345  1.00  0.00     0.021 C 
BRANCH  23  24
ATOM     24  C   UNL A   1      36.742  21.604  25.685  1.00  0.00     0.116 C 
BRANCH  24  25
ATOM     25  N   UNL A   1      37.826  20.643  25.642  1.00  0.00    -0.352 N 
ATOM     26  C   UNL A   1      39.144  20.808  26.010  1.00  0.00     0.251 C 
ATOM     27  H   UNL A   1      37.589  19.749  25.303  1.00  0.00     0.163 HD
ATOM     28  O   UNL A   1      39.929  19.872  25.904  1.00  0.00    -0.269 OA
BRANCH  26  29
ATOM     29  C   UNL A   1      39.626  22.123  26.499  1.00  0.00     0.039 A 
ATOM     30  C   UNL A   1      40.684  22.150  27.410  1.00  0.00     0.014 A 
ATOM     31  C   UNL A   1      39.036  23.321  26.084  1.00  0.00     0.014 A 
ATOM     32  C   UNL A   1      41.198  23.376  27.844  1.00  0.00     0.010 A 
ATOM     33  C   UNL A   1      39.577  24.549  26.489  1.00  0.00     0.010 A 
ATOM     34  C   UNL A   1      40.678  24.590  27.361  1.00  0.00    -0.014 A 
BRANCH  34  35
ATOM     35  C   UNL A   1      41.335  25.878  27.728  1.00  0.00     0.031 A 
ATOM     36  C   UNL A   1      42.724  26.219  27.259  1.00  0.00     0.074 A 
ATOM     37  C   UNL A   1      40.658  26.769  28.483  1.00  0.00     0.049 A 
ATOM     38  N   UNL A   1      43.402  27.327  27.431  1.00  0.00    -0.248 NA
ATOM     39  C   UNL A   1      43.448  25.181  26.514  1.00  0.00     0.031 C 
ATOM     40  C   UNL A   1      39.317  26.558  29.033  1.00  0.00     0.029 A 
ATOM     41  N   UNL A   1      40.991  28.034  28.901  1.00  0.00    -0.354 N 
ATOM     42  C   UNL A   1      44.626  27.130  26.804  1.00  0.00     0.074 A 
ATOM     43  C   UNL A   1      44.616  25.772  26.295  1.00  0.00     0.031 C 
ATOM     44  C   UNL A   1      38.924  27.672  29.672  1.00  0.00     0.029 A 
ATOM     45  C   UNL A   1      39.991  28.667  29.605  1.00  0.00     0.049 A 
ATOM     46  H   UNL A   1      41.864  28.451  28.715  1.00  0.00     0.167 HD
ATOM     47  C   UNL A   1      45.652  28.002  26.644  1.00  0.00     0.034 A 
ATOM     48  C   UNL A   1      39.928  29.907  30.128  1.00  0.00     0.034 A 
ATOM     49  C   UNL A   1      45.664  29.355  27.142  1.00  0.00     0.049 A 
ATOM     50  C   UNL A   1      41.093  30.846  29.966  1.00  0.00     0.074 A 
ATOM     51  C   UNL A   1      46.646  30.322  26.987  1.00  0.00     0.029 A 
ATOM     52  N   UNL A   1      44.656  29.937  27.898  1.00  0.00    -0.354 N 
ATOM     53  N   UNL A   1      42.231  30.644  29.347  1.00  0.00    -0.248 NA
ATOM     54  C   UNL A   1      40.964  32.178  30.574  1.00  0.00     0.031 C 
ATOM     55  C   UNL A   1      46.254  31.467  27.690  1.00  0.00     0.029 A 
ATOM     56  C   UNL A   1      45.003  31.236  28.237  1.00  0.00     0.049 A 
ATOM     57  H   UNL A   1      43.816  29.492  28.155  1.00  0.00     0.167 HD
ATOM     58  C   UNL A   1      42.946  31.832  29.477  1.00  0.00     0.074 A 
ATOM     59  C   UNL A   1      42.111  32.746  30.227  1.00  0.00     0.031 C 
ATOM     60  C   UNL A   1      44.181  32.136  29.007  1.00  0.00     0.034 A 
BRANCH  47  61
ATOM     61  C   UNL A   1      46.866  27.516  25.894  1.00  0.00     0.023 A 
ATOM     62  C   UNL A   1      47.072  27.854  24.546  1.00  0.00     0.031 A 
ATOM     63  C   UNL A   1      47.837  26.732  26.538  1.00  0.00     0.131 A 
ATOM     64  C   UNL A   1      48.202  27.370  23.871  1.00  0.00     0.055 A 
ATOM     65  C   UNL A   1      48.991  26.304  25.878  1.00  0.00     0.041 A 
ATOM     66  F   UNL A   1      47.683  26.371  27.823  1.00  0.00    -0.206 F 
ATOM     67  C   UNL A   1      49.174  26.616  24.533  1.00  0.00     0.022 A 
BRANCH  64  68
ATOM     68  S   UNL A   1      48.344  27.673  22.090  1.00  0.00     0.124 S 
ATOM     69  O   UNL A   1      49.491  28.576  22.038  1.00  0.00    -0.237 OA
ATOM     70  O   UNL A   1      48.563  26.334  21.555  1.00  0.00    -0.237 OA
ATOM     71  O   UNL A   1      47.062  28.281  21.741  1.00  0.00    -0.744 OA
ENDBRANCH  64  68
ENDBRANCH  47  61
BRANCH  48  72
ATOM     72  C   UNL A   1      38.707  30.343  30.859  1.00  0.00     0.023 A 
ATOM     73  C   UNL A   1      37.685  31.043  30.199  1.00  0.00     0.031 A 
ATOM     74  C   UNL A   1      38.554  30.075  32.229  1.00  0.00     0.131 A 
ATOM     75  C   UNL A   1      36.561  31.476  30.921  1.00  0.00     0.055 A 
ATOM     76  C   UNL A   1      37.420  30.478  32.934  1.00  0.00     0.041 A 
ATOM     77  F   UNL A   1      39.503  29.398  32.897  1.00  0.00    -0.206 F 
ATOM     78  C   UNL A   1      36.418  31.188  32.280  1.00  0.00     0.022 A 
BRANCH  75  79
ATOM     79  S   UNL A   1      35.292  32.444  30.059  1.00  0.00     0.124 S 
ATOM     80  O   UNL A   1      34.313  32.658  31.120  1.00  0.00    -0.237 OA
ATOM     81  O   UNL A   1      36.043  33.618  29.630  1.00  0.00    -0.237 OA
ATOM     82  O   UNL A   1      34.863  31.556  28.981  1.00  0.00    -0.744 OA
ENDBRANCH  75  79
ENDBRANCH  48  72
BRANCH  60  83
ATOM     83  C   UNL A   1      44.702  33.522  29.277  1.00  0.00     0.023 A 
ATOM     84  C   UNL A   1      44.489  34.576  28.372  1.00  0.00     0.031 A 
ATOM     85  C   UNL A   1      45.393  33.798  30.469  1.00  0.00     0.131 A 
ATOM     86  C   UNL A   1      44.990  35.855  28.661  1.00  0.00     0.055 A 
ATOM     87  C   UNL A   1      45.854  35.081  30.770  1.00  0.00     0.041 A 
ATOM     88  F   UNL A   1      45.621  32.825  31.367  1.00  0.00    -0.206 F 
ATOM     89  C   UNL A   1      45.657  36.116  29.860  1.00  0.00     0.022 A 
BRANCH  86  90
ATOM     90  S   UNL A   1      44.781  37.175  27.434  1.00  0.00     0.124 S 
ATOM     91  O   UNL A   1      45.888  36.914  26.519  1.00  0.00    -0.237 OA
ATOM     92  O   UNL A   1      43.445  36.911  26.909  1.00  0.00    -0.237 OA
ATOM     93  O   UNL A   1      44.903  38.399  28.223  1.00  0.00    -0.744 OA
ENDBRANCH  86  90
ENDBRANCH  60  83
ENDBRANCH  34  35
ENDBRANCH  26  29
ENDBRANCH  24  25
ENDBRANCH  23  24
ENDBRANCH   1  23
TORSDOF 18
ENDMDL
MODEL 2
REMARK VINA RESULT:     -11.1      2.971      4.350
REMARK SMILES CC1=Nn2c(nnc(CCC(=O)NCCCCCCNC(=O)c3ccc(-c4c5nc(c(-c6cc(S(=O)(=O)[O-])ccc6F)c6ccc([nH]6)c(-c6cc(S(=O)(=O)[O-])ccc6F)c6nc(c(-c7cc(S(=O)(=O)[O-])ccc7F)c7ccc4[nH]7)C=C6)C=C5)cc3)c2=O)SC1
REMARK SMILES IDX 17 1 16 2 15 3 14 4 13 5 11 6 12 7 10 9 9 10 8 11 1 12 2 13
REMARK SMILES IDX 3 14 89 15 4 16 88 17 5 18 86 19 6 20 87 21 7 22 18 23 19 24
REMARK SMILES IDX 20 25 21 26 22 28 23 29 24 30 85 31 25 32 84 33 26 34 27 35
REMARK SMILES IDX 28 36 78 37 29 38 83 39 77 40 79 41 30 42 82 43 76 44 75 45
REMARK SMILES IDX 31 47 63 48 43 49 62 50 44 51 47 52 61 53 80 54 45 55 46 56
REMARK SMILES IDX 60 58 81 59 48 60 32 61 33 62 41 63 34 64 40 65 42 66 39 67
REMARK SMILES IDX 35 68 36 69 37 70 38 71 64 72 65 73 73 74 66 75 72 76 74 77
REMARK SMILES IDX 71 78 67 79 68 80 69 81 70 82 49 83 50 84 58 85 51 86 57 87
REMARK SMILES IDX 59 88 56 89 52 90 53 91 54 92 55 93
REMARK H PARENT 13 8 20 27 79 46 47 57
REMARK Flexibility Score: inf
ROOT
ATOM      1  C   UNL A   1      40.827  21.074  26.859  1.00  0.00     0.002 C 
ENDROOT
BRANCH   1   2
ATOM      2  C   UNL A   1      39.860  22.007  26.119  1.00  0.00     0.002 C 
BRANCH   2   3
ATOM      3  C   UNL A   1      39.382  23.246  26.883  1.00  0.00     0.021 C 
BRANCH   3   4
ATOM      4  C   UNL A   1      38.054  23.851  26.426  1.00  0.00     0.116 C 
BRANCH   4   5
ATOM      5  N   UNL A   1      37.774  23.528  25.034  1.00  0.00    -0.356 N 
ATOM      6  C   UNL A   1      36.614  23.551  24.320  1.00  0.00     0.220 C 
ATOM      7  O   UNL A   1      36.650  23.214  23.135  1.00  0.00    -0.275 OA
ATOM      8  H   UNL A   1      38.562  23.242  24.518  1.00  0.00     0.163 HD
BRANCH   6   9
ATOM      9  C   UNL A   1      35.308  23.985  24.955  1.00  0.00     0.106 C 
BRANCH   9  10
ATOM     10  C   UNL A   1      34.755  22.918  25.898  1.00  0.00     0.074 C 
BRANCH  10  11
ATOM     11  C   UNL A   1      34.228  21.737  25.120  1.00  0.00     0.131 A 
ATOM     12  C   UNL A   1      35.152  15.807  25.138  1.00  0.00     0.064 C 
ATOM     13  C   UNL A   1      34.430  17.066  24.718  1.00  0.00     0.046 C 
ATOM     14  N   UNL A   1      35.087  18.184  24.793  1.00  0.00    -0.172 NA
ATOM     15  C   UNL A   1      32.964  16.955  24.406  1.00  0.00     0.131 C 
ATOM     16  N   UNL A   1      34.432  19.389  24.581  1.00  0.00    -0.169 N 
ATOM     17  S   UNL A   1      32.512  18.166  23.174  1.00  0.00    -0.078 SA
ATOM     18  C   UNL A   1      33.202  19.547  23.984  1.00  0.00     0.214 A 
ATOM     19  C   UNL A   1      35.103  20.517  25.010  1.00  0.00     0.296 A 
ATOM     20  N   UNL A   1      32.536  20.654  23.962  1.00  0.00    -0.123 NA
ATOM     21  O   UNL A   1      36.279  20.602  25.344  1.00  0.00    -0.265 OA
ATOM     22  N   UNL A   1      33.025  21.774  24.639  1.00  0.00    -0.147 NA
ENDBRANCH  10  11
ENDBRANCH   9  10
ENDBRANCH   6   9
ENDBRANCH   4   5
ENDBRANCH   3   4
ENDBRANCH   2   3
ENDBRANCH   1   2
BRANCH   1  23
ATOM     23  C   UNL A   1      41.117  19.708  26.223  1.00  0.00     0.021 C 
BRANCH  23  24
ATOM     24  C   UNL A   1      42.518  19.128  26.418  1.00  0.00     0.116 C 
BRANCH  24  25
ATOM     25  N   UNL A   1      43.319  19.057  25.213  1.00  0.00    -0.352 N 
ATOM     26  C   UNL A   1      44.069  20.047  24.613  1.00  0.00     0.251 C 
ATOM     27  H   UNL A   1      43.329  18.183  24.759  1.00  0.00     0.163 HD
ATOM     28  O   UNL A   1      44.690  19.802  23.583  1.00  0.00    -0.269 OA
BRANCH  26  29
ATOM     29  C   UNL A   1      44.100  21.415  25.184  1.00  0.00     0.039 A 
ATOM     30  C   UNL A   1      44.769  21.620  26.391  1.00  0.00     0.014 A 
ATOM     31  C   UNL A   1      43.462  22.487  24.553  1.00  0.00     0.014 A 
ATOM     32  C   UNL A   1      44.864  22.909  26.925  1.00  0.00     0.010 A 
ATOM     33  C   UNL A   1      43.592  23.785  25.067  1.00  0.00     0.010 A 
ATOM     34  C   UNL A   1      44.310  24.013  26.252  1.00  0.00    -0.014 A 
BRANCH  34  35
ATOM     35  C   UNL A   1      44.548  25.393  26.768  1.00  0.00     0.031 A 
ATOM     36  C   UNL A   1      45.899  26.049  26.676  1.00  0.00     0.074 A 
ATOM     37  C   UNL A   1      43.519  26.076  27.311  1.00  0.00     0.049 A 
ATOM     38  N   UNL A   1      46.246  27.268  27.010  1.00  0.00    -0.248 NA
ATOM     39  C   UNL A   1      47.003  25.232  26.155  1.00  0.00     0.031 C 
ATOM     40  C   UNL A   1      42.163  25.553  27.493  1.00  0.00     0.029 A 
ATOM     41  N   UNL A   1      43.444  27.362  27.792  1.00  0.00    -0.354 N 
ATOM     42  C   UNL A   1      47.603  27.373  26.727  1.00  0.00     0.074 A 
ATOM     43  C   UNL A   1      48.026  26.072  26.245  1.00  0.00     0.031 C 
ATOM     44  C   UNL A   1      41.382  26.522  27.997  1.00  0.00     0.029 A 
ATOM     45  C   UNL A   1      42.182  27.726  28.203  1.00  0.00     0.049 A 
ATOM     46  H   UNL A   1      44.220  27.966  27.837  1.00  0.00     0.167 HD
ATOM     47  C   UNL A   1      48.415  28.453  26.834  1.00  0.00     0.034 A 
ATOM     48  C   UNL A   1      41.712  28.895  28.681  1.00  0.00     0.034 A 
ATOM     49  C   UNL A   1      47.998  29.750  27.307  1.00  0.00     0.049 A 
ATOM     50  C   UNL A   1      42.641  30.071  28.822  1.00  0.00     0.074 A 
ATOM     51  C   UNL A   1      48.746  30.913  27.406  1.00  0.00     0.029 A 
ATOM     52  N   UNL A   1      46.726  30.061  27.767  1.00  0.00    -0.354 N 
ATOM     53  N   UNL A   1      43.915  30.152  28.524  1.00  0.00    -0.248 NA
ATOM     54  C   UNL A   1      42.067  31.312  29.363  1.00  0.00     0.031 C 
ATOM     55  C   UNL A   1      47.942  31.909  27.972  1.00  0.00     0.029 A 
ATOM     56  C   UNL A   1      46.677  31.385  28.175  1.00  0.00     0.049 A 
ATOM     57  H   UNL A   1      45.969  29.432  27.799  1.00  0.00     0.167 HD
ATOM     58  C   UNL A   1      44.290  31.458  28.826  1.00  0.00     0.074 A 
ATOM     59  C   UNL A   1      43.109  32.131  29.324  1.00  0.00     0.031 C 
ATOM     60  C   UNL A   1      45.505  32.046  28.694  1.00  0.00     0.034 A 
BRANCH  47  61
ATOM     61  C   UNL A   1      49.858  28.280  26.432  1.00  0.00     0.023 A 
ATOM     62  C   UNL A   1      50.271  28.470  25.103  1.00  0.00     0.031 A 
ATOM     63  C   UNL A   1      50.831  27.949  27.390  1.00  0.00     0.131 A 
ATOM     64  C   UNL A   1      51.616  28.282  24.758  1.00  0.00     0.055 A 
ATOM     65  C   UNL A   1      52.180  27.823  27.051  1.00  0.00     0.041 A 
ATOM     66  F   UNL A   1      50.487  27.745  28.672  1.00  0.00    -0.206 F 
ATOM     67  C   UNL A   1      52.578  27.982  25.726  1.00  0.00     0.022 A 
BRANCH  64  68
ATOM     68  S   UNL A   1      52.082  28.356  23.008  1.00  0.00     0.124 S 
ATOM     69  O   UNL A   1      51.306  27.251  22.452  1.00  0.00    -0.237 OA
ATOM     70  O   UNL A   1      51.654  29.696  22.620  1.00  0.00    -0.237 OA
ATOM     71  O   UNL A   1      53.529  28.147  23.029  1.00  0.00    -0.744 OA
ENDBRANCH  64  68
ENDBRANCH  47  61
BRANCH  48  72
ATOM     72  C   UNL A   1      40.279  29.019  29.063  1.00  0.00     0.023 A 
ATOM     73  C   UNL A   1      39.883  28.943  30.407  1.00  0.00     0.031 A 
ATOM     74  C   UNL A   1      39.287  29.204  28.085  1.00  0.00     0.131 A 
ATOM     75  C   UNL A   1      38.521  29.025  30.736  1.00  0.00     0.055 A 
ATOM     76  C   UNL A   1      37.938  29.319  28.420  1.00  0.00     0.041 A 
ATOM     77  F   UNL A   1      39.624  29.293  26.788  1.00  0.00    -0.206 F 
ATOM     78  C   UNL A   1      37.548  29.224  29.752  1.00  0.00     0.022 A 
BRANCH  75  79
ATOM     79  S   UNL A   1      38.031  28.847  32.473  1.00  0.00     0.124 S 
ATOM     80  O   UNL A   1      38.193  27.412  32.680  1.00  0.00    -0.237 OA
ATOM     81  O   UNL A   1      38.995  29.707  33.151  1.00  0.00    -0.237 OA
ATOM     82  O   UNL A   1      36.653  29.331  32.488  1.00  0.00    -0.744 OA
ENDBRANCH  75  79
ENDBRANCH  48  72
BRANCH  60  83
ATOM     83  C   UNL A   1      45.618  33.497  29.079  1.00  0.00     0.023 A 
ATOM     84  C   UNL A   1      45.202  34.521  28.212  1.00  0.00     0.031 A 
ATOM     85  C   UNL A   1      46.119  33.856  30.343  1.00  0.00     0.131 A 
ATOM     86  C   UNL A   1      45.322  35.862  28.609  1.00  0.00     0.055 A 
ATOM     87  C   UNL A   1      46.199  35.190  30.747  1.00  0.00     0.041 A 
ATOM     88  F   UNL A   1      46.527  32.914  31.208  1.00  0.00    -0.206 F 
ATOM     89  C   UNL A   1      45.803  36.201  29.876  1.00  0.00     0.022 A 
BRANCH  86  90
ATOM     90  S   UNL A   1      44.865  37.167  27.435  1.00  0.00     0.124 S 
ATOM     91  O   UNL A   1      43.711  36.577  26.764  1.00  0.00    -0.237 OA
ATOM     92  O   UNL A   1      44.582  38.299  28.313  1.00  0.00    -0.237 OA
ATOM     93  O   UNL A   1      46.058  37.315  26.604  1.00  0.00    -0.744 OA
ENDBRANCH  86  90
ENDBRANCH  60  83
ENDBRANCH  34  35
ENDBRANCH  26  29
ENDBRANCH  24  25
ENDBRANCH  23  24
ENDBRANCH   1  23
TORSDOF 18
ENDMDL
MODEL 3
REMARK VINA RESULT:     -11.1      1.772      2.307
REMARK SMILES CC1=Nn2c(nnc(CCC(=O)NCCCCCCNC(=O)c3ccc(-c4c5nc(c(-c6cc(S(=O)(=O)[O-])ccc6F)c6ccc([nH]6)c(-c6cc(S(=O)(=O)[O-])ccc6F)c6nc(c(-c7cc(S(=O)(=O)[O-])ccc7F)c7ccc4[nH]7)C=C6)C=C5)cc3)c2=O)SC1
REMARK SMILES IDX 17 1 16 2 15 3 14 4 13 5 11 6 12 7 10 9 9 10 8 11 1 12 2 13
REMARK SMILES IDX 3 14 89 15 4 16 88 17 5 18 86 19 6 20 87 21 7 22 18 23 19 24
REMARK SMILES IDX 20 25 21 26 22 28 23 29 24 30 85 31 25 32 84 33 26 34 27 35
REMARK SMILES IDX 28 36 78 37 29 38 83 39 77 40 79 41 30 42 82 43 76 44 75 45
REMARK SMILES IDX 31 47 63 48 43 49 62 50 44 51 47 52 61 53 80 54 45 55 46 56
REMARK SMILES IDX 60 58 81 59 48 60 32 61 33 62 41 63 34 64 40 65 42 66 39 67
REMARK SMILES IDX 35 68 36 69 37 70 38 71 64 72 65 73 73 74 66 75 72 76 74 77
REMARK SMILES IDX 71 78 67 79 68 80 69 81 70 82 49 83 50 84 58 85 51 86 57 87
REMARK SMILES IDX 59 88 56 89 52 90 53 91 54 92 55 93
REMARK H PARENT 13 8 20 27 79 46 47 57
REMARK Flexibility Score: inf
ROOT
ATOM      1  C   UNL A   1      34.603  22.551  23.624  1.00  0.00     0.002 C 
ENDROOT
BRANCH   1   2
ATOM      2  C   UNL A   1      34.171  23.320  22.369  1.00  0.00     0.002 C 
BRANCH   2   3
ATOM      3  C   UNL A   1      32.954  24.239  22.513  1.00  0.00     0.021 C 
BRANCH   3   4
ATOM      4  C   UNL A   1      32.725  25.240  21.380  1.00  0.00     0.116 C 
BRANCH   4   5
ATOM      5  N   UNL A   1      31.557  26.071  21.632  1.00  0.00    -0.356 N 
ATOM      6  C   UNL A   1      31.436  27.312  22.182  1.00  0.00     0.220 C 
ATOM      7  O   UNL A   1      30.308  27.795  22.292  1.00  0.00    -0.275 OA
ATOM      8  H   UNL A   1      30.703  25.665  21.358  1.00  0.00     0.163 HD
BRANCH   6   9
ATOM      9  C   UNL A   1      32.652  28.090  22.642  1.00  0.00     0.106 C 
BRANCH   9  10
ATOM     10  C   UNL A   1      32.594  28.401  24.136  1.00  0.00     0.074 C 
BRANCH  10  11
ATOM     11  C   UNL A   1      32.850  27.158  24.953  1.00  0.00     0.131 A 
ATOM     12  C   UNL A   1      29.516  22.665  27.125  1.00  0.00     0.064 C 
ATOM     13  C   UNL A   1      30.823  23.354  26.809  1.00  0.00     0.046 C 
ATOM     14  N   UNL A   1      30.799  24.645  26.669  1.00  0.00    -0.172 NA
ATOM     15  C   UNL A   1      32.014  22.485  26.515  1.00  0.00     0.131 C 
ATOM     16  N   UNL A   1      31.927  25.316  26.217  1.00  0.00    -0.169 N 
ATOM     17  S   UNL A   1      33.511  23.316  27.022  1.00  0.00    -0.078 SA
ATOM     18  C   UNL A   1      33.207  24.813  26.183  1.00  0.00     0.214 A 
ATOM     19  C   UNL A   1      31.717  26.607  25.776  1.00  0.00     0.296 A 
ATOM     20  N   UNL A   1      34.204  25.387  25.593  1.00  0.00    -0.123 NA
ATOM     21  O   UNL A   1      30.718  27.297  25.941  1.00  0.00    -0.265 OA
ATOM     22  N   UNL A   1      33.998  26.563  24.867  1.00  0.00    -0.147 NA
ENDBRANCH  10  11
ENDBRANCH   9  10
ENDBRANCH   6   9
ENDBRANCH   4   5
ENDBRANCH   3   4
ENDBRANCH   2   3
ENDBRANCH   1   2
BRANCH   1  23
ATOM     23  C   UNL A   1      36.104  22.292  23.813  1.00  0.00     0.021 C 
BRANCH  23  24
ATOM     24  C   UNL A   1      36.588  21.979  25.230  1.00  0.00     0.116 C 
BRANCH  24  25
ATOM     25  N   UNL A   1      37.573  20.920  25.315  1.00  0.00    -0.352 N 
ATOM     26  C   UNL A   1      38.845  20.963  25.845  1.00  0.00     0.251 C 
ATOM     27  H   UNL A   1      37.297  20.051  24.944  1.00  0.00     0.163 HD
ATOM     28  O   UNL A   1      39.546  19.957  25.830  1.00  0.00    -0.269 OA
BRANCH  26  29
ATOM     29  C   UNL A   1      39.384  22.229  26.399  1.00  0.00     0.039 A 
ATOM     30  C   UNL A   1      40.458  22.166  27.287  1.00  0.00     0.014 A 
ATOM     31  C   UNL A   1      38.831  23.469  26.065  1.00  0.00     0.014 A 
ATOM     32  C   UNL A   1      41.025  23.345  27.781  1.00  0.00     0.010 A 
ATOM     33  C   UNL A   1      39.424  24.652  26.529  1.00  0.00     0.010 A 
ATOM     34  C   UNL A   1      40.541  24.603  27.379  1.00  0.00    -0.014 A 
BRANCH  34  35
ATOM     35  C   UNL A   1      41.252  25.844  27.806  1.00  0.00     0.031 A 
ATOM     36  C   UNL A   1      42.676  26.118  27.402  1.00  0.00     0.074 A 
ATOM     37  C   UNL A   1      40.593  26.752  28.557  1.00  0.00     0.049 A 
ATOM     38  N   UNL A   1      43.405  27.182  27.631  1.00  0.00    -0.248 NA
ATOM     39  C   UNL A   1      43.372  25.060  26.660  1.00  0.00     0.031 C 
ATOM     40  C   UNL A   1      39.221  26.603  29.047  1.00  0.00     0.029 A 
ATOM     41  N   UNL A   1      40.978  27.987  29.021  1.00  0.00    -0.354 N 
ATOM     42  C   UNL A   1      44.642  26.933  27.048  1.00  0.00     0.074 A 
ATOM     43  C   UNL A   1      44.579  25.590  26.503  1.00  0.00     0.031 C 
ATOM     44  C   UNL A   1      38.864  27.721  29.698  1.00  0.00     0.029 A 
ATOM     45  C   UNL A   1      39.985  28.656  29.700  1.00  0.00     0.049 A 
ATOM     46  H   UNL A   1      41.878  28.358  28.881  1.00  0.00     0.167 HD
ATOM     47  C   UNL A   1      45.720  27.750  26.952  1.00  0.00     0.034 A 
ATOM     48  C   UNL A   1      39.968  29.885  30.253  1.00  0.00     0.034 A 
ATOM     49  C   UNL A   1      45.785  29.088  27.486  1.00  0.00     0.049 A 
ATOM     50  C   UNL A   1      41.189  30.762  30.163  1.00  0.00     0.074 A 
ATOM     51  C   UNL A   1      46.823  30.002  27.396  1.00  0.00     0.029 A 
ATOM     52  N   UNL A   1      44.779  29.707  28.215  1.00  0.00    -0.354 N 
ATOM     53  N   UNL A   1      42.338  30.512  29.585  1.00  0.00    -0.248 NA
ATOM     54  C   UNL A   1      41.107  32.084  30.800  1.00  0.00     0.031 C 
ATOM     55  C   UNL A   1      46.465  31.150  28.112  1.00  0.00     0.029 A 
ATOM     56  C   UNL A   1      45.182  30.975  28.603  1.00  0.00     0.049 A 
ATOM     57  H   UNL A   1      43.906  29.303  28.427  1.00  0.00     0.167 HD
ATOM     58  C   UNL A   1      43.111  31.654  29.774  1.00  0.00     0.074 A 
ATOM     59  C   UNL A   1      42.297  32.596  30.514  1.00  0.00     0.031 C 
ATOM     60  C   UNL A   1      44.379  31.901  29.362  1.00  0.00     0.034 A 
BRANCH  47  61
ATOM     61  C   UNL A   1      46.935  27.215  26.239  1.00  0.00     0.023 A 
ATOM     62  C   UNL A   1      47.947  26.535  26.935  1.00  0.00     0.031 A 
ATOM     63  C   UNL A   1      47.070  27.363  24.848  1.00  0.00     0.131 A 
ATOM     64  C   UNL A   1      49.074  26.067  26.246  1.00  0.00     0.055 A 
ATOM     65  C   UNL A   1      48.165  26.841  24.158  1.00  0.00     0.041 A 
ATOM     66  F   UNL A   1      46.136  28.016  24.136  1.00  0.00    -0.206 F 
ATOM     67  C   UNL A   1      49.181  26.195  24.858  1.00  0.00     0.022 A 
BRANCH  64  68
ATOM     68  S   UNL A   1      50.442  25.356  27.200  1.00  0.00     0.124 S 
ATOM     69  O   UNL A   1      50.824  26.482  28.047  1.00  0.00    -0.237 OA
ATOM     70  O   UNL A   1      49.807  24.232  27.879  1.00  0.00    -0.237 OA
ATOM     71  O   UNL A   1      51.421  24.992  26.177  1.00  0.00    -0.744 OA
ENDBRANCH  64  68
ENDBRANCH  47  61
BRANCH  48  72
ATOM     72  C   UNL A   1      38.743  30.371  30.946  1.00  0.00     0.023 A 
ATOM     73  C   UNL A   1      37.747  31.066  30.243  1.00  0.00     0.031 A 
ATOM     74  C   UNL A   1      38.561  30.155  32.322  1.00  0.00     0.131 A 
ATOM     75  C   UNL A   1      36.620  31.546  30.928  1.00  0.00     0.055 A 
ATOM     76  C   UNL A   1      37.423  30.605  32.991  1.00  0.00     0.041 A 
ATOM     77  F   UNL A   1      39.485  29.485  33.030  1.00  0.00    -0.206 F 
ATOM     78  C   UNL A   1      36.447  31.310  32.294  1.00  0.00     0.022 A 
BRANCH  75  79
ATOM     79  S   UNL A   1      35.385  32.506  30.010  1.00  0.00     0.124 S 
ATOM     80  O   UNL A   1      36.163  33.672  29.601  1.00  0.00    -0.237 OA
ATOM     81  O   UNL A   1      35.007  31.581  28.948  1.00  0.00    -0.237 OA
ATOM     82  O   UNL A   1      34.348  32.764  31.005  1.00  0.00    -0.744 OA
ENDBRANCH  75  79
ENDBRANCH  48  72
BRANCH  60  83
ATOM     83  C   UNL A   1      44.963  33.249  29.689  1.00  0.00     0.023 A 
ATOM     84  C   UNL A   1      44.734  34.367  28.870  1.00  0.00     0.031 A 
ATOM     85  C   UNL A   1      45.734  33.423  30.852  1.00  0.00     0.131 A 
ATOM     86  C   UNL A   1      45.295  35.608  29.210  1.00  0.00     0.055 A 
ATOM     87  C   UNL A   1      46.256  34.668  31.207  1.00  0.00     0.041 A 
ATOM     88  F   UNL A   1      45.980  32.385  31.669  1.00  0.00    -0.206 F 
ATOM     89  C   UNL A   1      46.041  35.768  30.380  1.00  0.00     0.022 A 
BRANCH  86  90
ATOM     90  S   UNL A   1      45.060  37.013  28.087  1.00  0.00     0.124 S 
ATOM     91  O   UNL A   1      44.717  38.086  29.015  1.00  0.00    -0.237 OA
ATOM     92  O   UNL A   1      46.363  37.122  27.438  1.00  0.00    -0.237 OA
ATOM     93  O   UNL A   1      43.972  36.575  27.214  1.00  0.00    -0.744 OA
ENDBRANCH  86  90
ENDBRANCH  60  83
ENDBRANCH  34  35
ENDBRANCH  26  29
ENDBRANCH  24  25
ENDBRANCH  23  24
ENDBRANCH   1  23
TORSDOF 18
ENDMDL
