MODEL 1
REMARK VINA RESULT:     -11.0      0.000      0.000
REMARK SMILES CCc1cc(=O)oc2c3c(cc(OCC(=O)NCC(=O)NCCCCCCNC(=O)c4ccc(-c5c6nc(c(-c7cc(S(=O)(=O)[O-])ccc7F)c7ccc([nH]7)c(-c7cc(S(=O)(=O)[O-])ccc7F)c7nc(c(-c8cc(S(=O)(=O)[O-])ccc8F)c8ccc5[nH]8)C=C7)C=C6)cc4)c12)OC(C)(C)CC3
REMARK SMILES IDX 23 1 22 2 21 3 19 4 20 5 18 7 17 8 15 9 16 10 14 12 13 13
REMARK SMILES IDX 12 14 3 15 4 16 94 17 5 18 8 19 6 20 7 21 9 22 11 23 10 24
REMARK SMILES IDX 100 25 95 26 99 27 96 28 97 29 98 30 2 31 1 32 24 33 25 34
REMARK SMILES IDX 26 35 27 36 28 37 29 38 30 40 31 41 32 42 93 43 33 44 92 45
REMARK SMILES IDX 34 46 35 47 36 48 86 49 37 50 91 51 85 52 87 53 38 54 90 55
REMARK SMILES IDX 84 56 83 57 39 59 71 60 51 61 70 62 52 63 55 64 69 65 88 66
REMARK SMILES IDX 53 67 54 68 68 70 89 71 56 72 40 73 41 74 49 75 42 76 48 77
REMARK SMILES IDX 50 78 47 79 43 80 44 81 45 82 46 83 72 84 73 85 81 86 74 87
REMARK SMILES IDX 80 88 82 89 79 90 75 91 76 92 77 93 78 94 57 95 58 96 66 97
REMARK SMILES IDX 59 98 65 99 67 100 64 101 60 102 61 103 62 104 63 105
REMARK H PARENT 21 6 17 11 28 39 87 58 55 69
REMARK Flexibility Score: inf
ROOT
ATOM      1  C   UNL A   1      39.390  27.019  28.357  1.00  0.00     0.021 C 
ENDROOT
BRANCH   1   2
ATOM      2  C   UNL A   1      40.070  26.210  27.253  1.00  0.00     0.116 C 
BRANCH   2   3
ATOM      3  N   UNL A   1      40.298  24.813  27.560  1.00  0.00    -0.355 N 
ATOM      4  C   UNL A   1      39.591  23.732  27.094  1.00  0.00     0.239 C 
ATOM      5  O   UNL A   1      40.080  22.608  27.229  1.00  0.00    -0.273 OA
ATOM      6  H   UNL A   1      41.045  24.616  28.170  1.00  0.00     0.163 HD
BRANCH   4   7
ATOM      7  C   UNL A   1      38.246  23.926  26.372  1.00  0.00     0.216 C 
BRANCH   7   8
ATOM      8  N   UNL A   1      37.479  22.697  26.282  1.00  0.00    -0.344 N 
ATOM      9  C   UNL A   1      36.537  22.348  25.360  1.00  0.00     0.258 C 
ATOM     10  O   UNL A   1      36.126  21.187  25.361  1.00  0.00    -0.271 OA
ATOM     11  H   UNL A   1      37.664  22.026  26.979  1.00  0.00     0.164 HD
BRANCH   9  12
ATOM     12  C   UNL A   1      36.032  23.377  24.331  1.00  0.00     0.329 C 
BRANCH  12  13
ATOM     13  O   UNL A   1      34.631  23.519  24.149  1.00  0.00    -0.483 OA
BRANCH  13  14
ATOM     14  C   UNL A   1      33.914  24.330  24.991  1.00  0.00     0.135 A 
ATOM     15  C   UNL A   1      32.235  22.388  25.491  1.00  0.00    -0.026 A 
ATOM     16  C   UNL A   1      31.061  22.097  26.080  1.00  0.00     0.098 A 
ATOM     17  C   UNL A   1      32.775  23.778  25.632  1.00  0.00     0.063 A 
ATOM     18  C   UNL A   1      30.255  23.042  26.850  1.00  0.00     0.336 A 
ATOM     19  C   UNL A   1      32.011  24.683  26.396  1.00  0.00     0.149 A 
ATOM     20  O   UNL A   1      29.140  22.743  27.249  1.00  0.00    -0.246 OA
ATOM     21  O   UNL A   1      30.823  24.277  27.052  1.00  0.00    -0.422 OA
ATOM     22  C   UNL A   1      32.279  26.068  26.474  1.00  0.00     0.038 A 
ATOM     23  C   UNL A   1      34.224  25.700  25.132  1.00  0.00     0.094 A 
ATOM     24  C   UNL A   1      33.370  26.575  25.793  1.00  0.00     0.130 A 
ATOM     25  C   UNL A   1      31.298  27.005  27.098  1.00  0.00     0.047 C 
ATOM     26  O   UNL A   1      33.648  27.910  25.654  1.00  0.00    -0.487 OA
ATOM     27  C   UNL A   1      31.847  28.409  27.234  1.00  0.00     0.053 C 
ATOM     28  C   UNL A   1      32.606  28.847  25.984  1.00  0.00     0.104 C 
ATOM     29  C   UNL A   1      33.280  30.194  26.281  1.00  0.00     0.056 C 
ATOM     30  C   UNL A   1      31.677  29.080  24.778  1.00  0.00     0.056 C 
BRANCH  15  31
ATOM     31  C   UNL A   1      32.888  21.266  24.707  1.00  0.00     0.033 C 
ATOM     32  C   UNL A   1      32.329  21.098  23.290  1.00  0.00     0.009 C 
ENDBRANCH  15  31
ENDBRANCH  13  14
ENDBRANCH  12  13
ENDBRANCH   9  12
ENDBRANCH   7   8
ENDBRANCH   4   7
ENDBRANCH   2   3
ENDBRANCH   1   2
BRANCH   1  33
ATOM     33  C   UNL A   1      39.615  28.536  28.394  1.00  0.00     0.002 C 
BRANCH  33  34
ATOM     34  C   UNL A   1      38.596  29.436  27.672  1.00  0.00     0.002 C 
BRANCH  34  35
ATOM     35  C   UNL A   1      37.198  29.750  28.270  1.00  0.00     0.021 C 
BRANCH  35  36
ATOM     36  C   UNL A   1      36.977  31.036  29.087  1.00  0.00     0.116 C 
BRANCH  36  37
ATOM     37  N   UNL A   1      36.522  30.756  30.444  1.00  0.00    -0.352 N 
ATOM     38  C   UNL A   1      37.066  30.131  31.541  1.00  0.00     0.251 C 
ATOM     39  H   UNL A   1      35.613  31.095  30.614  1.00  0.00     0.163 HD
ATOM     40  O   UNL A   1      36.316  29.945  32.504  1.00  0.00    -0.269 OA
BRANCH  38  41
ATOM     41  C   UNL A   1      38.473  29.655  31.647  1.00  0.00     0.039 A 
ATOM     42  C   UNL A   1      38.684  28.287  31.868  1.00  0.00     0.014 A 
ATOM     43  C   UNL A   1      39.575  30.504  31.718  1.00  0.00     0.014 A 
ATOM     44  C   UNL A   1      39.974  27.774  32.101  1.00  0.00     0.010 A 
ATOM     45  C   UNL A   1      40.878  29.979  31.898  1.00  0.00     0.010 A 
ATOM     46  C   UNL A   1      41.106  28.605  32.086  1.00  0.00    -0.014 A 
BRANCH  46  47
ATOM     47  C   UNL A   1      42.489  28.027  32.265  1.00  0.00     0.031 A 
ATOM     48  C   UNL A   1      43.382  27.702  31.082  1.00  0.00     0.074 A 
ATOM     49  C   UNL A   1      42.972  27.780  33.505  1.00  0.00     0.049 A 
ATOM     50  N   UNL A   1      44.602  27.217  31.071  1.00  0.00    -0.248 NA
ATOM     51  C   UNL A   1      42.827  27.934  29.743  1.00  0.00     0.031 C 
ATOM     52  C   UNL A   1      42.236  27.993  34.753  1.00  0.00     0.029 A 
ATOM     53  N   UNL A   1      44.197  27.307  33.929  1.00  0.00    -0.354 N 
ATOM     54  C   UNL A   1      44.955  27.076  29.729  1.00  0.00     0.074 A 
ATOM     55  C   UNL A   1      43.791  27.471  28.961  1.00  0.00     0.031 C 
ATOM     56  C   UNL A   1      43.034  27.704  35.794  1.00  0.00     0.029 A 
ATOM     57  C   UNL A   1      44.322  27.226  35.300  1.00  0.00     0.049 A 
ATOM     58  H   UNL A   1      44.916  27.051  33.309  1.00  0.00     0.167 HD
ATOM     59  C   UNL A   1      46.136  26.686  29.181  1.00  0.00     0.034 A 
ATOM     60  C   UNL A   1      45.342  26.808  36.084  1.00  0.00     0.034 A 
ATOM     61  C   UNL A   1      47.310  26.313  29.937  1.00  0.00     0.049 A 
ATOM     62  C   UNL A   1      46.629  26.335  35.453  1.00  0.00     0.074 A 
ATOM     63  C   UNL A   1      48.570  25.982  29.462  1.00  0.00     0.029 A 
ATOM     64  N   UNL A   1      47.375  26.203  31.319  1.00  0.00    -0.354 N 
ATOM     65  N   UNL A   1      46.955  26.278  34.183  1.00  0.00    -0.248 NA
ATOM     66  C   UNL A   1      47.688  25.869  36.362  1.00  0.00     0.031 C 
ATOM     67  C   UNL A   1      49.366  25.591  30.543  1.00  0.00     0.029 A 
ATOM     68  C   UNL A   1      48.634  25.762  31.706  1.00  0.00     0.049 A 
ATOM     69  H   UNL A   1      46.636  26.408  31.936  1.00  0.00     0.167 HD
ATOM     70  C   UNL A   1      48.262  25.794  34.148  1.00  0.00     0.074 A 
ATOM     71  C   UNL A   1      48.673  25.595  35.519  1.00  0.00     0.031 C 
ATOM     72  C   UNL A   1      49.049  25.541  33.071  1.00  0.00     0.034 A 
BRANCH  59  73
ATOM     73  C   UNL A   1      46.224  26.621  27.671  1.00  0.00     0.023 A 
ATOM     74  C   UNL A   1      45.978  25.430  26.966  1.00  0.00     0.031 A 
ATOM     75  C   UNL A   1      46.549  27.769  26.923  1.00  0.00     0.131 A 
ATOM     76  C   UNL A   1      46.135  25.395  25.571  1.00  0.00     0.055 A 
ATOM     77  C   UNL A   1      46.617  27.748  25.528  1.00  0.00     0.041 A 
ATOM     78  F   UNL A   1      46.807  28.935  27.538  1.00  0.00    -0.206 F 
ATOM     79  C   UNL A   1      46.426  26.552  24.844  1.00  0.00     0.022 A 
BRANCH  76  80
ATOM     80  S   UNL A   1      46.098  23.784  24.738  1.00  0.00     0.124 S 
ATOM     81  O   UNL A   1      44.719  23.734  24.257  1.00  0.00    -0.237 OA
ATOM     82  O   UNL A   1      47.127  23.935  23.715  1.00  0.00    -0.237 OA
ATOM     83  O   UNL A   1      46.412  22.838  25.806  1.00  0.00    -0.744 OA
ENDBRANCH  76  80
ENDBRANCH  59  73
BRANCH  60  84
ATOM     84  C   UNL A   1      45.191  26.782  37.573  1.00  0.00     0.023 A 
ATOM     85  C   UNL A   1      45.435  27.924  38.353  1.00  0.00     0.031 A 
ATOM     86  C   UNL A   1      44.863  25.588  38.242  1.00  0.00     0.131 A 
ATOM     87  C   UNL A   1      45.394  27.838  39.754  1.00  0.00     0.055 A 
ATOM     88  C   UNL A   1      44.762  25.522  39.632  1.00  0.00     0.041 A 
ATOM     89  F   UNL A   1      44.630  24.462  37.548  1.00  0.00    -0.206 F 
ATOM     90  C   UNL A   1      45.042  26.650  40.398  1.00  0.00     0.022 A 
BRANCH  87  91
ATOM     91  S   UNL A   1      45.908  29.278  40.733  1.00  0.00     0.124 S 
ATOM     92  O   UNL A   1      44.622  29.856  41.107  1.00  0.00    -0.237 OA
ATOM     93  O   UNL A   1      46.672  28.658  41.810  1.00  0.00    -0.237 OA
ATOM     94  O   UNL A   1      46.696  30.067  39.788  1.00  0.00    -0.744 OA
ENDBRANCH  87  91
ENDBRANCH  60  84
BRANCH  72  95
ATOM     95  C   UNL A   1      50.453  25.046  33.332  1.00  0.00     0.023 A 
ATOM     96  C   UNL A   1      50.809  23.697  33.156  1.00  0.00     0.031 A 
ATOM     97  C   UNL A   1      51.454  25.939  33.758  1.00  0.00     0.131 A 
ATOM     98  C   UNL A   1      52.116  23.272  33.448  1.00  0.00     0.055 A 
ATOM     99  C   UNL A   1      52.767  25.522  33.988  1.00  0.00     0.041 A 
ATOM    100  F   UNL A   1      51.174  27.239  33.948  1.00  0.00    -0.206 F 
ATOM    101  C   UNL A   1      53.101  24.179  33.844  1.00  0.00     0.022 A 
BRANCH  98 102
ATOM    102  S   UNL A   1      52.496  21.499  33.375  1.00  0.00     0.124 S 
ATOM    103  O   UNL A   1      53.947  21.492  33.528  1.00  0.00    -0.237 OA
ATOM    104  O   UNL A   1      51.735  20.968  34.501  1.00  0.00    -0.237 OA
ATOM    105  O   UNL A   1      52.010  21.096  32.056  1.00  0.00    -0.744 OA
ENDBRANCH  98 102
ENDBRANCH  72  95
ENDBRANCH  46  47
ENDBRANCH  38  41
ENDBRANCH  36  37
ENDBRANCH  35  36
ENDBRANCH  34  35
ENDBRANCH  33  34
ENDBRANCH   1  33
TORSDOF 21
ENDMDL
MODEL 2
REMARK VINA RESULT:     -10.3      3.159      8.779
REMARK SMILES CCc1cc(=O)oc2c3c(cc(OCC(=O)NCC(=O)NCCCCCCNC(=O)c4ccc(-c5c6nc(c(-c7cc(S(=O)(=O)[O-])ccc7F)c7ccc([nH]7)c(-c7cc(S(=O)(=O)[O-])ccc7F)c7nc(c(-c8cc(S(=O)(=O)[O-])ccc8F)c8ccc5[nH]8)C=C7)C=C6)cc4)c12)OC(C)(C)CC3
REMARK SMILES IDX 23 1 22 2 21 3 19 4 20 5 18 7 17 8 15 9 16 10 14 12 13 13
REMARK SMILES IDX 12 14 3 15 4 16 94 17 5 18 8 19 6 20 7 21 9 22 11 23 10 24
REMARK SMILES IDX 100 25 95 26 99 27 96 28 97 29 98 30 2 31 1 32 24 33 25 34
REMARK SMILES IDX 26 35 27 36 28 37 29 38 30 40 31 41 32 42 93 43 33 44 92 45
REMARK SMILES IDX 34 46 35 47 36 48 86 49 37 50 91 51 85 52 87 53 38 54 90 55
REMARK SMILES IDX 84 56 83 57 39 59 71 60 51 61 70 62 52 63 55 64 69 65 88 66
REMARK SMILES IDX 53 67 54 68 68 70 89 71 56 72 40 73 41 74 49 75 42 76 48 77
REMARK SMILES IDX 50 78 47 79 43 80 44 81 45 82 46 83 72 84 73 85 81 86 74 87
REMARK SMILES IDX 80 88 82 89 79 90 75 91 76 92 77 93 78 94 57 95 58 96 66 97
REMARK SMILES IDX 59 98 65 99 67 100 64 101 60 102 61 103 62 104 63 105
REMARK H PARENT 21 6 17 11 28 39 87 58 55 69
REMARK Flexibility Score: inf
ROOT
ATOM      1  C   UNL A   1      31.755  29.385  24.740  1.00  0.00     0.021 C 
ENDROOT
BRANCH   1   2
ATOM      2  C   UNL A   1      30.797  28.371  24.117  1.00  0.00     0.116 C 
BRANCH   2   3
ATOM      3  N   UNL A   1      31.427  27.277  23.407  1.00  0.00    -0.355 N 
ATOM      4  C   UNL A   1      30.933  26.010  23.221  1.00  0.00     0.239 C 
ATOM      5  O   UNL A   1      31.461  25.293  22.369  1.00  0.00    -0.273 OA
ATOM      6  H   UNL A   1      32.310  27.464  23.012  1.00  0.00     0.163 HD
BRANCH   4   7
ATOM      7  C   UNL A   1      29.713  25.519  24.020  1.00  0.00     0.216 C 
BRANCH   7   8
ATOM      8  N   UNL A   1      30.037  25.219  25.404  1.00  0.00    -0.344 N 
ATOM      9  C   UNL A   1      30.613  24.096  25.918  1.00  0.00     0.258 C 
ATOM     10  O   UNL A   1      30.960  24.110  27.100  1.00  0.00    -0.271 OA
ATOM     11  H   UNL A   1      29.809  25.920  26.057  1.00  0.00     0.164 HD
BRANCH   9  12
ATOM     12  C   UNL A   1      30.850  22.861  25.028  1.00  0.00     0.329 C 
BRANCH  12  13
ATOM     13  O   UNL A   1      32.097  22.736  24.363  1.00  0.00    -0.483 OA
BRANCH  13  14
ATOM     14  C   UNL A   1      32.928  21.687  24.664  1.00  0.00     0.135 A 
ATOM     15  C   UNL A   1      34.997  23.285  24.698  1.00  0.00    -0.026 A 
ATOM     16  C   UNL A   1      36.341  23.316  24.758  1.00  0.00     0.098 A 
ATOM     17  C   UNL A   1      34.310  21.961  24.828  1.00  0.00     0.063 A 
ATOM     18  C   UNL A   1      37.196  22.144  24.934  1.00  0.00     0.336 A 
ATOM     19  C   UNL A   1      35.133  20.834  25.024  1.00  0.00     0.149 A 
ATOM     20  O   UNL A   1      38.412  22.231  24.853  1.00  0.00    -0.246 OA
ATOM     21  O   UNL A   1      36.538  20.959  25.157  1.00  0.00    -0.422 OA
ATOM     22  C   UNL A   1      34.665  19.502  24.982  1.00  0.00     0.038 A 
ATOM     23  C   UNL A   1      32.450  20.358  24.699  1.00  0.00     0.094 A 
ATOM     24  C   UNL A   1      33.318  19.275  24.769  1.00  0.00     0.130 A 
ATOM     25  C   UNL A   1      35.620  18.353  24.955  1.00  0.00     0.047 C 
ATOM     26  O   UNL A   1      32.762  18.042  24.547  1.00  0.00    -0.487 OA
ATOM     27  C   UNL A   1      34.919  17.018  25.083  1.00  0.00     0.053 C 
ATOM     28  C   UNL A   1      33.653  16.955  24.233  1.00  0.00     0.104 C 
ATOM     29  C   UNL A   1      32.916  15.650  24.567  1.00  0.00     0.056 C 
ATOM     30  C   UNL A   1      33.954  16.913  22.723  1.00  0.00     0.056 C 
BRANCH  15  31
ATOM     31  C   UNL A   1      34.306  24.617  24.472  1.00  0.00     0.033 C 
ATOM     32  C   UNL A   1      33.995  25.375  25.767  1.00  0.00     0.009 C 
ENDBRANCH  15  31
ENDBRANCH  13  14
ENDBRANCH  12  13
ENDBRANCH   9  12
ENDBRANCH   7   8
ENDBRANCH   4   7
ENDBRANCH   2   3
ENDBRANCH   1   2
BRANCH   1  33
ATOM     33  C   UNL A   1      31.791  29.512  26.269  1.00  0.00     0.002 C 
BRANCH  33  34
ATOM     34  C   UNL A   1      32.308  30.829  26.873  1.00  0.00     0.002 C 
BRANCH  34  35
ATOM     35  C   UNL A   1      33.665  30.923  27.620  1.00  0.00     0.021 C 
BRANCH  35  36
ATOM     36  C   UNL A   1      34.261  32.297  27.976  1.00  0.00     0.116 C 
BRANCH  36  37
ATOM     37  N   UNL A   1      34.065  32.636  29.381  1.00  0.00    -0.352 N 
ATOM     38  C   UNL A   1      34.774  32.424  30.539  1.00  0.00     0.251 C 
ATOM     39  H   UNL A   1      33.229  33.134  29.536  1.00  0.00     0.163 HD
ATOM     40  O   UNL A   1      34.219  32.734  31.596  1.00  0.00    -0.269 OA
BRANCH  38  41
ATOM     41  C   UNL A   1      36.143  31.842  30.611  1.00  0.00     0.039 A 
ATOM     42  C   UNL A   1      36.340  30.737  31.452  1.00  0.00     0.014 A 
ATOM     43  C   UNL A   1      37.268  32.433  30.039  1.00  0.00     0.014 A 
ATOM     44  C   UNL A   1      37.624  30.205  31.673  1.00  0.00     0.010 A 
ATOM     45  C   UNL A   1      38.551  31.861  30.218  1.00  0.00     0.010 A 
ATOM     46  C   UNL A   1      38.756  30.733  31.031  1.00  0.00    -0.014 A 
BRANCH  46  47
ATOM     47  C   UNL A   1      40.114  30.103  31.222  1.00  0.00     0.031 A 
ATOM     48  C   UNL A   1      41.047  30.531  32.339  1.00  0.00     0.074 A 
ATOM     49  C   UNL A   1      40.538  29.126  30.387  1.00  0.00     0.049 A 
ATOM     50  N   UNL A   1      42.240  30.075  32.646  1.00  0.00    -0.248 NA
ATOM     51  C   UNL A   1      40.591  31.622  33.209  1.00  0.00     0.031 C 
ATOM     52  C   UNL A   1      39.790  28.619  29.235  1.00  0.00     0.029 A 
ATOM     53  N   UNL A   1      41.695  28.374  30.377  1.00  0.00    -0.354 N 
ATOM     54  C   UNL A   1      42.679  30.829  33.734  1.00  0.00     0.074 A 
ATOM     55  C   UNL A   1      41.645  31.811  33.989  1.00  0.00     0.031 C 
ATOM     56  C   UNL A   1      40.475  27.614  28.667  1.00  0.00     0.029 A 
ATOM     57  C   UNL A   1      41.743  27.434  29.368  1.00  0.00     0.049 A 
ATOM     58  H   UNL A   1      42.419  28.496  31.031  1.00  0.00     0.167 HD
ATOM     59  C   UNL A   1      43.814  30.704  34.472  1.00  0.00     0.034 A 
ATOM     60  C   UNL A   1      42.693  26.535  29.026  1.00  0.00     0.034 A 
ATOM     61  C   UNL A   1      44.839  29.712  34.241  1.00  0.00     0.049 A 
ATOM     62  C   UNL A   1      43.967  26.444  29.831  1.00  0.00     0.074 A 
ATOM     63  C   UNL A   1      45.981  29.466  34.988  1.00  0.00     0.029 A 
ATOM     64  N   UNL A   1      44.866  28.815  33.183  1.00  0.00    -0.354 N 
ATOM     65  N   UNL A   1      44.322  27.125  30.895  1.00  0.00    -0.248 NA
ATOM     66  C   UNL A   1      44.970  25.463  29.389  1.00  0.00     0.031 C 
ATOM     67  C   UNL A   1      46.736  28.484  34.339  1.00  0.00     0.029 A 
ATOM     68  C   UNL A   1      46.027  28.052  33.232  1.00  0.00     0.049 A 
ATOM     69  H   UNL A   1      44.165  28.730  32.497  1.00  0.00     0.167 HD
ATOM     70  C   UNL A   1      45.575  26.635  31.259  1.00  0.00     0.074 A 
ATOM     71  C   UNL A   1      45.906  25.589  30.318  1.00  0.00     0.031 C 
ATOM     72  C   UNL A   1      46.376  27.018  32.286  1.00  0.00     0.034 A 
BRANCH  59  73
ATOM     73  C   UNL A   1      44.026  31.683  35.607  1.00  0.00     0.023 A 
ATOM     74  C   UNL A   1      43.366  31.541  36.840  1.00  0.00     0.031 A 
ATOM     75  C   UNL A   1      44.909  32.770  35.458  1.00  0.00     0.131 A 
ATOM     76  C   UNL A   1      43.539  32.508  37.843  1.00  0.00     0.055 A 
ATOM     77  C   UNL A   1      45.144  33.679  36.493  1.00  0.00     0.041 A 
ATOM     78  F   UNL A   1      45.561  32.967  34.301  1.00  0.00    -0.206 F 
ATOM     79  C   UNL A   1      44.444  33.561  37.689  1.00  0.00     0.022 A 
BRANCH  76  80
ATOM     80  S   UNL A   1      42.452  32.450  39.295  1.00  0.00     0.124 S 
ATOM     81  O   UNL A   1      41.149  32.217  38.676  1.00  0.00    -0.237 OA
ATOM     82  O   UNL A   1      43.006  31.338  40.059  1.00  0.00    -0.237 OA
ATOM     83  O   UNL A   1      42.619  33.770  39.901  1.00  0.00    -0.744 OA
ENDBRANCH  76  80
ENDBRANCH  59  73
BRANCH  60  84
ATOM     84  C   UNL A   1      42.504  25.650  27.834  1.00  0.00     0.023 A 
ATOM     85  C   UNL A   1      42.010  24.341  27.965  1.00  0.00     0.031 A 
ATOM     86  C   UNL A   1      42.880  26.082  26.549  1.00  0.00     0.131 A 
ATOM     87  C   UNL A   1      41.950  23.498  26.844  1.00  0.00     0.055 A 
ATOM     88  C   UNL A   1      42.759  25.262  25.426  1.00  0.00     0.041 A 
ATOM     89  F   UNL A   1      43.369  27.319  26.364  1.00  0.00    -0.206 F 
ATOM     90  C   UNL A   1      42.304  23.955  25.573  1.00  0.00     0.022 A 
BRANCH  87  91
ATOM     91  S   UNL A   1      41.496  21.757  27.084  1.00  0.00     0.124 S 
ATOM     92  O   UNL A   1      40.123  21.872  27.564  1.00  0.00    -0.237 OA
ATOM     93  O   UNL A   1      41.664  21.210  25.742  1.00  0.00    -0.237 OA
ATOM     94  O   UNL A   1      42.465  21.286  28.071  1.00  0.00    -0.744 OA
ENDBRANCH  87  91
ENDBRANCH  60  84
BRANCH  72  95
ATOM     95  C   UNL A   1      47.684  26.282  32.466  1.00  0.00     0.023 A 
ATOM     96  C   UNL A   1      47.817  25.215  33.373  1.00  0.00     0.031 A 
ATOM     97  C   UNL A   1      48.816  26.650  31.715  1.00  0.00     0.131 A 
ATOM     98  C   UNL A   1      49.061  24.584  33.538  1.00  0.00     0.055 A 
ATOM     99  C   UNL A   1      50.035  25.980  31.840  1.00  0.00     0.041 A 
ATOM    100  F   UNL A   1      48.753  27.664  30.837  1.00  0.00    -0.206 F 
ATOM    101  C   UNL A   1      50.165  24.947  32.764  1.00  0.00     0.022 A 
BRANCH  98 102
ATOM    102  S   UNL A   1      49.240  23.328  34.836  1.00  0.00     0.124 S 
ATOM    103  O   UNL A   1      47.951  23.408  35.516  1.00  0.00    -0.237 OA
ATOM    104  O   UNL A   1      49.478  22.112  34.065  1.00  0.00    -0.237 OA
ATOM    105  O   UNL A   1      50.383  23.800  35.616  1.00  0.00    -0.744 OA
ENDBRANCH  98 102
ENDBRANCH  72  95
ENDBRANCH  46  47
ENDBRANCH  38  41
ENDBRANCH  36  37
ENDBRANCH  35  36
ENDBRANCH  34  35
ENDBRANCH  33  34
ENDBRANCH   1  33
TORSDOF 21
ENDMDL
MODEL 3
REMARK VINA RESULT:     -10.1      3.900      9.721
REMARK SMILES CCc1cc(=O)oc2c3c(cc(OCC(=O)NCC(=O)NCCCCCCNC(=O)c4ccc(-c5c6nc(c(-c7cc(S(=O)(=O)[O-])ccc7F)c7ccc([nH]7)c(-c7cc(S(=O)(=O)[O-])ccc7F)c7nc(c(-c8cc(S(=O)(=O)[O-])ccc8F)c8ccc5[nH]8)C=C7)C=C6)cc4)c12)OC(C)(C)CC3
REMARK SMILES IDX 23 1 22 2 21 3 19 4 20 5 18 7 17 8 15 9 16 10 14 12 13 13
REMARK SMILES IDX 12 14 3 15 4 16 94 17 5 18 8 19 6 20 7 21 9 22 11 23 10 24
REMARK SMILES IDX 100 25 95 26 99 27 96 28 97 29 98 30 2 31 1 32 24 33 25 34
REMARK SMILES IDX 26 35 27 36 28 37 29 38 30 40 31 41 32 42 93 43 33 44 92 45
REMARK SMILES IDX 34 46 35 47 36 48 86 49 37 50 91 51 85 52 87 53 38 54 90 55
REMARK SMILES IDX 84 56 83 57 39 59 71 60 51 61 70 62 52 63 55 64 69 65 88 66
REMARK SMILES IDX 53 67 54 68 68 70 89 71 56 72 40 73 41 74 49 75 42 76 48 77
REMARK SMILES IDX 50 78 47 79 43 80 44 81 45 82 46 83 72 84 73 85 81 86 74 87
REMARK SMILES IDX 80 88 82 89 79 90 75 91 76 92 77 93 78 94 57 95 58 96 66 97
REMARK SMILES IDX 59 98 65 99 67 100 64 101 60 102 61 103 62 104 63 105
REMARK H PARENT 21 6 17 11 28 39 87 58 55 69
REMARK Flexibility Score: inf
ROOT
ATOM      1  C   UNL A   1      30.561  29.349  22.460  1.00  0.00     0.021 C 
ENDROOT
BRANCH   1   2
ATOM      2  C   UNL A   1      30.227  27.859  22.413  1.00  0.00     0.116 C 
BRANCH   2   3
ATOM      3  N   UNL A   1      31.365  26.972  22.281  1.00  0.00    -0.355 N 
ATOM      4  C   UNL A   1      31.397  25.619  22.513  1.00  0.00     0.239 C 
ATOM      5  O   UNL A   1      32.360  24.975  22.092  1.00  0.00    -0.273 OA
ATOM      6  H   UNL A   1      32.210  27.386  21.991  1.00  0.00     0.163 HD
BRANCH   4   7
ATOM      7  C   UNL A   1      30.232  24.918  23.232  1.00  0.00     0.216 C 
BRANCH   7   8
ATOM      8  N   UNL A   1      30.261  25.119  24.670  1.00  0.00    -0.344 N 
ATOM      9  C   UNL A   1      30.685  24.260  25.639  1.00  0.00     0.258 C 
ATOM     10  O   UNL A   1      30.789  24.689  26.790  1.00  0.00    -0.271 OA
ATOM     11  H   UNL A   1      29.931  25.992  24.986  1.00  0.00     0.164 HD
BRANCH   9  12
ATOM     12  C   UNL A   1      31.054  22.806  25.289  1.00  0.00     0.329 C 
BRANCH  12  13
ATOM     13  O   UNL A   1      32.204  22.574  24.491  1.00  0.00    -0.483 OA
BRANCH  13  14
ATOM     14  C   UNL A   1      33.026  21.512  24.771  1.00  0.00     0.135 A 
ATOM     15  C   UNL A   1      35.113  23.086  24.803  1.00  0.00    -0.026 A 
ATOM     16  C   UNL A   1      36.458  23.101  24.850  1.00  0.00     0.098 A 
ATOM     17  C   UNL A   1      34.412  21.769  24.925  1.00  0.00     0.063 A 
ATOM     18  C   UNL A   1      37.301  21.918  25.005  1.00  0.00     0.336 A 
ATOM     19  C   UNL A   1      35.224  20.630  25.100  1.00  0.00     0.149 A 
ATOM     20  O   UNL A   1      38.517  21.991  24.913  1.00  0.00    -0.246 OA
ATOM     21  O   UNL A   1      36.632  20.737  25.220  1.00  0.00    -0.422 OA
ATOM     22  C   UNL A   1      34.741  19.304  25.046  1.00  0.00     0.038 A 
ATOM     23  C   UNL A   1      32.533  20.189  24.795  1.00  0.00     0.094 A 
ATOM     24  C   UNL A   1      33.389  19.095  24.844  1.00  0.00     0.130 A 
ATOM     25  C   UNL A   1      35.682  18.145  24.996  1.00  0.00     0.047 C 
ATOM     26  O   UNL A   1      32.817  17.871  24.612  1.00  0.00    -0.487 OA
ATOM     27  C   UNL A   1      34.967  16.816  25.116  1.00  0.00     0.053 C 
ATOM     28  C   UNL A   1      33.692  16.778  24.278  1.00  0.00     0.104 C 
ATOM     29  C   UNL A   1      32.944  15.477  24.603  1.00  0.00     0.056 C 
ATOM     30  C   UNL A   1      33.978  16.750  22.764  1.00  0.00     0.056 C 
BRANCH  15  31
ATOM     31  C   UNL A   1      34.436  24.428  24.600  1.00  0.00     0.033 C 
ATOM     32  C   UNL A   1      34.191  25.197  25.903  1.00  0.00     0.009 C 
ENDBRANCH  15  31
ENDBRANCH  13  14
ENDBRANCH  12  13
ENDBRANCH   9  12
ENDBRANCH   7   8
ENDBRANCH   4   7
ENDBRANCH   2   3
ENDBRANCH   1   2
BRANCH   1  33
ATOM     33  C   UNL A   1      29.871  30.219  23.519  1.00  0.00     0.002 C 
BRANCH  33  34
ATOM     34  C   UNL A   1      30.663  30.579  24.788  1.00  0.00     0.002 C 
BRANCH  34  35
ATOM     35  C   UNL A   1      31.823  29.695  25.320  1.00  0.00     0.021 C 
BRANCH  35  36
ATOM     36  C   UNL A   1      32.577  30.096  26.601  1.00  0.00     0.116 C 
BRANCH  36  37
ATOM     37  N   UNL A   1      32.683  31.543  26.749  1.00  0.00    -0.352 N 
ATOM     38  C   UNL A   1      33.538  32.391  27.412  1.00  0.00     0.251 C 
ATOM     39  H   UNL A   1      31.977  32.024  26.260  1.00  0.00     0.163 HD
ATOM     40  O   UNL A   1      33.230  33.586  27.434  1.00  0.00    -0.269 OA
BRANCH  38  41
ATOM     41  C   UNL A   1      34.789  31.977  28.106  1.00  0.00     0.039 A 
ATOM     42  C   UNL A   1      34.821  30.701  28.686  1.00  0.00     0.014 A 
ATOM     43  C   UNL A   1      35.852  32.838  28.367  1.00  0.00     0.014 A 
ATOM     44  C   UNL A   1      35.915  30.279  29.465  1.00  0.00     0.010 A 
ATOM     45  C   UNL A   1      36.976  32.391  29.103  1.00  0.00     0.010 A 
ATOM     46  C   UNL A   1      37.036  31.102  29.661  1.00  0.00    -0.014 A 
BRANCH  46  47
ATOM     47  C   UNL A   1      38.231  30.605  30.436  1.00  0.00     0.031 A 
ATOM     48  C   UNL A   1      38.509  31.056  31.858  1.00  0.00     0.074 A 
ATOM     49  C   UNL A   1      39.098  29.732  29.872  1.00  0.00     0.049 A 
ATOM     50  N   UNL A   1      39.485  30.708  32.665  1.00  0.00    -0.248 NA
ATOM     51  C   UNL A   1      37.585  32.037  32.440  1.00  0.00     0.031 C 
ATOM     52  C   UNL A   1      39.009  29.224  28.502  1.00  0.00     0.029 A 
ATOM     53  N   UNL A   1      40.219  29.106  30.377  1.00  0.00    -0.354 N 
ATOM     54  C   UNL A   1      39.298  31.432  33.842  1.00  0.00     0.074 A 
ATOM     55  C   UNL A   1      38.149  32.285  33.613  1.00  0.00     0.031 C 
ATOM     56  C   UNL A   1      39.992  28.333  28.294  1.00  0.00     0.029 A 
ATOM     57  C   UNL A   1      40.826  28.241  29.489  1.00  0.00     0.049 A 
ATOM     58  H   UNL A   1      40.555  29.260  31.289  1.00  0.00     0.167 HD
ATOM     59  C   UNL A   1      39.990  31.379  35.010  1.00  0.00     0.034 A 
ATOM     60  C   UNL A   1      41.929  27.469  29.603  1.00  0.00     0.034 A 
ATOM     61  C   UNL A   1      41.123  30.516  35.256  1.00  0.00     0.049 A 
ATOM     62  C   UNL A   1      42.711  27.460  30.894  1.00  0.00     0.074 A 
ATOM     63  C   UNL A   1      41.832  30.342  36.435  1.00  0.00     0.029 A 
ATOM     64  N   UNL A   1      41.727  29.694  34.315  1.00  0.00    -0.354 N 
ATOM     65  N   UNL A   1      42.469  28.106  32.011  1.00  0.00    -0.248 NA
ATOM     66  C   UNL A   1      43.916  26.617  30.941  1.00  0.00     0.031 C 
ATOM     67  C   UNL A   1      42.910  29.486  36.186  1.00  0.00     0.029 A 
ATOM     68  C   UNL A   1      42.827  29.054  34.874  1.00  0.00     0.049 A 
ATOM     69  H   UNL A   1      41.422  29.581  33.386  1.00  0.00     0.167 HD
ATOM     70  C   UNL A   1      43.477  27.725  32.895  1.00  0.00     0.074 A 
ATOM     71  C   UNL A   1      44.316  26.780  32.193  1.00  0.00     0.031 C 
ATOM     72  C   UNL A   1      43.683  28.124  34.176  1.00  0.00     0.034 A 
BRANCH  59  73
ATOM     73  C   UNL A   1      39.555  32.302  36.129  1.00  0.00     0.023 A 
ATOM     74  C   UNL A   1      40.164  33.552  36.336  1.00  0.00     0.031 A 
ATOM     75  C   UNL A   1      38.510  31.932  36.996  1.00  0.00     0.131 A 
ATOM     76  C   UNL A   1      39.777  34.350  37.424  1.00  0.00     0.055 A 
ATOM     77  C   UNL A   1      38.070  32.770  38.024  1.00  0.00     0.041 A 
ATOM     78  F   UNL A   1      37.895  30.746  36.858  1.00  0.00    -0.206 F 
ATOM     79  C   UNL A   1      38.715  33.980  38.254  1.00  0.00     0.022 A 
BRANCH  76  80
ATOM     80  S   UNL A   1      40.780  35.806  37.828  1.00  0.00     0.124 S 
ATOM     81  O   UNL A   1      41.797  35.762  36.780  1.00  0.00    -0.237 OA
ATOM     82  O   UNL A   1      39.811  36.892  37.735  1.00  0.00    -0.237 OA
ATOM     83  O   UNL A   1      41.272  35.521  39.175  1.00  0.00    -0.744 OA
ENDBRANCH  76  80
ENDBRANCH  59  73
BRANCH  60  84
ATOM     84  C   UNL A   1      42.399  26.646  28.444  1.00  0.00     0.023 A 
ATOM     85  C   UNL A   1      43.542  27.003  27.709  1.00  0.00     0.031 A 
ATOM     86  C   UNL A   1      41.669  25.522  28.015  1.00  0.00     0.131 A 
ATOM     87  C   UNL A   1      43.893  26.276  26.560  1.00  0.00     0.055 A 
ATOM     88  C   UNL A   1      42.057  24.764  26.909  1.00  0.00     0.041 A 
ATOM     89  F   UNL A   1      40.562  25.140  28.673  1.00  0.00    -0.206 F 
ATOM     90  C   UNL A   1      43.169  25.149  26.166  1.00  0.00     0.022 A 
BRANCH  87  91
ATOM     91  S   UNL A   1      45.254  26.883  25.524  1.00  0.00     0.124 S 
ATOM     92  O   UNL A   1      45.607  25.686  24.768  1.00  0.00    -0.237 OA
ATOM     93  O   UNL A   1      44.610  27.953  24.770  1.00  0.00    -0.237 OA
ATOM     94  O   UNL A   1      46.251  27.323  26.498  1.00  0.00    -0.744 OA
ENDBRANCH  87  91
ENDBRANCH  60  84
BRANCH  72  95
ATOM     95  C   UNL A   1      44.851  27.517  34.919  1.00  0.00     0.023 A 
ATOM     96  C   UNL A   1      44.784  26.232  35.487  1.00  0.00     0.031 A 
ATOM     97  C   UNL A   1      46.054  28.234  35.058  1.00  0.00     0.131 A 
ATOM     98  C   UNL A   1      45.879  25.722  36.203  1.00  0.00     0.055 A 
ATOM     99  C   UNL A   1      47.161  27.697  35.720  1.00  0.00     0.041 A 
ATOM    100  F   UNL A   1      46.179  29.467  34.542  1.00  0.00    -0.206 F 
ATOM    101  C   UNL A   1      47.073  26.438  36.306  1.00  0.00     0.022 A 
BRANCH  98 102
ATOM    102  S   UNL A   1      45.698  24.136  37.066  1.00  0.00     0.124 S 
ATOM    103  O   UNL A   1      46.982  23.496  36.799  1.00  0.00    -0.237 OA
ATOM    104  O   UNL A   1      45.470  24.553  38.446  1.00  0.00    -0.237 OA
ATOM    105  O   UNL A   1      44.548  23.516  36.410  1.00  0.00    -0.744 OA
ENDBRANCH  98 102
ENDBRANCH  72  95
ENDBRANCH  46  47
ENDBRANCH  38  41
ENDBRANCH  36  37
ENDBRANCH  35  36
ENDBRANCH  34  35
ENDBRANCH  33  34
ENDBRANCH   1  33
TORSDOF 21
ENDMDL
