MODEL 1
REMARK VINA RESULT:     -10.8      0.000      0.000
REMARK SMILES O=C(NCCCCCCNC(=O)[C@@H]1CC[C@@]2(CCN(C(=O)OCc3ccccc3)C2)C1)c1ccc(-c2c3nc(c(-c4cc(S(=O)(=O)[O-])ccc4F)c4ccc([nH]4)c(-c4cc(S(=O)(=O)[O-])ccc4F)c4nc(c(-c5cc(S(=O)(=O)[O-])ccc5F)c5ccc2[nH]5)C=C4)C=C3)cc1
REMARK SMILES IDX 7 1 6 2 5 3 4 4 3 5 1 6 2 7 32 9 33 10 94 11 34 12 93 13
REMARK SMILES IDX 35 14 36 15 37 16 87 17 38 18 92 19 86 20 88 21 39 22 91 23
REMARK SMILES IDX 85 24 84 25 40 27 72 28 52 29 71 30 53 31 56 32 70 33 89 34
REMARK SMILES IDX 54 35 55 36 69 38 90 39 57 40 41 41 42 42 50 43 43 44 49 45
REMARK SMILES IDX 51 46 48 47 44 48 45 49 46 50 47 51 73 52 74 53 82 54 75 55
REMARK SMILES IDX 81 56 83 57 80 58 76 59 77 60 78 61 79 62 58 63 59 64 67 65
REMARK SMILES IDX 60 66 66 67 68 68 65 69 61 70 62 71 63 72 64 73 8 74 9 75
REMARK SMILES IDX 10 76 11 77 12 79 13 80 14 81 31 82 15 83 16 84 17 85 30 86
REMARK SMILES IDX 18 87 19 88 20 89 21 90 22 91 23 92 24 93 25 94 29 95 26 96
REMARK SMILES IDX 28 97 27 98
REMARK H PARENT 3 8 88 26 56 37 10 78
REMARK Flexibility Score: inf
ROOT
ATOM      1  C   UNL A   1      36.156  21.895  25.572  1.00  0.00     0.002 C 
ENDROOT
BRANCH   1   2
ATOM      2  C   UNL A   1      36.617  20.490  25.167  1.00  0.00     0.002 C 
BRANCH   2   3
ATOM      3  C   UNL A   1      38.084  20.364  24.758  1.00  0.00     0.021 C 
BRANCH   3   4
ATOM      4  C   UNL A   1      39.103  20.568  25.869  1.00  0.00     0.116 C 
BRANCH   4   5
ATOM      5  N   UNL A   1      40.107  19.515  25.924  1.00  0.00    -0.352 N 
ATOM      6  O   UNL A   1      42.158  18.592  26.029  1.00  0.00    -0.269 OA
ATOM      7  C   UNL A   1      41.463  19.599  26.134  1.00  0.00     0.251 C 
ATOM      8  H   UNL A   1      39.761  18.603  25.793  1.00  0.00     0.163 HD
BRANCH   7   9
ATOM      9  C   UNL A   1      42.089  20.904  26.452  1.00  0.00     0.039 A 
ATOM     10  C   UNL A   1      42.446  21.232  27.760  1.00  0.00     0.014 A 
ATOM     11  C   UNL A   1      42.317  21.819  25.419  1.00  0.00     0.014 A 
ATOM     12  C   UNL A   1      42.855  22.526  28.061  1.00  0.00     0.010 A 
ATOM     13  C   UNL A   1      42.830  23.088  25.711  1.00  0.00     0.010 A 
ATOM     14  C   UNL A   1      43.060  23.469  27.042  1.00  0.00    -0.014 A 
BRANCH  14  15
ATOM     15  C   UNL A   1      43.538  24.832  27.403  1.00  0.00     0.031 A 
ATOM     16  C   UNL A   1      44.962  25.251  27.149  1.00  0.00     0.074 A 
ATOM     17  C   UNL A   1      42.655  25.713  27.914  1.00  0.00     0.049 A 
ATOM     18  N   UNL A   1      45.529  26.414  27.356  1.00  0.00    -0.248 NA
ATOM     19  C   UNL A   1      45.870  24.232  26.604  1.00  0.00     0.031 C 
ATOM     20  C   UNL A   1      41.250  25.418  28.213  1.00  0.00     0.029 A 
ATOM     21  N   UNL A   1      42.789  27.037  28.244  1.00  0.00    -0.354 N 
ATOM     22  C   UNL A   1      46.864  26.260  26.994  1.00  0.00     0.074 A 
ATOM     23  C   UNL A   1      47.026  24.880  26.584  1.00  0.00     0.031 C 
ATOM     24  C   UNL A   1      40.640  26.541  28.614  1.00  0.00     0.029 A 
ATOM     25  C   UNL A   1      41.619  27.618  28.674  1.00  0.00     0.049 A 
ATOM     26  H   UNL A   1      43.642  27.526  28.179  1.00  0.00     0.167 HD
ATOM     27  C   UNL A   1      47.858  27.186  26.996  1.00  0.00     0.034 A 
ATOM     28  C   UNL A   1      41.362  28.876  29.081  1.00  0.00     0.034 A 
ATOM     29  C   UNL A   1      47.674  28.562  27.395  1.00  0.00     0.049 A 
ATOM     30  C   UNL A   1      42.483  29.878  29.085  1.00  0.00     0.074 A 
ATOM     31  C   UNL A   1      48.602  29.590  27.402  1.00  0.00     0.029 A 
ATOM     32  N   UNL A   1      46.484  29.105  27.864  1.00  0.00    -0.354 N 
ATOM     33  N   UNL A   1      43.734  29.718  28.722  1.00  0.00    -0.248 NA
ATOM     34  C   UNL A   1      42.154  31.230  29.550  1.00  0.00     0.031 C 
ATOM     35  C   UNL A   1      47.992  30.733  27.933  1.00  0.00     0.029 A 
ATOM     36  C   UNL A   1      46.662  30.442  28.189  1.00  0.00     0.049 A 
ATOM     37  H   UNL A   1      45.636  28.611  27.953  1.00  0.00     0.167 HD
ATOM     38  C   UNL A   1      44.338  30.959  28.897  1.00  0.00     0.074 A 
ATOM     39  C   UNL A   1      43.306  31.859  29.374  1.00  0.00     0.031 C 
ATOM     40  C   UNL A   1      45.629  31.323  28.681  1.00  0.00     0.034 A 
BRANCH  27  41
ATOM     41  C   UNL A   1      49.241  26.723  26.600  1.00  0.00     0.023 A 
ATOM     42  C   UNL A   1      49.860  27.157  25.415  1.00  0.00     0.031 A 
ATOM     43  C   UNL A   1      49.941  25.809  27.409  1.00  0.00     0.131 A 
ATOM     44  C   UNL A   1      51.103  26.626  25.036  1.00  0.00     0.055 A 
ATOM     45  C   UNL A   1      51.212  25.343  27.066  1.00  0.00     0.041 A 
ATOM     46  F   UNL A   1      49.395  25.342  28.542  1.00  0.00    -0.206 F 
ATOM     47  C   UNL A   1      51.794  25.739  25.865  1.00  0.00     0.022 A 
BRANCH  44  48
ATOM     48  S   UNL A   1      51.736  26.997  23.377  1.00  0.00     0.124 S 
ATOM     49  O   UNL A   1      52.218  28.367  23.543  1.00  0.00    -0.237 OA
ATOM     50  O   UNL A   1      52.764  25.978  23.197  1.00  0.00    -0.237 OA
ATOM     51  O   UNL A   1      50.561  26.858  22.520  1.00  0.00    -0.744 OA
ENDBRANCH  44  48
ENDBRANCH  27  41
BRANCH  28  52
ATOM     52  C   UNL A   1      39.992  29.252  29.533  1.00  0.00     0.023 A 
ATOM     53  C   UNL A   1      39.668  29.301  30.897  1.00  0.00     0.031 A 
ATOM     54  C   UNL A   1      38.981  29.547  28.601  1.00  0.00     0.131 A 
ATOM     55  C   UNL A   1      38.354  29.601  31.291  1.00  0.00     0.055 A 
ATOM     56  C   UNL A   1      37.690  29.896  28.999  1.00  0.00     0.041 A 
ATOM     57  F   UNL A   1      39.241  29.520  27.285  1.00  0.00    -0.206 F 
ATOM     58  C   UNL A   1      37.368  29.913  30.353  1.00  0.00     0.022 A 
BRANCH  55  59
ATOM     59  S   UNL A   1      37.934  29.507  33.053  1.00  0.00     0.124 S 
ATOM     60  O   UNL A   1      39.247  29.629  33.678  1.00  0.00    -0.237 OA
ATOM     61  O   UNL A   1      37.039  30.647  33.212  1.00  0.00    -0.237 OA
ATOM     62  O   UNL A   1      37.300  28.197  33.181  1.00  0.00    -0.744 OA
ENDBRANCH  55  59
ENDBRANCH  28  52
BRANCH  40  63
ATOM     63  C   UNL A   1      45.971  32.772  28.926  1.00  0.00     0.023 A 
ATOM     64  C   UNL A   1      45.704  33.765  27.966  1.00  0.00     0.031 A 
ATOM     65  C   UNL A   1      46.609  33.157  30.117  1.00  0.00     0.131 A 
ATOM     66  C   UNL A   1      46.136  35.082  28.186  1.00  0.00     0.055 A 
ATOM     67  C   UNL A   1      46.981  34.480  30.357  1.00  0.00     0.041 A 
ATOM     68  F   UNL A   1      46.890  32.249  31.066  1.00  0.00    -0.206 F 
ATOM     69  C   UNL A   1      46.760  35.448  29.381  1.00  0.00     0.022 A 
BRANCH  66  70
ATOM     70  S   UNL A   1      45.973  36.287  26.840  1.00  0.00     0.124 S 
ATOM     71  O   UNL A   1      44.574  36.125  26.455  1.00  0.00    -0.237 OA
ATOM     72  O   UNL A   1      46.310  37.541  27.503  1.00  0.00    -0.237 OA
ATOM     73  O   UNL A   1      46.945  35.828  25.849  1.00  0.00    -0.744 OA
ENDBRANCH  66  70
ENDBRANCH  40  63
ENDBRANCH  14  15
ENDBRANCH   7   9
ENDBRANCH   4   5
ENDBRANCH   3   4
ENDBRANCH   2   3
ENDBRANCH   1   2
BRANCH   1  74
ATOM     74  C   UNL A   1      36.400  23.000  24.541  1.00  0.00     0.021 C 
BRANCH  74  75
ATOM     75  C   UNL A   1      35.135  23.569  23.915  1.00  0.00     0.116 C 
BRANCH  75  76
ATOM     76  N   UNL A   1      34.249  22.540  23.400  1.00  0.00    -0.356 N 
ATOM     77  C   UNL A   1      33.010  22.204  23.886  1.00  0.00     0.223 C 
ATOM     78  H   UNL A   1      34.571  22.031  22.622  1.00  0.00     0.163 HD
ATOM     79  O   UNL A   1      32.387  21.278  23.373  1.00  0.00    -0.275 OA
BRANCH  77  80
ATOM     80  C   UNL A   1      32.469  23.032  25.038  1.00  0.00     0.079 C 
ATOM     81  C   UNL A   1      31.231  22.480  25.732  1.00  0.00     0.014 C 
ATOM     82  C   UNL A   1      31.958  24.382  24.546  1.00  0.00     0.022 C 
ATOM     83  C   UNL A   1      30.747  23.679  26.552  1.00  0.00     0.010 C 
ATOM     84  C   UNL A   1      31.104  24.916  25.714  1.00  0.00    -0.009 C 
ATOM     85  C   UNL A   1      31.874  26.006  26.503  1.00  0.00     0.030 C 
ATOM     86  C   UNL A   1      29.907  25.705  25.185  1.00  0.00     0.130 C 
ATOM     87  C   UNL A   1      31.545  27.321  25.781  1.00  0.00     0.124 C 
ATOM     88  N   UNL A   1      30.538  26.948  24.801  1.00  0.00    -0.308 N 
BRANCH  88  89
ATOM     89  C   UNL A   1      30.487  27.414  23.506  1.00  0.00     0.410 C 
ATOM     90  O   UNL A   1      30.856  26.766  22.536  1.00  0.00    -0.224 OA
BRANCH  89  91
ATOM     91  O   UNL A   1      30.042  28.692  23.453  1.00  0.00    -0.445 OA
BRANCH  91  92
ATOM     92  C   UNL A   1      28.678  28.887  23.065  1.00  0.00     0.270 C 
BRANCH  92  93
ATOM     93  C   UNL A   1      28.518  30.280  22.501  1.00  0.00    -0.011 A 
ATOM     94  C   UNL A   1      28.703  31.405  23.318  1.00  0.00     0.007 A 
ATOM     95  C   UNL A   1      28.133  30.471  21.166  1.00  0.00     0.007 A 
ATOM     96  C   UNL A   1      28.497  32.690  22.816  1.00  0.00     0.000 A 
ATOM     97  C   UNL A   1      27.927  31.758  20.663  1.00  0.00     0.000 A 
ATOM     98  C   UNL A   1      28.099  32.865  21.491  1.00  0.00     0.000 A 
ENDBRANCH  92  93
ENDBRANCH  91  92
ENDBRANCH  89  91
ENDBRANCH  88  89
ENDBRANCH  77  80
ENDBRANCH  75  76
ENDBRANCH  74  75
ENDBRANCH   1  74
TORSDOF 20
ENDMDL
MODEL 2
REMARK VINA RESULT:     -10.8      1.581      7.780
REMARK SMILES O=C(NCCCCCCNC(=O)[C@@H]1CC[C@@]2(CCN(C(=O)OCc3ccccc3)C2)C1)c1ccc(-c2c3nc(c(-c4cc(S(=O)(=O)[O-])ccc4F)c4ccc([nH]4)c(-c4cc(S(=O)(=O)[O-])ccc4F)c4nc(c(-c5cc(S(=O)(=O)[O-])ccc5F)c5ccc2[nH]5)C=C4)C=C3)cc1
REMARK SMILES IDX 7 1 6 2 5 3 4 4 3 5 1 6 2 7 32 9 33 10 94 11 34 12 93 13
REMARK SMILES IDX 35 14 36 15 37 16 87 17 38 18 92 19 86 20 88 21 39 22 91 23
REMARK SMILES IDX 85 24 84 25 40 27 72 28 52 29 71 30 53 31 56 32 70 33 89 34
REMARK SMILES IDX 54 35 55 36 69 38 90 39 57 40 41 41 42 42 50 43 43 44 49 45
REMARK SMILES IDX 51 46 48 47 44 48 45 49 46 50 47 51 73 52 74 53 82 54 75 55
REMARK SMILES IDX 81 56 83 57 80 58 76 59 77 60 78 61 79 62 58 63 59 64 67 65
REMARK SMILES IDX 60 66 66 67 68 68 65 69 61 70 62 71 63 72 64 73 8 74 9 75
REMARK SMILES IDX 10 76 11 77 12 79 13 80 14 81 31 82 15 83 16 84 17 85 30 86
REMARK SMILES IDX 18 87 19 88 20 89 21 90 22 91 23 92 24 93 25 94 29 95 26 96
REMARK SMILES IDX 28 97 27 98
REMARK H PARENT 3 8 88 26 56 37 10 78
REMARK Flexibility Score: inf
ROOT
ATOM      1  C   UNL A   1      40.262  23.347  26.504  1.00  0.00     0.002 C 
ENDROOT
BRANCH   1   2
ATOM      2  C   UNL A   1      40.518  22.221  27.513  1.00  0.00     0.002 C 
BRANCH   2   3
ATOM      3  C   UNL A   1      40.583  20.810  26.932  1.00  0.00     0.021 C 
BRANCH   3   4
ATOM      4  C   UNL A   1      41.791  19.979  27.339  1.00  0.00     0.116 C 
BRANCH   4   5
ATOM      5  N   UNL A   1      42.544  19.470  26.202  1.00  0.00    -0.352 N 
ATOM      6  O   UNL A   1      43.887  19.527  24.396  1.00  0.00    -0.269 OA
ATOM      7  C   UNL A   1      43.441  20.110  25.380  1.00  0.00     0.251 C 
ATOM      8  H   UNL A   1      42.389  18.521  25.990  1.00  0.00     0.163 HD
BRANCH   7   9
ATOM      9  C   UNL A   1      43.842  21.509  25.659  1.00  0.00     0.039 A 
ATOM     10  C   UNL A   1      44.556  21.837  26.812  1.00  0.00     0.014 A 
ATOM     11  C   UNL A   1      43.489  22.512  24.751  1.00  0.00     0.014 A 
ATOM     12  C   UNL A   1      44.755  23.172  27.145  1.00  0.00     0.010 A 
ATOM     13  C   UNL A   1      43.785  23.850  25.039  1.00  0.00     0.010 A 
ATOM     14  C   UNL A   1      44.380  24.196  26.261  1.00  0.00    -0.014 A 
BRANCH  14  15
ATOM     15  C   UNL A   1      44.649  25.611  26.637  1.00  0.00     0.031 A 
ATOM     16  C   UNL A   1      43.588  26.459  27.287  1.00  0.00     0.074 A 
ATOM     17  C   UNL A   1      45.885  26.111  26.437  1.00  0.00     0.049 A 
ATOM     18  N   UNL A   1      43.669  27.692  27.724  1.00  0.00    -0.248 NA
ATOM     19  C   UNL A   1      42.261  25.851  27.459  1.00  0.00     0.031 C 
ATOM     20  C   UNL A   1      46.992  25.386  25.806  1.00  0.00     0.029 A 
ATOM     21  N   UNL A   1      46.432  27.324  26.766  1.00  0.00    -0.354 N 
ATOM     22  C   UNL A   1      42.401  28.016  28.196  1.00  0.00     0.074 A 
ATOM     23  C   UNL A   1      41.563  26.859  27.962  1.00  0.00     0.031 C 
ATOM     24  C   UNL A   1      48.098  26.141  25.857  1.00  0.00     0.029 A 
ATOM     25  C   UNL A   1      47.767  27.429  26.454  1.00  0.00     0.049 A 
ATOM     26  H   UNL A   1      45.918  28.052  27.186  1.00  0.00     0.167 HD
ATOM     27  C   UNL A   1      41.980  29.169  28.777  1.00  0.00     0.034 A 
ATOM     28  C   UNL A   1      48.630  28.449  26.619  1.00  0.00     0.034 A 
ATOM     29  C   UNL A   1      42.835  30.309  29.016  1.00  0.00     0.049 A 
ATOM     30  C   UNL A   1      48.135  29.719  27.255  1.00  0.00     0.074 A 
ATOM     31  C   UNL A   1      42.521  31.511  29.628  1.00  0.00     0.029 A 
ATOM     32  N   UNL A   1      44.173  30.394  28.649  1.00  0.00    -0.354 N 
ATOM     33  N   UNL A   1      46.936  30.000  27.711  1.00  0.00    -0.248 NA
ATOM     34  C   UNL A   1      49.110  30.805  27.400  1.00  0.00     0.031 C 
ATOM     35  C   UNL A   1      43.646  32.343  29.574  1.00  0.00     0.029 A 
ATOM     36  C   UNL A   1      44.688  31.635  28.995  1.00  0.00     0.049 A 
ATOM     37  H   UNL A   1      44.682  29.676  28.207  1.00  0.00     0.167 HD
ATOM     38  C   UNL A   1      47.022  31.294  28.217  1.00  0.00     0.074 A 
ATOM     39  C   UNL A   1      48.393  31.723  28.030  1.00  0.00     0.031 C 
ATOM     40  C   UNL A   1      46.053  32.057  28.786  1.00  0.00     0.034 A 
BRANCH  27  41
ATOM     41  C   UNL A   1      40.518  29.268  29.149  1.00  0.00     0.023 A 
ATOM     42  C   UNL A   1      40.082  29.185  30.483  1.00  0.00     0.031 A 
ATOM     43  C   UNL A   1      39.542  29.420  28.148  1.00  0.00     0.131 A 
ATOM     44  C   UNL A   1      38.709  29.181  30.774  1.00  0.00     0.055 A 
ATOM     45  C   UNL A   1      38.180  29.495  28.450  1.00  0.00     0.041 A 
ATOM     46  F   UNL A   1      39.893  29.486  26.854  1.00  0.00    -0.206 F 
ATOM     47  C   UNL A   1      37.755  29.359  29.769  1.00  0.00     0.022 A 
BRANCH  44  48
ATOM     48  S   UNL A   1      38.181  28.794  32.466  1.00  0.00     0.124 S 
ATOM     49  O   UNL A   1      36.754  29.106  32.411  1.00  0.00    -0.237 OA
ATOM     50  O   UNL A   1      38.519  27.380  32.586  1.00  0.00    -0.237 OA
ATOM     51  O   UNL A   1      38.978  29.699  33.291  1.00  0.00    -0.744 OA
ENDBRANCH  44  48
ENDBRANCH  27  41
BRANCH  28  52
ATOM     52  C   UNL A   1      50.042  28.318  26.162  1.00  0.00     0.023 A 
ATOM     53  C   UNL A   1      50.405  28.605  24.837  1.00  0.00     0.031 A 
ATOM     54  C   UNL A   1      51.048  27.881  27.043  1.00  0.00     0.131 A 
ATOM     55  C   UNL A   1      51.732  28.416  24.420  1.00  0.00     0.055 A 
ATOM     56  C   UNL A   1      52.376  27.745  26.638  1.00  0.00     0.041 A 
ATOM     57  F   UNL A   1      50.755  27.599  28.322  1.00  0.00    -0.206 F 
ATOM     58  C   UNL A   1      52.722  28.002  25.314  1.00  0.00     0.022 A 
BRANCH  55  59
ATOM     59  S   UNL A   1      52.132  28.651  22.668  1.00  0.00     0.124 S 
ATOM     60  O   UNL A   1      51.416  27.541  22.048  1.00  0.00    -0.237 OA
ATOM     61  O   UNL A   1      51.597  29.984  22.411  1.00  0.00    -0.237 OA
ATOM     62  O   UNL A   1      53.589  28.550  22.635  1.00  0.00    -0.744 OA
ENDBRANCH  55  59
ENDBRANCH  28  52
BRANCH  40  63
ATOM     63  C   UNL A   1      46.472  33.419  29.282  1.00  0.00     0.023 A 
ATOM     64  C   UNL A   1      46.398  34.558  28.460  1.00  0.00     0.031 A 
ATOM     65  C   UNL A   1      46.992  33.571  30.579  1.00  0.00     0.131 A 
ATOM     66  C   UNL A   1      46.899  35.784  28.921  1.00  0.00     0.055 A 
ATOM     67  C   UNL A   1      47.432  34.807  31.054  1.00  0.00     0.041 A 
ATOM     68  F   UNL A   1      47.087  32.516  31.404  1.00  0.00    -0.206 F 
ATOM     69  C   UNL A   1      47.403  35.919  30.217  1.00  0.00     0.022 A 
BRANCH  66  70
ATOM     70  S   UNL A   1      46.990  37.178  27.763  1.00  0.00     0.124 S 
ATOM     71  O   UNL A   1      46.096  36.742  26.694  1.00  0.00    -0.237 OA
ATOM     72  O   UNL A   1      46.515  38.291  28.577  1.00  0.00    -0.237 OA
ATOM     73  O   UNL A   1      48.405  37.233  27.402  1.00  0.00    -0.744 OA
ENDBRANCH  66  70
ENDBRANCH  40  63
ENDBRANCH  14  15
ENDBRANCH   7   9
ENDBRANCH   4   5
ENDBRANCH   3   4
ENDBRANCH   2   3
ENDBRANCH   1   2
BRANCH   1  74
ATOM     74  C   UNL A   1      38.871  23.984  26.555  1.00  0.00     0.021 C 
BRANCH  74  75
ATOM     75  C   UNL A   1      37.752  23.099  26.025  1.00  0.00     0.116 C 
BRANCH  75  76
ATOM     76  N   UNL A   1      37.584  23.204  24.586  1.00  0.00    -0.356 N 
ATOM     77  C   UNL A   1      36.406  23.125  23.888  1.00  0.00     0.223 C 
ATOM     78  H   UNL A   1      38.402  23.347  24.057  1.00  0.00     0.163 HD
ATOM     79  O   UNL A   1      36.419  23.189  22.661  1.00  0.00    -0.275 OA
BRANCH  77  80
ATOM     80  C   UNL A   1      35.129  22.979  24.697  1.00  0.00     0.079 C 
ATOM     81  C   UNL A   1      34.316  21.717  24.440  1.00  0.00     0.014 C 
ATOM     82  C   UNL A   1      34.123  24.062  24.326  1.00  0.00     0.022 C 
ATOM     83  C   UNL A   1      32.974  22.046  25.100  1.00  0.00     0.010 C 
ATOM     84  C   UNL A   1      32.786  23.558  24.908  1.00  0.00    -0.009 C 
ATOM     85  C   UNL A   1      32.435  24.317  26.213  1.00  0.00     0.030 C 
ATOM     86  C   UNL A   1      31.623  23.953  23.998  1.00  0.00     0.130 C 
ATOM     87  C   UNL A   1      31.660  25.559  25.750  1.00  0.00     0.124 C 
ATOM     88  N   UNL A   1      31.478  25.355  24.322  1.00  0.00    -0.308 N 
BRANCH  88  89
ATOM     89  C   UNL A   1      31.603  26.336  23.364  1.00  0.00     0.410 C 
ATOM     90  O   UNL A   1      32.121  26.154  22.270  1.00  0.00    -0.224 OA
BRANCH  89  91
ATOM     91  O   UNL A   1      31.142  27.529  23.807  1.00  0.00    -0.445 OA
BRANCH  91  92
ATOM     92  C   UNL A   1      31.041  28.582  22.843  1.00  0.00     0.270 C 
BRANCH  92  93
ATOM     93  C   UNL A   1      29.795  29.390  23.122  1.00  0.00    -0.011 A 
ATOM     94  C   UNL A   1      28.530  28.898  22.766  1.00  0.00     0.007 A 
ATOM     95  C   UNL A   1      29.884  30.668  23.696  1.00  0.00     0.007 A 
ATOM     96  C   UNL A   1      27.385  29.668  22.969  1.00  0.00     0.000 A 
ATOM     97  C   UNL A   1      28.737  31.438  23.898  1.00  0.00     0.000 A 
ATOM     98  C   UNL A   1      27.490  30.942  23.524  1.00  0.00     0.000 A 
ENDBRANCH  92  93
ENDBRANCH  91  92
ENDBRANCH  89  91
ENDBRANCH  88  89
ENDBRANCH  77  80
ENDBRANCH  75  76
ENDBRANCH  74  75
ENDBRANCH   1  74
TORSDOF 20
ENDMDL
MODEL 3
REMARK VINA RESULT:     -10.0      6.609     14.296
REMARK SMILES O=C(NCCCCCCNC(=O)[C@@H]1CC[C@@]2(CCN(C(=O)OCc3ccccc3)C2)C1)c1ccc(-c2c3nc(c(-c4cc(S(=O)(=O)[O-])ccc4F)c4ccc([nH]4)c(-c4cc(S(=O)(=O)[O-])ccc4F)c4nc(c(-c5cc(S(=O)(=O)[O-])ccc5F)c5ccc2[nH]5)C=C4)C=C3)cc1
REMARK SMILES IDX 7 1 6 2 5 3 4 4 3 5 1 6 2 7 32 9 33 10 94 11 34 12 93 13
REMARK SMILES IDX 35 14 36 15 37 16 87 17 38 18 92 19 86 20 88 21 39 22 91 23
REMARK SMILES IDX 85 24 84 25 40 27 72 28 52 29 71 30 53 31 56 32 70 33 89 34
REMARK SMILES IDX 54 35 55 36 69 38 90 39 57 40 41 41 42 42 50 43 43 44 49 45
REMARK SMILES IDX 51 46 48 47 44 48 45 49 46 50 47 51 73 52 74 53 82 54 75 55
REMARK SMILES IDX 81 56 83 57 80 58 76 59 77 60 78 61 79 62 58 63 59 64 67 65
REMARK SMILES IDX 60 66 66 67 68 68 65 69 61 70 62 71 63 72 64 73 8 74 9 75
REMARK SMILES IDX 10 76 11 77 12 79 13 80 14 81 31 82 15 83 16 84 17 85 30 86
REMARK SMILES IDX 18 87 19 88 20 89 21 90 22 91 23 92 24 93 25 94 29 95 26 96
REMARK SMILES IDX 28 97 27 98
REMARK H PARENT 3 8 88 26 56 37 10 78
REMARK Flexibility Score: inf
ROOT
ATOM      1  C   UNL A   1      47.936  37.916  25.425  1.00  0.00     0.002 C 
ENDROOT
BRANCH   1   2
ATOM      2  C   UNL A   1      49.048  38.335  26.395  1.00  0.00     0.002 C 
BRANCH   2   3
ATOM      3  C   UNL A   1      48.952  37.756  27.806  1.00  0.00     0.021 C 
BRANCH   3   4
ATOM      4  C   UNL A   1      47.595  37.195  28.203  1.00  0.00     0.116 C 
BRANCH   4   5
ATOM      5  N   UNL A   1      47.311  37.335  29.623  1.00  0.00    -0.352 N 
ATOM      6  O   UNL A   1      46.385  36.865  31.621  1.00  0.00    -0.269 OA
ATOM      7  C   UNL A   1      46.613  36.506  30.469  1.00  0.00     0.251 C 
ATOM      8  H   UNL A   1      47.676  38.147  30.043  1.00  0.00     0.163 HD
BRANCH   7   9
ATOM      9  C   UNL A   1      46.106  35.201  29.985  1.00  0.00     0.039 A 
ATOM     10  C   UNL A   1      45.478  35.087  28.744  1.00  0.00     0.014 A 
ATOM     11  C   UNL A   1      46.256  34.070  30.794  1.00  0.00     0.014 A 
ATOM     12  C   UNL A   1      44.845  33.900  28.396  1.00  0.00     0.010 A 
ATOM     13  C   UNL A   1      45.709  32.845  30.391  1.00  0.00     0.010 A 
ATOM     14  C   UNL A   1      44.959  32.761  29.209  1.00  0.00    -0.014 A 
BRANCH  14  15
ATOM     15  C   UNL A   1      44.300  31.496  28.779  1.00  0.00     0.031 A 
ATOM     16  C   UNL A   1      45.036  30.478  27.950  1.00  0.00     0.074 A 
ATOM     17  C   UNL A   1      43.042  31.248  29.194  1.00  0.00     0.049 A 
ATOM     18  N   UNL A   1      44.630  29.304  27.533  1.00  0.00    -0.248 NA
ATOM     19  C   UNL A   1      46.399  30.824  27.523  1.00  0.00     0.031 C 
ATOM     20  C   UNL A   1      42.224  32.167  29.993  1.00  0.00     0.029 A 
ATOM     21  N   UNL A   1      42.238  30.149  29.033  1.00  0.00    -0.354 N 
ATOM     22  C   UNL A   1      45.674  28.784  26.774  1.00  0.00     0.074 A 
ATOM     23  C   UNL A   1      46.719  29.786  26.764  1.00  0.00     0.031 C 
ATOM     24  C   UNL A   1      41.069  31.566  30.309  1.00  0.00     0.029 A 
ATOM     25  C   UNL A   1      41.028  30.254  29.677  1.00  0.00     0.049 A 
ATOM     26  H   UNL A   1      42.503  29.360  28.506  1.00  0.00     0.167 HD
ATOM     27  C   UNL A   1      45.754  27.579  26.151  1.00  0.00     0.034 A 
ATOM     28  C   UNL A   1      39.993  29.395  29.745  1.00  0.00     0.034 A 
ATOM     29  C   UNL A   1      44.707  26.585  26.184  1.00  0.00     0.049 A 
ATOM     30  C   UNL A   1      40.103  28.072  29.036  1.00  0.00     0.074 A 
ATOM     31  C   UNL A   1      44.698  25.321  25.619  1.00  0.00     0.029 A 
ATOM     32  N   UNL A   1      43.477  26.742  26.812  1.00  0.00    -0.354 N 
ATOM     33  N   UNL A   1      41.106  27.591  28.338  1.00  0.00    -0.248 NA
ATOM     34  C   UNL A   1      38.944  27.178  29.129  1.00  0.00     0.031 C 
ATOM     35  C   UNL A   1      43.444  24.742  25.850  1.00  0.00     0.029 A 
ATOM     36  C   UNL A   1      42.694  25.612  26.624  1.00  0.00     0.049 A 
ATOM     37  H   UNL A   1      43.201  27.541  27.318  1.00  0.00     0.167 HD
ATOM     38  C   UNL A   1      40.702  26.326  27.925  1.00  0.00     0.074 A 
ATOM     39  C   UNL A   1      39.377  26.113  28.474  1.00  0.00     0.031 C 
ATOM     40  C   UNL A   1      41.367  25.420  27.162  1.00  0.00     0.034 A 
BRANCH  27  41
ATOM     41  C   UNL A   1      46.999  27.296  25.342  1.00  0.00     0.023 A 
ATOM     42  C   UNL A   1      47.164  27.783  24.034  1.00  0.00     0.031 A 
ATOM     43  C   UNL A   1      48.028  26.501  25.881  1.00  0.00     0.131 A 
ATOM     44  C   UNL A   1      48.291  27.413  23.284  1.00  0.00     0.055 A 
ATOM     45  C   UNL A   1      49.184  26.200  25.157  1.00  0.00     0.041 A 
ATOM     46  F   UNL A   1      47.920  25.990  27.117  1.00  0.00    -0.206 F 
ATOM     47  C   UNL A   1      49.314  26.644  23.844  1.00  0.00     0.022 A 
BRANCH  44  48
ATOM     48  S   UNL A   1      48.333  27.829  21.518  1.00  0.00     0.124 S 
ATOM     49  O   UNL A   1      48.638  26.533  20.914  1.00  0.00    -0.237 OA
ATOM     50  O   UNL A   1      46.987  28.339  21.282  1.00  0.00    -0.237 OA
ATOM     51  O   UNL A   1      49.403  28.819  21.422  1.00  0.00    -0.744 OA
ENDBRANCH  44  48
ENDBRANCH  27  41
BRANCH  28  52
ATOM     52  C   UNL A   1      38.760  29.764  30.496  1.00  0.00     0.023 A 
ATOM     53  C   UNL A   1      37.805  30.630  29.941  1.00  0.00     0.031 A 
ATOM     54  C   UNL A   1      38.532  29.270  31.793  1.00  0.00     0.131 A 
ATOM     55  C   UNL A   1      36.683  31.006  30.696  1.00  0.00     0.055 A 
ATOM     56  C   UNL A   1      37.388  29.606  32.519  1.00  0.00     0.041 A 
ATOM     57  F   UNL A   1      39.410  28.434  32.367  1.00  0.00    -0.206 F 
ATOM     58  C   UNL A   1      36.461  30.489  31.975  1.00  0.00     0.022 A 
BRANCH  55  59
ATOM     59  S   UNL A   1      35.550  32.243  30.008  1.00  0.00     0.124 S 
ATOM     60  O   UNL A   1      36.477  33.271  29.545  1.00  0.00    -0.237 OA
ATOM     61  O   UNL A   1      34.866  31.482  28.969  1.00  0.00    -0.237 OA
ATOM     62  O   UNL A   1      34.721  32.618  31.151  1.00  0.00    -0.744 OA
ENDBRANCH  55  59
ENDBRANCH  28  52
BRANCH  40  63
ATOM     63  C   UNL A   1      40.673  24.102  26.920  1.00  0.00     0.023 A 
ATOM     64  C   UNL A   1      39.465  24.025  26.205  1.00  0.00     0.031 A 
ATOM     65  C   UNL A   1      41.208  22.914  27.450  1.00  0.00     0.131 A 
ATOM     66  C   UNL A   1      38.797  22.796  26.097  1.00  0.00     0.055 A 
ATOM     67  C   UNL A   1      40.569  21.685  27.285  1.00  0.00     0.041 A 
ATOM     68  F   UNL A   1      42.357  22.932  28.144  1.00  0.00    -0.206 F 
ATOM     69  C   UNL A   1      39.348  21.624  26.620  1.00  0.00     0.022 A 
BRANCH  66  70
ATOM     70  S   UNL A   1      37.139  22.770  25.360  1.00  0.00     0.124 S 
ATOM     71  O   UNL A   1      37.404  23.234  24.001  1.00  0.00    -0.237 OA
ATOM     72  O   UNL A   1      36.762  21.368  25.492  1.00  0.00    -0.237 OA
ATOM     73  O   UNL A   1      36.378  23.699  26.194  1.00  0.00    -0.744 OA
ENDBRANCH  66  70
ENDBRANCH  40  63
ENDBRANCH  14  15
ENDBRANCH   7   9
ENDBRANCH   4   5
ENDBRANCH   3   4
ENDBRANCH   2   3
ENDBRANCH   1   2
BRANCH   1  74
ATOM     74  C   UNL A   1      47.118  39.058  24.817  1.00  0.00     0.021 C 
BRANCH  74  75
ATOM     75  C   UNL A   1      46.634  40.092  25.823  1.00  0.00     0.116 C 
BRANCH  75  76
ATOM     76  N   UNL A   1      45.192  40.264  25.807  1.00  0.00    -0.356 N 
ATOM     77  C   UNL A   1      44.506  41.429  25.577  1.00  0.00     0.223 C 
ATOM     78  H   UNL A   1      44.652  39.459  25.979  1.00  0.00     0.163 HD
ATOM     79  O   UNL A   1      43.278  41.434  25.636  1.00  0.00    -0.275 OA
BRANCH  77  80
ATOM     80  C   UNL A   1      45.325  42.661  25.236  1.00  0.00     0.079 C 
ATOM     81  C   UNL A   1      44.935  43.943  25.958  1.00  0.00     0.014 C 
ATOM     82  C   UNL A   1      45.119  43.066  23.780  1.00  0.00     0.022 C 
ATOM     83  C   UNL A   1      45.668  45.018  25.149  1.00  0.00     0.010 C 
ATOM     84  C   UNL A   1      45.671  44.505  23.701  1.00  0.00    -0.009 C 
ATOM     85  C   UNL A   1      47.069  44.520  23.034  1.00  0.00     0.030 C 
ATOM     86  C   UNL A   1      44.850  45.339  22.719  1.00  0.00     0.130 C 
ATOM     87  C   UNL A   1      46.787  44.644  21.530  1.00  0.00     0.124 C 
ATOM     88  N   UNL A   1      45.350  44.853  21.452  1.00  0.00    -0.308 N 
BRANCH  88  89
ATOM     89  C   UNL A   1      44.518  44.273  20.521  1.00  0.00     0.410 C 
ATOM     90  O   UNL A   1      43.359  43.955  20.750  1.00  0.00    -0.224 OA
BRANCH  89  91
ATOM     91  O   UNL A   1      45.160  44.046  19.350  1.00  0.00    -0.445 OA
BRANCH  91  92
ATOM     92  C   UNL A   1      45.366  45.174  18.494  1.00  0.00     0.270 C 
BRANCH  92  93
ATOM     93  C   UNL A   1      44.077  45.487  17.771  1.00  0.00    -0.011 A 
ATOM     94  C   UNL A   1      43.471  44.528  16.946  1.00  0.00     0.007 A 
ATOM     95  C   UNL A   1      43.490  46.758  17.871  1.00  0.00     0.007 A 
ATOM     96  C   UNL A   1      42.314  44.835  16.230  1.00  0.00     0.000 A 
ATOM     97  C   UNL A   1      42.331  47.065  17.154  1.00  0.00     0.000 A 
ATOM     98  C   UNL A   1      41.751  46.106  16.326  1.00  0.00     0.000 A 
ENDBRANCH  92  93
ENDBRANCH  91  92
ENDBRANCH  89  91
ENDBRANCH  88  89
ENDBRANCH  77  80
ENDBRANCH  75  76
ENDBRANCH  74  75
ENDBRANCH   1  74
TORSDOF 20
ENDMDL
