MODEL 1
REMARK VINA RESULT:     -10.3      0.000      0.000
REMARK SMILES CCSc1nc(CC(=O)N[C@@H](C(=O)NCCCCCCNC(=O)c2ccc(-c3c4nc(c(-c5cc(S(=O)(=O)[O-])ccc5F)c5ccc([nH]5)c(-c5cc(S(=O)(=O)[O-])ccc5F)c5nc(c(-c6cc(S(=O)(=O)[O-])ccc6F)c6ccc3[nH]6)C=C5)C=C4)cc2)C2=C(C)N=N[C@@H]2C)cs1
REMARK SMILES IDX 16 1 15 2 14 3 12 4 13 5 11 7 10 8 8 9 9 10 7 12 6 13 4 14
REMARK SMILES IDX 5 15 95 16 94 17 3 18 2 19 1 20 87 21 88 22 92 23 89 24
REMARK SMILES IDX 90 25 91 26 93 27 17 28 18 29 19 30 20 31 21 32 22 33 23 35
REMARK SMILES IDX 24 36 25 37 86 38 26 39 85 40 27 41 28 42 29 43 79 44 30 45
REMARK SMILES IDX 84 46 78 47 80 48 31 49 83 50 77 51 76 52 32 54 64 55 44 56
REMARK SMILES IDX 63 57 45 58 48 59 62 60 81 61 46 62 47 63 61 65 82 66 49 67
REMARK SMILES IDX 33 68 34 69 42 70 35 71 41 72 43 73 40 74 36 75 37 76 38 77
REMARK SMILES IDX 39 78 65 79 66 80 74 81 67 82 73 83 75 84 72 85 68 86 69 87
REMARK SMILES IDX 70 88 71 89 50 90 51 91 59 92 52 93 58 94 60 95 57 96 53 97
REMARK SMILES IDX 54 98 55 99 56 100
REMARK H PARENT 14 6 10 11 21 34 80 53 48 64
REMARK Flexibility Score: inf
ROOT
ATOM      1  C   UNL A   1      37.388  23.695  25.447  1.00  0.00     0.021 C 
ENDROOT
BRANCH   1   2
ATOM      2  C   UNL A   1      35.916  23.619  25.821  1.00  0.00     0.116 C 
BRANCH   2   3
ATOM      3  N   UNL A   1      35.019  23.575  24.691  1.00  0.00    -0.354 N 
ATOM      4  C   UNL A   1      33.804  24.187  24.539  1.00  0.00     0.247 C 
ATOM      5  O   UNL A   1      33.529  24.507  23.375  1.00  0.00    -0.272 OA
ATOM      6  H   UNL A   1      35.321  23.032  23.926  1.00  0.00     0.163 HD
BRANCH   4   7
ATOM      7  C   UNL A   1      32.834  24.531  25.745  1.00  0.00     0.202 C 
BRANCH   7   8
ATOM      8  N   UNL A   1      31.711  23.607  25.894  1.00  0.00    -0.340 N 
ATOM      9  C   UNL A   1      31.678  22.242  25.856  1.00  0.00     0.226 C 
ATOM     10  O   UNL A   1      30.565  21.708  25.836  1.00  0.00    -0.275 OA
ATOM     11  H   UNL A   1      30.838  24.038  26.044  1.00  0.00     0.164 HD
BRANCH   9  12
ATOM     12  C   UNL A   1      32.940  21.398  25.844  1.00  0.00     0.157 C 
BRANCH  12  13
ATOM     13  C   UNL A   1      32.975  20.328  24.803  1.00  0.00     0.062 A 
ATOM     14  C   UNL A   1      33.582  18.307  24.092  1.00  0.00     0.150 A 
ATOM     15  N   UNL A   1      33.764  19.208  25.033  1.00  0.00    -0.234 NA
ATOM     16  S   UNL A   1      32.489  18.764  22.858  1.00  0.00    -0.116 S 
ATOM     17  C   UNL A   1      32.245  20.275  23.631  1.00  0.00     0.092 A 
BRANCH  14  18
ATOM     18  S   UNL A   1      34.338  16.738  24.250  1.00  0.00    -0.096 SA
BRANCH  18  19
ATOM     19  C   UNL A   1      33.585  16.018  25.734  1.00  0.00     0.074 C 
ATOM     20  C   UNL A   1      32.538  14.961  25.418  1.00  0.00     0.016 C 
ENDBRANCH  18  19
ENDBRANCH  14  18
ENDBRANCH  12  13
ENDBRANCH   9  12
ENDBRANCH   7   8
BRANCH   7  21
ATOM     21  C   UNL A   1      32.228  25.911  25.619  1.00  0.00     0.011 C 
ATOM     22  C   UNL A   1      31.199  26.344  24.875  1.00  0.00     0.064 C 
ATOM     23  C   UNL A   1      32.636  27.115  26.416  1.00  0.00     0.156 C 
ATOM     24  C   UNL A   1      30.354  25.610  23.896  1.00  0.00     0.069 C 
ATOM     25  N   UNL A   1      30.907  27.668  25.085  1.00  0.00    -0.160 NA
ATOM     26  N   UNL A   1      31.677  28.157  25.950  1.00  0.00    -0.181 NA
ATOM     27  C   UNL A   1      34.043  27.629  26.143  1.00  0.00     0.040 C 
ENDBRANCH   7  21
ENDBRANCH   4   7
ENDBRANCH   2   3
ENDBRANCH   1   2
BRANCH   1  28
ATOM     28  C   UNL A   1      38.183  22.423  25.744  1.00  0.00     0.002 C 
BRANCH  28  29
ATOM     29  C   UNL A   1      37.788  21.193  24.917  1.00  0.00     0.002 C 
BRANCH  29  30
ATOM     30  C   UNL A   1      38.690  19.966  25.084  1.00  0.00     0.021 C 
BRANCH  30  31
ATOM     31  C   UNL A   1      39.548  19.955  26.345  1.00  0.00     0.116 C 
BRANCH  31  32
ATOM     32  N   UNL A   1      40.848  19.350  26.116  1.00  0.00    -0.352 N 
ATOM     33  C   UNL A   1      42.086  19.936  26.030  1.00  0.00     0.251 C 
ATOM     34  H   UNL A   1      40.839  18.371  26.006  1.00  0.00     0.163 HD
ATOM     35  O   UNL A   1      43.038  19.276  25.627  1.00  0.00    -0.269 OA
BRANCH  33  36
ATOM     36  C   UNL A   1      42.264  21.358  26.400  1.00  0.00     0.039 A 
ATOM     37  C   UNL A   1      42.427  21.687  27.748  1.00  0.00     0.014 A 
ATOM     38  C   UNL A   1      42.253  22.366  25.432  1.00  0.00     0.014 A 
ATOM     39  C   UNL A   1      42.636  23.018  28.118  1.00  0.00     0.010 A 
ATOM     40  C   UNL A   1      42.540  23.681  25.793  1.00  0.00     0.010 A 
ATOM     41  C   UNL A   1      42.729  24.023  27.141  1.00  0.00    -0.014 A 
BRANCH  41  42
ATOM     42  C   UNL A   1      43.016  25.434  27.513  1.00  0.00     0.031 A 
ATOM     43  C   UNL A   1      44.415  25.976  27.395  1.00  0.00     0.074 A 
ATOM     44  C   UNL A   1      42.027  26.207  28.005  1.00  0.00     0.049 A 
ATOM     45  N   UNL A   1      44.877  27.153  27.732  1.00  0.00    -0.248 NA
ATOM     46  C   UNL A   1      45.435  25.064  26.855  1.00  0.00     0.031 C 
ATOM     47  C   UNL A   1      40.639  25.782  28.198  1.00  0.00     0.029 A 
ATOM     48  N   UNL A   1      42.036  27.510  28.437  1.00  0.00    -0.354 N 
ATOM     49  C   UNL A   1      46.240  27.121  27.455  1.00  0.00     0.074 A 
ATOM     50  C   UNL A   1      46.538  25.786  26.984  1.00  0.00     0.031 C 
ATOM     51  C   UNL A   1      39.927  26.811  28.684  1.00  0.00     0.029 A 
ATOM     52  C   UNL A   1      40.813  27.952  28.889  1.00  0.00     0.049 A 
ATOM     53  H   UNL A   1      42.841  28.077  28.427  1.00  0.00     0.167 HD
ATOM     54  C   UNL A   1      47.153  28.118  27.565  1.00  0.00     0.034 A 
ATOM     55  C   UNL A   1      40.449  29.136  29.422  1.00  0.00     0.034 A 
ATOM     56  C   UNL A   1      46.834  29.447  28.027  1.00  0.00     0.049 A 
ATOM     57  C   UNL A   1      41.489  30.220  29.564  1.00  0.00     0.074 A 
ATOM     58  C   UNL A   1      47.668  30.548  28.123  1.00  0.00     0.029 A 
ATOM     59  N   UNL A   1      45.586  29.857  28.481  1.00  0.00    -0.354 N 
ATOM     60  N   UNL A   1      42.764  30.188  29.247  1.00  0.00    -0.248 NA
ATOM     61  C   UNL A   1      41.040  31.501  30.123  1.00  0.00     0.031 C 
ATOM     62  C   UNL A   1      46.948  31.594  28.707  1.00  0.00     0.029 A 
ATOM     63  C   UNL A   1      45.640  31.180  28.893  1.00  0.00     0.049 A 
ATOM     64  H   UNL A   1      44.781  29.289  28.506  1.00  0.00     0.167 HD
ATOM     65  C   UNL A   1      43.258  31.457  29.537  1.00  0.00     0.074 A 
ATOM     66  C   UNL A   1      42.142  32.232  30.037  1.00  0.00     0.031 C 
ATOM     67  C   UNL A   1      44.520  31.940  29.400  1.00  0.00     0.034 A 
BRANCH  54  68
ATOM     68  C   UNL A   1      48.585  27.799  27.204  1.00  0.00     0.023 A 
ATOM     69  C   UNL A   1      49.136  28.158  25.962  1.00  0.00     0.031 A 
ATOM     70  C   UNL A   1      49.411  27.113  28.113  1.00  0.00     0.131 A 
ATOM     71  C   UNL A   1      50.444  27.770  25.635  1.00  0.00     0.055 A 
ATOM     72  C   UNL A   1      50.740  26.804  27.815  1.00  0.00     0.041 A 
ATOM     73  F   UNL A   1      48.936  26.722  29.307  1.00  0.00    -0.206 F 
ATOM     74  C   UNL A   1      51.259  27.120  26.563  1.00  0.00     0.022 A 
BRANCH  71  75
ATOM     75  S   UNL A   1      51.015  28.002  23.929  1.00  0.00     0.124 S 
ATOM     76  O   UNL A   1      51.582  29.347  23.988  1.00  0.00    -0.237 OA
ATOM     77  O   UNL A   1      51.970  26.912  23.764  1.00  0.00    -0.237 OA
ATOM     78  O   UNL A   1      49.790  27.884  23.139  1.00  0.00    -0.744 OA
ENDBRANCH  71  75
ENDBRANCH  54  68
BRANCH  55  79
ATOM     79  C   UNL A   1      39.047  29.362  29.882  1.00  0.00     0.023 A 
ATOM     80  C   UNL A   1      38.144  30.114  29.113  1.00  0.00     0.031 A 
ATOM     81  C   UNL A   1      38.604  28.874  31.125  1.00  0.00     0.131 A 
ATOM     82  C   UNL A   1      36.866  30.403  29.618  1.00  0.00     0.055 A 
ATOM     83  C   UNL A   1      37.311  29.110  31.594  1.00  0.00     0.041 A 
ATOM     84  F   UNL A   1      39.424  28.146  31.901  1.00  0.00    -0.206 F 
ATOM     85  C   UNL A   1      36.438  29.893  30.846  1.00  0.00     0.022 A 
BRANCH  82  86
ATOM     86  S   UNL A   1      35.804  31.544  28.690  1.00  0.00     0.124 S 
ATOM     87  O   UNL A   1      36.746  32.597  28.329  1.00  0.00    -0.237 OA
ATOM     88  O   UNL A   1      35.335  30.700  27.597  1.00  0.00    -0.237 OA
ATOM     89  O   UNL A   1      34.783  31.925  29.664  1.00  0.00    -0.744 OA
ENDBRANCH  82  86
ENDBRANCH  55  79
BRANCH  67  90
ATOM     90  C   UNL A   1      44.744  33.392  29.750  1.00  0.00     0.023 A 
ATOM     91  C   UNL A   1      44.546  34.421  28.813  1.00  0.00     0.031 A 
ATOM     92  C   UNL A   1      45.171  33.749  31.042  1.00  0.00     0.131 A 
ATOM     93  C   UNL A   1      44.831  35.749  29.163  1.00  0.00     0.055 A 
ATOM     94  C   UNL A   1      45.386  35.078  31.405  1.00  0.00     0.041 A 
ATOM     95  F   UNL A   1      45.381  32.808  31.977  1.00  0.00    -0.206 F 
ATOM     96  C   UNL A   1      45.231  36.086  30.458  1.00  0.00     0.022 A 
BRANCH  93  97
ATOM     97  S   UNL A   1      44.771  37.023  27.872  1.00  0.00     0.124 S 
ATOM     98  O   UNL A   1      43.334  37.221  27.711  1.00  0.00    -0.237 OA
ATOM     99  O   UNL A   1      45.501  38.126  28.488  1.00  0.00    -0.237 OA
ATOM    100  O   UNL A   1      45.442  36.392  26.737  1.00  0.00    -0.744 OA
ENDBRANCH  93  97
ENDBRANCH  67  90
ENDBRANCH  41  42
ENDBRANCH  33  36
ENDBRANCH  31  32
ENDBRANCH  30  31
ENDBRANCH  29  30
ENDBRANCH  28  29
ENDBRANCH   1  28
TORSDOF 22
ENDMDL
MODEL 2
REMARK VINA RESULT:     -10.2      3.053      8.569
REMARK SMILES CCSc1nc(CC(=O)N[C@@H](C(=O)NCCCCCCNC(=O)c2ccc(-c3c4nc(c(-c5cc(S(=O)(=O)[O-])ccc5F)c5ccc([nH]5)c(-c5cc(S(=O)(=O)[O-])ccc5F)c5nc(c(-c6cc(S(=O)(=O)[O-])ccc6F)c6ccc3[nH]6)C=C5)C=C4)cc2)C2=C(C)N=N[C@@H]2C)cs1
REMARK SMILES IDX 16 1 15 2 14 3 12 4 13 5 11 7 10 8 8 9 9 10 7 12 6 13 4 14
REMARK SMILES IDX 5 15 95 16 94 17 3 18 2 19 1 20 87 21 88 22 92 23 89 24
REMARK SMILES IDX 90 25 91 26 93 27 17 28 18 29 19 30 20 31 21 32 22 33 23 35
REMARK SMILES IDX 24 36 25 37 86 38 26 39 85 40 27 41 28 42 29 43 79 44 30 45
REMARK SMILES IDX 84 46 78 47 80 48 31 49 83 50 77 51 76 52 32 54 64 55 44 56
REMARK SMILES IDX 63 57 45 58 48 59 62 60 81 61 46 62 47 63 61 65 82 66 49 67
REMARK SMILES IDX 33 68 34 69 42 70 35 71 41 72 43 73 40 74 36 75 37 76 38 77
REMARK SMILES IDX 39 78 65 79 66 80 74 81 67 82 73 83 75 84 72 85 68 86 69 87
REMARK SMILES IDX 70 88 71 89 50 90 51 91 59 92 52 93 58 94 60 95 57 96 53 97
REMARK SMILES IDX 54 98 55 99 56 100
REMARK H PARENT 14 6 10 11 21 34 80 53 48 64
REMARK Flexibility Score: inf
ROOT
ATOM      1  C   UNL A   1      38.491  23.507  25.965  1.00  0.00     0.021 C 
ENDROOT
BRANCH   1   2
ATOM      2  C   UNL A   1      37.004  23.810  25.873  1.00  0.00     0.116 C 
BRANCH   2   3
ATOM      3  N   UNL A   1      36.157  22.816  26.489  1.00  0.00    -0.354 N 
ATOM      4  C   UNL A   1      34.832  22.563  26.263  1.00  0.00     0.247 C 
ATOM      5  O   UNL A   1      34.499  21.380  26.410  1.00  0.00    -0.272 OA
ATOM      6  H   UNL A   1      36.592  22.243  27.162  1.00  0.00     0.163 HD
BRANCH   4   7
ATOM      7  C   UNL A   1      33.793  23.662  25.786  1.00  0.00     0.202 C 
BRANCH   7   8
ATOM      8  N   UNL A   1      32.426  23.438  26.253  1.00  0.00    -0.340 N 
ATOM      9  C   UNL A   1      31.458  24.330  26.619  1.00  0.00     0.226 C 
ATOM     10  O   UNL A   1      30.440  23.869  27.146  1.00  0.00    -0.275 OA
ATOM     11  H   UNL A   1      32.161  22.491  26.315  1.00  0.00     0.164 HD
BRANCH   9  12
ATOM     12  C   UNL A   1      31.603  25.824  26.395  1.00  0.00     0.157 C 
BRANCH  12  13
ATOM     13  C   UNL A   1      30.648  26.410  25.408  1.00  0.00     0.062 A 
ATOM     14  C   UNL A   1      30.100  27.939  23.884  1.00  0.00     0.150 A 
ATOM     15  N   UNL A   1      30.970  27.627  24.821  1.00  0.00    -0.234 NA
ATOM     16  S   UNL A   1      28.826  26.815  23.682  1.00  0.00    -0.116 S 
ATOM     17  C   UNL A   1      29.478  25.846  24.937  1.00  0.00     0.092 A 
BRANCH  14  18
ATOM     18  S   UNL A   1      30.383  29.344  22.883  1.00  0.00    -0.096 SA
BRANCH  18  19
ATOM     19  C   UNL A   1      29.243  30.598  23.528  1.00  0.00     0.074 C 
ATOM     20  C   UNL A   1      27.810  30.399  23.058  1.00  0.00     0.016 C 
ENDBRANCH  18  19
ENDBRANCH  14  18
ENDBRANCH  12  13
ENDBRANCH   9  12
ENDBRANCH   7   8
BRANCH   7  21
ATOM     21  C   UNL A   1      33.711  23.760  24.279  1.00  0.00     0.011 C 
ATOM     22  C   UNL A   1      33.804  24.827  23.472  1.00  0.00     0.064 C 
ATOM     23  C   UNL A   1      33.585  22.599  23.339  1.00  0.00     0.156 C 
ATOM     24  C   UNL A   1      33.969  26.266  23.807  1.00  0.00     0.069 C 
ATOM     25  N   UNL A   1      33.741  24.498  22.141  1.00  0.00    -0.160 NA
ATOM     26  N   UNL A   1      33.627  23.254  22.000  1.00  0.00    -0.181 NA
ATOM     27  C   UNL A   1      32.277  21.824  23.432  1.00  0.00     0.040 C 
ENDBRANCH   7  21
ENDBRANCH   4   7
ENDBRANCH   2   3
ENDBRANCH   1   2
BRANCH   1  28
ATOM     28  C   UNL A   1      39.253  24.378  26.964  1.00  0.00     0.002 C 
BRANCH  28  29
ATOM     29  C   UNL A   1      40.378  23.672  27.730  1.00  0.00     0.002 C 
BRANCH  29  30
ATOM     30  C   UNL A   1      40.631  22.213  27.340  1.00  0.00     0.021 C 
BRANCH  30  31
ATOM     31  C   UNL A   1      42.088  21.766  27.397  1.00  0.00     0.116 C 
BRANCH  31  32
ATOM     32  N   UNL A   1      42.705  21.747  26.082  1.00  0.00    -0.352 N 
ATOM     33  C   UNL A   1      43.206  22.782  25.333  1.00  0.00     0.251 C 
ATOM     34  H   UNL A   1      42.775  20.857  25.667  1.00  0.00     0.163 HD
ATOM     35  O   UNL A   1      43.500  22.587  24.158  1.00  0.00    -0.269 OA
BRANCH  33  36
ATOM     36  C   UNL A   1      43.367  24.126  25.932  1.00  0.00     0.039 A 
ATOM     37  C   UNL A   1      42.877  25.234  25.237  1.00  0.00     0.014 A 
ATOM     38  C   UNL A   1      44.011  24.300  27.160  1.00  0.00     0.014 A 
ATOM     39  C   UNL A   1      42.981  26.508  25.800  1.00  0.00     0.010 A 
ATOM     40  C   UNL A   1      44.044  25.559  27.756  1.00  0.00     0.010 A 
ATOM     41  C   UNL A   1      43.535  26.679  27.080  1.00  0.00    -0.014 A 
BRANCH  41  42
ATOM     42  C   UNL A   1      43.593  28.020  27.720  1.00  0.00     0.031 A 
ATOM     43  C   UNL A   1      42.349  28.633  28.305  1.00  0.00     0.074 A 
ATOM     44  C   UNL A   1      44.754  28.704  27.729  1.00  0.00     0.049 A 
ATOM     45  N   UNL A   1      42.182  29.814  28.844  1.00  0.00    -0.248 NA
ATOM     46  C   UNL A   1      41.123  27.821  28.249  1.00  0.00     0.031 C 
ATOM     47  C   UNL A   1      46.019  28.229  27.163  1.00  0.00     0.029 A 
ATOM     48  N   UNL A   1      45.063  29.947  28.225  1.00  0.00    -0.354 N 
ATOM     49  C   UNL A   1      40.835  29.892  29.181  1.00  0.00     0.074 A 
ATOM     50  C   UNL A   1      40.219  28.664  28.727  1.00  0.00     0.031 C 
ATOM     51  C   UNL A   1      46.969  29.155  27.366  1.00  0.00     0.029 A 
ATOM     52  C   UNL A   1      46.375  30.312  28.028  1.00  0.00     0.049 A 
ATOM     53  H   UNL A   1      44.407  30.524  28.679  1.00  0.00     0.167 HD
ATOM     54  C   UNL A   1      40.178  30.887  29.828  1.00  0.00     0.034 A 
ATOM     55  C   UNL A   1      47.024  31.454  28.332  1.00  0.00     0.034 A 
ATOM     56  C   UNL A   1      40.812  32.100  30.282  1.00  0.00     0.049 A 
ATOM     57  C   UNL A   1      46.264  32.560  29.022  1.00  0.00     0.074 A 
ATOM     58  C   UNL A   1      40.255  33.147  30.997  1.00  0.00     0.029 A 
ATOM     59  N   UNL A   1      42.142  32.438  30.061  1.00  0.00    -0.354 N 
ATOM     60  N   UNL A   1      45.001  32.594  29.382  1.00  0.00    -0.248 NA
ATOM     61  C   UNL A   1      47.019  33.773  29.359  1.00  0.00     0.031 C 
ATOM     62  C   UNL A   1      41.221  34.148  31.136  1.00  0.00     0.029 A 
ATOM     63  C   UNL A   1      42.410  33.692  30.591  1.00  0.00     0.049 A 
ATOM     64  H   UNL A   1      42.798  31.870  29.595  1.00  0.00     0.167 HD
ATOM     65  C   UNL A   1      44.822  33.821  30.018  1.00  0.00     0.074 A 
ATOM     66  C   UNL A   1      46.108  34.485  30.006  1.00  0.00     0.031 C 
ATOM     67  C   UNL A   1      43.696  34.349  30.564  1.00  0.00     0.034 A 
BRANCH  54  68
ATOM     68  C   UNL A   1      38.695  30.714  30.055  1.00  0.00     0.023 A 
ATOM     69  C   UNL A   1      37.741  31.232  29.161  1.00  0.00     0.031 A 
ATOM     70  C   UNL A   1      38.224  30.031  31.191  1.00  0.00     0.131 A 
ATOM     71  C   UNL A   1      36.373  31.121  29.452  1.00  0.00     0.055 A 
ATOM     72  C   UNL A   1      36.861  29.850  31.432  1.00  0.00     0.041 A 
ATOM     73  F   UNL A   1      39.085  29.534  32.095  1.00  0.00    -0.206 F 
ATOM     74  C   UNL A   1      35.925  30.409  30.567  1.00  0.00     0.022 A 
BRANCH  71  75
ATOM     75  S   UNL A   1      35.193  32.043  28.429  1.00  0.00     0.124 S 
ATOM     76  O   UNL A   1      34.584  30.971  27.643  1.00  0.00    -0.237 OA
ATOM     77  O   UNL A   1      34.334  32.673  29.425  1.00  0.00    -0.237 OA
ATOM     78  O   UNL A   1      36.041  32.958  27.667  1.00  0.00    -0.744 OA
ENDBRANCH  71  75
ENDBRANCH  54  68
BRANCH  55  79
ATOM     79  C   UNL A   1      48.463  31.629  27.973  1.00  0.00     0.023 A 
ATOM     80  C   UNL A   1      49.479  31.040  28.743  1.00  0.00     0.031 A 
ATOM     81  C   UNL A   1      48.845  32.431  26.882  1.00  0.00     0.131 A 
ATOM     82  C   UNL A   1      50.825  31.308  28.448  1.00  0.00     0.055 A 
ATOM     83  C   UNL A   1      50.186  32.643  26.555  1.00  0.00     0.041 A 
ATOM     84  F   UNL A   1      47.916  33.016  26.109  1.00  0.00    -0.206 F 
ATOM     85  C   UNL A   1      51.186  32.092  27.350  1.00  0.00     0.022 A 
BRANCH  82  86
ATOM     86  S   UNL A   1      52.101  30.698  29.585  1.00  0.00     0.124 S 
ATOM     87  O   UNL A   1      53.235  30.518  28.687  1.00  0.00    -0.237 OA
ATOM     88  O   UNL A   1      52.204  31.797  30.539  1.00  0.00    -0.237 OA
ATOM     89  O   UNL A   1      51.522  29.466  30.115  1.00  0.00    -0.744 OA
ENDBRANCH  82  86
ENDBRANCH  55  79
BRANCH  67  90
ATOM     90  C   UNL A   1      43.825  35.692  31.241  1.00  0.00     0.023 A 
ATOM     91  C   UNL A   1      43.734  36.898  30.524  1.00  0.00     0.031 A 
ATOM     92  C   UNL A   1      44.050  35.765  32.629  1.00  0.00     0.131 A 
ATOM     93  C   UNL A   1      43.927  38.120  31.185  1.00  0.00     0.055 A 
ATOM     94  C   UNL A   1      44.173  36.986  33.291  1.00  0.00     0.041 A 
ATOM     95  F   UNL A   1      44.151  34.646  33.365  1.00  0.00    -0.206 F 
ATOM     96  C   UNL A   1      44.126  38.173  32.567  1.00  0.00     0.022 A 
BRANCH  93  97
ATOM     97  S   UNL A   1      44.016  39.640  30.197  1.00  0.00     0.124 S 
ATOM     98  O   UNL A   1      43.584  39.172  28.884  1.00  0.00    -0.237 OA
ATOM     99  O   UNL A   1      43.088  40.522  30.896  1.00  0.00    -0.237 OA
ATOM    100  O   UNL A   1      45.424  40.025  30.287  1.00  0.00    -0.744 OA
ENDBRANCH  93  97
ENDBRANCH  67  90
ENDBRANCH  41  42
ENDBRANCH  33  36
ENDBRANCH  31  32
ENDBRANCH  30  31
ENDBRANCH  29  30
ENDBRANCH  28  29
ENDBRANCH   1  28
TORSDOF 22
ENDMDL
MODEL 3
REMARK VINA RESULT:     -10.1      2.447      4.196
REMARK SMILES CCSc1nc(CC(=O)N[C@@H](C(=O)NCCCCCCNC(=O)c2ccc(-c3c4nc(c(-c5cc(S(=O)(=O)[O-])ccc5F)c5ccc([nH]5)c(-c5cc(S(=O)(=O)[O-])ccc5F)c5nc(c(-c6cc(S(=O)(=O)[O-])ccc6F)c6ccc3[nH]6)C=C5)C=C4)cc2)C2=C(C)N=N[C@@H]2C)cs1
REMARK SMILES IDX 16 1 15 2 14 3 12 4 13 5 11 7 10 8 8 9 9 10 7 12 6 13 4 14
REMARK SMILES IDX 5 15 95 16 94 17 3 18 2 19 1 20 87 21 88 22 92 23 89 24
REMARK SMILES IDX 90 25 91 26 93 27 17 28 18 29 19 30 20 31 21 32 22 33 23 35
REMARK SMILES IDX 24 36 25 37 86 38 26 39 85 40 27 41 28 42 29 43 79 44 30 45
REMARK SMILES IDX 84 46 78 47 80 48 31 49 83 50 77 51 76 52 32 54 64 55 44 56
REMARK SMILES IDX 63 57 45 58 48 59 62 60 81 61 46 62 47 63 61 65 82 66 49 67
REMARK SMILES IDX 33 68 34 69 42 70 35 71 41 72 43 73 40 74 36 75 37 76 38 77
REMARK SMILES IDX 39 78 65 79 66 80 74 81 67 82 73 83 75 84 72 85 68 86 69 87
REMARK SMILES IDX 70 88 71 89 50 90 51 91 59 92 52 93 58 94 60 95 57 96 53 97
REMARK SMILES IDX 54 98 55 99 56 100
REMARK H PARENT 14 6 10 11 21 34 80 53 48 64
REMARK Flexibility Score: inf
ROOT
ATOM      1  C   UNL A   1      35.906  23.431  24.565  1.00  0.00     0.021 C 
ENDROOT
BRANCH   1   2
ATOM      2  C   UNL A   1      35.040  23.040  23.378  1.00  0.00     0.116 C 
BRANCH   2   3
ATOM      3  N   UNL A   1      33.839  22.321  23.732  1.00  0.00    -0.354 N 
ATOM      4  C   UNL A   1      32.537  22.652  23.475  1.00  0.00     0.247 C 
ATOM      5  O   UNL A   1      31.780  21.686  23.316  1.00  0.00    -0.272 OA
ATOM      6  H   UNL A   1      33.976  21.478  24.224  1.00  0.00     0.163 HD
BRANCH   4   7
ATOM      7  C   UNL A   1      32.020  24.144  23.322  1.00  0.00     0.202 C 
BRANCH   7   8
ATOM      8  N   UNL A   1      33.009  25.066  22.767  1.00  0.00    -0.340 N 
ATOM      9  C   UNL A   1      32.845  26.173  21.983  1.00  0.00     0.226 C 
ATOM     10  O   UNL A   1      33.865  26.678  21.504  1.00  0.00    -0.275 OA
ATOM     11  H   UNL A   1      33.944  24.855  22.994  1.00  0.00     0.164 HD
BRANCH   9  12
ATOM     12  C   UNL A   1      31.479  26.776  21.703  1.00  0.00     0.157 C 
BRANCH  12  13
ATOM     13  C   UNL A   1      31.134  27.969  22.531  1.00  0.00     0.062 A 
ATOM     14  C   UNL A   1      29.733  29.589  23.142  1.00  0.00     0.150 A 
ATOM     15  N   UNL A   1      29.958  28.652  22.247  1.00  0.00    -0.234 NA
ATOM     16  S   UNL A   1      30.936  29.733  24.351  1.00  0.00    -0.116 S 
ATOM     17  C   UNL A   1      31.823  28.459  23.624  1.00  0.00     0.092 A 
BRANCH  14  18
ATOM     18  S   UNL A   1      28.227  30.474  23.098  1.00  0.00    -0.096 SA
BRANCH  18  19
ATOM     19  C   UNL A   1      28.598  31.953  22.115  1.00  0.00     0.074 C 
ATOM     20  C   UNL A   1      28.223  31.803  20.649  1.00  0.00     0.016 C 
ENDBRANCH  18  19
ENDBRANCH  14  18
ENDBRANCH  12  13
ENDBRANCH   9  12
ENDBRANCH   7   8
BRANCH   7  21
ATOM     21  C   UNL A   1      31.584  24.739  24.642  1.00  0.00     0.011 C 
ATOM     22  C   UNL A   1      30.438  25.345  24.985  1.00  0.00     0.064 C 
ATOM     23  C   UNL A   1      32.369  24.689  25.919  1.00  0.00     0.156 C 
ATOM     24  C   UNL A   1      29.244  25.667  24.160  1.00  0.00     0.069 C 
ATOM     25  N   UNL A   1      30.395  25.697  26.311  1.00  0.00    -0.160 NA
ATOM     26  N   UNL A   1      31.452  25.345  26.894  1.00  0.00    -0.181 NA
ATOM     27  C   UNL A   1      33.674  25.474  25.913  1.00  0.00     0.040 C 
ENDBRANCH   7  21
ENDBRANCH   4   7
ENDBRANCH   2   3
ENDBRANCH   1   2
BRANCH   1  28
ATOM     28  C   UNL A   1      35.981  22.376  25.669  1.00  0.00     0.002 C 
BRANCH  28  29
ATOM     29  C   UNL A   1      37.033  21.279  25.461  1.00  0.00     0.002 C 
BRANCH  29  30
ATOM     30  C   UNL A   1      38.418  21.570  26.047  1.00  0.00     0.021 C 
BRANCH  30  31
ATOM     31  C   UNL A   1      39.583  20.897  25.330  1.00  0.00     0.116 C 
BRANCH  31  32
ATOM     32  N   UNL A   1      40.326  20.010  26.207  1.00  0.00    -0.352 N 
ATOM     33  C   UNL A   1      41.384  20.282  27.039  1.00  0.00     0.251 C 
ATOM     34  H   UNL A   1      40.025  19.073  26.205  1.00  0.00     0.163 HD
ATOM     35  O   UNL A   1      42.006  19.354  27.545  1.00  0.00    -0.269 OA
BRANCH  33  36
ATOM     36  C   UNL A   1      41.782  21.682  27.304  1.00  0.00     0.039 A 
ATOM     37  C   UNL A   1      41.885  22.566  26.227  1.00  0.00     0.014 A 
ATOM     38  C   UNL A   1      42.073  22.122  28.598  1.00  0.00     0.014 A 
ATOM     39  C   UNL A   1      42.221  23.903  26.456  1.00  0.00     0.010 A 
ATOM     40  C   UNL A   1      42.330  23.471  28.834  1.00  0.00     0.010 A 
ATOM     41  C   UNL A   1      42.413  24.376  27.765  1.00  0.00    -0.014 A 
BRANCH  41  42
ATOM     42  C   UNL A   1      42.707  25.809  28.029  1.00  0.00     0.031 A 
ATOM     43  C   UNL A   1      44.112  26.332  27.882  1.00  0.00     0.074 A 
ATOM     44  C   UNL A   1      41.720  26.626  28.449  1.00  0.00     0.049 A 
ATOM     45  N   UNL A   1      44.579  27.529  28.131  1.00  0.00    -0.248 NA
ATOM     46  C   UNL A   1      45.130  25.374  27.425  1.00  0.00     0.031 C 
ATOM     47  C   UNL A   1      40.328  26.226  28.661  1.00  0.00     0.029 A 
ATOM     48  N   UNL A   1      41.734  27.958  28.779  1.00  0.00    -0.354 N 
ATOM     49  C   UNL A   1      45.944  27.466  27.870  1.00  0.00     0.074 A 
ATOM     50  C   UNL A   1      46.237  26.096  27.507  1.00  0.00     0.031 C 
ATOM     51  C   UNL A   1      39.618  27.294  29.059  1.00  0.00     0.029 A 
ATOM     52  C   UNL A   1      40.511  28.442  29.183  1.00  0.00     0.049 A 
ATOM     53  H   UNL A   1      42.544  28.517  28.732  1.00  0.00     0.167 HD
ATOM     54  C   UNL A   1      46.863  28.462  27.911  1.00  0.00     0.034 A 
ATOM     55  C   UNL A   1      40.151  29.666  29.619  1.00  0.00     0.034 A 
ATOM     56  C   UNL A   1      46.550  29.825  28.265  1.00  0.00     0.049 A 
ATOM     57  C   UNL A   1      41.197  30.751  29.686  1.00  0.00     0.074 A 
ATOM     58  C   UNL A   1      47.391  30.925  28.283  1.00  0.00     0.029 A 
ATOM     59  N   UNL A   1      45.301  30.277  28.674  1.00  0.00    -0.354 N 
ATOM     60  N   UNL A   1      42.474  30.686  29.384  1.00  0.00    -0.248 NA
ATOM     61  C   UNL A   1      40.753  32.075  30.139  1.00  0.00     0.031 C 
ATOM     62  C   UNL A   1      46.673  32.019  28.777  1.00  0.00     0.029 A 
ATOM     63  C   UNL A   1      45.361  31.629  28.982  1.00  0.00     0.049 A 
ATOM     64  H   UNL A   1      44.492  29.719  28.735  1.00  0.00     0.167 HD
ATOM     65  C   UNL A   1      42.976  31.971  29.579  1.00  0.00     0.074 A 
ATOM     66  C   UNL A   1      41.861  32.789  30.007  1.00  0.00     0.031 C 
ATOM     67  C   UNL A   1      44.242  32.433  29.417  1.00  0.00     0.034 A 
BRANCH  54  68
ATOM     68  C   UNL A   1      48.296  28.107  27.590  1.00  0.00     0.023 A 
ATOM     69  C   UNL A   1      48.811  28.202  26.285  1.00  0.00     0.031 A 
ATOM     70  C   UNL A   1      49.160  27.654  28.604  1.00  0.00     0.131 A 
ATOM     71  C   UNL A   1      50.123  27.783  26.016  1.00  0.00     0.055 A 
ATOM     72  C   UNL A   1      50.491  27.319  28.344  1.00  0.00     0.041 A 
ATOM     73  F   UNL A   1      48.722  27.519  29.866  1.00  0.00    -0.206 F 
ATOM     74  C   UNL A   1      50.976  27.369  27.041  1.00  0.00     0.022 A 
BRANCH  71  75
ATOM     75  S   UNL A   1      50.651  27.654  24.285  1.00  0.00     0.124 S 
ATOM     76  O   UNL A   1      51.024  29.035  23.987  1.00  0.00    -0.237 OA
ATOM     77  O   UNL A   1      51.749  26.697  24.361  1.00  0.00    -0.237 OA
ATOM     78  O   UNL A   1      49.454  27.177  23.596  1.00  0.00    -0.744 OA
ENDBRANCH  71  75
ENDBRANCH  54  68
BRANCH  55  79
ATOM     79  C   UNL A   1      38.746  29.937  30.046  1.00  0.00     0.023 A 
ATOM     80  C   UNL A   1      37.820  30.520  29.167  1.00  0.00     0.031 A 
ATOM     81  C   UNL A   1      38.323  29.664  31.360  1.00  0.00     0.131 A 
ATOM     82  C   UNL A   1      36.538  30.863  29.626  1.00  0.00     0.055 A 
ATOM     83  C   UNL A   1      37.027  29.949  31.793  1.00  0.00     0.041 A 
ATOM     84  F   UNL A   1      39.165  29.104  32.243  1.00  0.00    -0.206 F 
ATOM     85  C   UNL A   1      36.130  30.568  30.928  1.00  0.00     0.022 A 
BRANCH  82  86
ATOM     86  S   UNL A   1      35.443  31.799  28.523  1.00  0.00     0.124 S 
ATOM     87  O   UNL A   1      35.090  30.790  27.531  1.00  0.00    -0.237 OA
ATOM     88  O   UNL A   1      34.377  32.207  29.431  1.00  0.00    -0.237 OA
ATOM     89  O   UNL A   1      36.295  32.882  28.037  1.00  0.00    -0.744 OA
ENDBRANCH  82  86
ENDBRANCH  55  79
BRANCH  67  90
ATOM     90  C   UNL A   1      44.473  33.906  29.655  1.00  0.00     0.023 A 
ATOM     91  C   UNL A   1      44.181  34.872  28.676  1.00  0.00     0.031 A 
ATOM     92  C   UNL A   1      45.003  34.349  30.881  1.00  0.00     0.131 A 
ATOM     93  C   UNL A   1      44.475  36.222  28.917  1.00  0.00     0.055 A 
ATOM     94  C   UNL A   1      45.229  35.701  31.140  1.00  0.00     0.041 A 
ATOM     95  F   UNL A   1      45.306  33.471  31.852  1.00  0.00    -0.206 F 
ATOM     96  C   UNL A   1      44.979  36.645  30.149  1.00  0.00     0.022 A 
BRANCH  93  97
ATOM     97  S   UNL A   1      44.287  37.410  27.558  1.00  0.00     0.124 S 
ATOM     98  O   UNL A   1      43.879  38.618  28.268  1.00  0.00    -0.237 OA
ATOM     99  O   UNL A   1      45.625  37.434  26.977  1.00  0.00    -0.237 OA
ATOM    100  O   UNL A   1      43.255  36.807  26.716  1.00  0.00    -0.744 OA
ENDBRANCH  93  97
ENDBRANCH  67  90
ENDBRANCH  41  42
ENDBRANCH  33  36
ENDBRANCH  31  32
ENDBRANCH  30  31
ENDBRANCH  29  30
ENDBRANCH  28  29
ENDBRANCH   1  28
TORSDOF 22
ENDMDL
