MODEL 1
REMARK VINA RESULT:     -10.7      0.000      0.000
REMARK SMILES CCC(CC)(CC(=O)Nc1ccc(F)c(F)c1)C(=O)NCCCCCCNC(=O)c1ccc(-c2c3nc(c(-c4cc(S(=O)(=O)[O-])ccc4F)c4ccc([nH]4)c(-c4cc(S(=O)(=O)[O-])ccc4F)c4nc(c(-c5cc(S(=O)(=O)[O-])ccc5F)c5ccc2[nH]5)C=C4)C=C3)cc1
REMARK SMILES IDX 23 1 22 2 21 3 20 4 18 5 19 6 3 8 2 9 1 10 4 11 5 12 6 13
REMARK SMILES IDX 7 14 8 15 9 16 10 18 11 19 17 20 12 21 15 22 13 23 16 24
REMARK SMILES IDX 14 25 24 26 25 27 26 28 27 29 28 30 29 32 30 33 31 34 92 35
REMARK SMILES IDX 32 36 91 37 33 38 34 39 35 40 85 41 36 42 90 43 84 44 86 45
REMARK SMILES IDX 37 46 89 47 83 48 82 49 38 51 70 52 50 53 69 54 51 55 54 56
REMARK SMILES IDX 68 57 87 58 52 59 53 60 67 62 88 63 55 64 39 65 40 66 48 67
REMARK SMILES IDX 41 68 47 69 49 70 46 71 42 72 43 73 44 74 45 75 71 76 72 77
REMARK SMILES IDX 80 78 73 79 79 80 81 81 78 82 74 83 75 84 76 85 77 86 56 87
REMARK SMILES IDX 57 88 65 89 58 90 64 91 66 92 63 93 59 94 60 95 61 96 62 97
REMARK H PARENT 20 7 9 17 27 31 86 50 54 61
REMARK Flexibility Score: inf
ROOT
ATOM      1  C   UNL A   1      32.770  20.743  25.293  1.00  0.00     0.002 C 
ENDROOT
BRANCH   1   2
ATOM      2  C   UNL A   1      32.801  20.579  23.768  1.00  0.00     0.021 C 
BRANCH   2   3
ATOM      3  C   UNL A   1      31.876  21.510  22.992  1.00  0.00     0.116 C 
BRANCH   3   4
ATOM      4  N   UNL A   1      32.615  22.357  22.082  1.00  0.00    -0.356 N 
ATOM      5  C   UNL A   1      32.858  23.685  22.043  1.00  0.00     0.226 C 
ATOM      6  O   UNL A   1      33.437  24.082  21.026  1.00  0.00    -0.274 OA
ATOM      7  H   UNL A   1      33.025  21.863  21.335  1.00  0.00     0.163 HD
BRANCH   5   8
ATOM      8  C   UNL A   1      32.452  24.662  23.173  1.00  0.00     0.057 C 
BRANCH   8   9
ATOM      9  C   UNL A   1      33.349  24.320  24.404  1.00  0.00     0.014 C 
ATOM     10  C   UNL A   1      34.344  25.375  24.878  1.00  0.00     0.005 C 
ENDBRANCH   8   9
BRANCH   8  11
ATOM     11  C   UNL A   1      30.956  24.480  23.579  1.00  0.00     0.014 C 
ATOM     12  C   UNL A   1      30.707  24.238  25.066  1.00  0.00     0.005 C 
ENDBRANCH   8  11
BRANCH   8  13
ATOM     13  C   UNL A   1      32.748  26.138  22.773  1.00  0.00     0.117 C 
BRANCH  13  14
ATOM     14  C   UNL A   1      31.575  27.113  22.653  1.00  0.00     0.225 C 
ATOM     15  O   UNL A   1      30.861  27.124  21.648  1.00  0.00    -0.275 OA
ATOM     16  N   UNL A   1      31.203  27.878  23.734  1.00  0.00    -0.326 N 
ATOM     17  H   UNL A   1      30.284  28.232  23.718  1.00  0.00     0.169 HD
BRANCH  16  18
ATOM     18  C   UNL A   1      31.971  28.214  24.853  1.00  0.00     0.044 A 
ATOM     19  C   UNL A   1      33.157  28.935  24.690  1.00  0.00     0.029 A 
ATOM     20  C   UNL A   1      31.525  27.897  26.134  1.00  0.00     0.068 A 
ATOM     21  C   UNL A   1      33.993  29.181  25.779  1.00  0.00     0.044 A 
ATOM     22  C   UNL A   1      32.346  28.180  27.225  1.00  0.00     0.160 A 
ATOM     23  C   UNL A   1      33.588  28.785  27.045  1.00  0.00     0.158 A 
ATOM     24  F   UNL A   1      31.935  27.854  28.458  1.00  0.00    -0.204 F 
ATOM     25  F   UNL A   1      34.395  29.003  28.092  1.00  0.00    -0.204 F 
ENDBRANCH  16  18
ENDBRANCH  13  14
ENDBRANCH   8  13
ENDBRANCH   5   8
ENDBRANCH   3   4
ENDBRANCH   2   3
ENDBRANCH   1   2
BRANCH   1  26
ATOM     26  C   UNL A   1      34.102  21.116  25.950  1.00  0.00     0.002 C 
BRANCH  26  27
ATOM     27  C   UNL A   1      35.258  21.383  24.985  1.00  0.00     0.021 C 
BRANCH  27  28
ATOM     28  C   UNL A   1      36.550  21.854  25.641  1.00  0.00     0.116 C 
BRANCH  28  29
ATOM     29  N   UNL A   1      37.547  20.803  25.715  1.00  0.00    -0.352 N 
ATOM     30  C   UNL A   1      38.889  20.902  25.992  1.00  0.00     0.251 C 
ATOM     31  H   UNL A   1      37.216  19.891  25.544  1.00  0.00     0.163 HD
ATOM     32  O   UNL A   1      39.617  19.929  25.838  1.00  0.00    -0.269 OA
BRANCH  30  33
ATOM     33  C   UNL A   1      39.450  22.195  26.444  1.00  0.00     0.039 A 
ATOM     34  C   UNL A   1      40.466  22.186  27.402  1.00  0.00     0.014 A 
ATOM     35  C   UNL A   1      38.981  23.408  25.929  1.00  0.00     0.014 A 
ATOM     36  C   UNL A   1      41.046  23.390  27.805  1.00  0.00     0.010 A 
ATOM     37  C   UNL A   1      39.614  24.600  26.274  1.00  0.00     0.010 A 
ATOM     38  C   UNL A   1      40.645  24.605  27.223  1.00  0.00    -0.014 A 
BRANCH  38  39
ATOM     39  C   UNL A   1      41.301  25.881  27.608  1.00  0.00     0.031 A 
ATOM     40  C   UNL A   1      42.716  26.170  27.183  1.00  0.00     0.074 A 
ATOM     41  C   UNL A   1      40.629  26.765  28.372  1.00  0.00     0.049 A 
ATOM     42  N   UNL A   1      43.448  27.230  27.408  1.00  0.00    -0.248 NA
ATOM     43  C   UNL A   1      43.406  25.112  26.430  1.00  0.00     0.031 C 
ATOM     44  C   UNL A   1      39.272  26.572  28.888  1.00  0.00     0.029 A 
ATOM     45  N   UNL A   1      40.988  28.003  28.840  1.00  0.00    -0.354 N 
ATOM     46  C   UNL A   1      44.688  26.964  26.836  1.00  0.00     0.074 A 
ATOM     47  C   UNL A   1      44.625  25.615  26.315  1.00  0.00     0.031 C 
ATOM     48  C   UNL A   1      38.896  27.673  29.559  1.00  0.00     0.029 A 
ATOM     49  C   UNL A   1      39.996  28.632  29.557  1.00  0.00     0.049 A 
ATOM     50  H   UNL A   1      41.873  28.404  28.679  1.00  0.00     0.167 HD
ATOM     51  C   UNL A   1      45.769  27.778  26.735  1.00  0.00     0.034 A 
ATOM     52  C   UNL A   1      39.975  29.845  30.140  1.00  0.00     0.034 A 
ATOM     53  C   UNL A   1      45.807  29.125  27.253  1.00  0.00     0.049 A 
ATOM     54  C   UNL A   1      41.192  30.726  30.027  1.00  0.00     0.074 A 
ATOM     55  C   UNL A   1      46.817  30.065  27.144  1.00  0.00     0.029 A 
ATOM     56  N   UNL A   1      44.794  29.722  27.995  1.00  0.00    -0.354 N 
ATOM     57  N   UNL A   1      42.332  30.491  29.417  1.00  0.00    -0.248 NA
ATOM     58  C   UNL A   1      41.111  32.042  30.671  1.00  0.00     0.031 C 
ATOM     59  C   UNL A   1      46.449  31.195  27.882  1.00  0.00     0.029 A 
ATOM     60  C   UNL A   1      45.173  30.999  28.385  1.00  0.00     0.049 A 
ATOM     61  H   UNL A   1      43.932  29.299  28.213  1.00  0.00     0.167 HD
ATOM     62  C   UNL A   1      43.094  31.645  29.581  1.00  0.00     0.074 A 
ATOM     63  C   UNL A   1      42.273  32.578  30.325  1.00  0.00     0.031 C 
ATOM     64  C   UNL A   1      44.356  31.911  29.154  1.00  0.00     0.034 A 
BRANCH  51  65
ATOM     65  C   UNL A   1      47.004  27.211  26.069  1.00  0.00     0.023 A 
ATOM     66  C   UNL A   1      47.939  26.432  26.775  1.00  0.00     0.031 A 
ATOM     67  C   UNL A   1      47.275  27.491  24.718  1.00  0.00     0.131 A 
ATOM     68  C   UNL A   1      49.138  26.042  26.158  1.00  0.00     0.055 A 
ATOM     69  C   UNL A   1      48.428  27.022  24.083  1.00  0.00     0.041 A 
ATOM     70  F   UNL A   1      46.434  28.246  23.993  1.00  0.00    -0.206 F 
ATOM     71  C   UNL A   1      49.377  26.310  24.809  1.00  0.00     0.022 A 
BRANCH  68  72
ATOM     72  S   UNL A   1      50.451  25.333  27.190  1.00  0.00     0.124 S 
ATOM     73  O   UNL A   1      49.752  24.227  27.839  1.00  0.00    -0.237 OA
ATOM     74  O   UNL A   1      51.461  24.963  26.206  1.00  0.00    -0.237 OA
ATOM     75  O   UNL A   1      50.819  26.433  28.081  1.00  0.00    -0.744 OA
ENDBRANCH  68  72
ENDBRANCH  51  65
BRANCH  52  76
ATOM     76  C   UNL A   1      38.761  30.313  30.867  1.00  0.00     0.023 A 
ATOM     77  C   UNL A   1      37.817  31.138  30.234  1.00  0.00     0.031 A 
ATOM     78  C   UNL A   1      38.543  29.973  32.214  1.00  0.00     0.131 A 
ATOM     79  C   UNL A   1      36.720  31.628  30.958  1.00  0.00     0.055 A 
ATOM     80  C   UNL A   1      37.423  30.424  32.915  1.00  0.00     0.041 A 
ATOM     81  F   UNL A   1      39.412  29.183  32.864  1.00  0.00    -0.206 F 
ATOM     82  C   UNL A   1      36.510  31.267  32.291  1.00  0.00     0.022 A 
BRANCH  79  83
ATOM     83  S   UNL A   1      35.607  32.812  30.151  1.00  0.00     0.124 S 
ATOM     84  O   UNL A   1      35.023  33.501  31.296  1.00  0.00    -0.237 OA
ATOM     85  O   UNL A   1      36.534  33.591  29.336  1.00  0.00    -0.237 OA
ATOM     86  O   UNL A   1      34.689  31.958  29.400  1.00  0.00    -0.744 OA
ENDBRANCH  79  83
ENDBRANCH  52  76
BRANCH  64  87
ATOM     87  C   UNL A   1      44.901  33.285  29.466  1.00  0.00     0.023 A 
ATOM     88  C   UNL A   1      44.683  34.378  28.607  1.00  0.00     0.031 A 
ATOM     89  C   UNL A   1      45.690  33.494  30.611  1.00  0.00     0.131 A 
ATOM     90  C   UNL A   1      45.312  35.605  28.865  1.00  0.00     0.055 A 
ATOM     91  C   UNL A   1      46.252  34.738  30.900  1.00  0.00     0.041 A 
ATOM     92  F   UNL A   1      45.935  32.488  31.466  1.00  0.00    -0.206 F 
ATOM     93  C   UNL A   1      46.080  35.798  30.015  1.00  0.00     0.022 A 
BRANCH  90  94
ATOM     94  S   UNL A   1      45.219  36.909  27.606  1.00  0.00     0.124 S 
ATOM     95  O   UNL A   1      44.966  38.096  28.416  1.00  0.00    -0.237 OA
ATOM     96  O   UNL A   1      46.535  36.834  26.980  1.00  0.00    -0.237 OA
ATOM     97  O   UNL A   1      44.105  36.487  26.759  1.00  0.00    -0.744 OA
ENDBRANCH  90  94
ENDBRANCH  64  87
ENDBRANCH  38  39
ENDBRANCH  30  33
ENDBRANCH  28  29
ENDBRANCH  27  28
ENDBRANCH  26  27
ENDBRANCH   1  26
TORSDOF 21
ENDMDL
MODEL 2
REMARK VINA RESULT:     -10.6      4.589      9.820
REMARK SMILES CCC(CC)(CC(=O)Nc1ccc(F)c(F)c1)C(=O)NCCCCCCNC(=O)c1ccc(-c2c3nc(c(-c4cc(S(=O)(=O)[O-])ccc4F)c4ccc([nH]4)c(-c4cc(S(=O)(=O)[O-])ccc4F)c4nc(c(-c5cc(S(=O)(=O)[O-])ccc5F)c5ccc2[nH]5)C=C4)C=C3)cc1
REMARK SMILES IDX 23 1 22 2 21 3 20 4 18 5 19 6 3 8 2 9 1 10 4 11 5 12 6 13
REMARK SMILES IDX 7 14 8 15 9 16 10 18 11 19 17 20 12 21 15 22 13 23 16 24
REMARK SMILES IDX 14 25 24 26 25 27 26 28 27 29 28 30 29 32 30 33 31 34 92 35
REMARK SMILES IDX 32 36 91 37 33 38 34 39 35 40 85 41 36 42 90 43 84 44 86 45
REMARK SMILES IDX 37 46 89 47 83 48 82 49 38 51 70 52 50 53 69 54 51 55 54 56
REMARK SMILES IDX 68 57 87 58 52 59 53 60 67 62 88 63 55 64 39 65 40 66 48 67
REMARK SMILES IDX 41 68 47 69 49 70 46 71 42 72 43 73 44 74 45 75 71 76 72 77
REMARK SMILES IDX 80 78 73 79 79 80 81 81 78 82 74 83 75 84 76 85 77 86 56 87
REMARK SMILES IDX 57 88 65 89 58 90 64 91 66 92 63 93 59 94 60 95 61 96 62 97
REMARK H PARENT 20 7 9 17 27 31 86 50 54 61
REMARK Flexibility Score: inf
ROOT
ATOM      1  C   UNL A   1      31.694  26.901  27.092  1.00  0.00     0.002 C 
ENDROOT
BRANCH   1   2
ATOM      2  C   UNL A   1      30.646  26.312  26.140  1.00  0.00     0.021 C 
BRANCH   2   3
ATOM      3  C   UNL A   1      30.455  24.802  26.233  1.00  0.00     0.116 C 
BRANCH   3   4
ATOM      4  N   UNL A   1      30.343  24.198  24.924  1.00  0.00    -0.356 N 
ATOM      5  C   UNL A   1      31.110  23.320  24.241  1.00  0.00     0.226 C 
ATOM      6  O   UNL A   1      30.763  23.121  23.071  1.00  0.00    -0.274 OA
ATOM      7  H   UNL A   1      29.544  24.487  24.428  1.00  0.00     0.163 HD
BRANCH   5   8
ATOM      8  C   UNL A   1      32.340  22.604  24.850  1.00  0.00     0.057 C 
BRANCH   8   9
ATOM      9  C   UNL A   1      31.826  21.250  25.432  1.00  0.00     0.014 C 
ATOM     10  C   UNL A   1      32.500  19.966  24.957  1.00  0.00     0.005 C 
ENDBRANCH   8   9
BRANCH   8  11
ATOM     11  C   UNL A   1      32.975  23.436  26.008  1.00  0.00     0.014 C 
ATOM     12  C   UNL A   1      33.303  22.650  27.274  1.00  0.00     0.005 C 
ENDBRANCH   8  11
BRANCH   8  13
ATOM     13  C   UNL A   1      33.396  22.272  23.754  1.00  0.00     0.117 C 
BRANCH  13  14
ATOM     14  C   UNL A   1      34.743  22.999  23.793  1.00  0.00     0.225 C 
ATOM     15  O   UNL A   1      35.749  22.444  24.243  1.00  0.00    -0.275 OA
ATOM     16  N   UNL A   1      34.883  24.221  23.179  1.00  0.00    -0.326 N 
ATOM     17  H   UNL A   1      35.804  24.489  22.954  1.00  0.00     0.169 HD
BRANCH  16  18
ATOM     18  C   UNL A   1      33.878  25.130  22.835  1.00  0.00     0.044 A 
ATOM     19  C   UNL A   1      33.566  26.180  23.703  1.00  0.00     0.029 A 
ATOM     20  C   UNL A   1      33.236  25.037  21.603  1.00  0.00     0.068 A 
ATOM     21  C   UNL A   1      32.492  27.029  23.431  1.00  0.00     0.044 A 
ATOM     22  C   UNL A   1      32.188  25.913  21.318  1.00  0.00     0.160 A 
ATOM     23  C   UNL A   1      31.795  26.877  22.242  1.00  0.00     0.158 A 
ATOM     24  F   UNL A   1      31.549  25.811  20.145  1.00  0.00    -0.204 F 
ATOM     25  F   UNL A   1      30.752  27.678  21.984  1.00  0.00    -0.204 F 
ENDBRANCH  16  18
ENDBRANCH  13  14
ENDBRANCH   8  13
ENDBRANCH   5   8
ENDBRANCH   3   4
ENDBRANCH   2   3
ENDBRANCH   1   2
BRANCH   1  26
ATOM     26  C   UNL A   1      31.618  28.414  27.313  1.00  0.00     0.002 C 
BRANCH  26  27
ATOM     27  C   UNL A   1      31.578  29.262  26.041  1.00  0.00     0.021 C 
BRANCH  27  28
ATOM     28  C   UNL A   1      32.783  30.170  25.833  1.00  0.00     0.116 C 
BRANCH  28  29
ATOM     29  N   UNL A   1      32.526  31.535  26.254  1.00  0.00    -0.352 N 
ATOM     30  C   UNL A   1      33.173  32.281  27.208  1.00  0.00     0.251 C 
ATOM     31  H   UNL A   1      31.785  31.989  25.790  1.00  0.00     0.163 HD
ATOM     32  O   UNL A   1      32.707  33.360  27.558  1.00  0.00    -0.269 OA
BRANCH  30  33
ATOM     33  C   UNL A   1      34.412  31.762  27.829  1.00  0.00     0.039 A 
ATOM     34  C   UNL A   1      35.515  32.611  27.934  1.00  0.00     0.014 A 
ATOM     35  C   UNL A   1      34.487  30.450  28.308  1.00  0.00     0.014 A 
ATOM     36  C   UNL A   1      36.677  32.159  28.563  1.00  0.00     0.010 A 
ATOM     37  C   UNL A   1      35.618  30.027  29.003  1.00  0.00     0.010 A 
ATOM     38  C   UNL A   1      36.728  30.874  29.129  1.00  0.00    -0.014 A 
BRANCH  38  39
ATOM     39  C   UNL A   1      37.942  30.412  29.849  1.00  0.00     0.031 A 
ATOM     40  C   UNL A   1      38.196  30.842  31.269  1.00  0.00     0.074 A 
ATOM     41  C   UNL A   1      38.834  29.631  29.209  1.00  0.00     0.049 A 
ATOM     42  N   UNL A   1      39.187  30.531  32.064  1.00  0.00    -0.248 NA
ATOM     43  C   UNL A   1      37.220  31.769  31.861  1.00  0.00     0.031 C 
ATOM     44  C   UNL A   1      38.722  29.192  27.816  1.00  0.00     0.029 A 
ATOM     45  N   UNL A   1      40.003  29.060  29.642  1.00  0.00    -0.354 N 
ATOM     46  C   UNL A   1      38.961  31.232  33.245  1.00  0.00     0.074 A 
ATOM     47  C   UNL A   1      37.776  32.034  33.033  1.00  0.00     0.031 C 
ATOM     48  C   UNL A   1      39.752  28.381  27.526  1.00  0.00     0.029 A 
ATOM     49  C   UNL A   1      40.619  28.275  28.694  1.00  0.00     0.049 A 
ATOM     50  H   UNL A   1      40.367  29.199  30.546  1.00  0.00     0.167 HD
ATOM     51  C   UNL A   1      39.665  31.191  34.405  1.00  0.00     0.034 A 
ATOM     52  C   UNL A   1      41.751  27.549  28.764  1.00  0.00     0.034 A 
ATOM     53  C   UNL A   1      40.840  30.374  34.598  1.00  0.00     0.049 A 
ATOM     54  C   UNL A   1      42.522  27.529  30.057  1.00  0.00     0.074 A 
ATOM     55  C   UNL A   1      41.587  30.195  35.750  1.00  0.00     0.029 A 
ATOM     56  N   UNL A   1      41.451  29.610  33.610  1.00  0.00    -0.354 N 
ATOM     57  N   UNL A   1      42.256  28.136  31.191  1.00  0.00    -0.248 NA
ATOM     58  C   UNL A   1      43.741  26.712  30.081  1.00  0.00     0.031 C 
ATOM     59  C   UNL A   1      42.689  29.389  35.439  1.00  0.00     0.029 A 
ATOM     60  C   UNL A   1      42.588  28.994  34.115  1.00  0.00     0.049 A 
ATOM     61  H   UNL A   1      41.124  29.519  32.687  1.00  0.00     0.167 HD
ATOM     62  C   UNL A   1      43.262  27.750  32.073  1.00  0.00     0.074 A 
ATOM     63  C   UNL A   1      44.123  26.841  31.343  1.00  0.00     0.031 C 
ATOM     64  C   UNL A   1      43.457  28.112  33.368  1.00  0.00     0.034 A 
BRANCH  51  65
ATOM     65  C   UNL A   1      39.195  32.082  35.534  1.00  0.00     0.023 A 
ATOM     66  C   UNL A   1      39.604  33.424  35.641  1.00  0.00     0.031 A 
ATOM     67  C   UNL A   1      38.360  31.571  36.543  1.00  0.00     0.131 A 
ATOM     68  C   UNL A   1      39.257  34.176  36.775  1.00  0.00     0.055 A 
ATOM     69  C   UNL A   1      37.943  32.353  37.623  1.00  0.00     0.041 A 
ATOM     70  F   UNL A   1      37.951  30.293  36.511  1.00  0.00    -0.206 F 
ATOM     71  C   UNL A   1      38.408  33.657  37.754  1.00  0.00     0.022 A 
BRANCH  68  72
ATOM     72  S   UNL A   1      40.072  35.776  37.034  1.00  0.00     0.124 S 
ATOM     73  O   UNL A   1      41.477  35.383  37.114  1.00  0.00    -0.237 OA
ATOM     74  O   UNL A   1      39.683  36.524  35.845  1.00  0.00    -0.237 OA
ATOM     75  O   UNL A   1      39.496  36.254  38.290  1.00  0.00    -0.744 OA
ENDBRANCH  68  72
ENDBRANCH  51  65
BRANCH  52  76
ATOM     76  C   UNL A   1      42.218  26.764  27.585  1.00  0.00     0.023 A 
ATOM     77  C   UNL A   1      41.903  25.402  27.458  1.00  0.00     0.031 A 
ATOM     78  C   UNL A   1      43.014  27.353  26.588  1.00  0.00     0.131 A 
ATOM     79  C   UNL A   1      42.415  24.663  26.381  1.00  0.00     0.055 A 
ATOM     80  C   UNL A   1      43.480  26.625  25.491  1.00  0.00     0.041 A 
ATOM     81  F   UNL A   1      43.339  28.654  26.659  1.00  0.00    -0.206 F 
ATOM     82  C   UNL A   1      43.191  25.268  25.390  1.00  0.00     0.022 A 
BRANCH  79  83
ATOM     83  S   UNL A   1      42.113  22.874  26.333  1.00  0.00     0.124 S 
ATOM     84  O   UNL A   1      42.645  22.517  25.023  1.00  0.00    -0.237 OA
ATOM     85  O   UNL A   1      42.876  22.409  27.487  1.00  0.00    -0.237 OA
ATOM     86  O   UNL A   1      40.661  22.771  26.468  1.00  0.00    -0.744 OA
ENDBRANCH  79  83
ENDBRANCH  52  76
BRANCH  64  87
ATOM     87  C   UNL A   1      44.638  27.489  34.075  1.00  0.00     0.023 A 
ATOM     88  C   UNL A   1      44.524  26.270  34.768  1.00  0.00     0.031 A 
ATOM     89  C   UNL A   1      45.880  28.146  34.097  1.00  0.00     0.131 A 
ATOM     90  C   UNL A   1      45.608  25.789  35.519  1.00  0.00     0.055 A 
ATOM     91  C   UNL A   1      46.977  27.624  34.785  1.00  0.00     0.041 A 
ATOM     92  F   UNL A   1      46.048  29.314  33.456  1.00  0.00    -0.206 F 
ATOM     93  C   UNL A   1      46.839  26.449  35.517  1.00  0.00     0.022 A 
BRANCH  90  94
ATOM     94  S   UNL A   1      45.345  24.358  36.603  1.00  0.00     0.124 S 
ATOM     95  O   UNL A   1      46.714  23.970  36.930  1.00  0.00    -0.237 OA
ATOM     96  O   UNL A   1      44.568  24.933  37.696  1.00  0.00    -0.237 OA
ATOM     97  O   UNL A   1      44.619  23.415  35.755  1.00  0.00    -0.744 OA
ENDBRANCH  90  94
ENDBRANCH  64  87
ENDBRANCH  38  39
ENDBRANCH  30  33
ENDBRANCH  28  29
ENDBRANCH  27  28
ENDBRANCH  26  27
ENDBRANCH   1  26
TORSDOF 21
ENDMDL
MODEL 3
REMARK VINA RESULT:     -10.6      5.311     10.142
REMARK SMILES CCC(CC)(CC(=O)Nc1ccc(F)c(F)c1)C(=O)NCCCCCCNC(=O)c1ccc(-c2c3nc(c(-c4cc(S(=O)(=O)[O-])ccc4F)c4ccc([nH]4)c(-c4cc(S(=O)(=O)[O-])ccc4F)c4nc(c(-c5cc(S(=O)(=O)[O-])ccc5F)c5ccc2[nH]5)C=C4)C=C3)cc1
REMARK SMILES IDX 23 1 22 2 21 3 20 4 18 5 19 6 3 8 2 9 1 10 4 11 5 12 6 13
REMARK SMILES IDX 7 14 8 15 9 16 10 18 11 19 17 20 12 21 15 22 13 23 16 24
REMARK SMILES IDX 14 25 24 26 25 27 26 28 27 29 28 30 29 32 30 33 31 34 92 35
REMARK SMILES IDX 32 36 91 37 33 38 34 39 35 40 85 41 36 42 90 43 84 44 86 45
REMARK SMILES IDX 37 46 89 47 83 48 82 49 38 51 70 52 50 53 69 54 51 55 54 56
REMARK SMILES IDX 68 57 87 58 52 59 53 60 67 62 88 63 55 64 39 65 40 66 48 67
REMARK SMILES IDX 41 68 47 69 49 70 46 71 42 72 43 73 44 74 45 75 71 76 72 77
REMARK SMILES IDX 80 78 73 79 79 80 81 81 78 82 74 83 75 84 76 85 77 86 56 87
REMARK SMILES IDX 57 88 65 89 58 90 64 91 66 92 63 93 59 94 60 95 61 96 62 97
REMARK H PARENT 20 7 9 17 27 31 86 50 54 61
REMARK Flexibility Score: inf
ROOT
ATOM      1  C   UNL A   1      33.182  29.886  26.738  1.00  0.00     0.002 C 
ENDROOT
BRANCH   1   2
ATOM      2  C   UNL A   1      33.281  28.431  27.215  1.00  0.00     0.021 C 
BRANCH   2   3
ATOM      3  C   UNL A   1      33.092  27.374  26.132  1.00  0.00     0.116 C 
BRANCH   3   4
ATOM      4  N   UNL A   1      32.154  26.354  26.542  1.00  0.00    -0.356 N 
ATOM      5  C   UNL A   1      32.031  25.040  26.254  1.00  0.00     0.226 C 
ATOM      6  O   UNL A   1      31.011  24.500  26.698  1.00  0.00    -0.274 OA
ATOM      7  H   UNL A   1      31.461  26.685  27.158  1.00  0.00     0.163 HD
BRANCH   5   8
ATOM      8  C   UNL A   1      33.072  24.243  25.431  1.00  0.00     0.057 C 
BRANCH   8   9
ATOM      9  C   UNL A   1      33.240  22.862  26.138  1.00  0.00     0.014 C 
ATOM     10  C   UNL A   1      32.705  21.624  25.425  1.00  0.00     0.005 C 
ENDBRANCH   8   9
BRANCH   8  11
ATOM     11  C   UNL A   1      34.456  24.963  25.404  1.00  0.00     0.014 C 
ATOM     12  C   UNL A   1      35.650  24.098  25.797  1.00  0.00     0.005 C 
ENDBRANCH   8  11
BRANCH   8  13
ATOM     13  C   UNL A   1      32.555  23.970  23.986  1.00  0.00     0.117 C 
BRANCH  13  14
ATOM     14  C   UNL A   1      33.472  24.302  22.807  1.00  0.00     0.225 C 
ATOM     15  O   UNL A   1      34.339  23.507  22.436  1.00  0.00    -0.275 OA
ATOM     16  N   UNL A   1      33.233  25.421  22.044  1.00  0.00    -0.326 N 
ATOM     17  H   UNL A   1      33.627  25.421  21.141  1.00  0.00     0.169 HD
BRANCH  16  18
ATOM     18  C   UNL A   1      32.501  26.560  22.395  1.00  0.00     0.044 A 
ATOM     19  C   UNL A   1      33.150  27.792  22.514  1.00  0.00     0.029 A 
ATOM     20  C   UNL A   1      31.120  26.486  22.555  1.00  0.00     0.068 A 
ATOM     21  C   UNL A   1      32.459  28.914  22.973  1.00  0.00     0.044 A 
ATOM     22  C   UNL A   1      30.427  27.621  22.975  1.00  0.00     0.160 A 
ATOM     23  C   UNL A   1      31.098  28.817  23.218  1.00  0.00     0.158 A 
ATOM     24  F   UNL A   1      29.102  27.550  23.157  1.00  0.00    -0.204 F 
ATOM     25  F   UNL A   1      30.434  29.887  23.675  1.00  0.00    -0.204 F 
ENDBRANCH  16  18
ENDBRANCH  13  14
ENDBRANCH   8  13
ENDBRANCH   5   8
ENDBRANCH   3   4
ENDBRANCH   2   3
ENDBRANCH   1   2
BRANCH   1  26
ATOM     26  C   UNL A   1      31.764  30.431  26.549  1.00  0.00     0.002 C 
BRANCH  26  27
ATOM     27  C   UNL A   1      31.575  31.905  26.905  1.00  0.00     0.021 C 
BRANCH  27  28
ATOM     28  C   UNL A   1      32.856  32.659  27.238  1.00  0.00     0.116 C 
BRANCH  28  29
ATOM     29  N   UNL A   1      32.598  34.015  27.689  1.00  0.00    -0.352 N 
ATOM     30  C   UNL A   1      33.205  34.720  28.699  1.00  0.00     0.251 C 
ATOM     31  H   UNL A   1      31.890  34.496  27.202  1.00  0.00     0.163 HD
ATOM     32  O   UNL A   1      32.738  35.794  29.058  1.00  0.00    -0.269 OA
BRANCH  30  33
ATOM     33  C   UNL A   1      34.402  34.160  29.366  1.00  0.00     0.039 A 
ATOM     34  C   UNL A   1      34.224  33.321  30.468  1.00  0.00     0.014 A 
ATOM     35  C   UNL A   1      35.691  34.457  28.911  1.00  0.00     0.014 A 
ATOM     36  C   UNL A   1      35.335  32.741  31.081  1.00  0.00     0.010 A 
ATOM     37  C   UNL A   1      36.792  33.816  29.473  1.00  0.00     0.010 A 
ATOM     38  C   UNL A   1      36.626  32.959  30.571  1.00  0.00    -0.014 A 
BRANCH  38  39
ATOM     39  C   UNL A   1      37.805  32.297  31.186  1.00  0.00     0.031 A 
ATOM     40  C   UNL A   1      38.355  32.786  32.499  1.00  0.00     0.074 A 
ATOM     41  C   UNL A   1      38.399  31.274  30.542  1.00  0.00     0.049 A 
ATOM     42  N   UNL A   1      39.363  32.328  33.197  1.00  0.00    -0.248 NA
ATOM     43  C   UNL A   1      37.703  33.965  33.088  1.00  0.00     0.031 C 
ATOM     44  C   UNL A   1      37.988  30.745  29.239  1.00  0.00     0.029 A 
ATOM     45  N   UNL A   1      39.468  30.489  30.894  1.00  0.00    -0.354 N 
ATOM     46  C   UNL A   1      39.474  33.169  34.300  1.00  0.00     0.074 A 
ATOM     47  C   UNL A   1      38.473  34.201  34.139  1.00  0.00     0.031 C 
ATOM     48  C   UNL A   1      38.762  29.694  28.926  1.00  0.00     0.029 A 
ATOM     49  C   UNL A   1      39.751  29.499  29.982  1.00  0.00     0.049 A 
ATOM     50  H   UNL A   1      39.985  30.623  31.721  1.00  0.00     0.167 HD
ATOM     51  C   UNL A   1      40.316  33.073  35.360  1.00  0.00     0.034 A 
ATOM     52  C   UNL A   1      40.694  28.538  29.999  1.00  0.00     0.034 A 
ATOM     53  C   UNL A   1      41.301  32.027  35.505  1.00  0.00     0.049 A 
ATOM     54  C   UNL A   1      41.628  28.460  31.179  1.00  0.00     0.074 A 
ATOM     55  C   UNL A   1      42.156  31.787  36.568  1.00  0.00     0.029 A 
ATOM     56  N   UNL A   1      41.577  31.054  34.552  1.00  0.00    -0.354 N 
ATOM     57  N   UNL A   1      41.673  29.215  32.253  1.00  0.00    -0.248 NA
ATOM     58  C   UNL A   1      42.630  27.389  31.152  1.00  0.00     0.031 C 
ATOM     59  C   UNL A   1      42.997  30.722  36.225  1.00  0.00     0.029 A 
ATOM     60  C   UNL A   1      42.616  30.240  34.983  1.00  0.00     0.049 A 
ATOM     61  H   UNL A   1      41.104  30.956  33.694  1.00  0.00     0.167 HD
ATOM     62  C   UNL A   1      42.691  28.690  33.044  1.00  0.00     0.074 A 
ATOM     63  C   UNL A   1      43.214  27.542  32.331  1.00  0.00     0.031 C 
ATOM     64  C   UNL A   1      43.150  29.115  34.250  1.00  0.00     0.034 A 
BRANCH  51  65
ATOM     65  C   UNL A   1      40.225  34.150  36.419  1.00  0.00     0.023 A 
ATOM     66  C   UNL A   1      41.234  35.116  36.585  1.00  0.00     0.031 A 
ATOM     67  C   UNL A   1      39.134  34.185  37.305  1.00  0.00     0.131 A 
ATOM     68  C   UNL A   1      41.178  36.012  37.665  1.00  0.00     0.055 A 
ATOM     69  C   UNL A   1      39.039  35.138  38.322  1.00  0.00     0.041 A 
ATOM     70  F   UNL A   1      38.148  33.279  37.213  1.00  0.00    -0.206 F 
ATOM     71  C   UNL A   1      40.075  36.046  38.519  1.00  0.00     0.022 A 
BRANCH  68  72
ATOM     72  S   UNL A   1      42.646  37.011  38.037  1.00  0.00     0.124 S 
ATOM     73  O   UNL A   1      43.514  36.031  38.686  1.00  0.00    -0.237 OA
ATOM     74  O   UNL A   1      43.065  37.460  36.716  1.00  0.00    -0.237 OA
ATOM     75  O   UNL A   1      42.134  38.057  38.921  1.00  0.00    -0.744 OA
ENDBRANCH  68  72
ENDBRANCH  51  65
BRANCH  52  76
ATOM     76  C   UNL A   1      40.798  27.561  28.879  1.00  0.00     0.023 A 
ATOM     77  C   UNL A   1      41.756  27.727  27.866  1.00  0.00     0.031 A 
ATOM     78  C   UNL A   1      39.921  26.466  28.784  1.00  0.00     0.131 A 
ATOM     79  C   UNL A   1      41.789  26.838  26.781  1.00  0.00     0.055 A 
ATOM     80  C   UNL A   1      39.990  25.556  27.728  1.00  0.00     0.041 A 
ATOM     81  F   UNL A   1      38.991  26.258  29.729  1.00  0.00    -0.206 F 
ATOM     82  C   UNL A   1      40.920  25.747  26.711  1.00  0.00     0.022 A 
BRANCH  79  83
ATOM     83  S   UNL A   1      42.937  27.175  25.417  1.00  0.00     0.124 S 
ATOM     84  O   UNL A   1      42.220  28.202  24.670  1.00  0.00    -0.237 OA
ATOM     85  O   UNL A   1      44.132  27.614  26.131  1.00  0.00    -0.237 OA
ATOM     86  O   UNL A   1      43.056  25.882  24.747  1.00  0.00    -0.744 OA
ENDBRANCH  79  83
ENDBRANCH  52  76
BRANCH  64  87
ATOM     87  C   UNL A   1      44.261  28.303  34.876  1.00  0.00     0.023 A 
ATOM     88  C   UNL A   1      43.997  27.310  35.837  1.00  0.00     0.031 A 
ATOM     89  C   UNL A   1      45.602  28.559  34.544  1.00  0.00     0.131 A 
ATOM     90  C   UNL A   1      45.060  26.668  36.489  1.00  0.00     0.055 A 
ATOM     91  C   UNL A   1      46.654  27.863  35.143  1.00  0.00     0.041 A 
ATOM     92  F   UNL A   1      45.916  29.497  33.636  1.00  0.00    -0.206 F 
ATOM     93  C   UNL A   1      46.386  26.925  36.135  1.00  0.00     0.022 A 
BRANCH  90  94
ATOM     94  S   UNL A   1      44.688  25.587  37.898  1.00  0.00     0.124 S 
ATOM     95  O   UNL A   1      45.989  24.981  38.167  1.00  0.00    -0.237 OA
ATOM     96  O   UNL A   1      44.207  26.533  38.899  1.00  0.00    -0.237 OA
ATOM     97  O   UNL A   1      43.677  24.673  37.371  1.00  0.00    -0.744 OA
ENDBRANCH  90  94
ENDBRANCH  64  87
ENDBRANCH  38  39
ENDBRANCH  30  33
ENDBRANCH  28  29
ENDBRANCH  27  28
ENDBRANCH  26  27
ENDBRANCH   1  26
TORSDOF 21
ENDMDL
