MODEL 1
REMARK VINA RESULT:     -12.8      0.000      0.000
REMARK SMILES O=C(NCCCCCCNC(=O)c1ccc(-c2c3nc(c(-c4cc(S(=O)(=O)[O-])ccc4F)c4ccc([nH]4)c(-c4cc(S(=O)(=O)[O-])ccc4F)c4nc(c(-c5cc(S(=O)(=O)[O-])ccc5F)c5ccc2[nH]5)C=C4)C=C3)cc1)C1=N[C@@H]2NC=NN2[C@@H]([C@H]2C=NN=C2c2ccc(F)cc2)C1
REMARK SMILES IDX 7 1 6 2 5 3 4 4 3 5 1 6 2 7 76 9 77 10 96 11 78 12 83 13
REMARK SMILES IDX 79 14 82 15 80 16 81 18 84 19 85 20 88 21 86 22 87 23 89 24
REMARK SMILES IDX 90 25 95 26 91 27 94 28 92 29 93 30 8 31 9 32 10 33 11 34
REMARK SMILES IDX 12 36 13 37 14 38 75 39 15 40 74 41 16 42 17 43 18 44 68 45
REMARK SMILES IDX 19 46 73 47 67 48 69 49 20 50 72 51 66 52 65 53 21 55 53 56
REMARK SMILES IDX 33 57 52 58 34 59 37 60 51 61 70 62 35 63 36 64 50 66 71 67
REMARK SMILES IDX 38 68 22 69 23 70 31 71 24 72 30 73 32 74 29 75 25 76 26 77
REMARK SMILES IDX 27 78 28 79 54 80 55 81 63 82 56 83 62 84 64 85 61 86 57 87
REMARK SMILES IDX 58 88 59 89 60 90 39 91 40 92 48 93 41 94 47 95 49 96 46 97
REMARK SMILES IDX 42 98 43 99 44 100 45 101
REMARK H PARENT 3 8 79 17 10 35 69 54 37 65
REMARK Flexibility Score: inf
ROOT
ATOM      1  C   UNL A   1      31.911  29.848  26.527  1.00  0.00     0.002 C 
ENDROOT
BRANCH   1   2
ATOM      2  C   UNL A   1      31.661  29.218  25.157  1.00  0.00     0.002 C 
BRANCH   2   3
ATOM      3  C   UNL A   1      31.971  27.728  25.008  1.00  0.00     0.021 C 
BRANCH   3   4
ATOM      4  C   UNL A   1      30.927  26.844  24.331  1.00  0.00     0.116 C 
BRANCH   4   5
ATOM      5  N   UNL A   1      29.906  26.303  25.206  1.00  0.00    -0.351 N 
ATOM      6  O   UNL A   1      29.019  25.085  26.876  1.00  0.00    -0.268 OA
ATOM      7  C   UNL A   1      29.961  25.259  26.106  1.00  0.00     0.265 C 
ATOM      8  H   UNL A   1      29.033  26.753  25.149  1.00  0.00     0.163 HD
BRANCH   7   9
ATOM      9  C   UNL A   1      31.113  24.236  26.124  1.00  0.00     0.106 C 
ATOM     10  N   UNL A   1      31.368  23.682  27.258  1.00  0.00    -0.237 NA
ATOM     11  C   UNL A   1      31.900  23.984  24.871  1.00  0.00     0.090 C 
ATOM     12  C   UNL A   1      32.259  22.552  27.316  1.00  0.00     0.319 C 
ATOM     13  C   UNL A   1      33.037  22.982  25.077  1.00  0.00     0.127 C 
ATOM     14  N   UNL A   1      33.449  22.637  28.115  1.00  0.00    -0.335 N 
ATOM     15  N   UNL A   1      32.713  21.919  26.056  1.00  0.00    -0.249 NA
ATOM     16  C   UNL A   1      34.280  21.718  27.544  1.00  0.00     0.217 C 
ATOM     17  H   UNL A   1      33.623  23.219  28.889  1.00  0.00     0.165 HD
ATOM     18  N   UNL A   1      33.894  21.208  26.402  1.00  0.00    -0.164 NA
BRANCH  13  19
ATOM     19  C   UNL A   1      33.539  22.315  23.781  1.00  0.00     0.109 C 
ATOM     20  C   UNL A   1      32.749  22.702  22.578  1.00  0.00     0.120 C 
ATOM     21  C   UNL A   1      34.854  22.871  23.335  1.00  0.00     0.081 C 
ATOM     22  N   UNL A   1      33.433  23.385  21.719  1.00  0.00    -0.162 NA
ATOM     23  N   UNL A   1      34.771  23.507  22.207  1.00  0.00    -0.155 NA
BRANCH  21  24
ATOM     24  C   UNL A   1      36.058  22.790  24.177  1.00  0.00    -0.001 A 
ATOM     25  C   UNL A   1      36.809  21.609  24.254  1.00  0.00     0.013 A 
ATOM     26  C   UNL A   1      36.377  23.886  24.985  1.00  0.00     0.013 A 
ATOM     27  C   UNL A   1      37.863  21.521  25.164  1.00  0.00     0.040 A 
ATOM     28  C   UNL A   1      37.426  23.788  25.899  1.00  0.00     0.040 A 
ATOM     29  C   UNL A   1      38.154  22.606  25.984  1.00  0.00     0.123 A 
ATOM     30  F   UNL A   1      39.146  22.506  26.877  1.00  0.00    -0.207 F 
ENDBRANCH  21  24
ENDBRANCH  13  19
ENDBRANCH   7   9
ENDBRANCH   4   5
ENDBRANCH   3   4
ENDBRANCH   2   3
ENDBRANCH   1   2
BRANCH   1  31
ATOM     31  C   UNL A   1      31.768  31.369  26.622  1.00  0.00     0.021 C 
BRANCH  31  32
ATOM     32  C   UNL A   1      32.976  32.130  27.161  1.00  0.00     0.116 C 
BRANCH  32  33
ATOM     33  N   UNL A   1      32.672  33.505  27.519  1.00  0.00    -0.352 N 
ATOM     34  C   UNL A   1      33.228  34.300  28.493  1.00  0.00     0.251 C 
ATOM     35  H   UNL A   1      31.963  33.931  26.985  1.00  0.00     0.163 HD
ATOM     36  O   UNL A   1      32.726  35.401  28.731  1.00  0.00    -0.269 OA
BRANCH  34  37
ATOM     37  C   UNL A   1      34.396  33.833  29.277  1.00  0.00     0.039 A 
ATOM     38  C   UNL A   1      34.175  33.027  30.398  1.00  0.00     0.014 A 
ATOM     39  C   UNL A   1      35.700  34.186  28.923  1.00  0.00     0.014 A 
ATOM     40  C   UNL A   1      35.263  32.518  31.116  1.00  0.00     0.010 A 
ATOM     41  C   UNL A   1      36.784  33.616  29.593  1.00  0.00     0.010 A 
ATOM     42  C   UNL A   1      36.578  32.773  30.696  1.00  0.00    -0.014 A 
BRANCH  42  43
ATOM     43  C   UNL A   1      37.744  32.163  31.396  1.00  0.00     0.031 A 
ATOM     44  C   UNL A   1      38.488  31.014  30.770  1.00  0.00     0.074 A 
ATOM     45  C   UNL A   1      38.101  32.611  32.617  1.00  0.00     0.049 A 
ATOM     46  N   UNL A   1      39.476  30.304  31.255  1.00  0.00    -0.248 NA
ATOM     47  C   UNL A   1      38.048  30.593  29.431  1.00  0.00     0.031 C 
ATOM     48  C   UNL A   1      37.437  33.693  33.345  1.00  0.00     0.029 A 
ATOM     49  N   UNL A   1      39.101  32.207  33.468  1.00  0.00    -0.354 N 
ATOM     50  C   UNL A   1      39.775  29.355  30.283  1.00  0.00     0.074 A 
ATOM     51  C   UNL A   1      38.816  29.536  29.214  1.00  0.00     0.031 C 
ATOM     52  C   UNL A   1      38.058  33.880  34.521  1.00  0.00     0.029 A 
ATOM     53  C   UNL A   1      39.129  32.898  34.658  1.00  0.00     0.049 A 
ATOM     54  H   UNL A   1      39.739  31.490  33.246  1.00  0.00     0.167 HD
ATOM     55  C   UNL A   1      40.773  28.435  30.271  1.00  0.00     0.034 A 
ATOM     56  C   UNL A   1      39.911  32.746  35.746  1.00  0.00     0.034 A 
ATOM     57  C   UNL A   1      41.720  28.262  31.347  1.00  0.00     0.049 A 
ATOM     58  C   UNL A   1      40.981  31.682  35.732  1.00  0.00     0.074 A 
ATOM     59  C   UNL A   1      42.784  27.380  31.425  1.00  0.00     0.029 A 
ATOM     60  N   UNL A   1      41.712  28.976  32.539  1.00  0.00    -0.354 N 
ATOM     61  N   UNL A   1      41.276  30.819  34.787  1.00  0.00    -0.248 NA
ATOM     62  C   UNL A   1      41.832  31.579  36.925  1.00  0.00     0.031 C 
ATOM     63  C   UNL A   1      43.372  27.509  32.686  1.00  0.00     0.029 A 
ATOM     64  C   UNL A   1      42.735  28.535  33.366  1.00  0.00     0.049 A 
ATOM     65  H   UNL A   1      41.075  29.693  32.763  1.00  0.00     0.167 HD
ATOM     66  C   UNL A   1      42.367  30.094  35.260  1.00  0.00     0.074 A 
ATOM     67  C   UNL A   1      42.689  30.635  36.565  1.00  0.00     0.031 C 
ATOM     68  C   UNL A   1      43.044  29.076  34.670  1.00  0.00     0.034 A 
BRANCH  55  69
ATOM     69  C   UNL A   1      40.875  27.536  29.060  1.00  0.00     0.023 A 
ATOM     70  C   UNL A   1      41.860  27.736  28.077  1.00  0.00     0.031 A 
ATOM     71  C   UNL A   1      39.971  26.474  28.877  1.00  0.00     0.131 A 
ATOM     72  C   UNL A   1      41.871  26.939  26.923  1.00  0.00     0.055 A 
ATOM     73  C   UNL A   1      40.042  25.630  27.767  1.00  0.00     0.041 A 
ATOM     74  F   UNL A   1      38.995  26.245  29.770  1.00  0.00    -0.206 F 
ATOM     75  C   UNL A   1      40.987  25.868  26.773  1.00  0.00     0.022 A 
BRANCH  72  76
ATOM     76  S   UNL A   1      42.963  27.414  25.554  1.00  0.00     0.124 S 
ATOM     77  O   UNL A   1      44.085  28.018  26.269  1.00  0.00    -0.237 OA
ATOM     78  O   UNL A   1      43.232  26.136  24.907  1.00  0.00    -0.237 OA
ATOM     79  O   UNL A   1      42.152  28.350  24.778  1.00  0.00    -0.744 OA
ENDBRANCH  72  76
ENDBRANCH  55  69
BRANCH  56  80
ATOM     80  C   UNL A   1      39.700  33.595  36.956  1.00  0.00     0.023 A 
ATOM     81  C   UNL A   1      40.513  34.710  37.218  1.00  0.00     0.031 A 
ATOM     82  C   UNL A   1      38.712  33.268  37.903  1.00  0.00     0.131 A 
ATOM     83  C   UNL A   1      40.362  35.421  38.420  1.00  0.00     0.055 A 
ATOM     84  C   UNL A   1      38.523  34.017  39.066  1.00  0.00     0.041 A 
ATOM     85  F   UNL A   1      37.905  32.213  37.706  1.00  0.00    -0.206 F 
ATOM     86  C   UNL A   1      39.362  35.092  39.337  1.00  0.00     0.022 A 
BRANCH  83  87
ATOM     87  S   UNL A   1      41.567  36.718  38.819  1.00  0.00     0.124 S 
ATOM     88  O   UNL A   1      42.467  36.016  39.728  1.00  0.00    -0.237 OA
ATOM     89  O   UNL A   1      42.108  37.044  37.504  1.00  0.00    -0.237 OA
ATOM     90  O   UNL A   1      40.750  37.763  39.433  1.00  0.00    -0.744 OA
ENDBRANCH  83  87
ENDBRANCH  56  80
BRANCH  68  91
ATOM     91  C   UNL A   1      44.237  28.518  35.410  1.00  0.00     0.023 A 
ATOM     92  C   UNL A   1      44.109  27.487  36.357  1.00  0.00     0.031 A 
ATOM     93  C   UNL A   1      45.522  29.036  35.168  1.00  0.00     0.131 A 
ATOM     94  C   UNL A   1      45.237  27.049  37.069  1.00  0.00     0.055 A 
ATOM     95  C   UNL A   1      46.650  28.548  35.830  1.00  0.00     0.041 A 
ATOM     96  F   UNL A   1      45.704  30.026  34.279  1.00  0.00    -0.206 F 
ATOM     97  C   UNL A   1      46.509  27.559  36.796  1.00  0.00     0.022 A 
BRANCH  94  98
ATOM     98  S   UNL A   1      45.005  25.874  38.431  1.00  0.00     0.124 S 
ATOM     99  O   UNL A   1      44.232  26.663  39.384  1.00  0.00    -0.237 OA
ATOM    100  O   UNL A   1      44.291  24.779  37.782  1.00  0.00    -0.237 OA
ATOM    101  O   UNL A   1      46.370  25.559  38.850  1.00  0.00    -0.744 OA
ENDBRANCH  94  98
ENDBRANCH  68  91
ENDBRANCH  42  43
ENDBRANCH  34  37
ENDBRANCH  32  33
ENDBRANCH  31  32
ENDBRANCH   1  31
TORSDOF 18
ENDMDL
MODEL 2
REMARK VINA RESULT:     -12.7      5.016      8.448
REMARK SMILES O=C(NCCCCCCNC(=O)c1ccc(-c2c3nc(c(-c4cc(S(=O)(=O)[O-])ccc4F)c4ccc([nH]4)c(-c4cc(S(=O)(=O)[O-])ccc4F)c4nc(c(-c5cc(S(=O)(=O)[O-])ccc5F)c5ccc2[nH]5)C=C4)C=C3)cc1)C1=N[C@@H]2NC=NN2[C@@H]([C@H]2C=NN=C2c2ccc(F)cc2)C1
REMARK SMILES IDX 7 1 6 2 5 3 4 4 3 5 1 6 2 7 76 9 77 10 96 11 78 12 83 13
REMARK SMILES IDX 79 14 82 15 80 16 81 18 84 19 85 20 88 21 86 22 87 23 89 24
REMARK SMILES IDX 90 25 95 26 91 27 94 28 92 29 93 30 8 31 9 32 10 33 11 34
REMARK SMILES IDX 12 36 13 37 14 38 75 39 15 40 74 41 16 42 17 43 18 44 68 45
REMARK SMILES IDX 19 46 73 47 67 48 69 49 20 50 72 51 66 52 65 53 21 55 53 56
REMARK SMILES IDX 33 57 52 58 34 59 37 60 51 61 70 62 35 63 36 64 50 66 71 67
REMARK SMILES IDX 38 68 22 69 23 70 31 71 24 72 30 73 32 74 29 75 25 76 26 77
REMARK SMILES IDX 27 78 28 79 54 80 55 81 63 82 56 83 62 84 64 85 61 86 57 87
REMARK SMILES IDX 58 88 59 89 60 90 39 91 40 92 48 93 41 94 47 95 49 96 46 97
REMARK SMILES IDX 42 98 43 99 44 100 45 101
REMARK H PARENT 3 8 79 17 10 35 69 54 37 65
REMARK Flexibility Score: inf
ROOT
ATOM      1  C   UNL A   1      34.637  23.809  25.512  1.00  0.00     0.002 C 
ENDROOT
BRANCH   1   2
ATOM      2  C   UNL A   1      34.153  22.435  25.047  1.00  0.00     0.002 C 
BRANCH   2   3
ATOM      3  C   UNL A   1      33.855  22.270  23.556  1.00  0.00     0.021 C 
BRANCH   3   4
ATOM      4  C   UNL A   1      32.667  23.033  22.975  1.00  0.00     0.116 C 
BRANCH   4   5
ATOM      5  N   UNL A   1      32.880  23.616  21.665  1.00  0.00    -0.351 N 
ATOM      6  O   UNL A   1      33.135  25.223  20.112  1.00  0.00    -0.268 OA
ATOM      7  C   UNL A   1      32.726  24.916  21.230  1.00  0.00     0.265 C 
ATOM      8  H   UNL A   1      33.184  22.983  20.976  1.00  0.00     0.163 HD
BRANCH   7   9
ATOM      9  C   UNL A   1      31.971  25.983  22.046  1.00  0.00     0.106 C 
ATOM     10  N   UNL A   1      31.480  26.970  21.380  1.00  0.00    -0.237 NA
ATOM     11  C   UNL A   1      31.897  25.858  23.539  1.00  0.00     0.090 C 
ATOM     12  C   UNL A   1      30.565  27.878  22.022  1.00  0.00     0.319 C 
ATOM     13  C   UNL A   1      31.160  27.027  24.195  1.00  0.00     0.127 C 
ATOM     14  N   UNL A   1      30.898  29.273  22.097  1.00  0.00    -0.335 N 
ATOM     15  N   UNL A   1      30.048  27.556  23.373  1.00  0.00    -0.249 NA
ATOM     16  C   UNL A   1      30.179  29.713  23.169  1.00  0.00     0.217 C 
ATOM     17  H   UNL A   1      31.501  29.788  21.513  1.00  0.00     0.165 HD
ATOM     18  N   UNL A   1      29.604  28.796  23.906  1.00  0.00    -0.164 NA
BRANCH  13  19
ATOM     19  C   UNL A   1      30.620  26.725  25.608  1.00  0.00     0.109 C 
ATOM     20  C   UNL A   1      30.235  25.298  25.796  1.00  0.00     0.120 C 
ATOM     21  C   UNL A   1      31.699  26.771  26.643  1.00  0.00     0.081 C 
ATOM     22  N   UNL A   1      30.976  24.679  26.656  1.00  0.00    -0.162 NA
ATOM     23  N   UNL A   1      31.920  25.613  27.186  1.00  0.00    -0.155 NA
BRANCH  21  24
ATOM     24  C   UNL A   1      32.482  27.990  26.896  1.00  0.00    -0.001 A 
ATOM     25  C   UNL A   1      31.851  29.221  27.125  1.00  0.00     0.013 A 
ATOM     26  C   UNL A   1      33.875  27.916  26.797  1.00  0.00     0.013 A 
ATOM     27  C   UNL A   1      32.620  30.381  27.225  1.00  0.00     0.040 A 
ATOM     28  C   UNL A   1      34.637  29.080  26.889  1.00  0.00     0.040 A 
ATOM     29  C   UNL A   1      34.003  30.301  27.096  1.00  0.00     0.123 A 
ATOM     30  F   UNL A   1      34.734  31.420  27.163  1.00  0.00    -0.207 F 
ENDBRANCH  21  24
ENDBRANCH  13  19
ENDBRANCH   7   9
ENDBRANCH   4   5
ENDBRANCH   3   4
ENDBRANCH   2   3
ENDBRANCH   1   2
BRANCH   1  31
ATOM     31  C   UNL A   1      36.113  23.924  25.899  1.00  0.00     0.021 C 
BRANCH  31  32
ATOM     32  C   UNL A   1      37.120  23.349  24.907  1.00  0.00     0.116 C 
BRANCH  32  33
ATOM     33  N   UNL A   1      38.054  22.417  25.516  1.00  0.00    -0.352 N 
ATOM     34  C   UNL A   1      39.148  22.666  26.310  1.00  0.00     0.251 C 
ATOM     35  H   UNL A   1      37.877  21.466  25.332  1.00  0.00     0.163 HD
ATOM     36  O   UNL A   1      39.899  21.735  26.609  1.00  0.00    -0.269 OA
BRANCH  34  37
ATOM     37  C   UNL A   1      39.449  24.040  26.775  1.00  0.00     0.039 A 
ATOM     38  C   UNL A   1      39.129  24.391  28.091  1.00  0.00     0.014 A 
ATOM     39  C   UNL A   1      40.035  24.984  25.929  1.00  0.00     0.014 A 
ATOM     40  C   UNL A   1      39.464  25.660  28.575  1.00  0.00     0.010 A 
ATOM     41  C   UNL A   1      40.437  26.222  26.435  1.00  0.00     0.010 A 
ATOM     42  C   UNL A   1      40.159  26.573  27.765  1.00  0.00    -0.014 A 
BRANCH  42  43
ATOM     43  C   UNL A   1      40.604  27.893  28.296  1.00  0.00     0.031 A 
ATOM     44  C   UNL A   1      42.069  28.183  28.478  1.00  0.00     0.074 A 
ATOM     45  C   UNL A   1      39.685  28.812  28.660  1.00  0.00     0.049 A 
ATOM     46  N   UNL A   1      42.647  29.238  28.994  1.00  0.00    -0.248 NA
ATOM     47  C   UNL A   1      43.008  27.137  28.045  1.00  0.00     0.031 C 
ATOM     48  C   UNL A   1      38.235  28.637  28.566  1.00  0.00     0.029 A 
ATOM     49  N   UNL A   1      39.831  30.070  29.192  1.00  0.00    -0.354 N 
ATOM     50  C   UNL A   1      44.014  28.986  28.948  1.00  0.00     0.074 A 
ATOM     51  C   UNL A   1      44.172  27.647  28.419  1.00  0.00     0.031 C 
ATOM     52  C   UNL A   1      37.627  29.750  29.005  1.00  0.00     0.029 A 
ATOM     53  C   UNL A   1      38.637  30.699  29.464  1.00  0.00     0.049 A 
ATOM     54  H   UNL A   1      40.709  30.482  29.363  1.00  0.00     0.167 HD
ATOM     55  C   UNL A   1      45.043  29.803  29.288  1.00  0.00     0.034 A 
ATOM     56  C   UNL A   1      38.381  31.892  30.037  1.00  0.00     0.034 A 
ATOM     57  C   UNL A   1      44.871  31.133  29.819  1.00  0.00     0.049 A 
ATOM     58  C   UNL A   1      39.541  32.763  30.456  1.00  0.00     0.074 A 
ATOM     59  C   UNL A   1      45.843  32.054  30.171  1.00  0.00     0.029 A 
ATOM     60  N   UNL A   1      43.646  31.733  30.086  1.00  0.00    -0.354 N 
ATOM     61  N   UNL A   1      40.829  32.523  30.367  1.00  0.00    -0.248 NA
ATOM     62  C   UNL A   1      39.212  34.069  31.041  1.00  0.00     0.031 C 
ATOM     63  C   UNL A   1      45.212  33.176  30.716  1.00  0.00     0.029 A 
ATOM     64  C   UNL A   1      43.841  32.998  30.623  1.00  0.00     0.049 A 
ATOM     65  H   UNL A   1      42.768  31.322  29.917  1.00  0.00     0.167 HD
ATOM     66  C   UNL A   1      41.462  33.664  30.855  1.00  0.00     0.074 A 
ATOM     67  C   UNL A   1      40.415  34.596  31.217  1.00  0.00     0.031 C 
ATOM     68  C   UNL A   1      42.789  33.919  30.988  1.00  0.00     0.034 A 
BRANCH  55  69
ATOM     69  C   UNL A   1      46.445  29.265  29.111  1.00  0.00     0.023 A 
ATOM     70  C   UNL A   1      47.043  29.176  27.841  1.00  0.00     0.031 A 
ATOM     71  C   UNL A   1      47.190  28.824  30.220  1.00  0.00     0.131 A 
ATOM     72  C   UNL A   1      48.310  28.591  27.702  1.00  0.00     0.055 A 
ATOM     73  C   UNL A   1      48.486  28.322  30.083  1.00  0.00     0.041 A 
ATOM     74  F   UNL A   1      46.666  28.864  31.455  1.00  0.00    -0.206 F 
ATOM     75  C   UNL A   1      49.049  28.189  28.817  1.00  0.00     0.022 A 
BRANCH  72  76
ATOM     76  S   UNL A   1      48.916  28.229  26.031  1.00  0.00     0.124 S 
ATOM     77  O   UNL A   1      50.080  29.108  25.944  1.00  0.00    -0.237 OA
ATOM     78  O   UNL A   1      49.199  26.800  26.101  1.00  0.00    -0.237 OA
ATOM     79  O   UNL A   1      47.796  28.604  25.171  1.00  0.00    -0.744 OA
ENDBRANCH  72  76
ENDBRANCH  55  69
BRANCH  56  80
ATOM     80  C   UNL A   1      36.975  32.330  30.281  1.00  0.00     0.023 A 
ATOM     81  C   UNL A   1      36.242  33.017  29.300  1.00  0.00     0.031 A 
ATOM     82  C   UNL A   1      36.359  32.116  31.529  1.00  0.00     0.131 A 
ATOM     83  C   UNL A   1      34.963  33.513  29.600  1.00  0.00     0.055 A 
ATOM     84  C   UNL A   1      35.063  32.555  31.801  1.00  0.00     0.041 A 
ATOM     85  F   UNL A   1      37.012  31.465  32.506  1.00  0.00    -0.206 F 
ATOM     86  C   UNL A   1      34.362  33.273  30.837  1.00  0.00     0.022 A 
BRANCH  83  87
ATOM     87  S   UNL A   1      34.136  34.577  28.384  1.00  0.00     0.124 S 
ATOM     88  O   UNL A   1      35.094  34.569  27.284  1.00  0.00    -0.237 OA
ATOM     89  O   UNL A   1      32.888  33.858  28.152  1.00  0.00    -0.237 OA
ATOM     90  O   UNL A   1      33.999  35.852  29.085  1.00  0.00    -0.744 OA
ENDBRANCH  83  87
ENDBRANCH  56  80
BRANCH  68  91
ATOM     91  C   UNL A   1      43.182  35.284  31.500  1.00  0.00     0.023 A 
ATOM     92  C   UNL A   1      43.465  36.353  30.631  1.00  0.00     0.031 A 
ATOM     93  C   UNL A   1      43.285  35.516  32.884  1.00  0.00     0.131 A 
ATOM     94  C   UNL A   1      43.893  37.584  31.152  1.00  0.00     0.055 A 
ATOM     95  C   UNL A   1      43.644  36.763  33.398  1.00  0.00     0.041 A 
ATOM     96  F   UNL A   1      43.033  34.531  33.763  1.00  0.00    -0.206 F 
ATOM     97  C   UNL A   1      43.965  37.801  32.530  1.00  0.00     0.022 A 
BRANCH  94  98
ATOM     98  S   UNL A   1      44.456  38.869  30.002  1.00  0.00     0.124 S 
ATOM     99  O   UNL A   1      45.780  38.383  29.629  1.00  0.00    -0.237 OA
ATOM    100  O   UNL A   1      43.440  38.819  28.956  1.00  0.00    -0.237 OA
ATOM    101  O   UNL A   1      44.447  40.084  30.815  1.00  0.00    -0.744 OA
ENDBRANCH  94  98
ENDBRANCH  68  91
ENDBRANCH  42  43
ENDBRANCH  34  37
ENDBRANCH  32  33
ENDBRANCH  31  32
ENDBRANCH   1  31
TORSDOF 18
ENDMDL
MODEL 3
REMARK VINA RESULT:     -12.6      5.448      8.858
REMARK SMILES O=C(NCCCCCCNC(=O)c1ccc(-c2c3nc(c(-c4cc(S(=O)(=O)[O-])ccc4F)c4ccc([nH]4)c(-c4cc(S(=O)(=O)[O-])ccc4F)c4nc(c(-c5cc(S(=O)(=O)[O-])ccc5F)c5ccc2[nH]5)C=C4)C=C3)cc1)C1=N[C@@H]2NC=NN2[C@@H]([C@H]2C=NN=C2c2ccc(F)cc2)C1
REMARK SMILES IDX 7 1 6 2 5 3 4 4 3 5 1 6 2 7 76 9 77 10 96 11 78 12 83 13
REMARK SMILES IDX 79 14 82 15 80 16 81 18 84 19 85 20 88 21 86 22 87 23 89 24
REMARK SMILES IDX 90 25 95 26 91 27 94 28 92 29 93 30 8 31 9 32 10 33 11 34
REMARK SMILES IDX 12 36 13 37 14 38 75 39 15 40 74 41 16 42 17 43 18 44 68 45
REMARK SMILES IDX 19 46 73 47 67 48 69 49 20 50 72 51 66 52 65 53 21 55 53 56
REMARK SMILES IDX 33 57 52 58 34 59 37 60 51 61 70 62 35 63 36 64 50 66 71 67
REMARK SMILES IDX 38 68 22 69 23 70 31 71 24 72 30 73 32 74 29 75 25 76 26 77
REMARK SMILES IDX 27 78 28 79 54 80 55 81 63 82 56 83 62 84 64 85 61 86 57 87
REMARK SMILES IDX 58 88 59 89 60 90 39 91 40 92 48 93 41 94 47 95 49 96 46 97
REMARK SMILES IDX 42 98 43 99 44 100 45 101
REMARK H PARENT 3 8 79 17 10 35 69 54 37 65
REMARK Flexibility Score: inf
ROOT
ATOM      1  C   UNL A   1      36.073  23.007  23.479  1.00  0.00     0.002 C 
ENDROOT
BRANCH   1   2
ATOM      2  C   UNL A   1      34.789  23.665  23.985  1.00  0.00     0.002 C 
BRANCH   2   3
ATOM      3  C   UNL A   1      33.833  22.791  24.799  1.00  0.00     0.021 C 
BRANCH   3   4
ATOM      4  C   UNL A   1      33.715  23.062  26.297  1.00  0.00     0.116 C 
BRANCH   4   5
ATOM      5  N   UNL A   1      32.368  23.043  26.830  1.00  0.00    -0.351 N 
ATOM      6  O   UNL A   1      30.246  23.712  27.167  1.00  0.00    -0.268 OA
ATOM      7  C   UNL A   1      31.383  24.009  26.806  1.00  0.00     0.265 C 
ATOM      8  H   UNL A   1      32.114  22.206  27.282  1.00  0.00     0.163 HD
BRANCH   7   9
ATOM      9  C   UNL A   1      31.668  25.478  26.437  1.00  0.00     0.106 C 
ATOM     10  N   UNL A   1      32.038  26.248  27.402  1.00  0.00    -0.237 NA
ATOM     11  C   UNL A   1      31.449  25.944  25.028  1.00  0.00     0.090 C 
ATOM     12  C   UNL A   1      32.549  27.562  27.109  1.00  0.00     0.319 C 
ATOM     13  C   UNL A   1      31.728  27.438  24.848  1.00  0.00     0.127 C 
ATOM     14  N   UNL A   1      31.883  28.711  27.654  1.00  0.00    -0.335 N 
ATOM     15  N   UNL A   1      32.828  27.937  25.703  1.00  0.00    -0.249 NA
ATOM     16  C   UNL A   1      32.229  29.714  26.796  1.00  0.00     0.217 C 
ATOM     17  H   UNL A   1      31.312  28.763  28.454  1.00  0.00     0.165 HD
ATOM     18  N   UNL A   1      32.837  29.358  25.693  1.00  0.00    -0.164 NA
BRANCH  13  19
ATOM     19  C   UNL A   1      32.010  27.861  23.393  1.00  0.00     0.109 C 
ATOM     20  C   UNL A   1      32.619  26.774  22.574  1.00  0.00     0.120 C 
ATOM     21  C   UNL A   1      30.752  28.018  22.599  1.00  0.00     0.081 C 
ATOM     22  N   UNL A   1      31.850  26.366  21.618  1.00  0.00    -0.162 NA
ATOM     23  N   UNL A   1      30.653  27.147  21.642  1.00  0.00    -0.155 NA
BRANCH  21  24
ATOM     24  C   UNL A   1      29.711  28.987  22.976  1.00  0.00    -0.001 A 
ATOM     25  C   UNL A   1      28.352  28.702  22.781  1.00  0.00     0.013 A 
ATOM     26  C   UNL A   1      30.112  30.245  23.434  1.00  0.00     0.013 A 
ATOM     27  C   UNL A   1      27.400  29.693  23.020  1.00  0.00     0.040 A 
ATOM     28  C   UNL A   1      29.156  31.234  23.663  1.00  0.00     0.040 A 
ATOM     29  C   UNL A   1      27.811  30.950  23.448  1.00  0.00     0.123 A 
ATOM     30  F   UNL A   1      26.896  31.908  23.647  1.00  0.00    -0.207 F 
ENDBRANCH  21  24
ENDBRANCH  13  19
ENDBRANCH   7   9
ENDBRANCH   4   5
ENDBRANCH   3   4
ENDBRANCH   2   3
ENDBRANCH   1   2
BRANCH   1  31
ATOM     31  C   UNL A   1      36.568  21.780  24.249  1.00  0.00     0.021 C 
BRANCH  31  32
ATOM     32  C   UNL A   1      37.203  22.047  25.610  1.00  0.00     0.116 C 
BRANCH  32  33
ATOM     33  N   UNL A   1      38.301  21.145  25.916  1.00  0.00    -0.352 N 
ATOM     34  C   UNL A   1      39.555  21.424  26.403  1.00  0.00     0.251 C 
ATOM     35  H   UNL A   1      38.118  20.192  25.750  1.00  0.00     0.163 HD
ATOM     36  O   UNL A   1      40.394  20.523  26.460  1.00  0.00    -0.269 OA
BRANCH  34  37
ATOM     37  C   UNL A   1      39.915  22.798  26.825  1.00  0.00     0.039 A 
ATOM     38  C   UNL A   1      40.759  22.966  27.927  1.00  0.00     0.014 A 
ATOM     39  C   UNL A   1      39.426  23.919  26.150  1.00  0.00     0.014 A 
ATOM     40  C   UNL A   1      41.168  24.249  28.304  1.00  0.00     0.010 A 
ATOM     41  C   UNL A   1      39.894  25.193  26.480  1.00  0.00     0.010 A 
ATOM     42  C   UNL A   1      40.773  25.372  27.559  1.00  0.00    -0.014 A 
BRANCH  42  43
ATOM     43  C   UNL A   1      41.275  26.735  27.892  1.00  0.00     0.031 A 
ATOM     44  C   UNL A   1      42.704  27.110  27.603  1.00  0.00     0.074 A 
ATOM     45  C   UNL A   1      40.458  27.619  28.501  1.00  0.00     0.049 A 
ATOM     46  N   UNL A   1      43.345  28.216  27.887  1.00  0.00    -0.248 NA
ATOM     47  C   UNL A   1      43.527  26.098  26.924  1.00  0.00     0.031 C 
ATOM     48  C   UNL A   1      39.064  27.363  28.867  1.00  0.00     0.029 A 
ATOM     49  N   UNL A   1      40.681  28.905  28.931  1.00  0.00    -0.354 N 
ATOM     50  C   UNL A   1      44.643  28.035  27.423  1.00  0.00     0.074 A 
ATOM     51  C   UNL A   1      44.715  26.684  26.905  1.00  0.00     0.031 C 
ATOM     52  C   UNL A   1      38.551  28.461  29.447  1.00  0.00     0.029 A 
ATOM     53  C   UNL A   1      39.591  29.481  29.545  1.00  0.00     0.049 A 
ATOM     54  H   UNL A   1      41.540  29.370  28.810  1.00  0.00     0.167 HD
ATOM     55  C   UNL A   1      45.672  28.919  27.407  1.00  0.00     0.034 A 
ATOM     56  C   UNL A   1      39.449  30.682  30.140  1.00  0.00     0.034 A 
ATOM     57  C   UNL A   1      45.588  30.260  27.932  1.00  0.00     0.049 A 
ATOM     58  C   UNL A   1      40.623  31.630  30.156  1.00  0.00     0.074 A 
ATOM     59  C   UNL A   1      46.561  31.246  27.942  1.00  0.00     0.029 A 
ATOM     60  N   UNL A   1      44.470  30.805  28.552  1.00  0.00    -0.354 N 
ATOM     61  N   UNL A   1      41.834  31.456  29.676  1.00  0.00    -0.248 NA
ATOM     62  C   UNL A   1      40.409  32.942  30.782  1.00  0.00     0.031 C 
ATOM     63  C   UNL A   1      46.059  32.355  28.628  1.00  0.00     0.029 A 
ATOM     64  C   UNL A   1      44.740  32.100  28.970  1.00  0.00     0.049 A 
ATOM     65  H   UNL A   1      43.611  30.341  28.675  1.00  0.00     0.167 HD
ATOM     66  C   UNL A   1      42.512  32.648  29.915  1.00  0.00     0.074 A 
ATOM     67  C   UNL A   1      41.572  33.539  30.562  1.00  0.00     0.031 C 
ATOM     68  C   UNL A   1      43.796  32.979  29.622  1.00  0.00     0.034 A 
BRANCH  55  69
ATOM     69  C   UNL A   1      46.982  28.450  26.816  1.00  0.00     0.023 A 
ATOM     70  C   UNL A   1      47.170  28.359  25.424  1.00  0.00     0.031 A 
ATOM     71  C   UNL A   1      48.052  28.076  27.648  1.00  0.00     0.131 A 
ATOM     72  C   UNL A   1      48.366  27.836  24.911  1.00  0.00     0.055 A 
ATOM     73  C   UNL A   1      49.272  27.637  27.127  1.00  0.00     0.041 A 
ATOM     74  F   UNL A   1      47.928  28.120  28.984  1.00  0.00    -0.206 F 
ATOM     75  C   UNL A   1      49.430  27.501  25.751  1.00  0.00     0.022 A 
BRANCH  72  76
ATOM     76  S   UNL A   1      48.456  27.464  23.138  1.00  0.00     0.124 S 
ATOM     77  O   UNL A   1      49.793  27.947  22.803  1.00  0.00    -0.237 OA
ATOM     78  O   UNL A   1      48.274  26.017  23.110  1.00  0.00    -0.237 OA
ATOM     79  O   UNL A   1      47.358  28.243  22.568  1.00  0.00    -0.744 OA
ENDBRANCH  72  76
ENDBRANCH  55  69
BRANCH  56  80
ATOM     80  C   UNL A   1      38.162  31.055  30.799  1.00  0.00     0.023 A 
ATOM     81  C   UNL A   1      37.146  31.722  30.095  1.00  0.00     0.031 A 
ATOM     82  C   UNL A   1      37.952  30.798  32.167  1.00  0.00     0.131 A 
ATOM     83  C   UNL A   1      35.996  32.158  30.771  1.00  0.00     0.055 A 
ATOM     84  C   UNL A   1      36.778  31.176  32.819  1.00  0.00     0.041 A 
ATOM     85  F   UNL A   1      38.888  30.163  32.891  1.00  0.00    -0.206 F 
ATOM     86  C   UNL A   1      35.797  31.875  32.124  1.00  0.00     0.022 A 
BRANCH  83  87
ATOM     87  S   UNL A   1      34.807  33.200  29.880  1.00  0.00     0.124 S 
ATOM     88  O   UNL A   1      34.114  32.219  29.052  1.00  0.00    -0.237 OA
ATOM     89  O   UNL A   1      34.033  33.779  30.973  1.00  0.00    -0.237 OA
ATOM     90  O   UNL A   1      35.658  34.141  29.154  1.00  0.00    -0.744 OA
ENDBRANCH  83  87
ENDBRANCH  56  80
BRANCH  68  91
ATOM     91  C   UNL A   1      44.241  34.385  29.953  1.00  0.00     0.023 A 
ATOM     92  C   UNL A   1      44.141  35.435  29.024  1.00  0.00     0.031 A 
ATOM     93  C   UNL A   1      44.782  34.673  31.219  1.00  0.00     0.131 A 
ATOM     94  C   UNL A   1      44.631  36.708  29.353  1.00  0.00     0.055 A 
ATOM     95  C   UNL A   1      45.203  35.958  31.565  1.00  0.00     0.041 A 
ATOM     96  F   UNL A   1      44.907  33.709  32.146  1.00  0.00    -0.206 F 
ATOM     97  C   UNL A   1      45.142  36.981  30.625  1.00  0.00     0.022 A 
BRANCH  94  98
ATOM     98  S   UNL A   1      44.686  37.982  28.063  1.00  0.00     0.124 S 
ATOM     99  O   UNL A   1      43.293  38.414  28.003  1.00  0.00    -0.237 OA
ATOM    100  O   UNL A   1      45.630  38.948  28.617  1.00  0.00    -0.237 OA
ATOM    101  O   UNL A   1      45.162  37.258  26.885  1.00  0.00    -0.744 OA
ENDBRANCH  94  98
ENDBRANCH  68  91
ENDBRANCH  42  43
ENDBRANCH  34  37
ENDBRANCH  32  33
ENDBRANCH  31  32
ENDBRANCH   1  31
TORSDOF 18
ENDMDL
