MODEL 1
REMARK VINA RESULT:     -11.3      0.000      0.000
REMARK SMILES N#Cc1cccc(C(=O)N2CCCC[C@@H]2C(=O)NCCCCCCNC(=O)c2ccc(-c3c4nc(c(-c5cc(S(=O)(=O)[O-])ccc5F)c5ccc([nH]5)c(-c5cc(S(=O)(=O)[O-])ccc5F)c5nc(c(-c6cc(S(=O)(=O)[O-])ccc6F)c6ccc3[nH]6)C=C5)C=C4)cc2)c1
REMARK SMILES IDX 21 1 20 2 19 3 18 4 16 5 17 6 15 8 10 9 11 10 12 11 14 12
REMARK SMILES IDX 13 13 8 14 9 15 7 16 3 17 4 18 91 19 5 20 6 21 2 22 1 23
REMARK SMILES IDX 22 24 23 25 24 26 25 27 26 28 27 30 28 31 29 32 90 33 30 34
REMARK SMILES IDX 89 35 31 36 32 37 33 38 83 39 34 40 88 41 82 42 84 43 35 44
REMARK SMILES IDX 87 45 81 46 80 47 36 49 68 50 48 51 67 52 49 53 52 54 66 55
REMARK SMILES IDX 85 56 50 57 51 58 65 60 86 61 53 62 37 63 38 64 46 65 39 66
REMARK SMILES IDX 45 67 47 68 44 69 40 70 41 71 42 72 43 73 69 74 70 75 78 76
REMARK SMILES IDX 71 77 77 78 79 79 76 80 72 81 73 82 74 83 75 84 54 85 55 86
REMARK SMILES IDX 63 87 56 88 62 89 64 90 61 91 57 92 58 93 59 94 60 95
REMARK H PARENT 18 7 25 29 84 48 52 59
REMARK Flexibility Score: inf
ROOT
ATOM      1  C   UNL A   1      31.642  29.033  27.154  1.00  0.00     0.002 C 
ENDROOT
BRANCH   1   2
ATOM      2  C   UNL A   1      32.875  28.121  27.144  1.00  0.00     0.021 C 
BRANCH   2   3
ATOM      3  C   UNL A   1      32.743  26.929  26.197  1.00  0.00     0.116 C 
BRANCH   3   4
ATOM      4  N   UNL A   1      31.757  25.991  26.707  1.00  0.00    -0.354 N 
ATOM      5  C   UNL A   1      31.775  24.631  26.720  1.00  0.00     0.242 C 
ATOM      6  O   UNL A   1      30.747  24.038  27.061  1.00  0.00    -0.273 OA
ATOM      7  H   UNL A   1      30.955  26.402  27.103  1.00  0.00     0.163 HD
BRANCH   5   8
ATOM      8  C   UNL A   1      33.021  23.835  26.273  1.00  0.00     0.174 C 
ATOM      9  N   UNL A   1      32.921  23.277  24.906  1.00  0.00    -0.327 N 
ATOM     10  C   UNL A   1      33.945  22.325  24.507  1.00  0.00     0.120 C 
ATOM     11  C   UNL A   1      34.063  21.180  25.492  1.00  0.00     0.022 C 
ATOM     12  C   UNL A   1      33.312  22.736  27.326  1.00  0.00     0.035 C 
ATOM     13  C   UNL A   1      34.364  21.720  26.885  1.00  0.00     0.004 C 
BRANCH   9  14
ATOM     14  C   UNL A   1      32.071  23.700  23.887  1.00  0.00     0.254 C 
ATOM     15  O   UNL A   1      31.247  22.918  23.410  1.00  0.00    -0.269 OA
BRANCH  14  16
ATOM     16  C   UNL A   1      32.218  25.038  23.241  1.00  0.00     0.041 A 
ATOM     17  C   UNL A   1      31.385  27.226  22.594  1.00  0.00     0.053 A 
ATOM     18  C   UNL A   1      32.690  27.661  22.345  1.00  0.00     0.019 A 
ATOM     19  C   UNL A   1      31.152  25.923  23.056  1.00  0.00     0.033 A 
ATOM     20  C   UNL A   1      33.761  26.792  22.537  1.00  0.00     0.002 A 
ATOM     21  C   UNL A   1      33.524  25.488  22.976  1.00  0.00     0.014 A 
BRANCH  17  22
ATOM     22  C   UNL A   1      30.282  28.128  22.417  1.00  0.00     0.099 C 
ATOM     23  N   UNL A   1      29.391  28.857  22.290  1.00  0.00    -0.192 NA
ENDBRANCH  17  22
ENDBRANCH  14  16
ENDBRANCH   9  14
ENDBRANCH   5   8
ENDBRANCH   3   4
ENDBRANCH   2   3
ENDBRANCH   1   2
BRANCH   1  24
ATOM     24  C   UNL A   1      31.595  30.042  26.002  1.00  0.00     0.002 C 
BRANCH  24  25
ATOM     25  C   UNL A   1      31.512  31.504  26.448  1.00  0.00     0.021 C 
BRANCH  25  26
ATOM     26  C   UNL A   1      32.789  32.030  27.093  1.00  0.00     0.116 C 
BRANCH  26  27
ATOM     27  N   UNL A   1      32.662  33.431  27.456  1.00  0.00    -0.352 N 
ATOM     28  C   UNL A   1      33.319  34.140  28.430  1.00  0.00     0.251 C 
ATOM     29  H   UNL A   1      32.011  33.946  26.928  1.00  0.00     0.163 HD
ATOM     30  O   UNL A   1      32.894  35.241  28.770  1.00  0.00    -0.269 OA
BRANCH  28  31
ATOM     31  C   UNL A   1      34.520  33.567  29.074  1.00  0.00     0.039 A 
ATOM     32  C   UNL A   1      34.354  32.682  30.140  1.00  0.00     0.014 A 
ATOM     33  C   UNL A   1      35.804  33.908  28.637  1.00  0.00     0.014 A 
ATOM     34  C   UNL A   1      35.475  32.100  30.732  1.00  0.00     0.010 A 
ATOM     35  C   UNL A   1      36.915  33.258  29.170  1.00  0.00     0.010 A 
ATOM     36  C   UNL A   1      36.763  32.351  30.228  1.00  0.00    -0.014 A 
BRANCH  36  37
ATOM     37  C   UNL A   1      37.947  31.653  30.795  1.00  0.00     0.031 A 
ATOM     38  C   UNL A   1      38.451  31.996  32.173  1.00  0.00     0.074 A 
ATOM     39  C   UNL A   1      38.582  30.723  30.051  1.00  0.00     0.049 A 
ATOM     40  N   UNL A   1      39.461  31.488  32.830  1.00  0.00    -0.248 NA
ATOM     41  C   UNL A   1      37.740  33.060  32.898  1.00  0.00     0.031 C 
ATOM     42  C   UNL A   1      38.205  30.333  28.690  1.00  0.00     0.029 A 
ATOM     43  N   UNL A   1      39.667  29.931  30.331  1.00  0.00    -0.354 N 
ATOM     44  C   UNL A   1      39.515  32.174  34.039  1.00  0.00     0.074 A 
ATOM     45  C   UNL A   1      38.468  33.171  34.000  1.00  0.00     0.031 C 
ATOM     46  C   UNL A   1      39.010  29.342  28.278  1.00  0.00     0.029 A 
ATOM     47  C   UNL A   1      40.000  29.067  29.312  1.00  0.00     0.049 A 
ATOM     48  H   UNL A   1      40.162  29.977  31.182  1.00  0.00     0.167 HD
ATOM     49  C   UNL A   1      40.350  31.976  35.087  1.00  0.00     0.034 A 
ATOM     50  C   UNL A   1      40.997  28.164  29.218  1.00  0.00     0.034 A 
ATOM     51  C   UNL A   1      41.385  30.970  35.110  1.00  0.00     0.049 A 
ATOM     52  C   UNL A   1      41.941  28.005  30.385  1.00  0.00     0.074 A 
ATOM     53  C   UNL A   1      42.241  30.644  36.147  1.00  0.00     0.029 A 
ATOM     54  N   UNL A   1      41.721  30.143  34.046  1.00  0.00    -0.354 N 
ATOM     55  N   UNL A   1      41.930  28.614  31.548  1.00  0.00    -0.248 NA
ATOM     56  C   UNL A   1      43.027  27.029  30.227  1.00  0.00     0.031 C 
ATOM     57  C   UNL A   1      43.157  29.698  35.679  1.00  0.00     0.029 A 
ATOM     58  C   UNL A   1      42.805  29.348  34.386  1.00  0.00     0.049 A 
ATOM     59  H   UNL A   1      41.257  30.124  33.177  1.00  0.00     0.167 HD
ATOM     60  C   UNL A   1      42.983  28.062  32.273  1.00  0.00     0.074 A 
ATOM     61  C   UNL A   1      43.589  27.057  31.425  1.00  0.00     0.031 C 
ATOM     62  C   UNL A   1      43.410  28.356  33.529  1.00  0.00     0.034 A 
BRANCH  49  63
ATOM     63  C   UNL A   1      40.214  32.889  36.284  1.00  0.00     0.023 A 
ATOM     64  C   UNL A   1      39.450  32.538  37.409  1.00  0.00     0.031 A 
ATOM     65  C   UNL A   1      40.880  34.128  36.302  1.00  0.00     0.131 A 
ATOM     66  C   UNL A   1      39.326  33.438  38.480  1.00  0.00     0.055 A 
ATOM     67  C   UNL A   1      40.821  34.982  37.405  1.00  0.00     0.041 A 
ATOM     68  F   UNL A   1      41.602  34.532  35.245  1.00  0.00    -0.206 F 
ATOM     69  C   UNL A   1      40.032  34.643  38.499  1.00  0.00     0.022 A 
BRANCH  66  70
ATOM     70  S   UNL A   1      38.125  33.072  39.789  1.00  0.00     0.124 S 
ATOM     71  O   UNL A   1      38.252  34.251  40.644  1.00  0.00    -0.237 OA
ATOM     72  O   UNL A   1      36.876  32.953  39.047  1.00  0.00    -0.237 OA
ATOM     73  O   UNL A   1      38.625  31.830  40.375  1.00  0.00    -0.744 OA
ENDBRANCH  66  70
ENDBRANCH  49  63
BRANCH  50  74
ATOM     74  C   UNL A   1      41.179  27.347  27.980  1.00  0.00     0.023 A 
ATOM     75  C   UNL A   1      40.858  25.981  27.966  1.00  0.00     0.031 A 
ATOM     76  C   UNL A   1      41.760  27.896  26.824  1.00  0.00     0.131 A 
ATOM     77  C   UNL A   1      41.189  25.194  26.852  1.00  0.00     0.055 A 
ATOM     78  C   UNL A   1      42.014  27.125  25.687  1.00  0.00     0.041 A 
ATOM     79  F   UNL A   1      42.094  29.195  26.779  1.00  0.00    -0.206 F 
ATOM     80  C   UNL A   1      41.747  25.761  25.705  1.00  0.00     0.022 A 
BRANCH  77  81
ATOM     81  S   UNL A   1      41.015  23.393  26.984  1.00  0.00     0.124 S 
ATOM     82  O   UNL A   1      39.576  23.225  26.825  1.00  0.00    -0.237 OA
ATOM     83  O   UNL A   1      41.843  22.928  25.876  1.00  0.00    -0.237 OA
ATOM     84  O   UNL A   1      41.535  23.100  28.317  1.00  0.00    -0.744 OA
ENDBRANCH  77  81
ENDBRANCH  50  74
BRANCH  62  85
ATOM     85  C   UNL A   1      44.560  27.540  34.074  1.00  0.00     0.023 A 
ATOM     86  C   UNL A   1      44.356  26.305  34.715  1.00  0.00     0.031 A 
ATOM     87  C   UNL A   1      45.878  28.020  33.973  1.00  0.00     0.131 A 
ATOM     88  C   UNL A   1      45.440  25.634  35.299  1.00  0.00     0.055 A 
ATOM     89  C   UNL A   1      46.963  27.305  34.482  1.00  0.00     0.041 A 
ATOM     90  F   UNL A   1      46.136  29.195  33.378  1.00  0.00    -0.206 F 
ATOM     91  C   UNL A   1      46.746  26.114  35.166  1.00  0.00     0.022 A 
BRANCH  88  92
ATOM     92  S   UNL A   1      45.105  24.195  36.351  1.00  0.00     0.124 S 
ATOM     93  O   UNL A   1      44.725  24.824  37.612  1.00  0.00    -0.237 OA
ATOM     94  O   UNL A   1      44.033  23.521  35.627  1.00  0.00    -0.237 OA
ATOM     95  O   UNL A   1      46.381  23.481  36.374  1.00  0.00    -0.744 OA
ENDBRANCH  88  92
ENDBRANCH  62  85
ENDBRANCH  36  37
ENDBRANCH  28  31
ENDBRANCH  26  27
ENDBRANCH  25  26
ENDBRANCH  24  25
ENDBRANCH   1  24
TORSDOF 19
ENDMDL
MODEL 2
REMARK VINA RESULT:     -11.3      5.056     10.397
REMARK SMILES N#Cc1cccc(C(=O)N2CCCC[C@@H]2C(=O)NCCCCCCNC(=O)c2ccc(-c3c4nc(c(-c5cc(S(=O)(=O)[O-])ccc5F)c5ccc([nH]5)c(-c5cc(S(=O)(=O)[O-])ccc5F)c5nc(c(-c6cc(S(=O)(=O)[O-])ccc6F)c6ccc3[nH]6)C=C5)C=C4)cc2)c1
REMARK SMILES IDX 21 1 20 2 19 3 18 4 16 5 17 6 15 8 10 9 11 10 12 11 14 12
REMARK SMILES IDX 13 13 8 14 9 15 7 16 3 17 4 18 91 19 5 20 6 21 2 22 1 23
REMARK SMILES IDX 22 24 23 25 24 26 25 27 26 28 27 30 28 31 29 32 90 33 30 34
REMARK SMILES IDX 89 35 31 36 32 37 33 38 83 39 34 40 88 41 82 42 84 43 35 44
REMARK SMILES IDX 87 45 81 46 80 47 36 49 68 50 48 51 67 52 49 53 52 54 66 55
REMARK SMILES IDX 85 56 50 57 51 58 65 60 86 61 53 62 37 63 38 64 46 65 39 66
REMARK SMILES IDX 45 67 47 68 44 69 40 70 41 71 42 72 43 73 69 74 70 75 78 76
REMARK SMILES IDX 71 77 77 78 79 79 76 80 72 81 73 82 74 83 75 84 54 85 55 86
REMARK SMILES IDX 63 87 56 88 62 89 64 90 61 91 57 92 58 93 59 94 60 95
REMARK H PARENT 18 7 25 29 84 48 52 59
REMARK Flexibility Score: inf
ROOT
ATOM      1  C   UNL A   1      34.661  23.496  22.951  1.00  0.00     0.002 C 
ENDROOT
BRANCH   1   2
ATOM      2  C   UNL A   1      33.960  24.342  24.021  1.00  0.00     0.021 C 
BRANCH   2   3
ATOM      3  C   UNL A   1      32.520  23.908  24.292  1.00  0.00     0.116 C 
BRANCH   3   4
ATOM      4  N   UNL A   1      31.990  24.622  25.442  1.00  0.00    -0.354 N 
ATOM      5  C   UNL A   1      31.138  25.681  25.492  1.00  0.00     0.242 C 
ATOM      6  O   UNL A   1      30.952  26.228  26.584  1.00  0.00    -0.273 OA
ATOM      7  H   UNL A   1      32.293  24.286  26.317  1.00  0.00     0.163 HD
BRANCH   5   8
ATOM      8  C   UNL A   1      30.456  26.230  24.220  1.00  0.00     0.174 C 
ATOM      9  N   UNL A   1      31.075  27.466  23.691  1.00  0.00    -0.327 N 
ATOM     10  C   UNL A   1      30.351  28.168  22.644  1.00  0.00     0.120 C 
ATOM     11  C   UNL A   1      28.926  28.475  23.055  1.00  0.00     0.022 C 
ATOM     12  C   UNL A   1      28.945  26.418  24.508  1.00  0.00     0.035 C 
ATOM     13  C   UNL A   1      28.199  27.187  23.420  1.00  0.00     0.004 C 
BRANCH   9  14
ATOM     14  C   UNL A   1      32.363  27.934  23.941  1.00  0.00     0.254 C 
ATOM     15  O   UNL A   1      33.286  27.623  23.187  1.00  0.00    -0.269 OA
BRANCH  14  16
ATOM     16  C   UNL A   1      32.702  28.688  25.184  1.00  0.00     0.041 A 
ATOM     17  C   UNL A   1      34.264  29.508  26.853  1.00  0.00     0.053 A 
ATOM     18  C   UNL A   1      33.316  30.431  27.304  1.00  0.00     0.019 A 
ATOM     19  C   UNL A   1      33.963  28.651  25.786  1.00  0.00     0.033 A 
ATOM     20  C   UNL A   1      32.061  30.486  26.703  1.00  0.00     0.002 A 
ATOM     21  C   UNL A   1      31.755  29.616  25.655  1.00  0.00     0.014 A 
BRANCH  17  22
ATOM     22  C   UNL A   1      35.566  29.464  27.457  1.00  0.00     0.099 C 
ATOM     23  N   UNL A   1      36.611  29.439  27.957  1.00  0.00    -0.192 NA
ENDBRANCH  17  22
ENDBRANCH  14  16
ENDBRANCH   9  14
ENDBRANCH   5   8
ENDBRANCH   3   4
ENDBRANCH   2   3
ENDBRANCH   1   2
BRANCH   1  24
ATOM     24  C   UNL A   1      35.915  22.769  23.445  1.00  0.00     0.002 C 
BRANCH  24  25
ATOM     25  C   UNL A   1      35.659  21.763  24.570  1.00  0.00     0.021 C 
BRANCH  25  26
ATOM     26  C   UNL A   1      36.542  21.965  25.796  1.00  0.00     0.116 C 
BRANCH  26  27
ATOM     27  N   UNL A   1      37.574  20.946  25.881  1.00  0.00    -0.352 N 
ATOM     28  C   UNL A   1      38.924  21.089  26.080  1.00  0.00     0.251 C 
ATOM     29  H   UNL A   1      37.260  20.019  25.781  1.00  0.00     0.163 HD
ATOM     30  O   UNL A   1      39.674  20.143  25.857  1.00  0.00    -0.269 OA
BRANCH  28  31
ATOM     31  C   UNL A   1      39.466  22.383  26.544  1.00  0.00     0.039 A 
ATOM     32  C   UNL A   1      40.490  22.383  27.492  1.00  0.00     0.014 A 
ATOM     33  C   UNL A   1      38.961  23.594  26.057  1.00  0.00     0.014 A 
ATOM     34  C   UNL A   1      41.042  23.594  27.910  1.00  0.00     0.010 A 
ATOM     35  C   UNL A   1      39.572  24.794  26.410  1.00  0.00     0.010 A 
ATOM     36  C   UNL A   1      40.617  24.808  27.345  1.00  0.00    -0.014 A 
BRANCH  36  37
ATOM     37  C   UNL A   1      41.274  26.089  27.718  1.00  0.00     0.031 A 
ATOM     38  C   UNL A   1      42.653  26.418  27.210  1.00  0.00     0.074 A 
ATOM     39  C   UNL A   1      40.629  26.944  28.539  1.00  0.00     0.049 A 
ATOM     40  N   UNL A   1      43.376  27.487  27.426  1.00  0.00    -0.248 NA
ATOM     41  C   UNL A   1      43.313  25.410  26.368  1.00  0.00     0.031 C 
ATOM     42  C   UNL A   1      39.303  26.716  29.120  1.00  0.00     0.029 A 
ATOM     43  N   UNL A   1      40.989  28.178  29.019  1.00  0.00    -0.354 N 
ATOM     44  C   UNL A   1      44.577  27.277  26.756  1.00  0.00     0.074 A 
ATOM     45  C   UNL A   1      44.505  25.956  26.173  1.00  0.00     0.031 C 
ATOM     46  C   UNL A   1      38.943  27.794  29.831  1.00  0.00     0.029 A 
ATOM     47  C   UNL A   1      40.031  28.765  29.814  1.00  0.00     0.049 A 
ATOM     48  H   UNL A   1      41.854  28.604  28.813  1.00  0.00     0.167 HD
ATOM     49  C   UNL A   1      45.632  28.118  26.629  1.00  0.00     0.034 A 
ATOM     50  C   UNL A   1      40.034  29.946  30.465  1.00  0.00     0.034 A 
ATOM     51  C   UNL A   1      45.682  29.437  27.213  1.00  0.00     0.049 A 
ATOM     52  C   UNL A   1      41.246  30.836  30.343  1.00  0.00     0.074 A 
ATOM     53  C   UNL A   1      46.676  30.393  27.089  1.00  0.00     0.029 A 
ATOM     54  N   UNL A   1      44.713  29.980  28.047  1.00  0.00    -0.354 N 
ATOM     55  N   UNL A   1      42.343  30.650  29.646  1.00  0.00    -0.248 NA
ATOM     56  C   UNL A   1      41.215  32.100  31.089  1.00  0.00     0.031 C 
ATOM     57  C   UNL A   1      46.358  31.466  27.926  1.00  0.00     0.029 A 
ATOM     58  C   UNL A   1      45.113  31.234  28.486  1.00  0.00     0.049 A 
ATOM     59  H   UNL A   1      43.867  29.540  28.291  1.00  0.00     0.167 HD
ATOM     60  C   UNL A   1      43.112  31.795  29.839  1.00  0.00     0.074 A 
ATOM     61  C   UNL A   1      42.343  32.671  30.697  1.00  0.00     0.031 C 
ATOM     62  C   UNL A   1      44.344  32.097  29.351  1.00  0.00     0.034 A 
BRANCH  49  63
ATOM     63  C   UNL A   1      46.840  27.628  25.864  1.00  0.00     0.023 A 
ATOM     64  C   UNL A   1      47.064  27.972  24.521  1.00  0.00     0.031 A 
ATOM     65  C   UNL A   1      47.795  26.815  26.503  1.00  0.00     0.131 A 
ATOM     66  C   UNL A   1      48.184  27.460  23.845  1.00  0.00     0.055 A 
ATOM     67  C   UNL A   1      48.948  26.379  25.850  1.00  0.00     0.041 A 
ATOM     68  F   UNL A   1      47.621  26.430  27.777  1.00  0.00    -0.206 F 
ATOM     69  C   UNL A   1      49.143  26.693  24.509  1.00  0.00     0.022 A 
BRANCH  66  70
ATOM     70  S   UNL A   1      48.301  27.701  22.051  1.00  0.00     0.124 S 
ATOM     71  O   UNL A   1      48.522  26.333  21.584  1.00  0.00    -0.237 OA
ATOM     72  O   UNL A   1      47.006  28.285  21.725  1.00  0.00    -0.237 OA
ATOM     73  O   UNL A   1      49.448  28.595  21.899  1.00  0.00    -0.744 OA
ENDBRANCH  66  70
ENDBRANCH  49  63
BRANCH  50  74
ATOM     74  C   UNL A   1      38.871  30.363  31.305  1.00  0.00     0.023 A 
ATOM     75  C   UNL A   1      37.806  31.090  30.750  1.00  0.00     0.031 A 
ATOM     76  C   UNL A   1      38.847  30.120  32.690  1.00  0.00     0.131 A 
ATOM     77  C   UNL A   1      36.806  31.615  31.583  1.00  0.00     0.055 A 
ATOM     78  C   UNL A   1      37.808  30.576  33.503  1.00  0.00     0.041 A 
ATOM     79  F   UNL A   1      39.840  29.434  33.279  1.00  0.00    -0.206 F 
ATOM     80  C   UNL A   1      36.789  31.347  32.953  1.00  0.00     0.022 A 
BRANCH  77  81
ATOM     81  S   UNL A   1      35.610  32.778  30.870  1.00  0.00     0.124 S 
ATOM     82  O   UNL A   1      36.329  34.041  30.979  1.00  0.00    -0.237 OA
ATOM     83  O   UNL A   1      35.441  32.249  29.521  1.00  0.00    -0.237 OA
ATOM     84  O   UNL A   1      34.446  32.643  31.742  1.00  0.00    -0.744 OA
ENDBRANCH  77  81
ENDBRANCH  50  74
BRANCH  62  85
ATOM     85  C   UNL A   1      44.907  33.456  29.697  1.00  0.00     0.023 A 
ATOM     86  C   UNL A   1      44.680  34.582  28.886  1.00  0.00     0.031 A 
ATOM     87  C   UNL A   1      45.707  33.620  30.842  1.00  0.00     0.131 A 
ATOM     88  C   UNL A   1      45.310  35.799  29.187  1.00  0.00     0.055 A 
ATOM     89  C   UNL A   1      46.261  34.854  31.183  1.00  0.00     0.041 A 
ATOM     90  F   UNL A   1      45.965  32.581  31.651  1.00  0.00    -0.206 F 
ATOM     91  C   UNL A   1      46.080  35.948  30.343  1.00  0.00     0.022 A 
BRANCH  88  92
ATOM     92  S   UNL A   1      45.219  37.146  27.976  1.00  0.00     0.124 S 
ATOM     93  O   UNL A   1      46.619  37.304  27.595  1.00  0.00    -0.237 OA
ATOM     94  O   UNL A   1      44.340  36.589  26.954  1.00  0.00    -0.237 OA
ATOM     95  O   UNL A   1      44.655  38.257  28.741  1.00  0.00    -0.744 OA
ENDBRANCH  88  92
ENDBRANCH  62  85
ENDBRANCH  36  37
ENDBRANCH  28  31
ENDBRANCH  26  27
ENDBRANCH  25  26
ENDBRANCH  24  25
ENDBRANCH   1  24
TORSDOF 19
ENDMDL
MODEL 3
REMARK VINA RESULT:     -11.3      5.219     10.572
REMARK SMILES N#Cc1cccc(C(=O)N2CCCC[C@@H]2C(=O)NCCCCCCNC(=O)c2ccc(-c3c4nc(c(-c5cc(S(=O)(=O)[O-])ccc5F)c5ccc([nH]5)c(-c5cc(S(=O)(=O)[O-])ccc5F)c5nc(c(-c6cc(S(=O)(=O)[O-])ccc6F)c6ccc3[nH]6)C=C5)C=C4)cc2)c1
REMARK SMILES IDX 21 1 20 2 19 3 18 4 16 5 17 6 15 8 10 9 11 10 12 11 14 12
REMARK SMILES IDX 13 13 8 14 9 15 7 16 3 17 4 18 91 19 5 20 6 21 2 22 1 23
REMARK SMILES IDX 22 24 23 25 24 26 25 27 26 28 27 30 28 31 29 32 90 33 30 34
REMARK SMILES IDX 89 35 31 36 32 37 33 38 83 39 34 40 88 41 82 42 84 43 35 44
REMARK SMILES IDX 87 45 81 46 80 47 36 49 68 50 48 51 67 52 49 53 52 54 66 55
REMARK SMILES IDX 85 56 50 57 51 58 65 60 86 61 53 62 37 63 38 64 46 65 39 66
REMARK SMILES IDX 45 67 47 68 44 69 40 70 41 71 42 72 43 73 69 74 70 75 78 76
REMARK SMILES IDX 71 77 77 78 79 79 76 80 72 81 73 82 74 83 75 84 54 85 55 86
REMARK SMILES IDX 63 87 56 88 62 89 64 90 61 91 57 92 58 93 59 94 60 95
REMARK H PARENT 18 7 25 29 84 48 52 59
REMARK Flexibility Score: inf
ROOT
ATOM      1  C   UNL A   1      35.796  23.875  25.328  1.00  0.00     0.002 C 
ENDROOT
BRANCH   1   2
ATOM      2  C   UNL A   1      35.040  24.032  24.003  1.00  0.00     0.021 C 
BRANCH   2   3
ATOM      3  C   UNL A   1      34.179  25.293  23.939  1.00  0.00     0.116 C 
BRANCH   3   4
ATOM      4  N   UNL A   1      34.197  25.977  25.221  1.00  0.00    -0.354 N 
ATOM      5  C   UNL A   1      33.467  27.042  25.649  1.00  0.00     0.242 C 
ATOM      6  O   UNL A   1      33.768  27.558  26.730  1.00  0.00    -0.273 OA
ATOM      7  H   UNL A   1      34.832  25.614  25.879  1.00  0.00     0.163 HD
BRANCH   5   8
ATOM      8  C   UNL A   1      32.324  27.634  24.795  1.00  0.00     0.174 C 
ATOM      9  N   UNL A   1      31.088  26.820  24.795  1.00  0.00    -0.327 N 
ATOM     10  C   UNL A   1      30.060  27.185  23.835  1.00  0.00     0.120 C 
ATOM     11  C   UNL A   1      30.604  27.243  22.422  1.00  0.00     0.022 C 
ATOM     12  C   UNL A   1      32.854  27.881  23.360  1.00  0.00     0.035 C 
ATOM     13  C   UNL A   1      31.762  28.230  22.350  1.00  0.00     0.004 C 
BRANCH   9  14
ATOM     14  C   UNL A   1      30.713  25.864  25.736  1.00  0.00     0.254 C 
ATOM     15  O   UNL A   1      30.176  26.217  26.788  1.00  0.00    -0.269 OA
BRANCH  14  16
ATOM     16  C   UNL A   1      31.069  24.422  25.584  1.00  0.00     0.041 A 
ATOM     17  C   UNL A   1      31.711  22.484  24.270  1.00  0.00     0.053 A 
ATOM     18  C   UNL A   1      32.092  21.808  25.433  1.00  0.00     0.019 A 
ATOM     19  C   UNL A   1      31.216  23.793  24.345  1.00  0.00     0.033 A 
ATOM     20  C   UNL A   1      31.961  22.430  26.672  1.00  0.00     0.002 A 
ATOM     21  C   UNL A   1      31.447  23.725  26.746  1.00  0.00     0.014 A 
BRANCH  17  22
ATOM     22  C   UNL A   1      31.865  21.853  22.990  1.00  0.00     0.099 C 
ATOM     23  N   UNL A   1      32.000  21.332  21.963  1.00  0.00    -0.192 NA
ENDBRANCH  17  22
ENDBRANCH  14  16
ENDBRANCH   9  14
ENDBRANCH   5   8
ENDBRANCH   3   4
ENDBRANCH   2   3
ENDBRANCH   1   2
BRANCH   1  24
ATOM     24  C   UNL A   1      35.486  22.576  26.080  1.00  0.00     0.002 C 
BRANCH  24  25
ATOM     25  C   UNL A   1      35.903  21.304  25.339  1.00  0.00     0.021 C 
BRANCH  25  26
ATOM     26  C   UNL A   1      37.290  21.377  24.712  1.00  0.00     0.116 C 
BRANCH  26  27
ATOM     27  N   UNL A   1      38.163  20.337  25.230  1.00  0.00    -0.352 N 
ATOM     28  C   UNL A   1      39.397  20.450  25.817  1.00  0.00     0.251 C 
ATOM     29  H   UNL A   1      37.819  19.418  25.147  1.00  0.00     0.163 HD
ATOM     30  O   UNL A   1      40.100  19.452  25.949  1.00  0.00    -0.269 OA
BRANCH  28  31
ATOM     31  C   UNL A   1      39.878  21.772  26.271  1.00  0.00     0.039 A 
ATOM     32  C   UNL A   1      41.148  21.866  26.842  1.00  0.00     0.014 A 
ATOM     33  C   UNL A   1      39.078  22.913  26.146  1.00  0.00     0.014 A 
ATOM     34  C   UNL A   1      41.634  23.112  27.237  1.00  0.00     0.010 A 
ATOM     35  C   UNL A   1      39.600  24.165  26.460  1.00  0.00     0.010 A 
ATOM     36  C   UNL A   1      40.882  24.278  27.014  1.00  0.00    -0.014 A 
BRANCH  36  37
ATOM     37  C   UNL A   1      41.442  25.616  27.345  1.00  0.00     0.031 A 
ATOM     38  C   UNL A   1      42.789  26.034  26.816  1.00  0.00     0.074 A 
ATOM     39  C   UNL A   1      40.739  26.444  28.146  1.00  0.00     0.049 A 
ATOM     40  N   UNL A   1      43.429  27.161  26.995  1.00  0.00    -0.248 NA
ATOM     41  C   UNL A   1      43.519  25.055  25.997  1.00  0.00     0.031 C 
ATOM     42  C   UNL A   1      39.438  26.132  28.746  1.00  0.00     0.029 A 
ATOM     43  N   UNL A   1      41.008  27.715  28.587  1.00  0.00    -0.354 N 
ATOM     44  C   UNL A   1      44.639  27.024  26.321  1.00  0.00     0.074 A 
ATOM     45  C   UNL A   1      44.664  25.684  25.776  1.00  0.00     0.031 C 
ATOM     46  C   UNL A   1      39.001  27.200  29.429  1.00  0.00     0.029 A 
ATOM     47  C   UNL A   1      40.013  28.250  29.374  1.00  0.00     0.049 A 
ATOM     48  H   UNL A   1      41.836  28.199  28.363  1.00  0.00     0.167 HD
ATOM     49  C   UNL A   1      45.626  27.938  26.160  1.00  0.00     0.034 A 
ATOM     50  C   UNL A   1      39.929  29.446  29.991  1.00  0.00     0.034 A 
ATOM     51  C   UNL A   1      45.579  29.273  26.706  1.00  0.00     0.049 A 
ATOM     52  C   UNL A   1      41.070  30.422  29.832  1.00  0.00     0.074 A 
ATOM     53  C   UNL A   1      46.496  30.298  26.546  1.00  0.00     0.029 A 
ATOM     54  N   UNL A   1      44.577  29.766  27.532  1.00  0.00    -0.354 N 
ATOM     55  N   UNL A   1      42.173  30.300  29.132  1.00  0.00    -0.248 NA
ATOM     56  C   UNL A   1      40.947  31.701  30.543  1.00  0.00     0.031 C 
ATOM     57  C   UNL A   1      46.103  31.368  27.354  1.00  0.00     0.029 A 
ATOM     58  C   UNL A   1      44.883  31.058  27.931  1.00  0.00     0.049 A 
ATOM     59  H   UNL A   1      43.768  29.270  27.796  1.00  0.00     0.167 HD
ATOM     60  C   UNL A   1      42.854  31.505  29.285  1.00  0.00     0.074 A 
ATOM     61  C   UNL A   1      42.025  32.345  30.124  1.00  0.00     0.031 C 
ATOM     62  C   UNL A   1      44.056  31.885  28.778  1.00  0.00     0.034 A 
BRANCH  49  63
ATOM     63  C   UNL A   1      46.863  27.519  25.399  1.00  0.00     0.023 A 
ATOM     64  C   UNL A   1      47.080  27.892  24.062  1.00  0.00     0.031 A 
ATOM     65  C   UNL A   1      47.851  26.746  26.036  1.00  0.00     0.131 A 
ATOM     66  C   UNL A   1      48.229  27.446  23.389  1.00  0.00     0.055 A 
ATOM     67  C   UNL A   1      49.030  26.377  25.386  1.00  0.00     0.041 A 
ATOM     68  F   UNL A   1      47.687  26.335  27.303  1.00  0.00    -0.206 F 
ATOM     69  C   UNL A   1      49.220  26.718  24.052  1.00  0.00     0.022 A 
BRANCH  66  70
ATOM     70  S   UNL A   1      48.348  27.716  21.600  1.00  0.00     0.124 S 
ATOM     71  O   UNL A   1      49.427  28.700  21.521  1.00  0.00    -0.237 OA
ATOM     72  O   UNL A   1      48.661  26.384  21.099  1.00  0.00    -0.237 OA
ATOM     73  O   UNL A   1      47.025  28.225  21.241  1.00  0.00    -0.744 OA
ENDBRANCH  66  70
ENDBRANCH  49  63
BRANCH  50  74
ATOM     74  C   UNL A   1      38.744  29.798  30.829  1.00  0.00     0.023 A 
ATOM     75  C   UNL A   1      37.700  30.580  30.308  1.00  0.00     0.031 A 
ATOM     76  C   UNL A   1      38.676  29.436  32.186  1.00  0.00     0.131 A 
ATOM     77  C   UNL A   1      36.678  31.039  31.153  1.00  0.00     0.055 A 
ATOM     78  C   UNL A   1      37.615  29.828  33.004  1.00  0.00     0.041 A 
ATOM     79  F   UNL A   1      39.647  28.694  32.742  1.00  0.00    -0.206 F 
ATOM     80  C   UNL A   1      36.618  30.652  32.493  1.00  0.00     0.022 A 
BRANCH  77  81
ATOM     81  S   UNL A   1      35.511  32.269  30.508  1.00  0.00     0.124 S 
ATOM     82  O   UNL A   1      34.529  32.332  31.582  1.00  0.00    -0.237 OA
ATOM     83  O   UNL A   1      36.366  33.441  30.348  1.00  0.00    -0.237 OA
ATOM     84  O   UNL A   1      35.040  31.668  29.263  1.00  0.00    -0.744 OA
ENDBRANCH  77  81
ENDBRANCH  50  74
BRANCH  62  85
ATOM     85  C   UNL A   1      44.516  33.293  29.079  1.00  0.00     0.023 A 
ATOM     86  C   UNL A   1      44.073  34.396  28.329  1.00  0.00     0.031 A 
ATOM     87  C   UNL A   1      45.435  33.530  30.117  1.00  0.00     0.131 A 
ATOM     88  C   UNL A   1      44.607  35.670  28.575  1.00  0.00     0.055 A 
ATOM     89  C   UNL A   1      45.898  34.812  30.413  1.00  0.00     0.041 A 
ATOM     90  F   UNL A   1      45.900  32.516  30.865  1.00  0.00    -0.206 F 
ATOM     91  C   UNL A   1      45.499  35.888  29.628  1.00  0.00     0.022 A 
BRANCH  88  92
ATOM     92  S   UNL A   1      44.224  37.010  27.415  1.00  0.00     0.124 S 
ATOM     93  O   UNL A   1      43.708  38.043  28.307  1.00  0.00    -0.237 OA
ATOM     94  O   UNL A   1      45.524  37.282  26.812  1.00  0.00    -0.237 OA
ATOM     95  O   UNL A   1      43.236  36.415  26.517  1.00  0.00    -0.744 OA
ENDBRANCH  88  92
ENDBRANCH  62  85
ENDBRANCH  36  37
ENDBRANCH  28  31
ENDBRANCH  26  27
ENDBRANCH  25  26
ENDBRANCH  24  25
ENDBRANCH   1  24
TORSDOF 19
ENDMDL
