MODEL 1
REMARK VINA RESULT:     -13.0      0.000      0.000
REMARK SMILES O=C(NCCCCCCNC(=O)[C@@H](Cc1ccccc1)N1C(=O)/C(=C/c2ccncc2)SC1=S)c1ccc(-c2c3nc(c(-c4cc(S(=O)(=O)[O-])ccc4F)c4ccc([nH]4)c(-c4cc(S(=O)(=O)[O-])ccc4F)c4nc(c(-c5cc(S(=O)(=O)[O-])ccc5F)c5ccc2[nH]5)C=C4)C=C3)cc1
REMARK SMILES IDX 6 1 5 2 4 3 3 4 1 5 2 6 35 8 36 9 97 10 37 11 96 12 38 13
REMARK SMILES IDX 39 14 40 15 90 16 41 17 95 18 89 19 91 20 42 21 94 22 88 23
REMARK SMILES IDX 87 24 43 26 75 27 55 28 74 29 56 30 59 31 73 32 92 33 57 34
REMARK SMILES IDX 58 35 72 37 93 38 60 39 44 40 45 41 53 42 46 43 52 44 54 45
REMARK SMILES IDX 51 46 47 47 48 48 49 49 50 50 76 51 77 52 85 53 78 54 84 55
REMARK SMILES IDX 86 56 83 57 79 58 80 59 81 60 82 61 61 62 62 63 70 64 63 65
REMARK SMILES IDX 69 66 71 67 68 68 64 69 65 70 66 71 67 72 7 73 8 74 9 75
REMARK SMILES IDX 10 76 11 77 12 79 13 80 14 81 15 82 16 83 20 84 17 85 19 86
REMARK SMILES IDX 18 87 21 88 22 89 33 90 23 91 24 92 32 93 34 94 25 95 26 96
REMARK SMILES IDX 27 97 31 98 28 99 30 100 29 101
REMARK H PARENT 3 7 91 25 59 36 10 78
REMARK Flexibility Score: inf
ROOT
ATOM      1  C   UNL A   1      31.356  30.379  26.213  1.00  0.00     0.002 C 
ENDROOT
BRANCH   1   2
ATOM      2  C   UNL A   1      31.445  31.873  26.528  1.00  0.00     0.021 C 
BRANCH   2   3
ATOM      3  C   UNL A   1      32.677  32.327  27.295  1.00  0.00     0.116 C 
BRANCH   3   4
ATOM      4  N   UNL A   1      32.662  33.748  27.590  1.00  0.00    -0.352 N 
ATOM      5  O   UNL A   1      33.112  35.650  28.699  1.00  0.00    -0.269 OA
ATOM      6  C   UNL A   1      33.392  34.470  28.502  1.00  0.00     0.251 C 
ATOM      7  H   UNL A   1      32.030  34.278  27.054  1.00  0.00     0.163 HD
BRANCH   6   8
ATOM      8  C   UNL A   1      34.501  33.838  29.255  1.00  0.00     0.039 A 
ATOM      9  C   UNL A   1      34.262  32.794  30.151  1.00  0.00     0.014 A 
ATOM     10  C   UNL A   1      35.813  34.265  29.021  1.00  0.00     0.014 A 
ATOM     11  C   UNL A   1      35.309  32.269  30.900  1.00  0.00     0.010 A 
ATOM     12  C   UNL A   1      36.877  33.674  29.711  1.00  0.00     0.010 A 
ATOM     13  C   UNL A   1      36.632  32.682  30.671  1.00  0.00    -0.014 A 
BRANCH  13  14
ATOM     14  C   UNL A   1      37.734  31.987  31.387  1.00  0.00     0.031 A 
ATOM     15  C   UNL A   1      38.542  30.906  30.724  1.00  0.00     0.074 A 
ATOM     16  C   UNL A   1      38.029  32.385  32.641  1.00  0.00     0.049 A 
ATOM     17  N   UNL A   1      39.569  30.243  31.193  1.00  0.00    -0.248 NA
ATOM     18  C   UNL A   1      38.141  30.511  29.366  1.00  0.00     0.031 C 
ATOM     19  C   UNL A   1      37.294  33.411  33.389  1.00  0.00     0.029 A 
ATOM     20  N   UNL A   1      39.030  32.009  33.498  1.00  0.00    -0.354 N 
ATOM     21  C   UNL A   1      39.938  29.350  30.193  1.00  0.00     0.074 A 
ATOM     22  C   UNL A   1      38.998  29.533  29.105  1.00  0.00     0.031 C 
ATOM     23  C   UNL A   1      37.902  33.619  34.565  1.00  0.00     0.029 A 
ATOM     24  C   UNL A   1      39.028  32.701  34.686  1.00  0.00     0.049 A 
ATOM     25  H   UNL A   1      39.689  31.309  33.283  1.00  0.00     0.167 HD
ATOM     26  C   UNL A   1      40.970  28.469  30.183  1.00  0.00     0.034 A 
ATOM     27  C   UNL A   1      39.832  32.602  35.762  1.00  0.00     0.034 A 
ATOM     28  C   UNL A   1      41.894  28.298  31.281  1.00  0.00     0.049 A 
ATOM     29  C   UNL A   1      40.961  31.610  35.724  1.00  0.00     0.074 A 
ATOM     30  C   UNL A   1      42.977  27.439  31.372  1.00  0.00     0.029 A 
ATOM     31  N   UNL A   1      41.844  28.995  32.481  1.00  0.00    -0.354 N 
ATOM     32  N   UNL A   1      41.301  30.783  34.762  1.00  0.00    -0.248 NA
ATOM     33  C   UNL A   1      41.819  31.542  36.913  1.00  0.00     0.031 C 
ATOM     34  C   UNL A   1      43.547  27.578  32.644  1.00  0.00     0.029 A 
ATOM     35  C   UNL A   1      42.862  28.572  33.324  1.00  0.00     0.049 A 
ATOM     36  H   UNL A   1      41.183  29.691  32.701  1.00  0.00     0.167 HD
ATOM     37  C   UNL A   1      42.417  30.099  35.231  1.00  0.00     0.074 A 
ATOM     38  C   UNL A   1      42.716  30.642  36.541  1.00  0.00     0.031 C 
ATOM     39  C   UNL A   1      43.127  29.105  34.639  1.00  0.00     0.034 A 
BRANCH  26  40
ATOM     40  C   UNL A   1      41.134  27.598  28.961  1.00  0.00     0.023 A 
ATOM     41  C   UNL A   1      42.124  27.859  27.997  1.00  0.00     0.031 A 
ATOM     42  C   UNL A   1      40.292  26.490  28.757  1.00  0.00     0.131 A 
ATOM     43  C   UNL A   1      42.215  27.052  26.851  1.00  0.00     0.055 A 
ATOM     44  C   UNL A   1      40.430  25.653  27.648  1.00  0.00     0.041 A 
ATOM     45  F   UNL A   1      39.317  26.203  29.635  1.00  0.00    -0.206 F 
ATOM     46  C   UNL A   1      41.390  25.938  26.682  1.00  0.00     0.022 A 
BRANCH  43  47
ATOM     47  S   UNL A   1      43.360  27.542  25.534  1.00  0.00     0.124 S 
ATOM     48  O   UNL A   1      44.085  28.641  26.168  1.00  0.00    -0.237 OA
ATOM     49  O   UNL A   1      44.123  26.319  25.308  1.00  0.00    -0.237 OA
ATOM     50  O   UNL A   1      42.475  27.936  24.439  1.00  0.00    -0.744 OA
ENDBRANCH  43  47
ENDBRANCH  26  40
BRANCH  27  51
ATOM     51  C   UNL A   1      39.580  33.437  36.971  1.00  0.00     0.023 A 
ATOM     52  C   UNL A   1      38.864  32.934  38.069  1.00  0.00     0.031 A 
ATOM     53  C   UNL A   1      40.022  34.771  37.028  1.00  0.00     0.131 A 
ATOM     54  C   UNL A   1      38.571  33.773  39.155  1.00  0.00     0.055 A 
ATOM     55  C   UNL A   1      39.779  35.584  38.135  1.00  0.00     0.041 A 
ATOM     56  F   UNL A   1      40.715  35.302  36.007  1.00  0.00    -0.206 F 
ATOM     57  C   UNL A   1      39.036  35.090  39.202  1.00  0.00     0.022 A 
BRANCH  54  58
ATOM     58  S   UNL A   1      37.489  33.146  40.468  1.00  0.00     0.124 S 
ATOM     59  O   UNL A   1      37.358  34.315  41.332  1.00  0.00    -0.237 OA
ATOM     60  O   UNL A   1      36.296  32.766  39.719  1.00  0.00    -0.237 OA
ATOM     61  O   UNL A   1      38.249  32.034  41.034  1.00  0.00    -0.744 OA
ENDBRANCH  54  58
ENDBRANCH  27  51
BRANCH  39  62
ATOM     62  C   UNL A   1      44.300  28.565  35.419  1.00  0.00     0.023 A 
ATOM     63  C   UNL A   1      44.144  27.511  36.337  1.00  0.00     0.031 A 
ATOM     64  C   UNL A   1      45.572  29.145  35.285  1.00  0.00     0.131 A 
ATOM     65  C   UNL A   1      45.224  27.120  37.141  1.00  0.00     0.055 A 
ATOM     66  C   UNL A   1      46.660  28.709  36.043  1.00  0.00     0.041 A 
ATOM     67  F   UNL A   1      45.776  30.156  34.425  1.00  0.00    -0.206 F 
ATOM     68  C   UNL A   1      46.485  27.703  36.990  1.00  0.00     0.022 A 
BRANCH  65  69
ATOM     69  S   UNL A   1      44.929  25.919  38.467  1.00  0.00     0.124 S 
ATOM     70  O   UNL A   1      43.982  26.632  39.318  1.00  0.00    -0.237 OA
ATOM     71  O   UNL A   1      44.393  24.775  37.738  1.00  0.00    -0.237 OA
ATOM     72  O   UNL A   1      46.255  25.717  39.049  1.00  0.00    -0.744 OA
ENDBRANCH  65  69
ENDBRANCH  39  62
ENDBRANCH  13  14
ENDBRANCH   6   8
ENDBRANCH   3   4
ENDBRANCH   2   3
ENDBRANCH   1   2
BRANCH   1  73
ATOM     73  C   UNL A   1      32.200  29.428  27.077  1.00  0.00     0.002 C 
BRANCH  73  74
ATOM     74  C   UNL A   1      31.610  28.047  27.384  1.00  0.00     0.021 C 
BRANCH  74  75
ATOM     75  C   UNL A   1      31.277  27.207  26.162  1.00  0.00     0.116 C 
BRANCH  75  76
ATOM     76  N   UNL A   1      30.690  25.920  26.434  1.00  0.00    -0.354 N 
ATOM     77  C   UNL A   1      31.345  24.726  26.482  1.00  0.00     0.243 C 
ATOM     78  H   UNL A   1      29.721  25.902  26.603  1.00  0.00     0.163 HD
ATOM     79  O   UNL A   1      30.905  23.910  27.303  1.00  0.00    -0.273 OA
BRANCH  77  80
ATOM     80  C   UNL A   1      32.573  24.357  25.597  1.00  0.00     0.185 C 
BRANCH  80  81
ATOM     81  C   UNL A   1      33.716  25.403  25.443  1.00  0.00     0.071 C 
BRANCH  81  82
ATOM     82  C   UNL A   1      33.769  26.347  24.272  1.00  0.00    -0.045 A 
ATOM     83  C   UNL A   1      33.523  25.879  22.971  1.00  0.00     0.004 A 
ATOM     84  C   UNL A   1      34.100  27.696  24.442  1.00  0.00     0.004 A 
ATOM     85  C   UNL A   1      33.507  26.760  21.888  1.00  0.00     0.000 A 
ATOM     86  C   UNL A   1      34.059  28.581  23.362  1.00  0.00     0.000 A 
ATOM     87  C   UNL A   1      33.748  28.115  22.088  1.00  0.00     0.000 A 
ENDBRANCH  81  82
ENDBRANCH  80  81
BRANCH  80  88
ATOM     88  N   UNL A   1      32.916  22.924  25.368  1.00  0.00    -0.280 N 
ATOM     89  C   UNL A   1      32.354  22.273  24.261  1.00  0.00     0.266 C 
ATOM     90  C   UNL A   1      33.737  22.105  26.115  1.00  0.00     0.149 C 
ATOM     91  O   UNL A   1      31.543  22.717  23.467  1.00  0.00    -0.268 OA
ATOM     92  C   UNL A   1      32.866  20.875  24.194  1.00  0.00     0.081 C 
ATOM     93  S   UNL A   1      34.307  20.788  25.112  1.00  0.00    -0.054 SA
ATOM     94  S   UNL A   1      34.133  22.080  27.721  1.00  0.00    -0.052 S 
ATOM     95  C   UNL A   1      32.203  19.833  23.674  1.00  0.00     0.029 C 
BRANCH  95  96
ATOM     96  C   UNL A   1      32.666  18.456  23.905  1.00  0.00    -0.021 A 
ATOM     97  C   UNL A   1      32.455  17.855  25.152  1.00  0.00     0.028 A 
ATOM     98  C   UNL A   1      33.453  17.802  22.963  1.00  0.00     0.028 A 
ATOM     99  C   UNL A   1      33.051  16.633  25.404  1.00  0.00     0.111 A 
ATOM    100  C   UNL A   1      33.995  16.574  23.308  1.00  0.00     0.111 A 
ATOM    101  N   UNL A   1      33.796  15.968  24.499  1.00  0.00    -0.265 NA
ENDBRANCH  95  96
ENDBRANCH  80  88
ENDBRANCH  77  80
ENDBRANCH  75  76
ENDBRANCH  74  75
ENDBRANCH  73  74
ENDBRANCH   1  73
TORSDOF 20
ENDMDL
MODEL 2
REMARK VINA RESULT:     -12.7      1.802      7.816
REMARK SMILES O=C(NCCCCCCNC(=O)[C@@H](Cc1ccccc1)N1C(=O)/C(=C/c2ccncc2)SC1=S)c1ccc(-c2c3nc(c(-c4cc(S(=O)(=O)[O-])ccc4F)c4ccc([nH]4)c(-c4cc(S(=O)(=O)[O-])ccc4F)c4nc(c(-c5cc(S(=O)(=O)[O-])ccc5F)c5ccc2[nH]5)C=C4)C=C3)cc1
REMARK SMILES IDX 6 1 5 2 4 3 3 4 1 5 2 6 35 8 36 9 97 10 37 11 96 12 38 13
REMARK SMILES IDX 39 14 40 15 90 16 41 17 95 18 89 19 91 20 42 21 94 22 88 23
REMARK SMILES IDX 87 24 43 26 75 27 55 28 74 29 56 30 59 31 73 32 92 33 57 34
REMARK SMILES IDX 58 35 72 37 93 38 60 39 44 40 45 41 53 42 46 43 52 44 54 45
REMARK SMILES IDX 51 46 47 47 48 48 49 49 50 50 76 51 77 52 85 53 78 54 84 55
REMARK SMILES IDX 86 56 83 57 79 58 80 59 81 60 82 61 61 62 62 63 70 64 63 65
REMARK SMILES IDX 69 66 71 67 68 68 64 69 65 70 66 71 67 72 7 73 8 74 9 75
REMARK SMILES IDX 10 76 11 77 12 79 13 80 14 81 15 82 16 83 20 84 17 85 19 86
REMARK SMILES IDX 18 87 21 88 22 89 33 90 23 91 24 92 32 93 34 94 25 95 26 96
REMARK SMILES IDX 27 97 31 98 28 99 30 100 29 101
REMARK H PARENT 3 7 91 25 59 36 10 78
REMARK Flexibility Score: inf
ROOT
ATOM      1  C   UNL A   1      31.464  30.852  26.171  1.00  0.00     0.002 C 
ENDROOT
BRANCH   1   2
ATOM      2  C   UNL A   1      31.401  32.295  26.675  1.00  0.00     0.021 C 
BRANCH   2   3
ATOM      3  C   UNL A   1      32.694  32.871  27.232  1.00  0.00     0.116 C 
BRANCH   3   4
ATOM      4  N   UNL A   1      32.518  34.191  27.808  1.00  0.00    -0.352 N 
ATOM      5  O   UNL A   1      32.756  35.867  29.286  1.00  0.00    -0.269 OA
ATOM      6  C   UNL A   1      33.168  34.792  28.858  1.00  0.00     0.251 C 
ATOM      7  H   UNL A   1      31.824  34.743  27.381  1.00  0.00     0.163 HD
BRANCH   6   8
ATOM      8  C   UNL A   1      34.349  34.151  29.484  1.00  0.00     0.039 A 
ATOM      9  C   UNL A   1      35.646  34.508  29.112  1.00  0.00     0.014 A 
ATOM     10  C   UNL A   1      34.152  33.208  30.499  1.00  0.00     0.014 A 
ATOM     11  C   UNL A   1      36.735  33.839  29.660  1.00  0.00     0.010 A 
ATOM     12  C   UNL A   1      35.253  32.598  31.112  1.00  0.00     0.010 A 
ATOM     13  C   UNL A   1      36.554  32.895  30.685  1.00  0.00    -0.014 A 
BRANCH  13  14
ATOM     14  C   UNL A   1      37.753  32.315  31.344  1.00  0.00     0.031 A 
ATOM     15  C   UNL A   1      38.195  32.768  32.708  1.00  0.00     0.074 A 
ATOM     16  C   UNL A   1      38.416  31.329  30.707  1.00  0.00     0.049 A 
ATOM     17  N   UNL A   1      39.184  32.323  33.441  1.00  0.00    -0.248 NA
ATOM     18  C   UNL A   1      37.437  33.865  33.326  1.00  0.00     0.031 C 
ATOM     19  C   UNL A   1      38.087  30.828  29.368  1.00  0.00     0.029 A 
ATOM     20  N   UNL A   1      39.475  30.551  31.097  1.00  0.00    -0.354 N 
ATOM     21  C   UNL A   1      39.173  33.085  34.604  1.00  0.00     0.074 A 
ATOM     22  C   UNL A   1      38.098  34.046  34.461  1.00  0.00     0.031 C 
ATOM     23  C   UNL A   1      38.888  29.795  29.075  1.00  0.00     0.029 A 
ATOM     24  C   UNL A   1      39.830  29.599  30.170  1.00  0.00     0.049 A 
ATOM     25  H   UNL A   1      39.937  30.664  31.959  1.00  0.00     0.167 HD
ATOM     26  C   UNL A   1      39.979  32.983  35.692  1.00  0.00     0.034 A 
ATOM     27  C   UNL A   1      40.811  28.677  30.190  1.00  0.00     0.034 A 
ATOM     28  C   UNL A   1      41.050  32.021  35.814  1.00  0.00     0.049 A 
ATOM     29  C   UNL A   1      41.694  28.595  31.405  1.00  0.00     0.074 A 
ATOM     30  C   UNL A   1      41.921  31.828  36.873  1.00  0.00     0.029 A 
ATOM     31  N   UNL A   1      41.400  31.090  34.844  1.00  0.00    -0.354 N 
ATOM     32  N   UNL A   1      41.657  29.317  32.501  1.00  0.00    -0.248 NA
ATOM     33  C   UNL A   1      42.744  27.571  31.389  1.00  0.00     0.031 C 
ATOM     34  C   UNL A   1      42.829  30.821  36.522  1.00  0.00     0.029 A 
ATOM     35  C   UNL A   1      42.484  30.337  35.271  1.00  0.00     0.049 A 
ATOM     36  H   UNL A   1      40.943  30.979  33.978  1.00  0.00     0.167 HD
ATOM     37  C   UNL A   1      42.679  28.829  33.308  1.00  0.00     0.074 A 
ATOM     38  C   UNL A   1      43.282  27.724  32.589  1.00  0.00     0.031 C 
ATOM     39  C   UNL A   1      43.091  29.259  34.528  1.00  0.00     0.034 A 
BRANCH  26  40
ATOM     40  C   UNL A   1      39.756  33.959  36.821  1.00  0.00     0.023 A 
ATOM     41  C   UNL A   1      39.247  33.545  38.064  1.00  0.00     0.031 A 
ATOM     42  C   UNL A   1      40.058  35.322  36.655  1.00  0.00     0.131 A 
ATOM     43  C   UNL A   1      39.010  34.491  39.075  1.00  0.00     0.055 A 
ATOM     44  C   UNL A   1      39.883  36.248  37.686  1.00  0.00     0.041 A 
ATOM     45  F   UNL A   1      40.530  35.779  35.484  1.00  0.00    -0.206 F 
ATOM     46  C   UNL A   1      39.347  35.835  38.902  1.00  0.00     0.022 A 
BRANCH  43  47
ATOM     47  S   UNL A   1      38.160  33.955  40.584  1.00  0.00     0.124 S 
ATOM     48  O   UNL A   1      37.921  35.231  41.256  1.00  0.00    -0.237 OA
ATOM     49  O   UNL A   1      36.978  33.280  40.057  1.00  0.00    -0.237 OA
ATOM     50  O   UNL A   1      39.136  33.086  41.238  1.00  0.00    -0.744 OA
ENDBRANCH  43  47
ENDBRANCH  26  40
BRANCH  27  51
ATOM     51  C   UNL A   1      41.033  27.785  29.016  1.00  0.00     0.023 A 
ATOM     52  C   UNL A   1      42.039  28.054  28.076  1.00  0.00     0.031 A 
ATOM     53  C   UNL A   1      40.208  26.667  28.797  1.00  0.00     0.131 A 
ATOM     54  C   UNL A   1      42.166  27.244  26.937  1.00  0.00     0.055 A 
ATOM     55  C   UNL A   1      40.374  25.830  27.694  1.00  0.00     0.041 A 
ATOM     56  F   UNL A   1      39.232  26.362  29.668  1.00  0.00    -0.206 F 
ATOM     57  C   UNL A   1      41.350  26.125  26.747  1.00  0.00     0.022 A 
BRANCH  54  58
ATOM     58  S   UNL A   1      43.353  27.727  25.654  1.00  0.00     0.124 S 
ATOM     59  O   UNL A   1      43.859  28.992  26.177  1.00  0.00    -0.237 OA
ATOM     60  O   UNL A   1      44.287  26.607  25.670  1.00  0.00    -0.237 OA
ATOM     61  O   UNL A   1      42.529  27.834  24.452  1.00  0.00    -0.744 OA
ENDBRANCH  54  58
ENDBRANCH  27  51
BRANCH  39  62
ATOM     62  C   UNL A   1      44.243  28.507  35.147  1.00  0.00     0.023 A 
ATOM     63  C   UNL A   1      44.025  27.467  36.068  1.00  0.00     0.031 A 
ATOM     64  C   UNL A   1      45.569  28.869  34.856  1.00  0.00     0.131 A 
ATOM     65  C   UNL A   1      45.115  26.876  36.724  1.00  0.00     0.055 A 
ATOM     66  C   UNL A   1      46.652  28.234  35.465  1.00  0.00     0.041 A 
ATOM     67  F   UNL A   1      45.832  29.857  33.986  1.00  0.00    -0.206 F 
ATOM     68  C   UNL A   1      46.428  27.244  36.418  1.00  0.00     0.022 A 
BRANCH  65  69
ATOM     69  S   UNL A   1      44.787  25.703  38.067  1.00  0.00     0.124 S 
ATOM     70  O   UNL A   1      44.007  26.514  38.996  1.00  0.00    -0.237 OA
ATOM     71  O   UNL A   1      44.059  24.640  37.383  1.00  0.00    -0.237 OA
ATOM     72  O   UNL A   1      46.123  25.336  38.537  1.00  0.00    -0.744 OA
ENDBRANCH  65  69
ENDBRANCH  39  62
ENDBRANCH  13  14
ENDBRANCH   6   8
ENDBRANCH   3   4
ENDBRANCH   2   3
ENDBRANCH   1   2
BRANCH   1  73
ATOM     73  C   UNL A   1      32.157  29.822  27.077  1.00  0.00     0.002 C 
BRANCH  73  74
ATOM     74  C   UNL A   1      33.633  29.520  26.796  1.00  0.00     0.021 C 
BRANCH  74  75
ATOM     75  C   UNL A   1      33.881  28.324  25.891  1.00  0.00     0.116 C 
BRANCH  75  76
ATOM     76  N   UNL A   1      34.080  28.631  24.498  1.00  0.00    -0.354 N 
ATOM     77  C   UNL A   1      33.148  28.542  23.508  1.00  0.00     0.243 C 
ATOM     78  H   UNL A   1      34.979  28.935  24.236  1.00  0.00     0.163 HD
ATOM     79  O   UNL A   1      33.244  29.388  22.608  1.00  0.00    -0.273 OA
BRANCH  77  80
ATOM     80  C   UNL A   1      32.010  27.479  23.460  1.00  0.00     0.185 C 
BRANCH  80  81
ATOM     81  C   UNL A   1      30.833  27.698  22.464  1.00  0.00     0.071 C 
BRANCH  81  82
ATOM     82  C   UNL A   1      29.708  28.650  22.769  1.00  0.00    -0.045 A 
ATOM     83  C   UNL A   1      28.387  28.182  22.858  1.00  0.00     0.004 A 
ATOM     84  C   UNL A   1      29.941  30.020  22.934  1.00  0.00     0.004 A 
ATOM     85  C   UNL A   1      27.346  29.046  23.203  1.00  0.00     0.000 A 
ATOM     86  C   UNL A   1      28.904  30.879  23.304  1.00  0.00     0.000 A 
ATOM     87  C   UNL A   1      27.609  30.390  23.452  1.00  0.00     0.000 A 
ENDBRANCH  81  82
ENDBRANCH  80  81
BRANCH  80  88
ATOM     88  N   UNL A   1      32.282  26.083  23.909  1.00  0.00    -0.280 N 
ATOM     89  C   UNL A   1      33.207  25.319  23.185  1.00  0.00     0.266 C 
ATOM     90  C   UNL A   1      31.735  25.401  24.975  1.00  0.00     0.149 C 
ATOM     91  O   UNL A   1      33.794  25.628  22.163  1.00  0.00    -0.268 OA
ATOM     92  C   UNL A   1      33.363  23.985  23.831  1.00  0.00     0.081 C 
ATOM     93  S   UNL A   1      32.814  24.106  25.448  1.00  0.00    -0.054 SA
ATOM     94  S   UNL A   1      30.270  25.502  25.736  1.00  0.00    -0.052 S 
ATOM     95  C   UNL A   1      33.685  22.851  23.195  1.00  0.00     0.029 C 
BRANCH  95  96
ATOM     96  C   UNL A   1      33.540  21.547  23.862  1.00  0.00    -0.021 A 
ATOM     97  C   UNL A   1      34.616  21.013  24.580  1.00  0.00     0.028 A 
ATOM     98  C   UNL A   1      32.409  20.763  23.653  1.00  0.00     0.028 A 
ATOM     99  C   UNL A   1      34.518  19.715  25.047  1.00  0.00     0.111 A 
ATOM    100  C   UNL A   1      32.404  19.479  24.173  1.00  0.00     0.111 A 
ATOM    101  N   UNL A   1      33.424  18.945  24.879  1.00  0.00    -0.265 NA
ENDBRANCH  95  96
ENDBRANCH  80  88
ENDBRANCH  77  80
ENDBRANCH  75  76
ENDBRANCH  74  75
ENDBRANCH  73  74
ENDBRANCH   1  73
TORSDOF 20
ENDMDL
MODEL 3
REMARK VINA RESULT:     -12.7      1.755      2.474
REMARK SMILES O=C(NCCCCCCNC(=O)[C@@H](Cc1ccccc1)N1C(=O)/C(=C/c2ccncc2)SC1=S)c1ccc(-c2c3nc(c(-c4cc(S(=O)(=O)[O-])ccc4F)c4ccc([nH]4)c(-c4cc(S(=O)(=O)[O-])ccc4F)c4nc(c(-c5cc(S(=O)(=O)[O-])ccc5F)c5ccc2[nH]5)C=C4)C=C3)cc1
REMARK SMILES IDX 6 1 5 2 4 3 3 4 1 5 2 6 35 8 36 9 97 10 37 11 96 12 38 13
REMARK SMILES IDX 39 14 40 15 90 16 41 17 95 18 89 19 91 20 42 21 94 22 88 23
REMARK SMILES IDX 87 24 43 26 75 27 55 28 74 29 56 30 59 31 73 32 92 33 57 34
REMARK SMILES IDX 58 35 72 37 93 38 60 39 44 40 45 41 53 42 46 43 52 44 54 45
REMARK SMILES IDX 51 46 47 47 48 48 49 49 50 50 76 51 77 52 85 53 78 54 84 55
REMARK SMILES IDX 86 56 83 57 79 58 80 59 81 60 82 61 61 62 62 63 70 64 63 65
REMARK SMILES IDX 69 66 71 67 68 68 64 69 65 70 66 71 67 72 7 73 8 74 9 75
REMARK SMILES IDX 10 76 11 77 12 79 13 80 14 81 15 82 16 83 20 84 17 85 19 86
REMARK SMILES IDX 18 87 21 88 22 89 33 90 23 91 24 92 32 93 34 94 25 95 26 96
REMARK SMILES IDX 27 97 31 98 28 99 30 100 29 101
REMARK H PARENT 3 7 91 25 59 36 10 78
REMARK Flexibility Score: inf
ROOT
ATOM      1  C   UNL A   1      31.397  30.711  26.031  1.00  0.00     0.002 C 
ENDROOT
BRANCH   1   2
ATOM      2  C   UNL A   1      31.373  32.162  26.515  1.00  0.00     0.021 C 
BRANCH   2   3
ATOM      3  C   UNL A   1      32.626  32.658  27.220  1.00  0.00     0.116 C 
BRANCH   3   4
ATOM      4  N   UNL A   1      32.519  34.041  27.647  1.00  0.00    -0.352 N 
ATOM      5  O   UNL A   1      32.829  35.850  28.944  1.00  0.00    -0.269 OA
ATOM      6  C   UNL A   1      33.183  34.713  28.644  1.00  0.00     0.251 C 
ATOM      7  H   UNL A   1      31.869  34.583  27.145  1.00  0.00     0.163 HD
BRANCH   6   8
ATOM      8  C   UNL A   1      34.310  34.075  29.366  1.00  0.00     0.039 A 
ATOM      9  C   UNL A   1      34.083  33.136  30.374  1.00  0.00     0.014 A 
ATOM     10  C   UNL A   1      35.621  34.386  28.989  1.00  0.00     0.014 A 
ATOM     11  C   UNL A   1      35.155  32.609  31.086  1.00  0.00     0.010 A 
ATOM     12  C   UNL A   1      36.701  33.787  29.648  1.00  0.00     0.010 A 
ATOM     13  C   UNL A   1      36.477  32.907  30.715  1.00  0.00    -0.014 A 
BRANCH  13  14
ATOM     14  C   UNL A   1      37.590  32.204  31.407  1.00  0.00     0.031 A 
ATOM     15  C   UNL A   1      38.335  31.076  30.749  1.00  0.00     0.074 A 
ATOM     16  C   UNL A   1      37.954  32.638  32.631  1.00  0.00     0.049 A 
ATOM     17  N   UNL A   1      39.363  30.399  31.195  1.00  0.00    -0.248 NA
ATOM     18  C   UNL A   1      37.862  30.645  29.425  1.00  0.00     0.031 C 
ATOM     19  C   UNL A   1      37.283  33.711  33.372  1.00  0.00     0.029 A 
ATOM     20  N   UNL A   1      38.982  32.261  33.455  1.00  0.00    -0.354 N 
ATOM     21  C   UNL A   1      39.660  29.461  30.213  1.00  0.00     0.074 A 
ATOM     22  C   UNL A   1      38.678  29.633  29.162  1.00  0.00     0.031 C 
ATOM     23  C   UNL A   1      37.950  33.942  34.511  1.00  0.00     0.029 A 
ATOM     24  C   UNL A   1      39.053  32.995  34.616  1.00  0.00     0.049 A 
ATOM     25  H   UNL A   1      39.609  31.535  33.236  1.00  0.00     0.167 HD
ATOM     26  C   UNL A   1      40.665  28.548  30.190  1.00  0.00     0.034 A 
ATOM     27  C   UNL A   1      39.903  32.910  35.657  1.00  0.00     0.034 A 
ATOM     28  C   UNL A   1      41.633  28.388  31.251  1.00  0.00     0.049 A 
ATOM     29  C   UNL A   1      41.000  31.883  35.606  1.00  0.00     0.074 A 
ATOM     30  C   UNL A   1      42.693  27.500  31.325  1.00  0.00     0.029 A 
ATOM     31  N   UNL A   1      41.658  29.129  32.425  1.00  0.00    -0.354 N 
ATOM     32  N   UNL A   1      41.272  31.013  34.661  1.00  0.00    -0.248 NA
ATOM     33  C   UNL A   1      41.909  31.831  36.757  1.00  0.00     0.031 C 
ATOM     34  C   UNL A   1      43.325  27.668  32.564  1.00  0.00     0.029 A 
ATOM     35  C   UNL A   1      42.701  28.705  33.237  1.00  0.00     0.049 A 
ATOM     36  H   UNL A   1      41.028  29.852  32.649  1.00  0.00     0.167 HD
ATOM     37  C   UNL A   1      42.388  30.312  35.104  1.00  0.00     0.074 A 
ATOM     38  C   UNL A   1      42.762  30.892  36.379  1.00  0.00     0.031 C 
ATOM     39  C   UNL A   1      43.041  29.276  34.518  1.00  0.00     0.034 A 
BRANCH  26  40
ATOM     40  C   UNL A   1      40.747  27.630  28.995  1.00  0.00     0.023 A 
ATOM     41  C   UNL A   1      41.684  27.839  27.967  1.00  0.00     0.031 A 
ATOM     42  C   UNL A   1      39.881  26.529  28.881  1.00  0.00     0.131 A 
ATOM     43  C   UNL A   1      41.699  26.989  26.850  1.00  0.00     0.055 A 
ATOM     44  C   UNL A   1      39.945  25.648  27.799  1.00  0.00     0.041 A 
ATOM     45  F   UNL A   1      38.954  26.289  29.822  1.00  0.00    -0.206 F 
ATOM     46  C   UNL A   1      40.852  25.882  26.770  1.00  0.00     0.022 A 
BRANCH  43  47
ATOM     47  S   UNL A   1      42.774  27.412  25.452  1.00  0.00     0.124 S 
ATOM     48  O   UNL A   1      42.768  26.166  24.689  1.00  0.00    -0.237 OA
ATOM     49  O   UNL A   1      42.072  28.537  24.843  1.00  0.00    -0.237 OA
ATOM     50  O   UNL A   1      44.049  27.741  26.086  1.00  0.00    -0.744 OA
ENDBRANCH  43  47
ENDBRANCH  26  40
BRANCH  27  51
ATOM     51  C   UNL A   1      39.731  33.795  36.845  1.00  0.00     0.023 A 
ATOM     52  C   UNL A   1      39.156  33.318  38.033  1.00  0.00     0.031 A 
ATOM     53  C   UNL A   1      40.107  35.149  36.793  1.00  0.00     0.131 A 
ATOM     54  C   UNL A   1      38.930  34.197  39.103  1.00  0.00     0.055 A 
ATOM     55  C   UNL A   1      39.934  36.007  37.879  1.00  0.00     0.041 A 
ATOM     56  F   UNL A   1      40.665  35.657  35.682  1.00  0.00    -0.206 F 
ATOM     57  C   UNL A   1      39.328  35.535  39.039  1.00  0.00     0.022 A 
BRANCH  54  58
ATOM     58  S   UNL A   1      38.019  33.591  40.548  1.00  0.00     0.124 S 
ATOM     59  O   UNL A   1      37.760  34.827  41.280  1.00  0.00    -0.237 OA
ATOM     60  O   UNL A   1      36.859  32.958  39.929  1.00  0.00    -0.237 OA
ATOM     61  O   UNL A   1      38.962  32.674  41.185  1.00  0.00    -0.744 OA
ENDBRANCH  54  58
ENDBRANCH  27  51
BRANCH  39  62
ATOM     62  C   UNL A   1      44.232  28.729  35.265  1.00  0.00     0.023 A 
ATOM     63  C   UNL A   1      44.095  27.679  36.189  1.00  0.00     0.031 A 
ATOM     64  C   UNL A   1      45.505  29.299  35.091  1.00  0.00     0.131 A 
ATOM     65  C   UNL A   1      45.195  27.281  36.962  1.00  0.00     0.055 A 
ATOM     66  C   UNL A   1      46.611  28.855  35.817  1.00  0.00     0.041 A 
ATOM     67  F   UNL A   1      45.690  30.305  34.222  1.00  0.00    -0.206 F 
ATOM     68  C   UNL A   1      46.456  27.853  36.772  1.00  0.00     0.022 A 
BRANCH  65  69
ATOM     69  S   UNL A   1      44.930  26.086  38.300  1.00  0.00     0.124 S 
ATOM     70  O   UNL A   1      46.215  26.114  38.991  1.00  0.00    -0.237 OA
ATOM     71  O   UNL A   1      43.806  26.670  39.022  1.00  0.00    -0.237 OA
ATOM     72  O   UNL A   1      44.634  24.840  37.594  1.00  0.00    -0.744 OA
ENDBRANCH  65  69
ENDBRANCH  39  62
ENDBRANCH  13  14
ENDBRANCH   6   8
ENDBRANCH   3   4
ENDBRANCH   2   3
ENDBRANCH   1   2
BRANCH   1  73
ATOM     73  C   UNL A   1      32.016  29.667  26.974  1.00  0.00     0.002 C 
BRANCH  73  74
ATOM     74  C   UNL A   1      32.887  28.577  26.341  1.00  0.00     0.021 C 
BRANCH  74  75
ATOM     75  C   UNL A   1      32.450  27.153  26.642  1.00  0.00     0.116 C 
BRANCH  75  76
ATOM     76  N   UNL A   1      31.027  26.937  26.691  1.00  0.00    -0.354 N 
ATOM     77  C   UNL A   1      30.342  25.916  26.103  1.00  0.00     0.243 C 
ATOM     78  H   UNL A   1      30.497  27.592  27.200  1.00  0.00     0.163 HD
ATOM     79  O   UNL A   1      29.348  25.515  26.723  1.00  0.00    -0.273 OA
BRANCH  77  80
ATOM     80  C   UNL A   1      30.738  25.251  24.750  1.00  0.00     0.185 C 
BRANCH  80  81
ATOM     81  C   UNL A   1      30.063  25.767  23.445  1.00  0.00     0.071 C 
BRANCH  81  82
ATOM     82  C   UNL A   1      29.495  27.157  23.347  1.00  0.00    -0.045 A 
ATOM     83  C   UNL A   1      30.345  28.263  23.187  1.00  0.00     0.004 A 
ATOM     84  C   UNL A   1      28.118  27.387  23.449  1.00  0.00     0.004 A 
ATOM     85  C   UNL A   1      29.823  29.548  23.030  1.00  0.00     0.000 A 
ATOM     86  C   UNL A   1      27.595  28.669  23.268  1.00  0.00     0.000 A 
ATOM     87  C   UNL A   1      28.446  29.747  23.045  1.00  0.00     0.000 A 
ENDBRANCH  81  82
ENDBRANCH  80  81
BRANCH  80  88
ATOM     88  N   UNL A   1      32.058  24.569  24.620  1.00  0.00    -0.280 N 
ATOM     89  C   UNL A   1      32.303  23.436  25.408  1.00  0.00     0.266 C 
ATOM     90  C   UNL A   1      33.120  24.900  23.806  1.00  0.00     0.149 C 
ATOM     91  O   UNL A   1      31.584  22.953  26.264  1.00  0.00    -0.268 OA
ATOM     92  C   UNL A   1      33.650  22.888  25.084  1.00  0.00     0.081 C 
ATOM     93  S   UNL A   1      34.115  23.482  23.548  1.00  0.00    -0.054 SA
ATOM     94  S   UNL A   1      33.655  26.340  23.192  1.00  0.00    -0.052 S 
ATOM     95  C   UNL A   1      34.437  22.215  25.935  1.00  0.00     0.029 C 
BRANCH  95  96
ATOM     96  C   UNL A   1      35.850  21.963  25.614  1.00  0.00    -0.021 A 
ATOM     97  C   UNL A   1      36.230  20.722  25.088  1.00  0.00     0.028 A 
ATOM     98  C   UNL A   1      36.837  22.875  25.977  1.00  0.00     0.028 A 
ATOM     99  C   UNL A   1      37.579  20.445  24.960  1.00  0.00     0.111 A 
ATOM    100  C   UNL A   1      38.160  22.507  25.797  1.00  0.00     0.111 A 
ATOM    101  N   UNL A   1      38.551  21.321  25.281  1.00  0.00    -0.265 NA
ENDBRANCH  95  96
ENDBRANCH  80  88
ENDBRANCH  77  80
ENDBRANCH  75  76
ENDBRANCH  74  75
ENDBRANCH  73  74
ENDBRANCH   1  73
TORSDOF 20
ENDMDL
