MODEL 1
REMARK VINA RESULT:     -12.2      0.000      0.000
REMARK SMILES Nc1c(Cl)ccc2c1C=C(C(=O)NCCCCCCNC(=O)c1ccc(-c3c4nc(c(-c5cc(S(=O)(=O)[O-])ccc5F)c5ccc([nH]5)c(-c5cc(S(=O)(=O)[O-])ccc5F)c5nc(c(-c6cc(S(=O)(=O)[O-])ccc6F)c6ccc3[nH]6)C=C5)C=C4)cc1)[C@@H](C(F)(F)F)O2
REMARK SMILES IDX 17 1 16 2 15 3 14 4 13 5 11 6 12 7 10 9 2 10 3 11 8 12 4 13
REMARK SMILES IDX 5 14 7 15 9 16 6 17 91 18 86 19 1 20 87 23 88 24 89 25 90 26
REMARK SMILES IDX 18 27 19 28 20 29 21 30 22 32 23 33 24 34 85 35 25 36 84 37
REMARK SMILES IDX 26 38 27 39 28 40 78 41 29 42 83 43 77 44 79 45 30 46 82 47
REMARK SMILES IDX 76 48 75 49 31 51 63 52 43 53 62 54 44 55 47 56 61 57 80 58
REMARK SMILES IDX 45 59 46 60 60 62 81 63 48 64 32 65 33 66 41 67 34 68 40 69
REMARK SMILES IDX 42 70 39 71 35 72 36 73 37 74 38 75 64 76 65 77 73 78 66 79
REMARK SMILES IDX 72 80 74 81 71 82 67 83 68 84 69 85 70 86 49 87 50 88 58 89
REMARK SMILES IDX 51 90 57 91 59 92 56 93 52 94 53 95 54 96 55 97
REMARK H PARENT 13 8 1 21 1 22 20 31 79 50 47 61
REMARK Flexibility Score: inf
ROOT
ATOM      1  C   UNL A   1      31.781  30.441  25.719  1.00  0.00     0.002 C 
ENDROOT
BRANCH   1   2
ATOM      2  C   UNL A   1      32.921  29.556  26.239  1.00  0.00     0.002 C 
BRANCH   2   3
ATOM      3  C   UNL A   1      33.612  28.683  25.186  1.00  0.00     0.021 C 
BRANCH   3   4
ATOM      4  C   UNL A   1      33.948  27.274  25.666  1.00  0.00     0.116 C 
BRANCH   4   5
ATOM      5  N   UNL A   1      33.836  26.306  24.589  1.00  0.00    -0.352 N 
ATOM      6  C   UNL A   1      32.874  25.870  23.744  1.00  0.00     0.251 C 
ATOM      7  O   UNL A   1      33.238  24.990  22.955  1.00  0.00    -0.270 OA
ATOM      8  H   UNL A   1      34.690  25.843  24.431  1.00  0.00     0.163 HD
BRANCH   6   9
ATOM      9  C   UNL A   1      31.463  26.362  23.700  1.00  0.00     0.067 C 
ATOM     10  C   UNL A   1      29.706  29.365  22.329  1.00  0.00     0.061 A 
ATOM     11  C   UNL A   1      28.378  29.853  22.311  1.00  0.00     0.064 A 
ATOM     12  C   UNL A   1      29.943  28.096  22.906  1.00  0.00     0.042 A 
ATOM     13  Cl  UNL A   1      28.020  31.414  21.647  1.00  0.00    -0.082 Cl
ATOM     14  C   UNL A   1      27.313  29.096  22.803  1.00  0.00     0.026 A 
ATOM     15  C   UNL A   1      28.863  27.357  23.408  1.00  0.00     0.130 A 
ATOM     16  C   UNL A   1      31.271  27.482  22.977  1.00  0.00     0.027 C 
ATOM     17  C   UNL A   1      27.557  27.842  23.347  1.00  0.00     0.049 A 
ATOM     18  O   UNL A   1      28.995  26.111  23.948  1.00  0.00    -0.475 OA
ATOM     19  C   UNL A   1      30.312  25.733  24.431  1.00  0.00     0.314 C 
BRANCH  10  20
ATOM     20  N   UNL A   1      30.749  30.179  21.875  1.00  0.00    -0.397 N 
ATOM     21  H   UNL A   1      31.638  29.791  21.702  1.00  0.00     0.156 HD
ATOM     22  H   UNL A   1      30.595  31.140  21.728  1.00  0.00     0.156 HD
ENDBRANCH  10  20
BRANCH  19  23
ATOM     23  C   UNL A   1      30.379  25.951  25.952  1.00  0.00     0.429 C 
ATOM     24  F   UNL A   1      31.351  25.186  26.502  1.00  0.00    -0.167 F 
ATOM     25  F   UNL A   1      30.668  27.233  26.276  1.00  0.00    -0.167 F 
ATOM     26  F   UNL A   1      29.215  25.643  26.567  1.00  0.00    -0.167 F 
ENDBRANCH  19  23
ENDBRANCH   6   9
ENDBRANCH   4   5
ENDBRANCH   3   4
ENDBRANCH   2   3
ENDBRANCH   1   2
BRANCH   1  27
ATOM     27  C   UNL A   1      31.531  31.727  26.512  1.00  0.00     0.021 C 
BRANCH  27  28
ATOM     28  C   UNL A   1      32.747  32.256  27.265  1.00  0.00     0.116 C 
BRANCH  28  29
ATOM     29  N   UNL A   1      32.624  33.674  27.554  1.00  0.00    -0.352 N 
ATOM     30  C   UNL A   1      33.267  34.406  28.518  1.00  0.00     0.251 C 
ATOM     31  H   UNL A   1      31.997  34.175  26.982  1.00  0.00     0.163 HD
ATOM     32  O   UNL A   1      32.901  35.549  28.781  1.00  0.00    -0.269 OA
BRANCH  30  33
ATOM     33  C   UNL A   1      34.402  33.800  29.243  1.00  0.00     0.039 A 
ATOM     34  C   UNL A   1      35.703  34.175  28.904  1.00  0.00     0.014 A 
ATOM     35  C   UNL A   1      34.170  32.860  30.251  1.00  0.00     0.014 A 
ATOM     36  C   UNL A   1      36.779  33.625  29.602  1.00  0.00     0.010 A 
ATOM     37  C   UNL A   1      35.240  32.350  30.978  1.00  0.00     0.010 A 
ATOM     38  C   UNL A   1      36.553  32.713  30.646  1.00  0.00    -0.014 A 
BRANCH  38  39
ATOM     39  C   UNL A   1      37.687  32.082  31.362  1.00  0.00     0.031 A 
ATOM     40  C   UNL A   1      38.422  30.941  30.719  1.00  0.00     0.074 A 
ATOM     41  C   UNL A   1      38.026  32.507  32.593  1.00  0.00     0.049 A 
ATOM     42  N   UNL A   1      39.433  30.253  31.177  1.00  0.00    -0.248 NA
ATOM     43  C   UNL A   1      37.945  30.504  29.397  1.00  0.00     0.031 C 
ATOM     44  C   UNL A   1      37.353  33.578  33.328  1.00  0.00     0.029 A 
ATOM     45  N   UNL A   1      39.014  32.085  33.446  1.00  0.00    -0.354 N 
ATOM     46  C   UNL A   1      39.715  29.304  30.202  1.00  0.00     0.074 A 
ATOM     47  C   UNL A   1      38.732  29.466  29.155  1.00  0.00     0.031 C 
ATOM     48  C   UNL A   1      37.957  33.738  34.517  1.00  0.00     0.029 A 
ATOM     49  C   UNL A   1      39.046  32.770  34.637  1.00  0.00     0.049 A 
ATOM     50  H   UNL A   1      39.642  31.359  33.225  1.00  0.00     0.167 HD
ATOM     51  C   UNL A   1      40.721  28.401  30.170  1.00  0.00     0.034 A 
ATOM     52  C   UNL A   1      39.863  32.637  35.701  1.00  0.00     0.034 A 
ATOM     53  C   UNL A   1      41.704  28.263  31.209  1.00  0.00     0.049 A 
ATOM     54  C   UNL A   1      40.984  31.629  35.642  1.00  0.00     0.074 A 
ATOM     55  C   UNL A   1      42.792  27.410  31.249  1.00  0.00     0.029 A 
ATOM     56  N   UNL A   1      41.725  28.997  32.385  1.00  0.00    -0.354 N 
ATOM     57  N   UNL A   1      41.295  30.801  34.671  1.00  0.00    -0.248 NA
ATOM     58  C   UNL A   1      41.875  31.544  36.807  1.00  0.00     0.031 C 
ATOM     59  C   UNL A   1      43.449  27.601  32.465  1.00  0.00     0.029 A 
ATOM     60  C   UNL A   1      42.801  28.607  33.164  1.00  0.00     0.049 A 
ATOM     61  H   UNL A   1      41.072  29.692  32.630  1.00  0.00     0.167 HD
ATOM     62  C   UNL A   1      42.433  30.123  35.095  1.00  0.00     0.074 A 
ATOM     63  C   UNL A   1      42.763  30.643  36.405  1.00  0.00     0.031 C 
ATOM     64  C   UNL A   1      43.137  29.157  34.454  1.00  0.00     0.034 A 
BRANCH  51  65
ATOM     65  C   UNL A   1      40.841  27.512  28.962  1.00  0.00     0.023 A 
ATOM     66  C   UNL A   1      41.807  27.780  27.976  1.00  0.00     0.031 A 
ATOM     67  C   UNL A   1      39.934  26.460  28.744  1.00  0.00     0.131 A 
ATOM     68  C   UNL A   1      41.829  27.016  26.804  1.00  0.00     0.055 A 
ATOM     69  C   UNL A   1      39.982  25.681  27.588  1.00  0.00     0.041 A 
ATOM     70  F   UNL A   1      38.999  26.164  29.662  1.00  0.00    -0.206 F 
ATOM     71  C   UNL A   1      40.927  25.963  26.608  1.00  0.00     0.022 A 
BRANCH  68  72
ATOM     72  S   UNL A   1      43.011  27.372  25.476  1.00  0.00     0.124 S 
ATOM     73  O   UNL A   1      44.109  28.000  26.209  1.00  0.00    -0.237 OA
ATOM     74  O   UNL A   1      43.291  26.041  24.952  1.00  0.00    -0.237 OA
ATOM     75  O   UNL A   1      42.277  28.264  24.584  1.00  0.00    -0.744 OA
ENDBRANCH  68  72
ENDBRANCH  51  65
BRANCH  52  76
ATOM     76  C   UNL A   1      39.691  33.547  36.869  1.00  0.00     0.023 A 
ATOM     77  C   UNL A   1      39.068  33.105  38.048  1.00  0.00     0.031 A 
ATOM     78  C   UNL A   1      40.066  34.899  36.781  1.00  0.00     0.131 A 
ATOM     79  C   UNL A   1      38.794  34.020  39.075  1.00  0.00     0.055 A 
ATOM     80  C   UNL A   1      39.842  35.793  37.828  1.00  0.00     0.041 A 
ATOM     81  F   UNL A   1      40.651  35.366  35.668  1.00  0.00    -0.206 F 
ATOM     82  C   UNL A   1      39.193  35.357  38.978  1.00  0.00     0.022 A 
BRANCH  79  83
ATOM     83  S   UNL A   1      37.837  33.525  40.533  1.00  0.00     0.124 S 
ATOM     84  O   UNL A   1      38.807  32.732  41.283  1.00  0.00    -0.237 OA
ATOM     85  O   UNL A   1      37.496  34.821  41.116  1.00  0.00    -0.237 OA
ATOM     86  O   UNL A   1      36.715  32.780  39.973  1.00  0.00    -0.744 OA
ENDBRANCH  79  83
ENDBRANCH  52  76
BRANCH  64  87
ATOM     87  C   UNL A   1      44.363  28.590  35.124  1.00  0.00     0.023 A 
ATOM     88  C   UNL A   1      44.224  27.572  36.087  1.00  0.00     0.031 A 
ATOM     89  C   UNL A   1      45.628  29.172  34.943  1.00  0.00     0.131 A 
ATOM     90  C   UNL A   1      45.325  27.197  36.866  1.00  0.00     0.055 A 
ATOM     91  C   UNL A   1      46.732  28.766  35.693  1.00  0.00     0.041 A 
ATOM     92  F   UNL A   1      45.802  30.154  34.044  1.00  0.00    -0.206 F 
ATOM     93  C   UNL A   1      46.579  27.784  36.669  1.00  0.00     0.022 A 
BRANCH  90  94
ATOM     94  S   UNL A   1      45.154  25.990  38.209  1.00  0.00     0.124 S 
ATOM     95  O   UNL A   1      46.533  25.849  38.669  1.00  0.00    -0.237 OA
ATOM     96  O   UNL A   1      44.257  26.683  39.129  1.00  0.00    -0.237 OA
ATOM     97  O   UNL A   1      44.597  24.811  37.553  1.00  0.00    -0.744 OA
ENDBRANCH  90  94
ENDBRANCH  64  87
ENDBRANCH  38  39
ENDBRANCH  30  33
ENDBRANCH  28  29
ENDBRANCH  27  28
ENDBRANCH   1  27
TORSDOF 18
ENDMDL
MODEL 2
REMARK VINA RESULT:     -11.7      6.286      9.140
REMARK SMILES Nc1c(Cl)ccc2c1C=C(C(=O)NCCCCCCNC(=O)c1ccc(-c3c4nc(c(-c5cc(S(=O)(=O)[O-])ccc5F)c5ccc([nH]5)c(-c5cc(S(=O)(=O)[O-])ccc5F)c5nc(c(-c6cc(S(=O)(=O)[O-])ccc6F)c6ccc3[nH]6)C=C5)C=C4)cc1)[C@@H](C(F)(F)F)O2
REMARK SMILES IDX 17 1 16 2 15 3 14 4 13 5 11 6 12 7 10 9 2 10 3 11 8 12 4 13
REMARK SMILES IDX 5 14 7 15 9 16 6 17 91 18 86 19 1 20 87 23 88 24 89 25 90 26
REMARK SMILES IDX 18 27 19 28 20 29 21 30 22 32 23 33 24 34 85 35 25 36 84 37
REMARK SMILES IDX 26 38 27 39 28 40 78 41 29 42 83 43 77 44 79 45 30 46 82 47
REMARK SMILES IDX 76 48 75 49 31 51 63 52 43 53 62 54 44 55 47 56 61 57 80 58
REMARK SMILES IDX 45 59 46 60 60 62 81 63 48 64 32 65 33 66 41 67 34 68 40 69
REMARK SMILES IDX 42 70 39 71 35 72 36 73 37 74 38 75 64 76 65 77 73 78 66 79
REMARK SMILES IDX 72 80 74 81 71 82 67 83 68 84 69 85 70 86 49 87 50 88 58 89
REMARK SMILES IDX 51 90 57 91 59 92 56 93 52 94 53 95 54 96 55 97
REMARK H PARENT 13 8 1 21 1 22 20 31 79 50 47 61
REMARK Flexibility Score: inf
ROOT
ATOM      1  C   UNL A   1      35.758  23.751  25.500  1.00  0.00     0.002 C 
ENDROOT
BRANCH   1   2
ATOM      2  C   UNL A   1      34.444  23.969  26.261  1.00  0.00     0.002 C 
BRANCH   2   3
ATOM      3  C   UNL A   1      34.146  22.953  27.369  1.00  0.00     0.021 C 
BRANCH   3   4
ATOM      4  C   UNL A   1      32.660  22.756  27.652  1.00  0.00     0.116 C 
BRANCH   4   5
ATOM      5  N   UNL A   1      31.837  23.470  26.692  1.00  0.00    -0.352 N 
ATOM      6  C   UNL A   1      31.413  23.287  25.420  1.00  0.00     0.251 C 
ATOM      7  O   UNL A   1      30.699  24.194  24.977  1.00  0.00    -0.270 OA
ATOM      8  H   UNL A   1      31.496  24.314  27.066  1.00  0.00     0.163 HD
BRANCH   6   9
ATOM      9  C   UNL A   1      31.734  22.112  24.553  1.00  0.00     0.067 C 
ATOM     10  C   UNL A   1      32.727  18.551  25.116  1.00  0.00     0.061 A 
ATOM     11  C   UNL A   1      33.064  17.443  24.302  1.00  0.00     0.064 A 
ATOM     12  C   UNL A   1      32.317  19.744  24.480  1.00  0.00     0.042 A 
ATOM     13  Cl  UNL A   1      33.606  15.957  25.015  1.00  0.00    -0.082 Cl
ATOM     14  C   UNL A   1      32.955  17.495  22.912  1.00  0.00     0.026 A 
ATOM     15  C   UNL A   1      32.227  19.782  23.081  1.00  0.00     0.130 A 
ATOM     16  C   UNL A   1      31.936  20.955  25.213  1.00  0.00     0.027 C 
ATOM     17  C   UNL A   1      32.528  18.667  22.302  1.00  0.00     0.049 A 
ATOM     18  O   UNL A   1      31.805  20.879  22.388  1.00  0.00    -0.475 OA
ATOM     19  C   UNL A   1      31.891  22.163  23.061  1.00  0.00     0.314 C 
BRANCH  10  20
ATOM     20  N   UNL A   1      32.903  18.472  26.501  1.00  0.00    -0.397 N 
ATOM     21  H   UNL A   1      32.841  19.285  27.053  1.00  0.00     0.156 HD
ATOM     22  H   UNL A   1      33.090  17.603  26.925  1.00  0.00     0.156 HD
ENDBRANCH  10  20
BRANCH  19  23
ATOM     23  C   UNL A   1      33.174  22.887  22.619  1.00  0.00     0.429 C 
ATOM     24  F   UNL A   1      34.270  22.234  23.073  1.00  0.00    -0.167 F 
ATOM     25  F   UNL A   1      33.293  22.949  21.273  1.00  0.00    -0.167 F 
ATOM     26  F   UNL A   1      33.233  24.157  23.079  1.00  0.00    -0.167 F 
ENDBRANCH  19  23
ENDBRANCH   6   9
ENDBRANCH   4   5
ENDBRANCH   3   4
ENDBRANCH   2   3
ENDBRANCH   1   2
BRANCH   1  27
ATOM     27  C   UNL A   1      36.344  22.339  25.588  1.00  0.00     0.021 C 
BRANCH  27  28
ATOM     28  C   UNL A   1      37.778  22.214  25.083  1.00  0.00     0.116 C 
BRANCH  28  29
ATOM     29  N   UNL A   1      38.509  21.181  25.795  1.00  0.00    -0.352 N 
ATOM     30  C   UNL A   1      39.652  21.307  26.542  1.00  0.00     0.251 C 
ATOM     31  H   UNL A   1      38.136  20.272  25.734  1.00  0.00     0.163 HD
ATOM     32  O   UNL A   1      40.272  20.312  26.906  1.00  0.00    -0.269 OA
BRANCH  30  33
ATOM     33  C   UNL A   1      40.131  22.658  26.899  1.00  0.00     0.039 A 
ATOM     34  C   UNL A   1      41.006  22.806  27.977  1.00  0.00     0.014 A 
ATOM     35  C   UNL A   1      39.707  23.770  26.165  1.00  0.00     0.014 A 
ATOM     36  C   UNL A   1      41.482  24.077  28.303  1.00  0.00     0.010 A 
ATOM     37  C   UNL A   1      40.221  25.028  26.461  1.00  0.00     0.010 A 
ATOM     38  C   UNL A   1      41.097  25.194  27.544  1.00  0.00    -0.014 A 
BRANCH  38  39
ATOM     39  C   UNL A   1      41.554  26.555  27.909  1.00  0.00     0.031 A 
ATOM     40  C   UNL A   1      42.952  26.981  27.562  1.00  0.00     0.074 A 
ATOM     41  C   UNL A   1      40.732  27.384  28.578  1.00  0.00     0.049 A 
ATOM     42  N   UNL A   1      43.545  28.121  27.795  1.00  0.00    -0.248 NA
ATOM     43  C   UNL A   1      43.800  25.988  26.882  1.00  0.00     0.031 C 
ATOM     44  C   UNL A   1      39.371  27.058  29.002  1.00  0.00     0.029 A 
ATOM     45  N   UNL A   1      40.925  28.667  29.026  1.00  0.00    -0.354 N 
ATOM     46  C   UNL A   1      44.832  27.986  27.290  1.00  0.00     0.074 A 
ATOM     47  C   UNL A   1      44.954  26.635  26.793  1.00  0.00     0.031 C 
ATOM     48  C   UNL A   1      38.846  28.118  29.638  1.00  0.00     0.029 A 
ATOM     49  C   UNL A   1      39.837  29.191  29.683  1.00  0.00     0.049 A 
ATOM     50  H   UNL A   1      41.763  29.165  28.889  1.00  0.00     0.167 HD
ATOM     51  C   UNL A   1      45.813  28.915  27.221  1.00  0.00     0.034 A 
ATOM     52  C   UNL A   1      39.658  30.401  30.252  1.00  0.00     0.034 A 
ATOM     53  C   UNL A   1      45.673  30.262  27.702  1.00  0.00     0.049 A 
ATOM     54  C   UNL A   1      40.762  31.425  30.156  1.00  0.00     0.074 A 
ATOM     55  C   UNL A   1      46.593  31.293  27.635  1.00  0.00     0.029 A 
ATOM     56  N   UNL A   1      44.546  30.767  28.331  1.00  0.00    -0.354 N 
ATOM     57  N   UNL A   1      41.942  31.311  29.592  1.00  0.00    -0.248 NA
ATOM     58  C   UNL A   1      40.510  32.743  30.755  1.00  0.00     0.031 C 
ATOM     59  C   UNL A   1      46.036  32.411  28.257  1.00  0.00     0.029 A 
ATOM     60  C   UNL A   1      44.751  32.094  28.669  1.00  0.00     0.049 A 
ATOM     61  H   UNL A   1      43.722  30.259  28.511  1.00  0.00     0.167 HD
ATOM     62  C   UNL A   1      42.559  32.550  29.740  1.00  0.00     0.074 A 
ATOM     63  C   UNL A   1      41.618  33.402  30.437  1.00  0.00     0.031 C 
ATOM     64  C   UNL A   1      43.792  32.941  29.335  1.00  0.00     0.034 A 
BRANCH  51  65
ATOM     65  C   UNL A   1      47.114  28.528  26.573  1.00  0.00     0.023 A 
ATOM     66  C   UNL A   1      47.177  28.300  25.187  1.00  0.00     0.031 A 
ATOM     67  C   UNL A   1      48.266  28.290  27.344  1.00  0.00     0.131 A 
ATOM     68  C   UNL A   1      48.364  27.828  24.616  1.00  0.00     0.055 A 
ATOM     69  C   UNL A   1      49.456  27.851  26.765  1.00  0.00     0.041 A 
ATOM     70  F   UNL A   1      48.253  28.500  28.670  1.00  0.00    -0.206 F 
ATOM     71  C   UNL A   1      49.506  27.609  25.396  1.00  0.00     0.022 A 
BRANCH  68  72
ATOM     72  S   UNL A   1      48.468  27.454  22.845  1.00  0.00     0.124 S 
ATOM     73  O   UNL A   1      48.318  26.000  22.833  1.00  0.00    -0.237 OA
ATOM     74  O   UNL A   1      47.336  28.202  22.309  1.00  0.00    -0.237 OA
ATOM     75  O   UNL A   1      49.789  27.939  22.461  1.00  0.00    -0.744 OA
ENDBRANCH  68  72
ENDBRANCH  51  65
BRANCH  52  76
ATOM     76  C   UNL A   1      38.346  30.722  30.881  1.00  0.00     0.023 A 
ATOM     77  C   UNL A   1      37.344  31.400  30.167  1.00  0.00     0.031 A 
ATOM     78  C   UNL A   1      38.117  30.437  32.238  1.00  0.00     0.131 A 
ATOM     79  C   UNL A   1      36.177  31.812  30.826  1.00  0.00     0.055 A 
ATOM     80  C   UNL A   1      36.931  30.799  32.876  1.00  0.00     0.041 A 
ATOM     81  F   UNL A   1      39.053  29.803  32.961  1.00  0.00    -0.206 F 
ATOM     82  C   UNL A   1      35.958  31.500  32.172  1.00  0.00     0.022 A 
BRANCH  79  83
ATOM     83  S   UNL A   1      34.943  32.839  29.982  1.00  0.00     0.124 S 
ATOM     84  O   UNL A   1      34.028  33.174  31.068  1.00  0.00    -0.237 OA
ATOM     85  O   UNL A   1      35.767  33.940  29.488  1.00  0.00    -0.237 OA
ATOM     86  O   UNL A   1      34.403  31.955  28.955  1.00  0.00    -0.744 OA
ENDBRANCH  79  83
ENDBRANCH  52  76
BRANCH  64  87
ATOM     87  C   UNL A   1      44.224  34.362  29.597  1.00  0.00     0.023 A 
ATOM     88  C   UNL A   1      43.895  35.373  28.674  1.00  0.00     0.031 A 
ATOM     89  C   UNL A   1      45.099  34.675  30.650  1.00  0.00     0.131 A 
ATOM     90  C   UNL A   1      44.475  36.641  28.797  1.00  0.00     0.055 A 
ATOM     91  C   UNL A   1      45.641  35.952  30.792  1.00  0.00     0.041 A 
ATOM     92  F   UNL A   1      45.448  33.738  31.546  1.00  0.00    -0.206 F 
ATOM     93  C   UNL A   1      45.341  36.938  29.855  1.00  0.00     0.022 A 
BRANCH  90  94
ATOM     94  S   UNL A   1      44.185  37.927  27.551  1.00  0.00     0.124 S 
ATOM     95  O   UNL A   1      45.506  38.063  26.943  1.00  0.00    -0.237 OA
ATOM     96  O   UNL A   1      43.169  37.307  26.705  1.00  0.00    -0.237 OA
ATOM     97  O   UNL A   1      43.740  39.078  28.330  1.00  0.00    -0.744 OA
ENDBRANCH  90  94
ENDBRANCH  64  87
ENDBRANCH  38  39
ENDBRANCH  30  33
ENDBRANCH  28  29
ENDBRANCH  27  28
ENDBRANCH   1  27
TORSDOF 18
ENDMDL
MODEL 3
REMARK VINA RESULT:     -11.7      4.494      9.085
REMARK SMILES Nc1c(Cl)ccc2c1C=C(C(=O)NCCCCCCNC(=O)c1ccc(-c3c4nc(c(-c5cc(S(=O)(=O)[O-])ccc5F)c5ccc([nH]5)c(-c5cc(S(=O)(=O)[O-])ccc5F)c5nc(c(-c6cc(S(=O)(=O)[O-])ccc6F)c6ccc3[nH]6)C=C5)C=C4)cc1)[C@@H](C(F)(F)F)O2
REMARK SMILES IDX 17 1 16 2 15 3 14 4 13 5 11 6 12 7 10 9 2 10 3 11 8 12 4 13
REMARK SMILES IDX 5 14 7 15 9 16 6 17 91 18 86 19 1 20 87 23 88 24 89 25 90 26
REMARK SMILES IDX 18 27 19 28 20 29 21 30 22 32 23 33 24 34 85 35 25 36 84 37
REMARK SMILES IDX 26 38 27 39 28 40 78 41 29 42 83 43 77 44 79 45 30 46 82 47
REMARK SMILES IDX 76 48 75 49 31 51 63 52 43 53 62 54 44 55 47 56 61 57 80 58
REMARK SMILES IDX 45 59 46 60 60 62 81 63 48 64 32 65 33 66 41 67 34 68 40 69
REMARK SMILES IDX 42 70 39 71 35 72 36 73 37 74 38 75 64 76 65 77 73 78 66 79
REMARK SMILES IDX 72 80 74 81 71 82 67 83 68 84 69 85 70 86 49 87 50 88 58 89
REMARK SMILES IDX 51 90 57 91 59 92 56 93 52 94 53 95 54 96 55 97
REMARK H PARENT 13 8 1 21 1 22 20 31 79 50 47 61
REMARK Flexibility Score: inf
ROOT
ATOM      1  C   UNL A   1      32.846  27.707  24.955  1.00  0.00     0.002 C 
ENDROOT
BRANCH   1   2
ATOM      2  C   UNL A   1      33.239  26.748  26.086  1.00  0.00     0.002 C 
BRANCH   2   3
ATOM      3  C   UNL A   1      34.297  25.700  25.725  1.00  0.00     0.021 C 
BRANCH   3   4
ATOM      4  C   UNL A   1      33.893  24.266  26.055  1.00  0.00     0.116 C 
BRANCH   4   5
ATOM      5  N   UNL A   1      32.449  24.117  26.093  1.00  0.00    -0.352 N 
ATOM      6  C   UNL A   1      31.523  23.293  25.551  1.00  0.00     0.251 C 
ATOM      7  O   UNL A   1      30.355  23.548  25.868  1.00  0.00    -0.270 OA
ATOM      8  H   UNL A   1      32.032  24.798  26.668  1.00  0.00     0.163 HD
BRANCH   6   9
ATOM      9  C   UNL A   1      31.805  22.144  24.637  1.00  0.00     0.067 C 
ATOM     10  C   UNL A   1      32.775  18.556  25.053  1.00  0.00     0.061 A 
ATOM     11  C   UNL A   1      33.075  17.472  24.194  1.00  0.00     0.064 A 
ATOM     12  C   UNL A   1      32.359  19.774  24.469  1.00  0.00     0.042 A 
ATOM     13  Cl  UNL A   1      33.621  15.959  24.841  1.00  0.00    -0.082 Cl
ATOM     14  C   UNL A   1      32.925  17.571  22.810  1.00  0.00     0.026 A 
ATOM     15  C   UNL A   1      32.228  19.859  23.076  1.00  0.00     0.130 A 
ATOM     16  C   UNL A   1      32.014  20.963  25.253  1.00  0.00     0.027 C 
ATOM     17  C   UNL A   1      32.493  18.767  22.251  1.00  0.00     0.049 A 
ATOM     18  O   UNL A   1      31.798  20.982  22.431  1.00  0.00    -0.475 OA
ATOM     19  C   UNL A   1      31.918  22.243  23.143  1.00  0.00     0.314 C 
BRANCH  10  20
ATOM     20  N   UNL A   1      32.991  18.430  26.429  1.00  0.00    -0.397 N 
ATOM     21  H   UNL A   1      33.903  18.506  26.794  1.00  0.00     0.156 HD
ATOM     22  H   UNL A   1      32.231  18.265  27.033  1.00  0.00     0.156 HD
ENDBRANCH  10  20
BRANCH  19  23
ATOM     23  C   UNL A   1      33.196  22.967  22.687  1.00  0.00     0.429 C 
ATOM     24  F   UNL A   1      34.278  22.485  23.342  1.00  0.00    -0.167 F 
ATOM     25  F   UNL A   1      33.439  22.800  21.366  1.00  0.00    -0.167 F 
ATOM     26  F   UNL A   1      33.140  24.299  22.912  1.00  0.00    -0.167 F 
ENDBRANCH  19  23
ENDBRANCH   6   9
ENDBRANCH   4   5
ENDBRANCH   3   4
ENDBRANCH   2   3
ENDBRANCH   1   2
BRANCH   1  27
ATOM     27  C   UNL A   1      33.232  29.174  25.169  1.00  0.00     0.021 C 
BRANCH  27  28
ATOM     28  C   UNL A   1      34.156  29.420  26.357  1.00  0.00     0.116 C 
BRANCH  28  29
ATOM     29  N   UNL A   1      33.896  30.705  26.981  1.00  0.00    -0.352 N 
ATOM     30  C   UNL A   1      34.546  31.286  28.040  1.00  0.00     0.251 C 
ATOM     31  H   UNL A   1      33.157  31.229  26.593  1.00  0.00     0.163 HD
ATOM     32  O   UNL A   1      34.077  32.277  28.592  1.00  0.00    -0.269 OA
BRANCH  30  33
ATOM     33  C   UNL A   1      35.816  30.699  28.512  1.00  0.00     0.039 A 
ATOM     34  C   UNL A   1      37.020  31.168  27.984  1.00  0.00     0.014 A 
ATOM     35  C   UNL A   1      35.805  29.683  29.473  1.00  0.00     0.014 A 
ATOM     36  C   UNL A   1      38.225  30.634  28.445  1.00  0.00     0.010 A 
ATOM     37  C   UNL A   1      37.008  29.188  29.966  1.00  0.00     0.010 A 
ATOM     38  C   UNL A   1      38.226  29.645  29.442  1.00  0.00    -0.014 A 
BRANCH  38  39
ATOM     39  C   UNL A   1      39.493  29.034  29.904  1.00  0.00     0.031 A 
ATOM     40  C   UNL A   1      40.183  29.594  31.115  1.00  0.00     0.074 A 
ATOM     41  C   UNL A   1      40.036  28.010  29.221  1.00  0.00     0.049 A 
ATOM     42  N   UNL A   1      41.297  29.209  31.679  1.00  0.00    -0.248 NA
ATOM     43  C   UNL A   1      39.548  30.752  31.766  1.00  0.00     0.031 C 
ATOM     44  C   UNL A   1      39.474  27.416  28.008  1.00  0.00     0.029 A 
ATOM     45  N   UNL A   1      41.186  27.294  29.442  1.00  0.00    -0.354 N 
ATOM     46  C   UNL A   1      41.496  30.072  32.748  1.00  0.00     0.074 A 
ATOM     47  C   UNL A   1      40.421  31.038  32.721  1.00  0.00     0.031 C 
ATOM     48  C   UNL A   1      40.273  26.417  27.600  1.00  0.00     0.029 A 
ATOM     49  C   UNL A   1      41.413  26.312  28.509  1.00  0.00     0.049 A 
ATOM     50  H   UNL A   1      41.791  27.469  30.199  1.00  0.00     0.167 HD
ATOM     51  C   UNL A   1      42.470  30.043  33.686  1.00  0.00     0.034 A 
ATOM     52  C   UNL A   1      42.422  25.422  28.401  1.00  0.00     0.034 A 
ATOM     53  C   UNL A   1      43.524  29.065  33.714  1.00  0.00     0.049 A 
ATOM     54  C   UNL A   1      43.494  25.402  29.462  1.00  0.00     0.074 A 
ATOM     55  C   UNL A   1      44.532  28.921  34.650  1.00  0.00     0.029 A 
ATOM     56  N   UNL A   1      43.702  28.064  32.771  1.00  0.00    -0.354 N 
ATOM     57  N   UNL A   1      43.617  26.167  30.522  1.00  0.00    -0.248 NA
ATOM     58  C   UNL A   1      44.553  24.392  29.328  1.00  0.00     0.031 C 
ATOM     59  C   UNL A   1      45.342  27.856  34.253  1.00  0.00     0.029 A 
ATOM     60  C   UNL A   1      44.813  27.305  33.096  1.00  0.00     0.049 A 
ATOM     61  H   UNL A   1      43.126  27.915  31.988  1.00  0.00     0.167 HD
ATOM     62  C   UNL A   1      44.746  25.711  31.196  1.00  0.00     0.074 A 
ATOM     63  C   UNL A   1      45.264  24.596  30.430  1.00  0.00     0.031 C 
ATOM     64  C   UNL A   1      45.300  26.176  32.343  1.00  0.00     0.034 A 
BRANCH  51  65
ATOM     65  C   UNL A   1      42.432  31.071  34.784  1.00  0.00     0.023 A 
ATOM     66  C   UNL A   1      43.087  32.305  34.623  1.00  0.00     0.031 A 
ATOM     67  C   UNL A   1      41.831  30.787  36.023  1.00  0.00     0.131 A 
ATOM     68  C   UNL A   1      43.142  33.203  35.696  1.00  0.00     0.055 A 
ATOM     69  C   UNL A   1      41.861  31.700  37.077  1.00  0.00     0.041 A 
ATOM     70  F   UNL A   1      41.189  29.623  36.218  1.00  0.00    -0.206 F 
ATOM     71  C   UNL A   1      42.526  32.911  36.918  1.00  0.00     0.022 A 
BRANCH  68  72
ATOM     72  S   UNL A   1      44.036  34.774  35.556  1.00  0.00     0.124 S 
ATOM     73  O   UNL A   1      42.996  35.670  35.051  1.00  0.00    -0.237 OA
ATOM     74  O   UNL A   1      44.449  35.013  36.934  1.00  0.00    -0.237 OA
ATOM     75  O   UNL A   1      45.110  34.484  34.612  1.00  0.00    -0.744 OA
ENDBRANCH  68  72
ENDBRANCH  51  65
BRANCH  52  76
ATOM     76  C   UNL A   1      42.403  24.432  27.288  1.00  0.00     0.023 A 
ATOM     77  C   UNL A   1      41.617  23.270  27.363  1.00  0.00     0.031 A 
ATOM     78  C   UNL A   1      43.248  24.592  26.177  1.00  0.00     0.131 A 
ATOM     79  C   UNL A   1      41.727  22.290  26.366  1.00  0.00     0.055 A 
ATOM     80  C   UNL A   1      43.313  23.641  25.159  1.00  0.00     0.041 A 
ATOM     81  F   UNL A   1      44.026  25.680  26.072  1.00  0.00    -0.206 F 
ATOM     82  C   UNL A   1      42.558  22.476  25.257  1.00  0.00     0.022 A 
BRANCH  79  83
ATOM     83  S   UNL A   1      40.861  20.704  26.520  1.00  0.00     0.124 S 
ATOM     84  O   UNL A   1      41.693  19.820  25.710  1.00  0.00    -0.237 OA
ATOM     85  O   UNL A   1      40.916  20.477  27.962  1.00  0.00    -0.237 OA
ATOM     86  O   UNL A   1      39.533  20.983  25.983  1.00  0.00    -0.744 OA
ENDBRANCH  79  83
ENDBRANCH  52  76
BRANCH  64  87
ATOM     87  C   UNL A   1      46.525  25.486  32.887  1.00  0.00     0.023 A 
ATOM     88  C   UNL A   1      46.380  24.434  33.812  1.00  0.00     0.031 A 
ATOM     89  C   UNL A   1      47.814  25.980  32.631  1.00  0.00     0.131 A 
ATOM     90  C   UNL A   1      47.505  23.941  34.484  1.00  0.00     0.055 A 
ATOM     91  C   UNL A   1      48.937  25.456  33.272  1.00  0.00     0.041 A 
ATOM     92  F   UNL A   1      47.996  26.990  31.765  1.00  0.00    -0.206 F 
ATOM     93  C   UNL A   1      48.783  24.441  34.214  1.00  0.00     0.022 A 
BRANCH  90  94
ATOM     94  S   UNL A   1      47.342  22.684  35.782  1.00  0.00     0.124 S 
ATOM     95  O   UNL A   1      46.216  23.196  36.560  1.00  0.00    -0.237 OA
ATOM     96  O   UNL A   1      47.068  21.478  35.006  1.00  0.00    -0.237 OA
ATOM     97  O   UNL A   1      48.631  22.715  36.466  1.00  0.00    -0.744 OA
ENDBRANCH  90  94
ENDBRANCH  64  87
ENDBRANCH  38  39
ENDBRANCH  30  33
ENDBRANCH  28  29
ENDBRANCH  27  28
ENDBRANCH   1  27
TORSDOF 18
ENDMDL
