MODEL 1
REMARK VINA RESULT:     -12.5      0.000      0.000
REMARK SMILES O=C(NCCCCCCNC(=O)c1ccc(-c2c3nc(c(-c4cc(S(=O)(=O)[O-])ccc4F)c4ccc([nH]4)c(-c4cc(S(=O)(=O)[O-])ccc4F)c4nc(c(-c5cc(S(=O)(=O)[O-])ccc5F)c5ccc2[nH]5)C=C4)C=C3)cc1)C1=Cc2cc(S(F)(F)(F)(F)F)ccc2O[C@H]1C(F)(F)F
REMARK SMILES IDX 7 1 6 2 5 3 4 4 3 5 1 6 2 7 76 9 77 10 91 11 78 12 90 13
REMARK SMILES IDX 79 14 89 15 80 16 88 17 87 18 92 19 93 20 94 21 95 22 81 23
REMARK SMILES IDX 82 24 83 25 84 26 85 27 86 28 8 29 9 30 10 31 11 32 12 34
REMARK SMILES IDX 13 35 14 36 75 37 15 38 74 39 16 40 17 41 18 42 68 43 19 44
REMARK SMILES IDX 73 45 67 46 69 47 20 48 72 49 66 50 65 51 21 53 53 54 33 55
REMARK SMILES IDX 52 56 34 57 37 58 51 59 70 60 35 61 36 62 50 64 71 65 38 66
REMARK SMILES IDX 22 67 23 68 31 69 24 70 30 71 32 72 29 73 25 74 26 75 27 76
REMARK SMILES IDX 28 77 54 78 55 79 63 80 56 81 62 82 64 83 61 84 57 85 58 86
REMARK SMILES IDX 59 87 60 88 39 89 40 90 48 91 41 92 47 93 49 94 46 95 42 96
REMARK SMILES IDX 43 97 44 98 45 99
REMARK H PARENT 3 8 10 33 69 52 37 63
REMARK Flexibility Score: inf
ROOT
ATOM      1  C   UNL A   1      31.609  30.680  25.662  1.00  0.00     0.002 C 
ENDROOT
BRANCH   1   2
ATOM      2  C   UNL A   1      32.408  29.442  26.032  1.00  0.00     0.002 C 
BRANCH   2   3
ATOM      3  C   UNL A   1      31.718  28.715  27.175  1.00  0.00     0.021 C 
BRANCH   3   4
ATOM      4  C   UNL A   1      31.530  27.253  26.805  1.00  0.00     0.116 C 
BRANCH   4   5
ATOM      5  N   UNL A   1      32.638  26.821  25.940  1.00  0.00    -0.352 N 
ATOM      6  O   UNL A   1      33.365  25.428  24.158  1.00  0.00    -0.270 OA
ATOM      7  C   UNL A   1      32.408  25.802  24.906  1.00  0.00     0.251 C 
ATOM      8  H   UNL A   1      33.533  27.214  26.053  1.00  0.00     0.163 HD
BRANCH   7   9
ATOM      9  C   UNL A   1      31.026  25.195  24.731  1.00  0.00     0.067 C 
ATOM     10  C   UNL A   1      30.057  25.887  24.072  1.00  0.00     0.025 C 
ATOM     11  C   UNL A   1      30.725  23.815  25.292  1.00  0.00     0.314 C 
ATOM     12  C   UNL A   1      30.357  27.267  23.512  1.00  0.00     0.019 A 
ATOM     13  O   UNL A   1      32.487  26.480  22.808  1.00  0.00    -0.475 OA
ATOM     14  C   UNL A   1      29.426  28.276  23.700  1.00  0.00     0.036 A 
ATOM     15  C   UNL A   1      31.485  27.487  22.846  1.00  0.00     0.128 A 
ATOM     16  C   UNL A   1      29.647  29.417  22.893  1.00  0.00     0.107 A 
ATOM     17  C   UNL A   1      31.692  28.677  22.193  1.00  0.00     0.048 A 
ATOM     18  C   UNL A   1      30.786  29.697  22.285  1.00  0.00     0.028 A 
BRANCH  11  19
ATOM     19  C   UNL A   1      31.967  23.264  25.976  1.00  0.00     0.429 C 
ATOM     20  F   UNL A   1      31.620  22.051  26.397  1.00  0.00    -0.167 F 
ATOM     21  F   UNL A   1      33.039  23.171  25.194  1.00  0.00    -0.167 F 
ATOM     22  F   UNL A   1      32.246  24.034  27.022  1.00  0.00    -0.167 F 
ENDBRANCH  11  19
BRANCH  16  23
ATOM     23  S   UNL A   1      28.271  30.573  22.676  1.00  0.00     0.310 S 
ATOM     24  F   UNL A   1      27.250  29.585  23.381  1.00  0.00    -0.094 F 
ATOM     25  F   UNL A   1      27.921  29.855  21.318  1.00  0.00    -0.094 F 
ATOM     26  F   UNL A   1      27.088  31.564  22.490  1.00  0.00    -0.094 F 
ATOM     27  F   UNL A   1      28.551  31.187  24.103  1.00  0.00    -0.094 F 
ATOM     28  F   UNL A   1      29.405  29.501  22.931  1.00  0.00    -0.094 F 
ENDBRANCH  16  23
ENDBRANCH   7   9
ENDBRANCH   4   5
ENDBRANCH   3   4
ENDBRANCH   2   3
ENDBRANCH   1   2
BRANCH   1  29
ATOM     29  C   UNL A   1      31.482  31.583  26.878  1.00  0.00     0.021 C 
BRANCH  29  30
ATOM     30  C   UNL A   1      32.743  32.419  27.023  1.00  0.00     0.116 C 
BRANCH  30  31
ATOM     31  N   UNL A   1      32.385  33.772  27.477  1.00  0.00    -0.352 N 
ATOM     32  C   UNL A   1      33.193  34.440  28.507  1.00  0.00     0.251 C 
ATOM     33  H   UNL A   1      31.603  34.229  27.091  1.00  0.00     0.163 HD
ATOM     34  O   UNL A   1      32.883  35.608  28.899  1.00  0.00    -0.269 OA
BRANCH  32  35
ATOM     35  C   UNL A   1      34.399  33.733  29.104  1.00  0.00     0.039 A 
ATOM     36  C   UNL A   1      35.672  34.125  28.725  1.00  0.00     0.014 A 
ATOM     37  C   UNL A   1      34.213  32.751  29.978  1.00  0.00     0.014 A 
ATOM     38  C   UNL A   1      36.689  33.221  29.109  1.00  0.00     0.010 A 
ATOM     39  C   UNL A   1      35.272  31.994  30.415  1.00  0.00     0.010 A 
ATOM     40  C   UNL A   1      36.551  32.289  30.035  1.00  0.00    -0.014 A 
BRANCH  40  41
ATOM     41  C   UNL A   1      37.751  31.581  30.643  1.00  0.00     0.031 A 
ATOM     42  C   UNL A   1      38.398  30.611  29.876  1.00  0.00     0.074 A 
ATOM     43  C   UNL A   1      38.136  31.937  31.925  1.00  0.00     0.049 A 
ATOM     44  N   UNL A   1      39.480  29.901  30.204  1.00  0.00    -0.248 NA
ATOM     45  C   UNL A   1      37.972  30.207  28.527  1.00  0.00     0.031 C 
ATOM     46  C   UNL A   1      37.494  32.920  32.702  1.00  0.00     0.029 A 
ATOM     47  N   UNL A   1      39.176  31.425  32.668  1.00  0.00    -0.354 N 
ATOM     48  C   UNL A   1      39.816  29.085  29.203  1.00  0.00     0.074 A 
ATOM     49  C   UNL A   1      38.847  29.265  28.113  1.00  0.00     0.031 C 
ATOM     50  C   UNL A   1      38.130  32.992  33.901  1.00  0.00     0.029 A 
ATOM     51  C   UNL A   1      39.181  32.056  33.893  1.00  0.00     0.049 A 
ATOM     52  H   UNL A   1      39.808  30.730  32.374  1.00  0.00     0.167 HD
ATOM     53  C   UNL A   1      40.894  28.200  29.155  1.00  0.00     0.034 A 
ATOM     54  C   UNL A   1      40.044  31.839  34.955  1.00  0.00     0.034 A 
ATOM     55  C   UNL A   1      41.784  28.015  30.202  1.00  0.00     0.049 A 
ATOM     56  C   UNL A   1      41.087  30.911  34.929  1.00  0.00     0.074 A 
ATOM     57  C   UNL A   1      42.880  27.131  30.167  1.00  0.00     0.029 A 
ATOM     58  N   UNL A   1      41.773  28.627  31.436  1.00  0.00    -0.354 N 
ATOM     59  N   UNL A   1      41.448  30.124  33.914  1.00  0.00    -0.248 NA
ATOM     60  C   UNL A   1      41.988  30.650  36.060  1.00  0.00     0.031 C 
ATOM     61  C   UNL A   1      43.516  27.204  31.367  1.00  0.00     0.029 A 
ATOM     62  C   UNL A   1      42.828  28.132  32.171  1.00  0.00     0.049 A 
ATOM     63  H   UNL A   1      41.125  29.302  31.739  1.00  0.00     0.167 HD
ATOM     64  C   UNL A   1      42.505  29.385  34.259  1.00  0.00     0.074 A 
ATOM     65  C   UNL A   1      42.862  29.708  35.646  1.00  0.00     0.031 C 
ATOM     66  C   UNL A   1      43.186  28.457  33.469  1.00  0.00     0.034 A 
BRANCH  53  67
ATOM     67  C   UNL A   1      41.105  27.393  27.884  1.00  0.00     0.023 A 
ATOM     68  C   UNL A   1      40.676  26.076  27.837  1.00  0.00     0.031 A 
ATOM     69  C   UNL A   1      41.696  27.962  26.841  1.00  0.00     0.131 A 
ATOM     70  C   UNL A   1      41.179  25.349  26.733  1.00  0.00     0.055 A 
ATOM     71  C   UNL A   1      42.038  27.217  25.738  1.00  0.00     0.041 A 
ATOM     72  F   UNL A   1      41.961  29.265  26.864  1.00  0.00    -0.206 F 
ATOM     73  C   UNL A   1      41.699  25.896  25.650  1.00  0.00     0.022 A 
BRANCH  70  74
ATOM     74  S   UNL A   1      41.107  23.542  26.812  1.00  0.00     0.124 S 
ATOM     75  O   UNL A   1      39.666  23.079  26.578  1.00  0.00    -0.237 OA
ATOM     76  O   UNL A   1      42.015  22.947  25.734  1.00  0.00    -0.237 OA
ATOM     77  O   UNL A   1      41.630  23.016  28.353  1.00  0.00    -0.744 OA
ENDBRANCH  70  74
ENDBRANCH  53  67
BRANCH  54  78
ATOM     78  C   UNL A   1      39.844  32.658  36.220  1.00  0.00     0.023 A 
ATOM     79  C   UNL A   1      39.085  32.136  37.254  1.00  0.00     0.031 A 
ATOM     80  C   UNL A   1      40.401  33.860  36.314  1.00  0.00     0.131 A 
ATOM     81  C   UNL A   1      38.728  33.086  38.240  1.00  0.00     0.055 A 
ATOM     82  C   UNL A   1      40.113  34.684  37.375  1.00  0.00     0.041 A 
ATOM     83  F   UNL A   1      41.244  34.270  35.370  1.00  0.00    -0.206 F 
ATOM     84  C   UNL A   1      39.321  34.254  38.404  1.00  0.00     0.022 A 
BRANCH  81  85
ATOM     85  S   UNL A   1      37.364  32.670  39.355  1.00  0.00     0.124 S 
ATOM     86  O   UNL A   1      37.339  33.661  40.521  1.00  0.00    -0.237 OA
ATOM     87  O   UNL A   1      36.040  32.747  38.591  1.00  0.00    -0.237 OA
ATOM     88  O   UNL A   1      37.584  31.085  39.958  1.00  0.00    -0.744 OA
ENDBRANCH  81  85
ENDBRANCH  54  78
BRANCH  66  89
ATOM     89  C   UNL A   1      44.397  27.761  34.071  1.00  0.00     0.023 A 
ATOM     90  C   UNL A   1      44.233  26.537  34.698  1.00  0.00     0.031 A 
ATOM     91  C   UNL A   1      45.590  28.338  33.986  1.00  0.00     0.131 A 
ATOM     92  C   UNL A   1      45.350  26.131  35.464  1.00  0.00     0.055 A 
ATOM     93  C   UNL A   1      46.670  27.810  34.652  1.00  0.00     0.041 A 
ATOM     94  F   UNL A   1      45.741  29.435  33.251  1.00  0.00    -0.206 F 
ATOM     95  C   UNL A   1      46.566  26.634  35.341  1.00  0.00     0.022 A 
BRANCH  92  96
ATOM     96  S   UNL A   1      45.099  24.833  36.700  1.00  0.00     0.124 S 
ATOM     97  O   UNL A   1      44.030  25.281  37.699  1.00  0.00    -0.237 OA
ATOM     98  O   UNL A   1      44.639  23.549  36.004  1.00  0.00    -0.237 OA
ATOM     99  O   UNL A   1      46.566  24.540  37.526  1.00  0.00    -0.744 OA
ENDBRANCH  92  96
ENDBRANCH  66  89
ENDBRANCH  40  41
ENDBRANCH  32  35
ENDBRANCH  30  31
ENDBRANCH  29  30
ENDBRANCH   1  29
TORSDOF 18
ENDMDL
MODEL 2
REMARK VINA RESULT:     -12.4      0.525      7.242
REMARK SMILES O=C(NCCCCCCNC(=O)c1ccc(-c2c3nc(c(-c4cc(S(=O)(=O)[O-])ccc4F)c4ccc([nH]4)c(-c4cc(S(=O)(=O)[O-])ccc4F)c4nc(c(-c5cc(S(=O)(=O)[O-])ccc5F)c5ccc2[nH]5)C=C4)C=C3)cc1)C1=Cc2cc(S(F)(F)(F)(F)F)ccc2O[C@H]1C(F)(F)F
REMARK SMILES IDX 7 1 6 2 5 3 4 4 3 5 1 6 2 7 76 9 77 10 91 11 78 12 90 13
REMARK SMILES IDX 79 14 89 15 80 16 88 17 87 18 92 19 93 20 94 21 95 22 81 23
REMARK SMILES IDX 82 24 83 25 84 26 85 27 86 28 8 29 9 30 10 31 11 32 12 34
REMARK SMILES IDX 13 35 14 36 75 37 15 38 74 39 16 40 17 41 18 42 68 43 19 44
REMARK SMILES IDX 73 45 67 46 69 47 20 48 72 49 66 50 65 51 21 53 53 54 33 55
REMARK SMILES IDX 52 56 34 57 37 58 51 59 70 60 35 61 36 62 50 64 71 65 38 66
REMARK SMILES IDX 22 67 23 68 31 69 24 70 30 71 32 72 29 73 25 74 26 75 27 76
REMARK SMILES IDX 28 77 54 78 55 79 63 80 56 81 62 82 64 83 61 84 57 85 58 86
REMARK SMILES IDX 59 87 60 88 39 89 40 90 48 91 41 92 47 93 49 94 46 95 42 96
REMARK SMILES IDX 43 97 44 98 45 99
REMARK H PARENT 3 8 10 33 69 52 37 63
REMARK Flexibility Score: inf
ROOT
ATOM      1  C   UNL A   1      31.820  30.314  25.980  1.00  0.00     0.002 C 
ENDROOT
BRANCH   1   2
ATOM      2  C   UNL A   1      31.730  29.296  27.104  1.00  0.00     0.002 C 
BRANCH   2   3
ATOM      3  C   UNL A   1      32.876  28.305  26.985  1.00  0.00     0.021 C 
BRANCH   3   4
ATOM      4  C   UNL A   1      32.351  26.989  26.433  1.00  0.00     0.116 C 
BRANCH   4   5
ATOM      5  N   UNL A   1      33.164  26.584  25.278  1.00  0.00    -0.352 N 
ATOM      6  O   UNL A   1      33.324  25.285  23.294  1.00  0.00    -0.270 OA
ATOM      7  C   UNL A   1      32.621  25.635  24.294  1.00  0.00     0.251 C 
ATOM      8  H   UNL A   1      34.071  26.947  25.161  1.00  0.00     0.163 HD
BRANCH   7   9
ATOM      9  C   UNL A   1      31.220  25.074  24.472  1.00  0.00     0.067 C 
ATOM     10  C   UNL A   1      30.138  25.824  24.130  1.00  0.00     0.025 C 
ATOM     11  C   UNL A   1      31.028  23.675  25.034  1.00  0.00     0.314 C 
ATOM     12  C   UNL A   1      30.330  27.223  23.569  1.00  0.00     0.019 A 
ATOM     13  O   UNL A   1      32.161  26.420  22.284  1.00  0.00    -0.475 OA
ATOM     14  C   UNL A   1      29.524  28.245  24.045  1.00  0.00     0.036 A 
ATOM     15  C   UNL A   1      31.246  27.448  22.634  1.00  0.00     0.128 A 
ATOM     16  C   UNL A   1      29.564  29.420  23.259  1.00  0.00     0.107 A 
ATOM     17  C   UNL A   1      31.315  28.665  22.001  1.00  0.00     0.048 A 
ATOM     18  C   UNL A   1      30.508  29.702  22.379  1.00  0.00     0.028 A 
BRANCH  11  19
ATOM     19  C   UNL A   1      32.385  23.057  25.332  1.00  0.00     0.429 C 
ATOM     20  F   UNL A   1      32.931  22.830  24.141  1.00  0.00    -0.167 F 
ATOM     21  F   UNL A   1      33.200  23.823  26.054  1.00  0.00    -0.167 F 
ATOM     22  F   UNL A   1      32.191  21.901  25.960  1.00  0.00    -0.167 F 
ENDBRANCH  11  19
BRANCH  16  23
ATOM     23  S   UNL A   1      28.226  30.620  23.470  1.00  0.00     0.310 S 
ATOM     24  F   UNL A   1      28.633  31.398  22.150  1.00  0.00    -0.094 F 
ATOM     25  F   UNL A   1      29.227  31.555  24.249  1.00  0.00    -0.094 F 
ATOM     26  F   UNL A   1      27.077  31.653  23.651  1.00  0.00    -0.094 F 
ATOM     27  F   UNL A   1      27.277  29.735  22.570  1.00  0.00    -0.094 F 
ATOM     28  F   UNL A   1      29.412  29.616  23.183  1.00  0.00    -0.094 F 
ENDBRANCH  16  23
ENDBRANCH   7   9
ENDBRANCH   4   5
ENDBRANCH   3   4
ENDBRANCH   2   3
ENDBRANCH   1   2
BRANCH   1  29
ATOM     29  C   UNL A   1      31.414  31.683  26.503  1.00  0.00     0.021 C 
BRANCH  29  30
ATOM     30  C   UNL A   1      32.655  32.455  26.920  1.00  0.00     0.116 C 
BRANCH  30  31
ATOM     31  N   UNL A   1      32.270  33.810  27.342  1.00  0.00    -0.352 N 
ATOM     32  C   UNL A   1      33.040  34.502  28.385  1.00  0.00     0.251 C 
ATOM     33  H   UNL A   1      31.495  34.254  26.927  1.00  0.00     0.163 HD
ATOM     34  O   UNL A   1      32.708  35.672  28.751  1.00  0.00    -0.269 OA
BRANCH  32  35
ATOM     35  C   UNL A   1      34.236  33.816  29.028  1.00  0.00     0.039 A 
ATOM     36  C   UNL A   1      35.515  34.228  28.695  1.00  0.00     0.014 A 
ATOM     37  C   UNL A   1      34.034  32.834  29.899  1.00  0.00     0.014 A 
ATOM     38  C   UNL A   1      36.532  33.341  29.118  1.00  0.00     0.010 A 
ATOM     39  C   UNL A   1      35.089  32.096  30.377  1.00  0.00     0.010 A 
ATOM     40  C   UNL A   1      36.376  32.410  30.042  1.00  0.00    -0.014 A 
BRANCH  40  41
ATOM     41  C   UNL A   1      37.564  31.724  30.696  1.00  0.00     0.031 A 
ATOM     42  C   UNL A   1      37.908  32.104  31.994  1.00  0.00     0.074 A 
ATOM     43  C   UNL A   1      38.242  30.762  29.967  1.00  0.00     0.049 A 
ATOM     44  N   UNL A   1      38.886  31.609  32.755  1.00  0.00    -0.248 NA
ATOM     45  C   UNL A   1      37.211  33.150  32.759  1.00  0.00     0.031 C 
ATOM     46  C   UNL A   1      37.897  30.368  28.659  1.00  0.00     0.029 A 
ATOM     47  N   UNL A   1      39.341  30.028  30.352  1.00  0.00    -0.354 N 
ATOM     48  C   UNL A   1      38.893  32.212  33.946  1.00  0.00     0.074 A 
ATOM     49  C   UNL A   1      37.819  33.216  33.963  1.00  0.00     0.031 C 
ATOM     50  C   UNL A   1      38.782  29.418  28.258  1.00  0.00     0.029 A 
ATOM     51  C   UNL A   1      39.695  29.202  29.307  1.00  0.00     0.049 A 
ATOM     52  H   UNL A   1      39.796  30.082  31.223  1.00  0.00     0.167 HD
ATOM     53  C   UNL A   1      39.749  31.962  35.020  1.00  0.00     0.034 A 
ATOM     54  C   UNL A   1      40.751  28.306  29.254  1.00  0.00     0.034 A 
ATOM     55  C   UNL A   1      40.779  31.034  34.981  1.00  0.00     0.049 A 
ATOM     56  C   UNL A   1      41.645  28.098  30.307  1.00  0.00     0.074 A 
ATOM     57  C   UNL A   1      41.647  30.765  36.057  1.00  0.00     0.029 A 
ATOM     58  N   UNL A   1      41.148  30.227  33.928  1.00  0.00    -0.354 N 
ATOM     59  N   UNL A   1      41.627  28.671  31.511  1.00  0.00    -0.248 NA
ATOM     60  C   UNL A   1      42.786  27.175  30.250  1.00  0.00     0.031 C 
ATOM     61  C   UNL A   1      42.532  29.814  35.654  1.00  0.00     0.029 A 
ATOM     62  C   UNL A   1      42.233  29.475  34.321  1.00  0.00     0.049 A 
ATOM     63  H   UNL A   1      40.711  30.193  33.047  1.00  0.00     0.167 HD
ATOM     64  C   UNL A   1      42.631  28.205  32.257  1.00  0.00     0.074 A 
ATOM     65  C   UNL A   1      43.396  27.243  31.453  1.00  0.00     0.031 C 
ATOM     66  C   UNL A   1      42.938  28.544  33.576  1.00  0.00     0.034 A 
BRANCH  53  67
ATOM     67  C   UNL A   1      39.542  32.751  36.302  1.00  0.00     0.023 A 
ATOM     68  C   UNL A   1      38.836  32.176  37.346  1.00  0.00     0.031 A 
ATOM     69  C   UNL A   1      40.041  33.977  36.401  1.00  0.00     0.131 A 
ATOM     70  C   UNL A   1      38.459  33.093  38.355  1.00  0.00     0.055 A 
ATOM     71  C   UNL A   1      39.740  34.770  37.482  1.00  0.00     0.041 A 
ATOM     72  F   UNL A   1      40.839  34.442  35.444  1.00  0.00    -0.206 F 
ATOM     73  C   UNL A   1      38.998  34.286  38.523  1.00  0.00     0.022 A 
BRANCH  70  74
ATOM     74  S   UNL A   1      37.145  32.595  39.497  1.00  0.00     0.124 S 
ATOM     75  O   UNL A   1      37.161  33.512  40.723  1.00  0.00    -0.237 OA
ATOM     76  O   UNL A   1      35.790  32.703  38.796  1.00  0.00    -0.237 OA
ATOM     77  O   UNL A   1      37.403  30.978  39.992  1.00  0.00    -0.744 OA
ENDBRANCH  70  74
ENDBRANCH  53  67
BRANCH  54  78
ATOM     78  C   UNL A   1      40.948  27.506  27.977  1.00  0.00     0.023 A 
ATOM     79  C   UNL A   1      40.503  26.194  27.921  1.00  0.00     0.031 A 
ATOM     80  C   UNL A   1      41.542  28.075  26.935  1.00  0.00     0.131 A 
ATOM     81  C   UNL A   1      40.994  25.470  26.810  1.00  0.00     0.055 A 
ATOM     82  C   UNL A   1      41.871  27.335  25.826  1.00  0.00     0.041 A 
ATOM     83  F   UNL A   1      41.821  29.376  26.967  1.00  0.00    -0.206 F 
ATOM     84  C   UNL A   1      41.515  26.018  25.728  1.00  0.00     0.022 A 
BRANCH  81  85
ATOM     85  S   UNL A   1      40.900  23.663  26.876  1.00  0.00     0.124 S 
ATOM     86  O   UNL A   1      41.805  23.066  25.795  1.00  0.00    -0.237 OA
ATOM     87  O   UNL A   1      41.361  23.178  28.252  1.00  0.00    -0.237 OA
ATOM     88  O   UNL A   1      39.286  23.166  26.607  1.00  0.00    -0.744 OA
ENDBRANCH  81  85
ENDBRANCH  54  78
BRANCH  66  89
ATOM     89  C   UNL A   1      44.117  27.846  34.236  1.00  0.00     0.023 A 
ATOM     90  C   UNL A   1      43.911  26.647  34.898  1.00  0.00     0.031 A 
ATOM     91  C   UNL A   1      45.323  28.396  34.165  1.00  0.00     0.131 A 
ATOM     92  C   UNL A   1      44.998  26.246  35.709  1.00  0.00     0.055 A 
ATOM     93  C   UNL A   1      46.374  27.871  34.879  1.00  0.00     0.041 A 
ATOM     94  F   UNL A   1      45.516  29.465  33.398  1.00  0.00    -0.206 F 
ATOM     95  C   UNL A   1      46.226  26.721  35.604  1.00  0.00     0.022 A 
BRANCH  92  96
ATOM     96  S   UNL A   1      44.686  24.996  36.980  1.00  0.00     0.124 S 
ATOM     97  O   UNL A   1      45.275  23.656  36.532  1.00  0.00    -0.237 OA
ATOM     98  O   UNL A   1      45.344  25.428  38.293  1.00  0.00    -0.237 OA
ATOM     99  O   UNL A   1      43.001  24.828  37.214  1.00  0.00    -0.744 OA
ENDBRANCH  92  96
ENDBRANCH  66  89
ENDBRANCH  40  41
ENDBRANCH  32  35
ENDBRANCH  30  31
ENDBRANCH  29  30
ENDBRANCH   1  29
TORSDOF 18
ENDMDL
MODEL 3
REMARK VINA RESULT:     -12.3      5.646     11.045
REMARK SMILES O=C(NCCCCCCNC(=O)c1ccc(-c2c3nc(c(-c4cc(S(=O)(=O)[O-])ccc4F)c4ccc([nH]4)c(-c4cc(S(=O)(=O)[O-])ccc4F)c4nc(c(-c5cc(S(=O)(=O)[O-])ccc5F)c5ccc2[nH]5)C=C4)C=C3)cc1)C1=Cc2cc(S(F)(F)(F)(F)F)ccc2O[C@H]1C(F)(F)F
REMARK SMILES IDX 7 1 6 2 5 3 4 4 3 5 1 6 2 7 76 9 77 10 91 11 78 12 90 13
REMARK SMILES IDX 79 14 89 15 80 16 88 17 87 18 92 19 93 20 94 21 95 22 81 23
REMARK SMILES IDX 82 24 83 25 84 26 85 27 86 28 8 29 9 30 10 31 11 32 12 34
REMARK SMILES IDX 13 35 14 36 75 37 15 38 74 39 16 40 17 41 18 42 68 43 19 44
REMARK SMILES IDX 73 45 67 46 69 47 20 48 72 49 66 50 65 51 21 53 53 54 33 55
REMARK SMILES IDX 52 56 34 57 37 58 51 59 70 60 35 61 36 62 50 64 71 65 38 66
REMARK SMILES IDX 22 67 23 68 31 69 24 70 30 71 32 72 29 73 25 74 26 75 27 76
REMARK SMILES IDX 28 77 54 78 55 79 63 80 56 81 62 82 64 83 61 84 57 85 58 86
REMARK SMILES IDX 59 87 60 88 39 89 40 90 48 91 41 92 47 93 49 94 46 95 42 96
REMARK SMILES IDX 43 97 44 98 45 99
REMARK H PARENT 3 8 10 33 69 52 37 63
REMARK Flexibility Score: inf
ROOT
ATOM      1  C   UNL A   1      36.563  20.669  25.237  1.00  0.00     0.002 C 
ENDROOT
BRANCH   1   2
ATOM      2  C   UNL A   1      36.653  22.030  24.568  1.00  0.00     0.002 C 
BRANCH   2   3
ATOM      3  C   UNL A   1      35.980  23.072  25.446  1.00  0.00     0.021 C 
BRANCH   3   4
ATOM      4  C   UNL A   1      35.458  24.205  24.577  1.00  0.00     0.116 C 
BRANCH   4   5
ATOM      5  N   UNL A   1      34.332  24.863  25.255  1.00  0.00    -0.352 N 
ATOM      6  O   UNL A   1      32.166  25.823  25.074  1.00  0.00    -0.270 OA
ATOM      7  C   UNL A   1      33.139  25.254  24.488  1.00  0.00     0.251 C 
ATOM      8  H   UNL A   1      34.375  25.042  26.222  1.00  0.00     0.163 HD
BRANCH   7   9
ATOM      9  C   UNL A   1      33.072  24.978  22.996  1.00  0.00     0.067 C 
ATOM     10  C   UNL A   1      32.831  23.717  22.547  1.00  0.00     0.025 C 
ATOM     11  C   UNL A   1      33.274  26.112  22.003  1.00  0.00     0.314 C 
ATOM     12  C   UNL A   1      32.630  22.583  23.539  1.00  0.00     0.019 A 
ATOM     13  O   UNL A   1      31.340  24.046  24.897  1.00  0.00    -0.475 OA
ATOM     14  C   UNL A   1      33.268  21.375  23.304  1.00  0.00     0.036 A 
ATOM     15  C   UNL A   1      31.848  22.754  24.599  1.00  0.00     0.128 A 
ATOM     16  C   UNL A   1      32.784  20.308  24.096  1.00  0.00     0.107 A 
ATOM     17  C   UNL A   1      31.525  21.692  25.408  1.00  0.00     0.048 A 
ATOM     18  C   UNL A   1      32.071  20.456  25.199  1.00  0.00     0.028 A 
BRANCH  11  19
ATOM     19  C   UNL A   1      33.524  27.408  22.758  1.00  0.00     0.429 C 
ATOM     20  F   UNL A   1      32.319  27.829  23.131  1.00  0.00    -0.167 F 
ATOM     21  F   UNL A   1      34.303  27.287  23.830  1.00  0.00    -0.167 F 
ATOM     22  F   UNL A   1      34.061  28.286  21.916  1.00  0.00    -0.167 F 
ENDBRANCH  11  19
BRANCH  16  23
ATOM     23  S   UNL A   1      33.166  18.622  23.561  1.00  0.00     0.310 S 
ATOM     24  F   UNL A   1      32.302  17.990  24.731  1.00  0.00    -0.094 F 
ATOM     25  F   UNL A   1      34.390  18.615  24.554  1.00  0.00    -0.094 F 
ATOM     26  F   UNL A   1      33.493  17.172  23.104  1.00  0.00    -0.094 F 
ATOM     27  F   UNL A   1      31.857  18.596  22.679  1.00  0.00    -0.094 F 
ATOM     28  F   UNL A   1      32.757  20.051  24.101  1.00  0.00    -0.094 F 
ENDBRANCH  16  23
ENDBRANCH   7   9
ENDBRANCH   4   5
ENDBRANCH   3   4
ENDBRANCH   2   3
ENDBRANCH   1   2
BRANCH   1  29
ATOM     29  C   UNL A   1      37.809  19.861  24.910  1.00  0.00     0.021 C 
BRANCH  29  30
ATOM     30  C   UNL A   1      38.977  20.373  25.737  1.00  0.00     0.116 C 
BRANCH  30  31
ATOM     31  N   UNL A   1      39.970  19.301  25.899  1.00  0.00    -0.352 N 
ATOM     32  C   UNL A   1      41.328  19.621  26.360  1.00  0.00     0.251 C 
ATOM     33  H   UNL A   1      39.726  18.369  25.697  1.00  0.00     0.163 HD
ATOM     34  O   UNL A   1      42.187  18.695  26.500  1.00  0.00    -0.269 OA
BRANCH  32  35
ATOM     35  C   UNL A   1      41.706  21.061  26.671  1.00  0.00     0.039 A 
ATOM     36  C   UNL A   1      42.163  21.385  27.937  1.00  0.00     0.014 A 
ATOM     37  C   UNL A   1      41.593  21.983  25.723  1.00  0.00     0.014 A 
ATOM     38  C   UNL A   1      42.202  22.775  28.195  1.00  0.00     0.010 A 
ATOM     39  C   UNL A   1      41.778  23.313  26.016  1.00  0.00     0.010 A 
ATOM     40  C   UNL A   1      42.173  23.710  27.262  1.00  0.00    -0.014 A 
BRANCH  40  41
ATOM     41  C   UNL A   1      42.556  25.150  27.561  1.00  0.00     0.031 A 
ATOM     42  C   UNL A   1      41.589  25.980  28.131  1.00  0.00     0.074 A 
ATOM     43  C   UNL A   1      43.841  25.560  27.250  1.00  0.00     0.049 A 
ATOM     44  N   UNL A   1      41.726  27.256  28.500  1.00  0.00    -0.248 NA
ATOM     45  C   UNL A   1      40.213  25.558  28.432  1.00  0.00     0.031 C 
ATOM     46  C   UNL A   1      44.824  24.726  26.683  1.00  0.00     0.029 A 
ATOM     47  N   UNL A   1      44.396  26.808  27.423  1.00  0.00    -0.354 N 
ATOM     48  C   UNL A   1      40.586  27.709  29.025  1.00  0.00     0.074 A 
ATOM     49  C   UNL A   1      39.594  26.625  28.983  1.00  0.00     0.031 C 
ATOM     50  C   UNL A   1      45.952  25.464  26.505  1.00  0.00     0.029 A 
ATOM     51  C   UNL A   1      45.693  26.771  26.960  1.00  0.00     0.049 A 
ATOM     52  H   UNL A   1      43.945  27.591  27.812  1.00  0.00     0.167 HD
ATOM     53  C   UNL A   1      40.335  28.981  29.540  1.00  0.00     0.034 A 
ATOM     54  C   UNL A   1      46.612  27.807  26.926  1.00  0.00     0.034 A 
ATOM     55  C   UNL A   1      41.269  30.006  29.545  1.00  0.00     0.049 A 
ATOM     56  C   UNL A   1      46.342  29.098  27.387  1.00  0.00     0.074 A 
ATOM     57  C   UNL A   1      41.034  31.293  30.067  1.00  0.00     0.029 A 
ATOM     58  N   UNL A   1      42.557  29.976  29.058  1.00  0.00    -0.354 N 
ATOM     59  N   UNL A   1      45.215  29.539  27.948  1.00  0.00    -0.248 NA
ATOM     60  C   UNL A   1      47.297  30.212  27.326  1.00  0.00     0.031 C 
ATOM     61  C   UNL A   1      42.163  32.031  29.889  1.00  0.00     0.029 A 
ATOM     62  C   UNL A   1      43.120  31.218  29.253  1.00  0.00     0.049 A 
ATOM     63  H   UNL A   1      42.999  29.200  28.644  1.00  0.00     0.167 HD
ATOM     64  C   UNL A   1      45.340  30.826  28.279  1.00  0.00     0.074 A 
ATOM     65  C   UNL A   1      46.678  31.279  27.876  1.00  0.00     0.031 C 
ATOM     66  C   UNL A   1      44.392  31.639  28.902  1.00  0.00     0.034 A 
BRANCH  53  67
ATOM     67  C   UNL A   1      38.961  29.260  30.127  1.00  0.00     0.023 A 
ATOM     68  C   UNL A   1      38.000  29.877  29.343  1.00  0.00     0.031 A 
ATOM     69  C   UNL A   1      38.705  28.909  31.382  1.00  0.00     0.131 A 
ATOM     70  C   UNL A   1      36.881  30.344  30.071  1.00  0.00     0.055 A 
ATOM     71  C   UNL A   1      37.530  29.285  31.987  1.00  0.00     0.041 A 
ATOM     72  F   UNL A   1      39.594  28.187  32.058  1.00  0.00    -0.206 F 
ATOM     73  C   UNL A   1      36.561  29.948  31.289  1.00  0.00     0.022 A 
BRANCH  70  74
ATOM     74  S   UNL A   1      35.812  31.571  29.277  1.00  0.00     0.124 S 
ATOM     75  O   UNL A   1      35.090  30.926  28.091  1.00  0.00    -0.237 OA
ATOM     76  O   UNL A   1      34.782  32.081  30.287  1.00  0.00    -0.237 OA
ATOM     77  O   UNL A   1      36.762  32.880  28.721  1.00  0.00    -0.744 OA
ENDBRANCH  70  74
ENDBRANCH  53  67
BRANCH  54  78
ATOM     78  C   UNL A   1      47.991  27.524  26.353  1.00  0.00     0.023 A 
ATOM     79  C   UNL A   1      48.259  27.850  25.033  1.00  0.00     0.031 A 
ATOM     80  C   UNL A   1      48.917  26.971  27.127  1.00  0.00     0.131 A 
ATOM     81  C   UNL A   1      49.455  27.283  24.535  1.00  0.00     0.055 A 
ATOM     82  C   UNL A   1      50.118  26.563  26.599  1.00  0.00     0.041 A 
ATOM     83  F   UNL A   1      48.679  26.809  28.426  1.00  0.00    -0.206 F 
ATOM     84  C   UNL A   1      50.426  26.799  25.287  1.00  0.00     0.022 A 
BRANCH  81  85
ATOM     85  S   UNL A   1      49.670  27.215  22.739  1.00  0.00     0.124 S 
ATOM     86  O   UNL A   1      49.306  28.572  22.130  1.00  0.00    -0.237 OA
ATOM     87  O   UNL A   1      51.127  26.883  22.411  1.00  0.00    -0.237 OA
ATOM     88  O   UNL A   1      48.649  26.007  22.088  1.00  0.00    -0.744 OA
ENDBRANCH  81  85
ENDBRANCH  54  78
BRANCH  66  89
ATOM     89  C   UNL A   1      44.781  33.076  29.216  1.00  0.00     0.023 A 
ATOM     90  C   UNL A   1      44.504  34.070  28.292  1.00  0.00     0.031 A 
ATOM     91  C   UNL A   1      45.377  33.353  30.370  1.00  0.00     0.131 A 
ATOM     92  C   UNL A   1      45.161  35.295  28.555  1.00  0.00     0.055 A 
ATOM     93  C   UNL A   1      45.876  34.610  30.614  1.00  0.00     0.041 A 
ATOM     94  F   UNL A   1      45.493  32.406  31.296  1.00  0.00    -0.206 F 
ATOM     95  C   UNL A   1      45.692  35.626  29.718  1.00  0.00     0.022 A 
BRANCH  92  96
ATOM     96  S   UNL A   1      45.284  36.492  27.203  1.00  0.00     0.124 S 
ATOM     97  O   UNL A   1      45.821  35.794  25.951  1.00  0.00    -0.237 OA
ATOM     98  O   UNL A   1      43.899  37.072  26.908  1.00  0.00    -0.237 OA
ATOM     99  O   UNL A   1      46.347  37.753  27.653  1.00  0.00    -0.744 OA
ENDBRANCH  92  96
ENDBRANCH  66  89
ENDBRANCH  40  41
ENDBRANCH  32  35
ENDBRANCH  30  31
ENDBRANCH  29  30
ENDBRANCH   1  29
TORSDOF 18
ENDMDL
