MODEL 1
REMARK VINA RESULT:     -13.4      0.000      0.000
REMARK SMILES O=C(NCCCCCCNC(=O)c1nnn(-c2cccc(C(F)(F)F)c2)c1[C@@H]1COc2ccccc2O1)c1ccc(-c2c3nc(c(-c4cc(S(=O)(=O)[O-])ccc4F)c4ccc([nH]4)c(-c4cc(S(=O)(=O)[O-])ccc4F)c4nc(c(-c5cc(S(=O)(=O)[O-])ccc5F)c5ccc2[nH]5)C=C4)C=C3)cc1
REMARK SMILES IDX 6 1 5 2 4 3 3 4 1 5 2 6 38 8 39 9 100 10 40 11 99 12 41 13
REMARK SMILES IDX 42 14 43 15 93 16 44 17 98 18 92 19 94 20 45 21 97 22 91 23
REMARK SMILES IDX 90 24 46 26 78 27 58 28 77 29 59 30 62 31 76 32 95 33 60 34
REMARK SMILES IDX 61 35 75 37 96 38 63 39 47 40 48 41 56 42 49 43 55 44 57 45
REMARK SMILES IDX 54 46 50 47 51 48 52 49 53 50 79 51 80 52 88 53 81 54 87 55
REMARK SMILES IDX 89 56 86 57 82 58 83 59 84 60 85 61 64 62 65 63 73 64 66 65
REMARK SMILES IDX 72 66 74 67 71 68 67 69 68 70 69 71 70 72 7 73 8 74 9 75
REMARK SMILES IDX 10 76 11 77 12 79 13 80 14 81 27 82 15 83 16 84 28 85 29 86
REMARK SMILES IDX 37 87 30 88 36 89 31 90 35 91 32 92 34 93 33 94 17 95 18 96
REMARK SMILES IDX 26 97 19 98 21 99 20 100 22 101 23 102 24 103 25 104
REMARK H PARENT 3 7 94 25 62 36 10 78
REMARK Flexibility Score: inf
ROOT
ATOM      1  C   UNL A   1      37.848  21.398  25.078  1.00  0.00     0.002 C 
ENDROOT
BRANCH   1   2
ATOM      2  C   UNL A   1      38.594  22.249  26.115  1.00  0.00     0.021 C 
BRANCH   2   3
ATOM      3  C   UNL A   1      39.908  21.673  26.640  1.00  0.00     0.116 C 
BRANCH   3   4
ATOM      4  N   UNL A   1      41.088  22.024  25.878  1.00  0.00    -0.352 N 
ATOM      5  O   UNL A   1      42.967  22.938  25.163  1.00  0.00    -0.269 OA
ATOM      6  C   UNL A   1      41.999  23.044  25.923  1.00  0.00     0.251 C 
ATOM      7  H   UNL A   1      41.280  21.377  25.160  1.00  0.00     0.163 HD
BRANCH   6   8
ATOM      8  C   UNL A   1      41.874  24.269  26.759  1.00  0.00     0.039 A 
ATOM      9  C   UNL A   1      42.615  24.547  27.909  1.00  0.00     0.014 A 
ATOM     10  C   UNL A   1      40.942  25.224  26.312  1.00  0.00     0.014 A 
ATOM     11  C   UNL A   1      42.383  25.721  28.628  1.00  0.00     0.010 A 
ATOM     12  C   UNL A   1      40.715  26.402  27.020  1.00  0.00     0.010 A 
ATOM     13  C   UNL A   1      41.427  26.646  28.191  1.00  0.00    -0.014 A 
BRANCH  13  14
ATOM     14  C   UNL A   1      41.385  27.964  28.834  1.00  0.00     0.031 A 
ATOM     15  C   UNL A   1      42.383  28.929  28.289  1.00  0.00     0.074 A 
ATOM     16  C   UNL A   1      40.433  28.382  29.694  1.00  0.00     0.049 A 
ATOM     17  N   UNL A   1      43.356  29.512  28.908  1.00  0.00    -0.248 NA
ATOM     18  C   UNL A   1      42.373  29.174  26.836  1.00  0.00     0.031 C 
ATOM     19  C   UNL A   1      39.231  27.655  30.099  1.00  0.00     0.029 A 
ATOM     20  N   UNL A   1      40.281  29.598  30.305  1.00  0.00    -0.354 N 
ATOM     21  C   UNL A   1      43.927  30.385  27.983  1.00  0.00     0.074 A 
ATOM     22  C   UNL A   1      43.422  29.984  26.699  1.00  0.00     0.031 C 
ATOM     23  C   UNL A   1      38.376  28.510  30.706  1.00  0.00     0.029 A 
ATOM     24  C   UNL A   1      39.008  29.816  30.830  1.00  0.00     0.049 A 
ATOM     25  H   UNL A   1      41.007  30.260  30.369  1.00  0.00     0.167 HD
ATOM     26  C   UNL A   1      44.560  31.524  28.378  1.00  0.00     0.034 A 
ATOM     27  C   UNL A   1      38.474  30.989  31.273  1.00  0.00     0.034 A 
ATOM     28  C   UNL A   1      44.971  31.438  29.764  1.00  0.00     0.049 A 
ATOM     29  C   UNL A   1      39.601  31.893  31.605  1.00  0.00     0.074 A 
ATOM     30  C   UNL A   1      45.724  30.535  30.494  1.00  0.00     0.029 A 
ATOM     31  N   UNL A   1      44.307  32.194  30.704  1.00  0.00    -0.354 N 
ATOM     32  N   UNL A   1      40.426  31.685  32.592  1.00  0.00    -0.248 NA
ATOM     33  C   UNL A   1      40.085  32.800  30.576  1.00  0.00     0.031 C 
ATOM     34  C   UNL A   1      45.073  30.452  31.760  1.00  0.00     0.029 A 
ATOM     35  C   UNL A   1      44.017  31.365  31.758  1.00  0.00     0.049 A 
ATOM     36  H   UNL A   1      44.081  33.150  30.633  1.00  0.00     0.167 HD
ATOM     37  C   UNL A   1      41.667  32.059  32.104  1.00  0.00     0.074 A 
ATOM     38  C   UNL A   1      41.380  32.840  30.904  1.00  0.00     0.031 C 
ATOM     39  C   UNL A   1      42.812  31.466  32.556  1.00  0.00     0.034 A 
BRANCH  26  40
ATOM     40  C   UNL A   1      44.445  32.853  27.648  1.00  0.00     0.023 A 
ATOM     41  C   UNL A   1      43.782  33.894  28.326  1.00  0.00     0.031 A 
ATOM     42  C   UNL A   1      44.640  33.062  26.263  1.00  0.00     0.131 A 
ATOM     43  C   UNL A   1      43.209  34.968  27.623  1.00  0.00     0.055 A 
ATOM     44  C   UNL A   1      44.136  34.175  25.580  1.00  0.00     0.041 A 
ATOM     45  F   UNL A   1      45.250  32.178  25.467  1.00  0.00    -0.206 F 
ATOM     46  C   UNL A   1      43.375  35.113  26.251  1.00  0.00     0.022 A 
BRANCH  43  47
ATOM     47  S   UNL A   1      42.051  36.039  28.512  1.00  0.00     0.124 S 
ATOM     48  O   UNL A   1      40.800  35.309  28.336  1.00  0.00    -0.237 OA
ATOM     49  O   UNL A   1      42.617  36.037  29.856  1.00  0.00    -0.237 OA
ATOM     50  O   UNL A   1      42.146  37.308  27.795  1.00  0.00    -0.744 OA
ENDBRANCH  43  47
ENDBRANCH  26  40
BRANCH  27  51
ATOM     51  C   UNL A   1      37.060  31.457  31.172  1.00  0.00     0.023 A 
ATOM     52  C   UNL A   1      36.379  32.096  32.235  1.00  0.00     0.031 A 
ATOM     53  C   UNL A   1      36.425  31.492  29.910  1.00  0.00     0.131 A 
ATOM     54  C   UNL A   1      35.127  32.721  32.008  1.00  0.00     0.055 A 
ATOM     55  C   UNL A   1      35.186  32.101  29.695  1.00  0.00     0.041 A 
ATOM     56  F   UNL A   1      37.029  31.011  28.812  1.00  0.00    -0.206 F 
ATOM     57  C   UNL A   1      34.536  32.727  30.743  1.00  0.00     0.022 A 
BRANCH  54  58
ATOM     58  S   UNL A   1      34.289  33.642  33.342  1.00  0.00     0.124 S 
ATOM     59  O   UNL A   1      32.966  33.021  33.365  1.00  0.00    -0.237 OA
ATOM     60  O   UNL A   1      35.144  33.393  34.490  1.00  0.00    -0.237 OA
ATOM     61  O   UNL A   1      34.301  35.027  32.860  1.00  0.00    -0.744 OA
ENDBRANCH  54  58
ENDBRANCH  27  51
BRANCH  39  62
ATOM     62  C   UNL A   1      42.768  30.675  33.847  1.00  0.00     0.023 A 
ATOM     63  C   UNL A   1      42.312  29.342  33.968  1.00  0.00     0.031 A 
ATOM     64  C   UNL A   1      43.312  31.283  34.993  1.00  0.00     0.131 A 
ATOM     65  C   UNL A   1      42.396  28.680  35.208  1.00  0.00     0.055 A 
ATOM     66  C   UNL A   1      43.413  30.617  36.213  1.00  0.00     0.041 A 
ATOM     67  F   UNL A   1      43.790  32.538  34.938  1.00  0.00    -0.206 F 
ATOM     68  C   UNL A   1      42.946  29.313  36.327  1.00  0.00     0.022 A 
BRANCH  65  69
ATOM     69  S   UNL A   1      41.771  26.979  35.397  1.00  0.00     0.124 S 
ATOM     70  O   UNL A   1      42.963  26.154  35.243  1.00  0.00    -0.237 OA
ATOM     71  O   UNL A   1      41.181  27.009  36.733  1.00  0.00    -0.237 OA
ATOM     72  O   UNL A   1      40.798  26.853  34.310  1.00  0.00    -0.744 OA
ENDBRANCH  65  69
ENDBRANCH  39  62
ENDBRANCH  13  14
ENDBRANCH   6   8
ENDBRANCH   3   4
ENDBRANCH   2   3
ENDBRANCH   1   2
BRANCH   1  73
ATOM     73  C   UNL A   1      37.019  22.137  24.020  1.00  0.00     0.002 C 
BRANCH  73  74
ATOM     74  C   UNL A   1      35.512  22.200  24.247  1.00  0.00     0.021 C 
BRANCH  74  75
ATOM     75  C   UNL A   1      34.987  21.590  25.544  1.00  0.00     0.116 C 
BRANCH  75  76
ATOM     76  N   UNL A   1      33.622  21.125  25.526  1.00  0.00    -0.351 N 
ATOM     77  C   UNL A   1      32.418  21.664  25.116  1.00  0.00     0.273 C 
ATOM     78  H   UNL A   1      33.527  20.215  25.888  1.00  0.00     0.163 HD
ATOM     79  O   UNL A   1      31.458  20.914  25.330  1.00  0.00    -0.267 OA
BRANCH  77  80
ATOM     80  C   UNL A   1      32.175  22.991  24.495  1.00  0.00     0.178 A 
ATOM     81  N   UNL A   1      31.406  22.987  23.335  1.00  0.00    -0.124 NA
ATOM     82  C   UNL A   1      32.472  24.332  24.777  1.00  0.00     0.122 A 
ATOM     83  N   UNL A   1      31.210  24.226  22.924  1.00  0.00    -0.061 NA
ATOM     84  N   UNL A   1      31.964  25.030  23.689  1.00  0.00    -0.213 N 
BRANCH  82  85
ATOM     85  C   UNL A   1      32.952  25.008  26.022  1.00  0.00     0.262 C 
ATOM     86  C   UNL A   1      31.739  25.298  26.938  1.00  0.00     0.281 C 
ATOM     87  O   UNL A   1      33.792  26.142  25.783  1.00  0.00    -0.477 OA
ATOM     88  O   UNL A   1      31.078  26.512  26.579  1.00  0.00    -0.485 OA
ATOM     89  C   UNL A   1      33.351  27.297  26.377  1.00  0.00     0.162 A 
ATOM     90  C   UNL A   1      32.005  27.513  26.689  1.00  0.00     0.161 A 
ATOM     91  C   UNL A   1      34.279  28.303  26.604  1.00  0.00     0.050 A 
ATOM     92  C   UNL A   1      31.562  28.753  27.128  1.00  0.00     0.050 A 
ATOM     93  C   UNL A   1      33.851  29.533  27.109  1.00  0.00     0.004 A 
ATOM     94  C   UNL A   1      32.493  29.766  27.344  1.00  0.00     0.004 A 
ENDBRANCH  82  85
BRANCH  84  95
ATOM     95  C   UNL A   1      32.132  26.383  23.342  1.00  0.00     0.067 A 
ATOM     96  C   UNL A   1      33.367  26.826  22.863  1.00  0.00     0.028 A 
ATOM     97  C   UNL A   1      31.014  27.225  23.351  1.00  0.00     0.041 A 
ATOM     98  C   UNL A   1      33.451  28.095  22.287  1.00  0.00     0.003 A 
ATOM     99  C   UNL A   1      31.105  28.512  22.806  1.00  0.00     0.058 A 
ATOM    100  C   UNL A   1      32.325  28.926  22.246  1.00  0.00     0.013 A 
BRANCH  99 101
ATOM    101  C   UNL A   1      29.898  29.415  22.755  1.00  0.00     0.416 C 
ATOM    102  F   UNL A   1      29.628  29.986  23.963  1.00  0.00    -0.166 F 
ATOM    103  F   UNL A   1      30.051  30.445  21.880  1.00  0.00    -0.166 F 
ATOM    104  F   UNL A   1      28.756  28.771  22.388  1.00  0.00    -0.166 F 
ENDBRANCH  99 101
ENDBRANCH  84  95
ENDBRANCH  77  80
ENDBRANCH  75  76
ENDBRANCH  74  75
ENDBRANCH  73  74
ENDBRANCH   1  73
TORSDOF 19
ENDMDL
MODEL 2
REMARK VINA RESULT:     -13.1      3.684      9.333
REMARK SMILES O=C(NCCCCCCNC(=O)c1nnn(-c2cccc(C(F)(F)F)c2)c1[C@@H]1COc2ccccc2O1)c1ccc(-c2c3nc(c(-c4cc(S(=O)(=O)[O-])ccc4F)c4ccc([nH]4)c(-c4cc(S(=O)(=O)[O-])ccc4F)c4nc(c(-c5cc(S(=O)(=O)[O-])ccc5F)c5ccc2[nH]5)C=C4)C=C3)cc1
REMARK SMILES IDX 6 1 5 2 4 3 3 4 1 5 2 6 38 8 39 9 100 10 40 11 99 12 41 13
REMARK SMILES IDX 42 14 43 15 93 16 44 17 98 18 92 19 94 20 45 21 97 22 91 23
REMARK SMILES IDX 90 24 46 26 78 27 58 28 77 29 59 30 62 31 76 32 95 33 60 34
REMARK SMILES IDX 61 35 75 37 96 38 63 39 47 40 48 41 56 42 49 43 55 44 57 45
REMARK SMILES IDX 54 46 50 47 51 48 52 49 53 50 79 51 80 52 88 53 81 54 87 55
REMARK SMILES IDX 89 56 86 57 82 58 83 59 84 60 85 61 64 62 65 63 73 64 66 65
REMARK SMILES IDX 72 66 74 67 71 68 67 69 68 70 69 71 70 72 7 73 8 74 9 75
REMARK SMILES IDX 10 76 11 77 12 79 13 80 14 81 27 82 15 83 16 84 28 85 29 86
REMARK SMILES IDX 37 87 30 88 36 89 31 90 35 91 32 92 34 93 33 94 17 95 18 96
REMARK SMILES IDX 26 97 19 98 21 99 20 100 22 101 23 102 24 103 25 104
REMARK H PARENT 3 7 94 25 62 36 10 78
REMARK Flexibility Score: inf
ROOT
ATOM      1  C   UNL A   1      33.343  29.614  27.271  1.00  0.00     0.002 C 
ENDROOT
BRANCH   1   2
ATOM      2  C   UNL A   1      34.714  30.292  27.394  1.00  0.00     0.021 C 
BRANCH   2   3
ATOM      3  C   UNL A   1      34.704  31.765  27.798  1.00  0.00     0.116 C 
BRANCH   3   4
ATOM      4  N   UNL A   1      34.625  32.019  29.221  1.00  0.00    -0.352 N 
ATOM      5  O   UNL A   1      35.088  32.315  31.359  1.00  0.00    -0.269 OA
ATOM      6  C   UNL A   1      35.480  31.864  30.279  1.00  0.00     0.251 C 
ATOM      7  H   UNL A   1      33.753  32.390  29.490  1.00  0.00     0.163 HD
BRANCH   6   8
ATOM      8  C   UNL A   1      36.786  31.153  30.229  1.00  0.00     0.039 A 
ATOM      9  C   UNL A   1      38.042  31.759  30.256  1.00  0.00     0.014 A 
ATOM     10  C   UNL A   1      36.718  29.747  30.181  1.00  0.00     0.014 A 
ATOM     11  C   UNL A   1      39.200  30.983  30.170  1.00  0.00     0.010 A 
ATOM     12  C   UNL A   1      37.870  28.969  30.108  1.00  0.00     0.010 A 
ATOM     13  C   UNL A   1      39.117  29.588  30.087  1.00  0.00    -0.014 A 
BRANCH  13  14
ATOM     14  C   UNL A   1      40.347  28.804  30.242  1.00  0.00     0.031 A 
ATOM     15  C   UNL A   1      40.713  28.537  31.662  1.00  0.00     0.074 A 
ATOM     16  C   UNL A   1      41.012  28.190  29.240  1.00  0.00     0.049 A 
ATOM     17  N   UNL A   1      41.779  28.898  32.298  1.00  0.00    -0.248 NA
ATOM     18  C   UNL A   1      39.701  27.895  32.519  1.00  0.00     0.031 C 
ATOM     19  C   UNL A   1      40.615  28.116  27.835  1.00  0.00     0.029 A 
ATOM     20  N   UNL A   1      42.131  27.404  29.288  1.00  0.00    -0.354 N 
ATOM     21  C   UNL A   1      41.683  28.319  33.562  1.00  0.00     0.074 A 
ATOM     22  C   UNL A   1      40.316  27.901  33.701  1.00  0.00     0.031 C 
ATOM     23  C   UNL A   1      41.347  27.163  27.214  1.00  0.00     0.029 A 
ATOM     24  C   UNL A   1      42.336  26.635  28.143  1.00  0.00     0.049 A 
ATOM     25  H   UNL A   1      42.739  27.383  30.063  1.00  0.00     0.167 HD
ATOM     26  C   UNL A   1      42.793  27.999  34.282  1.00  0.00     0.034 A 
ATOM     27  C   UNL A   1      43.201  25.595  27.977  1.00  0.00     0.034 A 
ATOM     28  C   UNL A   1      43.946  28.747  33.825  1.00  0.00     0.049 A 
ATOM     29  C   UNL A   1      44.258  25.726  29.007  1.00  0.00     0.074 A 
ATOM     30  C   UNL A   1      44.215  30.092  33.644  1.00  0.00     0.029 A 
ATOM     31  N   UNL A   1      44.936  28.087  33.132  1.00  0.00    -0.354 N 
ATOM     32  N   UNL A   1      45.135  26.690  29.021  1.00  0.00    -0.248 NA
ATOM     33  C   UNL A   1      44.077  25.036  30.274  1.00  0.00     0.031 C 
ATOM     34  C   UNL A   1      44.998  30.154  32.454  1.00  0.00     0.029 A 
ATOM     35  C   UNL A   1      45.231  28.846  32.027  1.00  0.00     0.049 A 
ATOM     36  H   UNL A   1      45.354  27.231  33.381  1.00  0.00     0.167 HD
ATOM     37  C   UNL A   1      45.281  27.019  30.359  1.00  0.00     0.074 A 
ATOM     38  C   UNL A   1      44.694  25.898  31.088  1.00  0.00     0.031 C 
ATOM     39  C   UNL A   1      45.604  28.290  30.743  1.00  0.00     0.034 A 
BRANCH  26  40
ATOM     40  C   UNL A   1      42.927  26.730  35.111  1.00  0.00     0.023 A 
ATOM     41  C   UNL A   1      43.732  25.706  34.578  1.00  0.00     0.031 A 
ATOM     42  C   UNL A   1      42.091  26.344  36.184  1.00  0.00     0.131 A 
ATOM     43  C   UNL A   1      43.567  24.370  34.980  1.00  0.00     0.055 A 
ATOM     44  C   UNL A   1      41.990  25.024  36.637  1.00  0.00     0.041 A 
ATOM     45  F   UNL A   1      41.263  27.188  36.809  1.00  0.00    -0.206 F 
ATOM     46  C   UNL A   1      42.695  24.019  36.004  1.00  0.00     0.022 A 
BRANCH  43  47
ATOM     47  S   UNL A   1      44.349  23.081  33.978  1.00  0.00     0.124 S 
ATOM     48  O   UNL A   1      45.601  23.733  33.607  1.00  0.00    -0.237 OA
ATOM     49  O   UNL A   1      44.452  21.983  34.933  1.00  0.00    -0.237 OA
ATOM     50  O   UNL A   1      43.399  22.875  32.889  1.00  0.00    -0.744 OA
ENDBRANCH  43  47
ENDBRANCH  26  40
BRANCH  27  51
ATOM     51  C   UNL A   1      43.014  24.361  27.156  1.00  0.00     0.023 A 
ATOM     52  C   UNL A   1      43.970  23.906  26.217  1.00  0.00     0.031 A 
ATOM     53  C   UNL A   1      41.968  23.465  27.470  1.00  0.00     0.131 A 
ATOM     54  C   UNL A   1      43.847  22.616  25.641  1.00  0.00     0.055 A 
ATOM     55  C   UNL A   1      41.846  22.201  26.891  1.00  0.00     0.041 A 
ATOM     56  F   UNL A   1      41.067  23.752  28.423  1.00  0.00    -0.206 F 
ATOM     57  C   UNL A   1      42.793  21.766  25.979  1.00  0.00     0.022 A 
BRANCH  54  58
ATOM     58  S   UNL A   1      45.130  21.972  24.513  1.00  0.00     0.124 S 
ATOM     59  O   UNL A   1      46.276  21.814  25.406  1.00  0.00    -0.237 OA
ATOM     60  O   UNL A   1      44.527  20.751  24.007  1.00  0.00    -0.237 OA
ATOM     61  O   UNL A   1      45.276  23.040  23.519  1.00  0.00    -0.744 OA
ENDBRANCH  54  58
ENDBRANCH  27  51
BRANCH  39  62
ATOM     62  C   UNL A   1      46.170  29.245  29.713  1.00  0.00     0.023 A 
ATOM     63  C   UNL A   1      45.418  29.902  28.713  1.00  0.00     0.031 A 
ATOM     64  C   UNL A   1      47.534  29.575  29.822  1.00  0.00     0.131 A 
ATOM     65  C   UNL A   1      46.041  30.835  27.862  1.00  0.00     0.055 A 
ATOM     66  C   UNL A   1      48.142  30.514  28.992  1.00  0.00     0.041 A 
ATOM     67  F   UNL A   1      48.300  29.008  30.771  1.00  0.00    -0.206 F 
ATOM     68  C   UNL A   1      47.398  31.141  28.000  1.00  0.00     0.022 A 
BRANCH  65  69
ATOM     69  S   UNL A   1      45.100  31.657  26.536  1.00  0.00     0.124 S 
ATOM     70  O   UNL A   1      43.770  31.070  26.642  1.00  0.00    -0.237 OA
ATOM     71  O   UNL A   1      45.208  33.067  26.903  1.00  0.00    -0.237 OA
ATOM     72  O   UNL A   1      45.832  31.291  25.323  1.00  0.00    -0.744 OA
ENDBRANCH  65  69
ENDBRANCH  39  62
ENDBRANCH  13  14
ENDBRANCH   6   8
ENDBRANCH   3   4
ENDBRANCH   2   3
ENDBRANCH   1   2
BRANCH   1  73
ATOM     73  C   UNL A   1      32.141  30.503  26.926  1.00  0.00     0.002 C 
BRANCH  73  74
ATOM     74  C   UNL A   1      31.483  30.274  25.569  1.00  0.00     0.021 C 
BRANCH  74  75
ATOM     75  C   UNL A   1      32.178  29.297  24.625  1.00  0.00     0.116 C 
BRANCH  75  76
ATOM     76  N   UNL A   1      31.405  28.839  23.498  1.00  0.00    -0.351 N 
ATOM     77  C   UNL A   1      30.980  27.604  23.049  1.00  0.00     0.273 C 
ATOM     78  H   UNL A   1      31.113  29.575  22.913  1.00  0.00     0.163 HD
ATOM     79  O   UNL A   1      30.360  27.668  21.980  1.00  0.00    -0.267 OA
BRANCH  77  80
ATOM     80  C   UNL A   1      31.198  26.278  23.680  1.00  0.00     0.178 A 
ATOM     81  N   UNL A   1      30.084  25.447  23.750  1.00  0.00    -0.124 NA
ATOM     82  C   UNL A   1      32.274  25.555  24.217  1.00  0.00     0.122 A 
ATOM     83  N   UNL A   1      30.426  24.282  24.270  1.00  0.00    -0.061 NA
ATOM     84  N   UNL A   1      31.696  24.384  24.690  1.00  0.00    -0.213 N 
BRANCH  82  85
ATOM     85  C   UNL A   1      33.754  25.747  24.119  1.00  0.00     0.262 C 
ATOM     86  C   UNL A   1      34.236  25.243  22.738  1.00  0.00     0.281 C 
ATOM     87  O   UNL A   1      34.486  25.215  25.227  1.00  0.00    -0.477 OA
ATOM     88  O   UNL A   1      34.458  23.832  22.734  1.00  0.00    -0.485 OA
ATOM     89  C   UNL A   1      35.462  24.320  24.872  1.00  0.00     0.162 A 
ATOM     90  C   UNL A   1      35.404  23.578  23.689  1.00  0.00     0.161 A 
ATOM     91  C   UNL A   1      36.501  24.107  25.768  1.00  0.00     0.050 A 
ATOM     92  C   UNL A   1      36.312  22.558  23.438  1.00  0.00     0.050 A 
ATOM     93  C   UNL A   1      37.457  23.127  25.490  1.00  0.00     0.004 A 
ATOM     94  C   UNL A   1      37.347  22.336  24.343  1.00  0.00     0.004 A 
ENDBRANCH  82  85
BRANCH  84  95
ATOM     95  C   UNL A   1      32.260  23.371  25.486  1.00  0.00     0.067 A 
ATOM     96  C   UNL A   1      32.427  23.580  26.857  1.00  0.00     0.028 A 
ATOM     97  C   UNL A   1      32.513  22.121  24.908  1.00  0.00     0.041 A 
ATOM     98  C   UNL A   1      32.746  22.492  27.671  1.00  0.00     0.003 A 
ATOM     99  C   UNL A   1      32.867  21.036  25.719  1.00  0.00     0.058 A 
ATOM    100  C   UNL A   1      32.950  21.227  27.109  1.00  0.00     0.013 A 
BRANCH  99 101
ATOM    101  C   UNL A   1      33.089  19.668  25.123  1.00  0.00     0.416 C 
ATOM    102  F   UNL A   1      32.769  18.667  25.992  1.00  0.00    -0.166 F 
ATOM    103  F   UNL A   1      32.335  19.453  24.011  1.00  0.00    -0.166 F 
ATOM    104  F   UNL A   1      34.381  19.441  24.757  1.00  0.00    -0.166 F 
ENDBRANCH  99 101
ENDBRANCH  84  95
ENDBRANCH  77  80
ENDBRANCH  75  76
ENDBRANCH  74  75
ENDBRANCH  73  74
ENDBRANCH   1  73
TORSDOF 19
ENDMDL
MODEL 3
REMARK VINA RESULT:     -12.5      1.672      1.862
REMARK SMILES O=C(NCCCCCCNC(=O)c1nnn(-c2cccc(C(F)(F)F)c2)c1[C@@H]1COc2ccccc2O1)c1ccc(-c2c3nc(c(-c4cc(S(=O)(=O)[O-])ccc4F)c4ccc([nH]4)c(-c4cc(S(=O)(=O)[O-])ccc4F)c4nc(c(-c5cc(S(=O)(=O)[O-])ccc5F)c5ccc2[nH]5)C=C4)C=C3)cc1
REMARK SMILES IDX 6 1 5 2 4 3 3 4 1 5 2 6 38 8 39 9 100 10 40 11 99 12 41 13
REMARK SMILES IDX 42 14 43 15 93 16 44 17 98 18 92 19 94 20 45 21 97 22 91 23
REMARK SMILES IDX 90 24 46 26 78 27 58 28 77 29 59 30 62 31 76 32 95 33 60 34
REMARK SMILES IDX 61 35 75 37 96 38 63 39 47 40 48 41 56 42 49 43 55 44 57 45
REMARK SMILES IDX 54 46 50 47 51 48 52 49 53 50 79 51 80 52 88 53 81 54 87 55
REMARK SMILES IDX 89 56 86 57 82 58 83 59 84 60 85 61 64 62 65 63 73 64 66 65
REMARK SMILES IDX 72 66 74 67 71 68 67 69 68 70 69 71 70 72 7 73 8 74 9 75
REMARK SMILES IDX 10 76 11 77 12 79 13 80 14 81 27 82 15 83 16 84 28 85 29 86
REMARK SMILES IDX 37 87 30 88 36 89 31 90 35 91 32 92 34 93 33 94 17 95 18 96
REMARK SMILES IDX 26 97 19 98 21 99 20 100 22 101 23 102 24 103 25 104
REMARK H PARENT 3 7 94 25 62 36 10 78
REMARK Flexibility Score: inf
ROOT
ATOM      1  C   UNL A   1      38.487  21.565  25.674  1.00  0.00     0.002 C 
ENDROOT
BRANCH   1   2
ATOM      2  C   UNL A   1      39.087  22.698  26.518  1.00  0.00     0.021 C 
BRANCH   2   3
ATOM      3  C   UNL A   1      40.540  22.516  26.954  1.00  0.00     0.116 C 
BRANCH   3   4
ATOM      4  N   UNL A   1      41.534  22.979  26.009  1.00  0.00    -0.352 N 
ATOM      5  O   UNL A   1      43.160  24.077  24.996  1.00  0.00    -0.269 OA
ATOM      6  C   UNL A   1      42.324  24.091  25.904  1.00  0.00     0.251 C 
ATOM      7  H   UNL A   1      41.675  22.343  25.269  1.00  0.00     0.163 HD
BRANCH   6   8
ATOM      8  C   UNL A   1      42.205  25.310  26.750  1.00  0.00     0.039 A 
ATOM      9  C   UNL A   1      43.002  25.613  27.855  1.00  0.00     0.014 A 
ATOM     10  C   UNL A   1      41.213  26.231  26.362  1.00  0.00     0.014 A 
ATOM     11  C   UNL A   1      42.771  26.778  28.591  1.00  0.00     0.010 A 
ATOM     12  C   UNL A   1      40.987  27.400  27.086  1.00  0.00     0.010 A 
ATOM     13  C   UNL A   1      41.758  27.668  28.214  1.00  0.00    -0.014 A 
BRANCH  13  14
ATOM     14  C   UNL A   1      41.706  28.983  28.862  1.00  0.00     0.031 A 
ATOM     15  C   UNL A   1      42.791  29.909  28.426  1.00  0.00     0.074 A 
ATOM     16  C   UNL A   1      40.693  29.435  29.629  1.00  0.00     0.049 A 
ATOM     17  N   UNL A   1      43.721  30.448  29.143  1.00  0.00    -0.248 NA
ATOM     18  C   UNL A   1      42.933  30.163  26.982  1.00  0.00     0.031 C 
ATOM     19  C   UNL A   1      39.428  28.756  29.908  1.00  0.00     0.029 A 
ATOM     20  N   UNL A   1      40.531  30.653  30.234  1.00  0.00    -0.354 N 
ATOM     21  C   UNL A   1      44.415  31.302  28.287  1.00  0.00     0.074 A 
ATOM     22  C   UNL A   1      44.022  30.929  26.955  1.00  0.00     0.031 C 
ATOM     23  C   UNL A   1      38.553  29.642  30.437  1.00  0.00     0.029 A 
ATOM     24  C   UNL A   1      39.222  30.920  30.634  1.00  0.00     0.049 A 
ATOM     25  H   UNL A   1      41.273  31.284  30.375  1.00  0.00     0.167 HD
ATOM     26  C   UNL A   1      45.052  32.411  28.752  1.00  0.00     0.034 A 
ATOM     27  C   UNL A   1      38.695  32.111  31.035  1.00  0.00     0.034 A 
ATOM     28  C   UNL A   1      45.322  32.301  30.171  1.00  0.00     0.049 A 
ATOM     29  C   UNL A   1      39.820  32.966  31.483  1.00  0.00     0.074 A 
ATOM     30  C   UNL A   1      45.962  31.364  30.962  1.00  0.00     0.029 A 
ATOM     31  N   UNL A   1      44.600  33.078  31.049  1.00  0.00    -0.354 N 
ATOM     32  N   UNL A   1      40.535  32.718  32.544  1.00  0.00    -0.248 NA
ATOM     33  C   UNL A   1      40.438  33.859  30.516  1.00  0.00     0.031 C 
ATOM     34  C   UNL A   1      45.187  31.300  32.158  1.00  0.00     0.029 A 
ATOM     35  C   UNL A   1      44.175  32.256  32.062  1.00  0.00     0.049 A 
ATOM     36  H   UNL A   1      44.421  34.043  30.965  1.00  0.00     0.167 HD
ATOM     37  C   UNL A   1      41.832  33.044  32.184  1.00  0.00     0.074 A 
ATOM     38  C   UNL A   1      41.696  33.843  30.969  1.00  0.00     0.031 C 
ATOM     39  C   UNL A   1      42.903  32.402  32.739  1.00  0.00     0.034 A 
BRANCH  26  40
ATOM     40  C   UNL A   1      45.062  33.749  28.027  1.00  0.00     0.023 A 
ATOM     41  C   UNL A   1      46.321  34.329  27.785  1.00  0.00     0.031 A 
ATOM     42  C   UNL A   1      43.955  34.613  27.858  1.00  0.00     0.131 A 
ATOM     43  C   UNL A   1      46.453  35.712  27.568  1.00  0.00     0.055 A 
ATOM     44  C   UNL A   1      44.088  35.974  27.562  1.00  0.00     0.041 A 
ATOM     45  F   UNL A   1      42.689  34.228  28.046  1.00  0.00    -0.206 F 
ATOM     46  C   UNL A   1      45.343  36.542  27.462  1.00  0.00     0.022 A 
BRANCH  43  47
ATOM     47  S   UNL A   1      48.113  36.429  27.660  1.00  0.00     0.124 S 
ATOM     48  O   UNL A   1      48.723  35.883  26.452  1.00  0.00    -0.237 OA
ATOM     49  O   UNL A   1      47.820  37.858  27.646  1.00  0.00    -0.237 OA
ATOM     50  O   UNL A   1      48.637  35.910  28.920  1.00  0.00    -0.744 OA
ENDBRANCH  43  47
ENDBRANCH  26  40
BRANCH  27  51
ATOM     51  C   UNL A   1      37.317  32.637  30.801  1.00  0.00     0.023 A 
ATOM     52  C   UNL A   1      36.438  32.994  31.849  1.00  0.00     0.031 A 
ATOM     53  C   UNL A   1      36.931  33.028  29.499  1.00  0.00     0.131 A 
ATOM     54  C   UNL A   1      35.240  33.699  31.569  1.00  0.00     0.055 A 
ATOM     55  C   UNL A   1      35.746  33.714  29.228  1.00  0.00     0.041 A 
ATOM     56  F   UNL A   1      37.740  32.835  28.444  1.00  0.00    -0.206 F 
ATOM     57  C   UNL A   1      34.899  34.061  30.265  1.00  0.00     0.022 A 
BRANCH  54  58
ATOM     58  S   UNL A   1      34.151  34.262  32.921  1.00  0.00     0.124 S 
ATOM     59  O   UNL A   1      33.344  33.072  33.184  1.00  0.00    -0.237 OA
ATOM     60  O   UNL A   1      35.095  34.648  33.954  1.00  0.00    -0.237 OA
ATOM     61  O   UNL A   1      33.411  35.377  32.320  1.00  0.00    -0.744 OA
ENDBRANCH  54  58
ENDBRANCH  27  51
BRANCH  39  62
ATOM     62  C   UNL A   1      42.700  31.606  34.012  1.00  0.00     0.023 A 
ATOM     63  C   UNL A   1      42.351  30.237  34.067  1.00  0.00     0.031 A 
ATOM     64  C   UNL A   1      42.975  32.257  35.228  1.00  0.00     0.131 A 
ATOM     65  C   UNL A   1      42.272  29.581  35.311  1.00  0.00     0.055 A 
ATOM     66  C   UNL A   1      42.917  31.599  36.455  1.00  0.00     0.041 A 
ATOM     67  F   UNL A   1      43.341  33.550  35.243  1.00  0.00    -0.206 F 
ATOM     68  C   UNL A   1      42.555  30.258  36.502  1.00  0.00     0.022 A 
BRANCH  65  69
ATOM     69  S   UNL A   1      41.778  27.830  35.408  1.00  0.00     0.124 S 
ATOM     70  O   UNL A   1      41.154  27.721  36.722  1.00  0.00    -0.237 OA
ATOM     71  O   UNL A   1      40.883  27.693  34.262  1.00  0.00    -0.237 OA
ATOM     72  O   UNL A   1      43.046  27.112  35.275  1.00  0.00    -0.744 OA
ENDBRANCH  65  69
ENDBRANCH  39  62
ENDBRANCH  13  14
ENDBRANCH   6   8
ENDBRANCH   3   4
ENDBRANCH   2   3
ENDBRANCH   1   2
BRANCH   1  73
ATOM     73  C   UNL A   1      37.425  21.944  24.632  1.00  0.00     0.002 C 
BRANCH  73  74
ATOM     74  C   UNL A   1      36.158  21.095  24.603  1.00  0.00     0.021 C 
BRANCH  74  75
ATOM     75  C   UNL A   1      35.252  21.171  25.829  1.00  0.00     0.116 C 
BRANCH  75  76
ATOM     76  N   UNL A   1      33.929  20.617  25.681  1.00  0.00    -0.351 N 
ATOM     77  C   UNL A   1      32.740  21.073  25.147  1.00  0.00     0.273 C 
ATOM     78  H   UNL A   1      33.857  19.705  26.043  1.00  0.00     0.163 HD
ATOM     79  O   UNL A   1      31.814  20.263  25.274  1.00  0.00    -0.267 OA
BRANCH  77  80
ATOM     80  C   UNL A   1      32.474  22.377  24.487  1.00  0.00     0.178 A 
ATOM     81  N   UNL A   1      31.765  22.320  23.291  1.00  0.00    -0.124 NA
ATOM     82  C   UNL A   1      32.703  23.734  24.755  1.00  0.00     0.122 A 
ATOM     83  N   UNL A   1      31.541  23.542  22.845  1.00  0.00    -0.061 NA
ATOM     84  N   UNL A   1      32.223  24.390  23.629  1.00  0.00    -0.213 N 
BRANCH  82  85
ATOM     85  C   UNL A   1      33.094  24.453  26.008  1.00  0.00     0.262 C 
ATOM     86  C   UNL A   1      31.851  24.583  26.921  1.00  0.00     0.281 C 
ATOM     87  O   UNL A   1      33.788  25.683  25.782  1.00  0.00    -0.477 OA
ATOM     88  O   UNL A   1      31.047  25.710  26.571  1.00  0.00    -0.485 OA
ATOM     89  C   UNL A   1      33.207  26.769  26.384  1.00  0.00     0.162 A 
ATOM     90  C   UNL A   1      31.844  26.816  26.693  1.00  0.00     0.161 A 
ATOM     91  C   UNL A   1      34.004  27.880  26.624  1.00  0.00     0.050 A 
ATOM     92  C   UNL A   1      31.250  27.988  27.142  1.00  0.00     0.050 A 
ATOM     93  C   UNL A   1      33.426  29.043  27.138  1.00  0.00     0.004 A 
ATOM     94  C   UNL A   1      32.049  29.106  27.370  1.00  0.00     0.004 A 
ENDBRANCH  82  85
BRANCH  84  95
ATOM     95  C   UNL A   1      32.353  25.742  23.262  1.00  0.00     0.067 A 
ATOM     96  C   UNL A   1      33.541  26.189  22.679  1.00  0.00     0.028 A 
ATOM     97  C   UNL A   1      31.236  26.579  23.363  1.00  0.00     0.041 A 
ATOM     98  C   UNL A   1      33.569  27.455  22.092  1.00  0.00     0.003 A 
ATOM     99  C   UNL A   1      31.273  27.864  22.805  1.00  0.00     0.058 A 
ATOM    100  C   UNL A   1      32.440  28.280  22.142  1.00  0.00     0.013 A 
BRANCH  99 101
ATOM    101  C   UNL A   1      30.061  28.761  22.853  1.00  0.00     0.416 C 
ATOM    102  F   UNL A   1      30.060  29.571  23.949  1.00  0.00    -0.166 F 
ATOM    103  F   UNL A   1      29.980  29.588  21.776  1.00  0.00    -0.166 F 
ATOM    104  F   UNL A   1      28.885  28.077  22.897  1.00  0.00    -0.166 F 
ENDBRANCH  99 101
ENDBRANCH  84  95
ENDBRANCH  77  80
ENDBRANCH  75  76
ENDBRANCH  74  75
ENDBRANCH  73  74
ENDBRANCH   1  73
TORSDOF 19
ENDMDL
