MODEL 1
REMARK VINA RESULT:     -11.4      0.000      0.000
REMARK SMILES C[C@@H](Sc1nc2ccccc2c(=O)n1N)C(=O)NCCCCCCNC(=O)c1ccc(-c2c3nc(c(-c4cc(S(=O)(=O)[O-])ccc4F)c4ccc([nH]4)c(-c4cc(S(=O)(=O)[O-])ccc4F)c4nc(c(-c5cc(S(=O)(=O)[O-])ccc5F)c5ccc2[nH]5)C=C4)C=C3)cc1
REMARK SMILES IDX 21 1 20 2 19 3 18 4 16 5 17 6 2 8 1 9 3 10 4 11 5 12 14 13
REMARK SMILES IDX 6 14 12 15 7 16 11 17 13 18 8 19 10 20 9 21 15 22 22 25
REMARK SMILES IDX 23 26 24 27 25 28 26 29 27 31 28 32 29 33 90 34 30 35 89 36
REMARK SMILES IDX 31 37 32 38 33 39 83 40 34 41 88 42 82 43 84 44 35 45 87 46
REMARK SMILES IDX 81 47 80 48 36 50 68 51 48 52 67 53 49 54 52 55 66 56 85 57
REMARK SMILES IDX 50 58 51 59 65 61 86 62 53 63 37 64 38 65 46 66 39 67 45 68
REMARK SMILES IDX 47 69 44 70 40 71 41 72 42 73 43 74 69 75 70 76 78 77 71 78
REMARK SMILES IDX 77 79 79 80 76 81 72 82 73 83 74 84 75 85 54 86 55 87 63 88
REMARK SMILES IDX 56 89 62 90 64 91 61 92 57 93 58 94 59 95 60 96
REMARK H PARENT 18 7 15 23 15 24 25 30 84 49 52 60
REMARK Flexibility Score: inf
ROOT
ATOM      1  C   UNL A   1      32.655  29.261  26.670  1.00  0.00     0.002 C 
ENDROOT
BRANCH   1   2
ATOM      2  C   UNL A   1      31.781  28.083  27.117  1.00  0.00     0.021 C 
BRANCH   2   3
ATOM      3  C   UNL A   1      32.141  26.767  26.433  1.00  0.00     0.116 C 
BRANCH   3   4
ATOM      4  N   UNL A   1      31.257  25.705  26.879  1.00  0.00    -0.355 N 
ATOM      5  C   UNL A   1      31.286  24.366  26.629  1.00  0.00     0.233 C 
ATOM      6  O   UNL A   1      30.384  23.678  27.120  1.00  0.00    -0.274 OA
ATOM      7  H   UNL A   1      30.516  26.001  27.456  1.00  0.00     0.163 HD
BRANCH   5   8
ATOM      8  C   UNL A   1      32.392  23.721  25.790  1.00  0.00     0.141 C 
ATOM      9  C   UNL A   1      33.064  22.547  26.496  1.00  0.00     0.030 C 
BRANCH   8  10
ATOM     10  S   UNL A   1      31.713  23.408  24.121  1.00  0.00    -0.073 SA
BRANCH  10  11
ATOM     11  C   UNL A   1      31.550  25.020  23.480  1.00  0.00     0.191 A 
ATOM     12  N   UNL A   1      30.396  25.586  23.606  1.00  0.00    -0.222 NA
ATOM     13  N   UNL A   1      32.673  25.649  22.955  1.00  0.00    -0.202 N 
ATOM     14  C   UNL A   1      30.269  26.925  23.215  1.00  0.00     0.079 A 
ATOM     15  C   UNL A   1      32.639  26.986  22.558  1.00  0.00     0.280 A 
ATOM     16  C   UNL A   1      29.038  27.563  23.386  1.00  0.00     0.029 A 
ATOM     17  C   UNL A   1      31.338  27.664  22.703  1.00  0.00     0.068 A 
ATOM     18  O   UNL A   1      33.625  27.595  22.141  1.00  0.00    -0.267 OA
ATOM     19  C   UNL A   1      28.881  28.912  23.056  1.00  0.00     0.002 A 
ATOM     20  C   UNL A   1      31.191  29.014  22.365  1.00  0.00     0.016 A 
ATOM     21  C   UNL A   1      29.958  29.638  22.545  1.00  0.00     0.001 A 
BRANCH  13  22
ATOM     22  N   UNL A   1      33.930  24.971  22.825  1.00  0.00    -0.334 N 
ATOM     23  H   UNL A   1      34.736  25.343  23.251  1.00  0.00     0.178 HD
ATOM     24  H   UNL A   1      33.987  24.133  22.312  1.00  0.00     0.178 HD
ENDBRANCH  13  22
ENDBRANCH  10  11
ENDBRANCH   8  10
ENDBRANCH   5   8
ENDBRANCH   3   4
ENDBRANCH   2   3
ENDBRANCH   1   2
BRANCH   1  25
ATOM     25  C   UNL A   1      31.924  30.327  25.847  1.00  0.00     0.002 C 
BRANCH  25  26
ATOM     26  C   UNL A   1      31.632  31.630  26.596  1.00  0.00     0.021 C 
BRANCH  26  27
ATOM     27  C   UNL A   1      32.847  32.249  27.278  1.00  0.00     0.116 C 
BRANCH  27  28
ATOM     28  N   UNL A   1      32.655  33.667  27.535  1.00  0.00    -0.352 N 
ATOM     29  C   UNL A   1      33.232  34.459  28.494  1.00  0.00     0.251 C 
ATOM     30  H   UNL A   1      32.023  34.124  26.935  1.00  0.00     0.163 HD
ATOM     31  O   UNL A   1      32.781  35.582  28.711  1.00  0.00    -0.269 OA
BRANCH  29  32
ATOM     32  C   UNL A   1      34.376  33.946  29.278  1.00  0.00     0.039 A 
ATOM     33  C   UNL A   1      34.133  33.068  30.337  1.00  0.00     0.014 A 
ATOM     34  C   UNL A   1      35.685  34.329  28.967  1.00  0.00     0.014 A 
ATOM     35  C   UNL A   1      35.208  32.528  31.045  1.00  0.00     0.010 A 
ATOM     36  C   UNL A   1      36.756  33.730  29.624  1.00  0.00     0.010 A 
ATOM     37  C   UNL A   1      36.530  32.825  30.672  1.00  0.00    -0.014 A 
BRANCH  37  38
ATOM     38  C   UNL A   1      37.683  32.193  31.365  1.00  0.00     0.031 A 
ATOM     39  C   UNL A   1      38.433  31.063  30.713  1.00  0.00     0.074 A 
ATOM     40  C   UNL A   1      38.020  32.604  32.604  1.00  0.00     0.049 A 
ATOM     41  N   UNL A   1      39.425  30.350  31.180  1.00  0.00    -0.248 NA
ATOM     42  C   UNL A   1      37.990  30.667  29.367  1.00  0.00     0.031 C 
ATOM     43  C   UNL A   1      37.344  33.665  33.354  1.00  0.00     0.029 A 
ATOM     44  N   UNL A   1      39.011  32.179  33.454  1.00  0.00    -0.354 N 
ATOM     45  C   UNL A   1      39.721  29.416  30.192  1.00  0.00     0.074 A 
ATOM     46  C   UNL A   1      38.757  29.614  29.129  1.00  0.00     0.031 C 
ATOM     47  C   UNL A   1      37.958  33.829  34.536  1.00  0.00     0.029 A 
ATOM     48  C   UNL A   1      39.036  32.852  34.655  1.00  0.00     0.049 A 
ATOM     49  H   UNL A   1      39.644  31.461  33.227  1.00  0.00     0.167 HD
ATOM     50  C   UNL A   1      40.718  28.497  30.164  1.00  0.00     0.034 A 
ATOM     51  C   UNL A   1      39.827  32.691  35.735  1.00  0.00     0.034 A 
ATOM     52  C   UNL A   1      41.672  28.317  31.231  1.00  0.00     0.049 A 
ATOM     53  C   UNL A   1      40.901  31.633  35.697  1.00  0.00     0.074 A 
ATOM     54  C   UNL A   1      42.749  27.452  31.286  1.00  0.00     0.029 A 
ATOM     55  N   UNL A   1      41.656  29.006  32.439  1.00  0.00    -0.354 N 
ATOM     56  N   UNL A   1      41.200  30.792  34.733  1.00  0.00    -0.248 NA
ATOM     57  C   UNL A   1      41.751  31.510  36.888  1.00  0.00     0.031 C 
ATOM     58  C   UNL A   1      43.335  27.558  32.553  1.00  0.00     0.029 A 
ATOM     59  C   UNL A   1      42.682  28.555  33.258  1.00  0.00     0.049 A 
ATOM     60  H   UNL A   1      41.011  29.710  32.678  1.00  0.00     0.167 HD
ATOM     61  C   UNL A   1      42.295  30.064  35.191  1.00  0.00     0.074 A 
ATOM     62  C   UNL A   1      42.611  30.576  36.508  1.00  0.00     0.031 C 
ATOM     63  C   UNL A   1      42.980  29.065  34.577  1.00  0.00     0.034 A 
BRANCH  50  64
ATOM     64  C   UNL A   1      40.804  27.599  28.951  1.00  0.00     0.023 A 
ATOM     65  C   UNL A   1      41.776  27.793  27.953  1.00  0.00     0.031 A 
ATOM     66  C   UNL A   1      39.889  26.545  28.778  1.00  0.00     0.131 A 
ATOM     67  C   UNL A   1      41.762  27.000  26.797  1.00  0.00     0.055 A 
ATOM     68  C   UNL A   1      39.935  25.703  27.665  1.00  0.00     0.041 A 
ATOM     69  F   UNL A   1      38.922  26.322  29.683  1.00  0.00    -0.206 F 
ATOM     70  C   UNL A   1      40.867  25.937  26.658  1.00  0.00     0.022 A 
BRANCH  67  71
ATOM     71  S   UNL A   1      42.830  27.474  25.409  1.00  0.00     0.124 S 
ATOM     72  O   UNL A   1      42.919  26.221  24.664  1.00  0.00    -0.237 OA
ATOM     73  O   UNL A   1      42.067  28.542  24.775  1.00  0.00    -0.237 OA
ATOM     74  O   UNL A   1      44.071  27.893  26.059  1.00  0.00    -0.744 OA
ENDBRANCH  67  71
ENDBRANCH  50  64
BRANCH  51  75
ATOM     75  C   UNL A   1      39.630  33.536  36.949  1.00  0.00     0.023 A 
ATOM     76  C   UNL A   1      40.426  34.670  37.179  1.00  0.00     0.031 A 
ATOM     77  C   UNL A   1      38.674  33.195  37.922  1.00  0.00     0.131 A 
ATOM     78  C   UNL A   1      40.286  35.392  38.375  1.00  0.00     0.055 A 
ATOM     79  C   UNL A   1      38.497  33.951  39.082  1.00  0.00     0.041 A 
ATOM     80  F   UNL A   1      37.886  32.121  37.753  1.00  0.00    -0.206 F 
ATOM     81  C   UNL A   1      39.317  35.049  39.320  1.00  0.00     0.022 A 
BRANCH  78  82
ATOM     82  S   UNL A   1      41.462  36.728  38.724  1.00  0.00     0.124 S 
ATOM     83  O   UNL A   1      42.082  36.925  37.419  1.00  0.00    -0.237 OA
ATOM     84  O   UNL A   1      40.579  37.795  39.184  1.00  0.00    -0.237 OA
ATOM     85  O   UNL A   1      42.332  36.155  39.749  1.00  0.00    -0.744 OA
ENDBRANCH  78  82
ENDBRANCH  51  75
BRANCH  63  86
ATOM     86  C   UNL A   1      44.172  28.496  35.310  1.00  0.00     0.023 A 
ATOM     87  C   UNL A   1      44.085  27.313  36.064  1.00  0.00     0.031 A 
ATOM     88  C   UNL A   1      45.413  29.157  35.260  1.00  0.00     0.131 A 
ATOM     89  C   UNL A   1      45.200  26.861  36.787  1.00  0.00     0.055 A 
ATOM     90  C   UNL A   1      46.537  28.665  35.925  1.00  0.00     0.041 A 
ATOM     91  F   UNL A   1      45.555  30.294  34.560  1.00  0.00    -0.206 F 
ATOM     92  C   UNL A   1      46.430  27.518  36.706  1.00  0.00     0.022 A 
BRANCH  89  93
ATOM     93  S   UNL A   1      44.992  25.459  37.919  1.00  0.00     0.124 S 
ATOM     94  O   UNL A   1      44.998  26.118  39.221  1.00  0.00    -0.237 OA
ATOM     95  O   UNL A   1      43.715  24.900  37.493  1.00  0.00    -0.237 OA
ATOM     96  O   UNL A   1      46.158  24.620  37.644  1.00  0.00    -0.744 OA
ENDBRANCH  89  93
ENDBRANCH  63  86
ENDBRANCH  37  38
ENDBRANCH  29  32
ENDBRANCH  27  28
ENDBRANCH  26  27
ENDBRANCH  25  26
ENDBRANCH   1  25
TORSDOF 19
ENDMDL
MODEL 2
REMARK VINA RESULT:     -11.3      1.345      3.048
REMARK SMILES C[C@@H](Sc1nc2ccccc2c(=O)n1N)C(=O)NCCCCCCNC(=O)c1ccc(-c2c3nc(c(-c4cc(S(=O)(=O)[O-])ccc4F)c4ccc([nH]4)c(-c4cc(S(=O)(=O)[O-])ccc4F)c4nc(c(-c5cc(S(=O)(=O)[O-])ccc5F)c5ccc2[nH]5)C=C4)C=C3)cc1
REMARK SMILES IDX 21 1 20 2 19 3 18 4 16 5 17 6 2 8 1 9 3 10 4 11 5 12 14 13
REMARK SMILES IDX 6 14 12 15 7 16 11 17 13 18 8 19 10 20 9 21 15 22 22 25
REMARK SMILES IDX 23 26 24 27 25 28 26 29 27 31 28 32 29 33 90 34 30 35 89 36
REMARK SMILES IDX 31 37 32 38 33 39 83 40 34 41 88 42 82 43 84 44 35 45 87 46
REMARK SMILES IDX 81 47 80 48 36 50 68 51 48 52 67 53 49 54 52 55 66 56 85 57
REMARK SMILES IDX 50 58 51 59 65 61 86 62 53 63 37 64 38 65 46 66 39 67 45 68
REMARK SMILES IDX 47 69 44 70 40 71 41 72 42 73 43 74 69 75 70 76 78 77 71 78
REMARK SMILES IDX 77 79 79 80 76 81 72 82 73 83 74 84 75 85 54 86 55 87 63 88
REMARK SMILES IDX 56 89 62 90 64 91 61 92 57 93 58 94 59 95 60 96
REMARK H PARENT 18 7 15 23 15 24 25 30 84 49 52 60
REMARK Flexibility Score: inf
ROOT
ATOM      1  C   UNL A   1      32.689  30.071  26.798  1.00  0.00     0.002 C 
ENDROOT
BRANCH   1   2
ATOM      2  C   UNL A   1      32.590  28.546  26.668  1.00  0.00     0.021 C 
BRANCH   2   3
ATOM      3  C   UNL A   1      33.800  27.915  25.984  1.00  0.00     0.116 C 
BRANCH   3   4
ATOM      4  N   UNL A   1      33.919  28.394  24.619  1.00  0.00    -0.355 N 
ATOM      5  C   UNL A   1      33.346  27.941  23.470  1.00  0.00     0.233 C 
ATOM      6  O   UNL A   1      33.640  28.524  22.420  1.00  0.00    -0.274 OA
ATOM      7  H   UNL A   1      34.509  29.173  24.506  1.00  0.00     0.163 HD
BRANCH   5   8
ATOM      8  C   UNL A   1      32.362  26.768  23.461  1.00  0.00     0.141 C 
ATOM      9  C   UNL A   1      30.914  27.205  23.658  1.00  0.00     0.030 C 
BRANCH   8  10
ATOM     10  S   UNL A   1      32.728  25.746  21.988  1.00  0.00    -0.073 SA
BRANCH  10  11
ATOM     11  C   UNL A   1      33.301  24.263  22.700  1.00  0.00     0.191 A 
ATOM     12  N   UNL A   1      34.580  24.127  22.822  1.00  0.00    -0.222 NA
ATOM     13  N   UNL A   1      32.371  23.347  23.181  1.00  0.00    -0.202 N 
ATOM     14  C   UNL A   1      35.064  23.003  23.505  1.00  0.00     0.079 A 
ATOM     15  C   UNL A   1      32.767  22.211  23.886  1.00  0.00     0.280 A 
ATOM     16  C   UNL A   1      36.443  22.867  23.683  1.00  0.00     0.029 A 
ATOM     17  C   UNL A   1      34.221  22.036  24.055  1.00  0.00     0.068 A 
ATOM     18  O   UNL A   1      31.973  21.407  24.377  1.00  0.00    -0.267 OA
ATOM     19  C   UNL A   1      36.966  21.787  24.400  1.00  0.00     0.002 A 
ATOM     20  C   UNL A   1      34.734  20.949  24.772  1.00  0.00     0.016 A 
ATOM     21  C   UNL A   1      36.111  20.828  24.945  1.00  0.00     0.001 A 
BRANCH  13  22
ATOM     22  N   UNL A   1      30.960  23.538  23.008  1.00  0.00    -0.334 N 
ATOM     23  H   UNL A   1      30.627  24.314  22.501  1.00  0.00     0.178 HD
ATOM     24  H   UNL A   1      30.325  22.894  23.394  1.00  0.00     0.178 HD
ENDBRANCH  13  22
ENDBRANCH  10  11
ENDBRANCH   8  10
ENDBRANCH   5   8
ENDBRANCH   3   4
ENDBRANCH   2   3
ENDBRANCH   1   2
BRANCH   1  25
ATOM     25  C   UNL A   1      31.423  30.833  26.393  1.00  0.00     0.002 C 
BRANCH  25  26
ATOM     26  C   UNL A   1      31.455  32.335  26.688  1.00  0.00     0.021 C 
BRANCH  26  27
ATOM     27  C   UNL A   1      32.807  32.853  27.168  1.00  0.00     0.116 C 
BRANCH  27  28
ATOM     28  N   UNL A   1      32.702  34.190  27.731  1.00  0.00    -0.352 N 
ATOM     29  C   UNL A   1      33.350  34.726  28.814  1.00  0.00     0.251 C 
ATOM     30  H   UNL A   1      32.079  34.796  27.269  1.00  0.00     0.163 HD
ATOM     31  O   UNL A   1      32.970  35.796  29.285  1.00  0.00    -0.269 OA
BRANCH  29  32
ATOM     32  C   UNL A   1      34.487  34.002  29.421  1.00  0.00     0.039 A 
ATOM     33  C   UNL A   1      35.788  34.361  29.064  1.00  0.00     0.014 A 
ATOM     34  C   UNL A   1      34.269  32.974  30.344  1.00  0.00     0.014 A 
ATOM     35  C   UNL A   1      36.872  33.728  29.676  1.00  0.00     0.010 A 
ATOM     36  C   UNL A   1      35.350  32.399  31.008  1.00  0.00     0.010 A 
ATOM     37  C   UNL A   1      36.662  32.768  30.680  1.00  0.00    -0.014 A 
BRANCH  37  38
ATOM     38  C   UNL A   1      37.807  32.146  31.397  1.00  0.00     0.031 A 
ATOM     39  C   UNL A   1      38.595  31.040  30.749  1.00  0.00     0.074 A 
ATOM     40  C   UNL A   1      38.102  32.544  32.650  1.00  0.00     0.049 A 
ATOM     41  N   UNL A   1      39.586  30.337  31.233  1.00  0.00    -0.248 NA
ATOM     42  C   UNL A   1      38.197  30.656  29.386  1.00  0.00     0.031 C 
ATOM     43  C   UNL A   1      37.387  33.581  33.396  1.00  0.00     0.029 A 
ATOM     44  N   UNL A   1      39.076  32.124  33.522  1.00  0.00    -0.354 N 
ATOM     45  C   UNL A   1      39.926  29.424  30.240  1.00  0.00     0.074 A 
ATOM     46  C   UNL A   1      38.989  29.620  29.154  1.00  0.00     0.031 C 
ATOM     47  C   UNL A   1      37.964  33.738  34.598  1.00  0.00     0.029 A 
ATOM     48  C   UNL A   1      39.056  32.779  34.732  1.00  0.00     0.049 A 
ATOM     49  H   UNL A   1      39.728  31.420  33.301  1.00  0.00     0.167 HD
ATOM     50  C   UNL A   1      40.940  28.522  30.227  1.00  0.00     0.034 A 
ATOM     51  C   UNL A   1      39.819  32.615  35.831  1.00  0.00     0.034 A 
ATOM     52  C   UNL A   1      41.867  28.343  31.318  1.00  0.00     0.049 A 
ATOM     53  C   UNL A   1      40.913  31.578  35.808  1.00  0.00     0.074 A 
ATOM     54  C   UNL A   1      42.958  27.496  31.391  1.00  0.00     0.029 A 
ATOM     55  N   UNL A   1      41.805  29.013  32.534  1.00  0.00    -0.354 N 
ATOM     56  N   UNL A   1      41.253  30.756  34.840  1.00  0.00    -0.248 NA
ATOM     57  C   UNL A   1      41.731  31.451  37.021  1.00  0.00     0.031 C 
ATOM     58  C   UNL A   1      43.506  27.593  32.674  1.00  0.00     0.029 A 
ATOM     59  C   UNL A   1      42.815  28.568  33.375  1.00  0.00     0.049 A 
ATOM     60  H   UNL A   1      41.142  29.702  32.766  1.00  0.00     0.167 HD
ATOM     61  C   UNL A   1      42.348  30.041  35.318  1.00  0.00     0.074 A 
ATOM     62  C   UNL A   1      42.619  30.538  36.651  1.00  0.00     0.031 C 
ATOM     63  C   UNL A   1      43.068  29.064  34.709  1.00  0.00     0.034 A 
BRANCH  50  64
ATOM     64  C   UNL A   1      41.075  27.645  29.003  1.00  0.00     0.023 A 
ATOM     65  C   UNL A   1      42.063  27.878  28.030  1.00  0.00     0.031 A 
ATOM     66  C   UNL A   1      40.193  26.569  28.796  1.00  0.00     0.131 A 
ATOM     67  C   UNL A   1      42.095  27.102  26.863  1.00  0.00     0.055 A 
ATOM     68  C   UNL A   1      40.286  25.744  27.673  1.00  0.00     0.041 A 
ATOM     69  F   UNL A   1      39.214  26.308  29.677  1.00  0.00    -0.206 F 
ATOM     70  C   UNL A   1      41.232  26.017  26.690  1.00  0.00     0.022 A 
BRANCH  67  71
ATOM     71  S   UNL A   1      43.180  27.624  25.505  1.00  0.00     0.124 S 
ATOM     72  O   UNL A   1      44.130  28.486  26.203  1.00  0.00    -0.237 OA
ATOM     73  O   UNL A   1      43.706  26.356  25.016  1.00  0.00    -0.237 OA
ATOM     74  O   UNL A   1      42.275  28.319  24.592  1.00  0.00    -0.744 OA
ENDBRANCH  67  71
ENDBRANCH  50  64
BRANCH  51  75
ATOM     75  C   UNL A   1      39.574  33.438  37.052  1.00  0.00     0.023 A 
ATOM     76  C   UNL A   1      40.304  34.614  37.291  1.00  0.00     0.031 A 
ATOM     77  C   UNL A   1      38.637  33.036  38.020  1.00  0.00     0.131 A 
ATOM     78  C   UNL A   1      40.122  35.317  38.493  1.00  0.00     0.055 A 
ATOM     79  C   UNL A   1      38.416  33.772  39.186  1.00  0.00     0.041 A 
ATOM     80  F   UNL A   1      37.911  31.920  37.842  1.00  0.00    -0.206 F 
ATOM     81  C   UNL A   1      39.172  34.913  39.434  1.00  0.00     0.022 A 
BRANCH  78  82
ATOM     82  S   UNL A   1      41.220  36.715  38.854  1.00  0.00     0.124 S 
ATOM     83  O   UNL A   1      41.975  36.827  37.611  1.00  0.00    -0.237 OA
ATOM     84  O   UNL A   1      40.267  37.786  39.127  1.00  0.00    -0.237 OA
ATOM     85  O   UNL A   1      41.986  36.254  40.012  1.00  0.00    -0.744 OA
ENDBRANCH  78  82
ENDBRANCH  51  75
BRANCH  63  86
ATOM     86  C   UNL A   1      44.249  28.504  35.468  1.00  0.00     0.023 A 
ATOM     87  C   UNL A   1      44.108  27.462  36.400  1.00  0.00     0.031 A 
ATOM     88  C   UNL A   1      45.536  29.033  35.258  1.00  0.00     0.131 A 
ATOM     89  C   UNL A   1      45.221  27.023  37.133  1.00  0.00     0.055 A 
ATOM     90  C   UNL A   1      46.652  28.545  35.939  1.00  0.00     0.041 A 
ATOM     91  F   UNL A   1      45.732  30.032  34.384  1.00  0.00    -0.206 F 
ATOM     92  C   UNL A   1      46.496  27.544  36.894  1.00  0.00     0.022 A 
BRANCH  89  93
ATOM     93  S   UNL A   1      44.964  25.835  38.479  1.00  0.00     0.124 S 
ATOM     94  O   UNL A   1      44.177  24.798  37.821  1.00  0.00    -0.237 OA
ATOM     95  O   UNL A   1      46.329  25.469  38.839  1.00  0.00    -0.237 OA
ATOM     96  O   UNL A   1      44.246  26.612  39.489  1.00  0.00    -0.744 OA
ENDBRANCH  89  93
ENDBRANCH  63  86
ENDBRANCH  37  38
ENDBRANCH  29  32
ENDBRANCH  27  28
ENDBRANCH  26  27
ENDBRANCH  25  26
ENDBRANCH   1  25
TORSDOF 19
ENDMDL
MODEL 3
REMARK VINA RESULT:     -11.3      2.262      3.545
REMARK SMILES C[C@@H](Sc1nc2ccccc2c(=O)n1N)C(=O)NCCCCCCNC(=O)c1ccc(-c2c3nc(c(-c4cc(S(=O)(=O)[O-])ccc4F)c4ccc([nH]4)c(-c4cc(S(=O)(=O)[O-])ccc4F)c4nc(c(-c5cc(S(=O)(=O)[O-])ccc5F)c5ccc2[nH]5)C=C4)C=C3)cc1
REMARK SMILES IDX 21 1 20 2 19 3 18 4 16 5 17 6 2 8 1 9 3 10 4 11 5 12 14 13
REMARK SMILES IDX 6 14 12 15 7 16 11 17 13 18 8 19 10 20 9 21 15 22 22 25
REMARK SMILES IDX 23 26 24 27 25 28 26 29 27 31 28 32 29 33 90 34 30 35 89 36
REMARK SMILES IDX 31 37 32 38 33 39 83 40 34 41 88 42 82 43 84 44 35 45 87 46
REMARK SMILES IDX 81 47 80 48 36 50 68 51 48 52 67 53 49 54 52 55 66 56 85 57
REMARK SMILES IDX 50 58 51 59 65 61 86 62 53 63 37 64 38 65 46 66 39 67 45 68
REMARK SMILES IDX 47 69 44 70 40 71 41 72 42 73 43 74 69 75 70 76 78 77 71 78
REMARK SMILES IDX 77 79 79 80 76 81 72 82 73 83 74 84 75 85 54 86 55 87 63 88
REMARK SMILES IDX 56 89 62 90 64 91 61 92 57 93 58 94 59 95 60 96
REMARK H PARENT 18 7 15 23 15 24 25 30 84 49 52 60
REMARK Flexibility Score: inf
ROOT
ATOM      1  C   UNL A   1      32.877  29.730  26.320  1.00  0.00     0.002 C 
ENDROOT
BRANCH   1   2
ATOM      2  C   UNL A   1      32.655  28.330  26.905  1.00  0.00     0.021 C 
BRANCH   2   3
ATOM      3  C   UNL A   1      32.644  27.226  25.851  1.00  0.00     0.116 C 
BRANCH   3   4
ATOM      4  N   UNL A   1      33.430  27.619  24.696  1.00  0.00    -0.355 N 
ATOM      5  C   UNL A   1      33.190  27.457  23.365  1.00  0.00     0.233 C 
ATOM      6  O   UNL A   1      34.050  27.870  22.578  1.00  0.00    -0.274 OA
ATOM      7  H   UNL A   1      34.274  28.079  24.909  1.00  0.00     0.163 HD
BRANCH   5   8
ATOM      8  C   UNL A   1      31.905  26.807  22.845  1.00  0.00     0.141 C 
ATOM      9  C   UNL A   1      30.806  27.821  22.544  1.00  0.00     0.030 C 
BRANCH   8  10
ATOM     10  S   UNL A   1      32.368  25.659  21.498  1.00  0.00    -0.073 SA
BRANCH  10  11
ATOM     11  C   UNL A   1      32.999  24.294  22.378  1.00  0.00     0.191 A 
ATOM     12  N   UNL A   1      34.284  24.157  22.403  1.00  0.00    -0.222 NA
ATOM     13  N   UNL A   1      32.115  23.480  23.077  1.00  0.00    -0.202 N 
ATOM     14  C   UNL A   1      34.826  23.143  23.205  1.00  0.00     0.079 A 
ATOM     15  C   UNL A   1      32.571  22.459  23.911  1.00  0.00     0.280 A 
ATOM     16  C   UNL A   1      36.215  23.013  23.276  1.00  0.00     0.029 A 
ATOM     17  C   UNL A   1      34.034  22.287  23.973  1.00  0.00     0.068 A 
ATOM     18  O   UNL A   1      31.824  21.755  24.591  1.00  0.00    -0.267 OA
ATOM     19  C   UNL A   1      36.799  22.047  24.102  1.00  0.00     0.002 A 
ATOM     20  C   UNL A   1      34.607  21.315  24.800  1.00  0.00     0.016 A 
ATOM     21  C   UNL A   1      35.995  21.199  24.864  1.00  0.00     0.001 A 
BRANCH  13  22
ATOM     22  N   UNL A   1      30.695  23.666  23.005  1.00  0.00    -0.334 N 
ATOM     23  H   UNL A   1      30.178  23.233  22.288  1.00  0.00     0.178 HD
ATOM     24  H   UNL A   1      30.237  24.225  23.673  1.00  0.00     0.178 HD
ENDBRANCH  13  22
ENDBRANCH  10  11
ENDBRANCH   8  10
ENDBRANCH   5   8
ENDBRANCH   3   4
ENDBRANCH   2   3
ENDBRANCH   1   2
BRANCH   1  25
ATOM     25  C   UNL A   1      31.598  30.457  25.891  1.00  0.00     0.002 C 
BRANCH  25  26
ATOM     26  C   UNL A   1      31.406  31.842  26.515  1.00  0.00     0.021 C 
BRANCH  26  27
ATOM     27  C   UNL A   1      32.658  32.415  27.171  1.00  0.00     0.116 C 
BRANCH  27  28
ATOM     28  N   UNL A   1      32.504  33.827  27.483  1.00  0.00    -0.352 N 
ATOM     29  C   UNL A   1      33.128  34.572  28.450  1.00  0.00     0.251 C 
ATOM     30  H   UNL A   1      31.861  34.317  26.921  1.00  0.00     0.163 HD
ATOM     31  O   UNL A   1      32.707  35.695  28.721  1.00  0.00    -0.269 OA
BRANCH  29  32
ATOM     32  C   UNL A   1      34.287  34.010  29.176  1.00  0.00     0.039 A 
ATOM     33  C   UNL A   1      34.069  33.021  30.138  1.00  0.00     0.014 A 
ATOM     34  C   UNL A   1      35.584  34.456  28.906  1.00  0.00     0.014 A 
ATOM     35  C   UNL A   1      35.159  32.438  30.787  1.00  0.00     0.010 A 
ATOM     36  C   UNL A   1      36.672  33.819  29.498  1.00  0.00     0.010 A 
ATOM     37  C   UNL A   1      36.471  32.805  30.446  1.00  0.00    -0.014 A 
BRANCH  37  38
ATOM     38  C   UNL A   1      37.642  32.134  31.070  1.00  0.00     0.031 A 
ATOM     39  C   UNL A   1      38.416  31.094  30.305  1.00  0.00     0.074 A 
ATOM     40  C   UNL A   1      37.974  32.425  32.344  1.00  0.00     0.049 A 
ATOM     41  N   UNL A   1      39.426  30.362  30.696  1.00  0.00    -0.248 NA
ATOM     42  C   UNL A   1      37.977  30.826  28.927  1.00  0.00     0.031 C 
ATOM     43  C   UNL A   1      37.276  33.387  33.198  1.00  0.00     0.029 A 
ATOM     44  N   UNL A   1      38.978  31.940  33.145  1.00  0.00    -0.354 N 
ATOM     45  C   UNL A   1      39.741  29.540  29.618  1.00  0.00     0.074 A 
ATOM     46  C   UNL A   1      38.768  29.821  28.583  1.00  0.00     0.031 C 
ATOM     47  C   UNL A   1      37.890  33.445  34.391  1.00  0.00     0.029 A 
ATOM     48  C   UNL A   1      38.991  32.488  34.408  1.00  0.00     0.049 A 
ATOM     49  H   UNL A   1      39.627  31.264  32.845  1.00  0.00     0.167 HD
ATOM     50  C   UNL A   1      40.759  28.652  29.495  1.00  0.00     0.034 A 
ATOM     51  C   UNL A   1      39.790  32.237  35.465  1.00  0.00     0.034 A 
ATOM     52  C   UNL A   1      41.721  28.388  30.538  1.00  0.00     0.049 A 
ATOM     53  C   UNL A   1      40.889  31.215  35.318  1.00  0.00     0.074 A 
ATOM     54  C   UNL A   1      42.819  27.548  30.504  1.00  0.00     0.029 A 
ATOM     55  N   UNL A   1      41.693  28.950  31.809  1.00  0.00    -0.354 N 
ATOM     56  N   UNL A   1      41.204  30.483  34.273  1.00  0.00    -0.248 NA
ATOM     57  C   UNL A   1      41.746  30.992  36.489  1.00  0.00     0.031 C 
ATOM     58  C   UNL A   1      43.406  27.538  31.773  1.00  0.00     0.029 A 
ATOM     59  C   UNL A   1      42.732  28.443  32.577  1.00  0.00     0.049 A 
ATOM     60  H   UNL A   1      41.033  29.611  32.120  1.00  0.00     0.167 HD
ATOM     61  C   UNL A   1      42.317  29.739  34.654  1.00  0.00     0.074 A 
ATOM     62  C   UNL A   1      42.627  30.122  36.015  1.00  0.00     0.031 C 
ATOM     63  C   UNL A   1      43.024  28.824  33.940  1.00  0.00     0.034 A 
BRANCH  50  64
ATOM     64  C   UNL A   1      40.861  27.884  28.197  1.00  0.00     0.023 A 
ATOM     65  C   UNL A   1      40.283  26.612  28.042  1.00  0.00     0.031 A 
ATOM     66  C   UNL A   1      41.562  28.423  27.104  1.00  0.00     0.131 A 
ATOM     67  C   UNL A   1      40.483  25.891  26.856  1.00  0.00     0.055 A 
ATOM     68  C   UNL A   1      41.683  27.737  25.894  1.00  0.00     0.041 A 
ATOM     69  F   UNL A   1      42.156  29.624  27.196  1.00  0.00    -0.206 F 
ATOM     70  C   UNL A   1      41.154  26.456  25.769  1.00  0.00     0.022 A 
BRANCH  67  71
ATOM     71  S   UNL A   1      39.985  24.147  26.809  1.00  0.00     0.124 S 
ATOM     72  O   UNL A   1      39.728  23.876  28.221  1.00  0.00    -0.237 OA
ATOM     73  O   UNL A   1      38.816  24.176  25.939  1.00  0.00    -0.237 OA
ATOM     74  O   UNL A   1      41.158  23.471  26.257  1.00  0.00    -0.744 OA
ENDBRANCH  67  71
ENDBRANCH  50  64
BRANCH  51  75
ATOM     75  C   UNL A   1      39.578  32.949  36.759  1.00  0.00     0.023 A 
ATOM     76  C   UNL A   1      38.695  32.446  37.727  1.00  0.00     0.031 A 
ATOM     77  C   UNL A   1      40.223  34.170  37.028  1.00  0.00     0.131 A 
ATOM     78  C   UNL A   1      38.441  33.184  38.894  1.00  0.00     0.055 A 
ATOM     79  C   UNL A   1      40.014  34.870  38.217  1.00  0.00     0.041 A 
ATOM     80  F   UNL A   1      41.079  34.697  36.137  1.00  0.00    -0.206 F 
ATOM     81  C   UNL A   1      39.106  34.385  39.152  1.00  0.00     0.022 A 
BRANCH  78  82
ATOM     82  S   UNL A   1      37.148  32.600  40.025  1.00  0.00     0.124 S 
ATOM     83  O   UNL A   1      37.118  33.669  41.017  1.00  0.00    -0.237 OA
ATOM     84  O   UNL A   1      35.990  32.511  39.141  1.00  0.00    -0.237 OA
ATOM     85  O   UNL A   1      37.667  31.319  40.500  1.00  0.00    -0.744 OA
ENDBRANCH  78  82
ENDBRANCH  51  75
BRANCH  63  86
ATOM     86  C   UNL A   1      44.232  28.212  34.611  1.00  0.00     0.023 A 
ATOM     87  C   UNL A   1      44.120  27.124  35.493  1.00  0.00     0.031 A 
ATOM     88  C   UNL A   1      45.515  28.736  34.368  1.00  0.00     0.131 A 
ATOM     89  C   UNL A   1      45.261  26.634  36.147  1.00  0.00     0.055 A 
ATOM     90  C   UNL A   1      46.655  28.200  34.968  1.00  0.00     0.041 A 
ATOM     91  F   UNL A   1      45.682  29.779  33.538  1.00  0.00    -0.206 F 
ATOM     92  C   UNL A   1      46.530  27.152  35.875  1.00  0.00     0.022 A 
BRANCH  89  93
ATOM     93  S   UNL A   1      45.051  25.379  37.440  1.00  0.00     0.124 S 
ATOM     94  O   UNL A   1      46.219  25.614  38.283  1.00  0.00    -0.237 OA
ATOM     95  O   UNL A   1      43.762  25.740  38.020  1.00  0.00    -0.237 OA
ATOM     96  O   UNL A   1      45.065  24.119  36.699  1.00  0.00    -0.744 OA
ENDBRANCH  89  93
ENDBRANCH  63  86
ENDBRANCH  37  38
ENDBRANCH  29  32
ENDBRANCH  27  28
ENDBRANCH  26  27
ENDBRANCH  25  26
ENDBRANCH   1  25
TORSDOF 19
ENDMDL
