MODEL 1
REMARK VINA RESULT:     -12.7      0.000      0.000
REMARK SMILES Cc1cccc2nc([C@@H]3CCCC[C@@H]3C(=O)NCCCCCCNC(=O)c3ccc(-c4c5nc(c(-c6cc(S(=O)(=O)[O-])ccc6F)c6ccc([nH]6)c(-c6cc(S(=O)(=O)[O-])ccc6F)c6nc(c(-c7cc(S(=O)(=O)[O-])ccc7F)c7ccc4[nH]7)C=C6)C=C5)cc3)oc12
REMARK SMILES IDX 21 1 20 2 19 3 18 4 17 5 15 6 16 7 14 9 9 10 10 11 11 12
REMARK SMILES IDX 13 13 12 14 8 15 1 16 2 17 3 18 91 19 4 20 6 21 90 22 5 23
REMARK SMILES IDX 7 24 22 25 23 26 24 27 25 28 26 30 27 31 28 32 89 33 29 34
REMARK SMILES IDX 88 35 30 36 31 37 32 38 82 39 33 40 87 41 81 42 83 43 34 44
REMARK SMILES IDX 86 45 80 46 79 47 35 49 67 50 47 51 66 52 48 53 51 54 65 55
REMARK SMILES IDX 84 56 49 57 50 58 64 60 85 61 52 62 36 63 37 64 45 65 38 66
REMARK SMILES IDX 44 67 46 68 43 69 39 70 40 71 41 72 42 73 68 74 69 75 77 76
REMARK SMILES IDX 70 77 76 78 78 79 75 80 71 81 72 82 73 83 74 84 53 85 54 86
REMARK SMILES IDX 62 87 55 88 61 89 63 90 60 91 56 92 57 93 58 94 59 95
REMARK H PARENT 17 8 24 29 83 48 51 59
REMARK Flexibility Score: inf
ROOT
ATOM      1  C   UNL A   1      37.802  21.553  24.836  1.00  0.00     0.002 C 
ENDROOT
BRANCH   1   2
ATOM      2  C   UNL A   1      36.402  21.824  24.262  1.00  0.00     0.002 C 
BRANCH   2   3
ATOM      3  C   UNL A   1      36.042  23.300  24.044  1.00  0.00     0.021 C 
BRANCH   3   4
ATOM      4  C   UNL A   1      35.223  23.931  25.170  1.00  0.00     0.116 C 
BRANCH   4   5
ATOM      5  N   UNL A   1      34.109  24.732  24.693  1.00  0.00    -0.356 N 
ATOM      6  C   UNL A   1      33.569  24.489  23.460  1.00  0.00     0.223 C 
ATOM      7  O   UNL A   1      34.054  24.992  22.449  1.00  0.00    -0.275 OA
ATOM      8  H   UNL A   1      33.742  25.449  25.258  1.00  0.00     0.163 HD
BRANCH   6   9
ATOM      9  C   UNL A   1      32.258  23.703  23.423  1.00  0.00     0.091 C 
ATOM     10  C   UNL A   1      31.415  23.842  24.713  1.00  0.00     0.088 C 
ATOM     11  C   UNL A   1      31.814  22.850  25.815  1.00  0.00     0.014 C 
ATOM     12  C   UNL A   1      31.855  21.415  25.306  1.00  0.00     0.001 C 
ATOM     13  C   UNL A   1      32.436  22.239  22.989  1.00  0.00     0.014 C 
ATOM     14  C   UNL A   1      32.793  21.273  24.118  1.00  0.00     0.001 C 
BRANCH  10  15
ATOM     15  C   UNL A   1      31.425  25.238  25.257  1.00  0.00     0.199 A 
ATOM     16  C   UNL A   1      30.981  29.168  23.330  1.00  0.00     0.048 C 
ATOM     17  C   UNL A   1      31.290  28.726  24.723  1.00  0.00    -0.006 A 
ATOM     18  C   UNL A   1      31.566  29.669  25.735  1.00  0.00     0.007 A 
ATOM     19  C   UNL A   1      31.370  27.393  25.134  1.00  0.00     0.157 A 
ATOM     20  C   UNL A   1      31.863  29.288  27.049  1.00  0.00     0.003 A 
ATOM     21  C   UNL A   1      31.635  26.981  26.431  1.00  0.00     0.110 A 
ATOM     22  O   UNL A   1      31.226  26.264  24.367  1.00  0.00    -0.440 OA
ATOM     23  C   UNL A   1      31.889  27.939  27.419  1.00  0.00     0.032 A 
ATOM     24  N   UNL A   1      31.596  25.615  26.509  1.00  0.00    -0.213 NA
ENDBRANCH  10  15
ENDBRANCH   6   9
ENDBRANCH   4   5
ENDBRANCH   3   4
ENDBRANCH   2   3
ENDBRANCH   1   2
BRANCH   1  25
ATOM     25  C   UNL A   1      38.304  20.107  24.735  1.00  0.00     0.021 C 
BRANCH  25  26
ATOM     26  C   UNL A   1      38.870  19.583  26.042  1.00  0.00     0.116 C 
BRANCH  26  27
ATOM     27  N   UNL A   1      40.105  18.816  25.852  1.00  0.00    -0.352 N 
ATOM     28  C   UNL A   1      41.400  19.301  25.803  1.00  0.00     0.251 C 
ATOM     29  H   UNL A   1      40.000  17.844  25.746  1.00  0.00     0.163 HD
ATOM     30  O   UNL A   1      42.310  18.637  25.333  1.00  0.00    -0.269 OA
BRANCH  28  31
ATOM     31  C   UNL A   1      41.653  20.634  26.377  1.00  0.00     0.039 A 
ATOM     32  C   UNL A   1      42.260  21.663  25.650  1.00  0.00     0.014 A 
ATOM     33  C   UNL A   1      41.268  20.823  27.703  1.00  0.00     0.014 A 
ATOM     34  C   UNL A   1      42.454  22.892  26.274  1.00  0.00     0.010 A 
ATOM     35  C   UNL A   1      41.270  22.074  28.242  1.00  0.00     0.010 A 
ATOM     36  C   UNL A   1      41.963  23.071  27.574  1.00  0.00    -0.014 A 
BRANCH  36  37
ATOM     37  C   UNL A   1      42.180  24.285  28.333  1.00  0.00     0.031 A 
ATOM     38  C   UNL A   1      41.101  25.299  28.224  1.00  0.00     0.074 A 
ATOM     39  C   UNL A   1      43.136  24.318  29.286  1.00  0.00     0.049 A 
ATOM     40  N   UNL A   1      41.154  26.457  27.657  1.00  0.00    -0.248 NA
ATOM     41  C   UNL A   1      39.750  24.914  28.665  1.00  0.00     0.031 C 
ATOM     42  C   UNL A   1      44.011  23.234  29.761  1.00  0.00     0.029 A 
ATOM     43  N   UNL A   1      43.455  25.334  30.121  1.00  0.00    -0.354 N 
ATOM     44  C   UNL A   1      39.901  27.037  27.847  1.00  0.00     0.074 A 
ATOM     45  C   UNL A   1      39.033  25.973  28.286  1.00  0.00     0.031 C 
ATOM     46  C   UNL A   1      44.585  23.591  30.932  1.00  0.00     0.029 A 
ATOM     47  C   UNL A   1      44.263  24.980  31.193  1.00  0.00     0.049 A 
ATOM     48  H   UNL A   1      43.138  26.254  29.979  1.00  0.00     0.167 HD
ATOM     49  C   UNL A   1      39.722  28.389  27.839  1.00  0.00     0.034 A 
ATOM     50  C   UNL A   1      44.579  25.780  32.242  1.00  0.00     0.034 A 
ATOM     51  C   UNL A   1      40.907  29.062  27.376  1.00  0.00     0.049 A 
ATOM     52  C   UNL A   1      44.293  27.178  31.820  1.00  0.00     0.074 A 
ATOM     53  C   UNL A   1      41.586  29.114  26.177  1.00  0.00     0.029 A 
ATOM     54  N   UNL A   1      41.794  29.494  28.335  1.00  0.00    -0.354 N 
ATOM     55  N   UNL A   1      44.949  27.794  30.873  1.00  0.00    -0.248 NA
ATOM     56  C   UNL A   1      42.962  27.697  32.101  1.00  0.00     0.031 C 
ATOM     57  C   UNL A   1      42.964  29.110  26.537  1.00  0.00     0.029 A 
ATOM     58  C   UNL A   1      43.054  29.128  27.931  1.00  0.00     0.049 A 
ATOM     59  H   UNL A   1      41.566  29.977  29.162  1.00  0.00     0.167 HD
ATOM     60  C   UNL A   1      43.978  28.486  30.161  1.00  0.00     0.074 A 
ATOM     61  C   UNL A   1      42.783  28.440  31.005  1.00  0.00     0.031 C 
ATOM     62  C   UNL A   1      44.132  28.769  28.833  1.00  0.00     0.034 A 
BRANCH  49  63
ATOM     63  C   UNL A   1      38.610  29.120  28.550  1.00  0.00     0.023 A 
ATOM     64  C   UNL A   1      38.515  29.195  29.952  1.00  0.00     0.031 A 
ATOM     65  C   UNL A   1      37.727  29.948  27.827  1.00  0.00     0.131 A 
ATOM     66  C   UNL A   1      37.584  30.031  30.582  1.00  0.00     0.055 A 
ATOM     67  C   UNL A   1      36.840  30.832  28.456  1.00  0.00     0.041 A 
ATOM     68  F   UNL A   1      37.735  29.961  26.485  1.00  0.00    -0.206 F 
ATOM     69  C   UNL A   1      36.764  30.877  29.842  1.00  0.00     0.022 A 
BRANCH  66  70
ATOM     70  S   UNL A   1      37.446  30.053  32.391  1.00  0.00     0.124 S 
ATOM     71  O   UNL A   1      38.762  30.544  32.786  1.00  0.00    -0.237 OA
ATOM     72  O   UNL A   1      36.336  30.983  32.592  1.00  0.00    -0.237 OA
ATOM     73  O   UNL A   1      37.156  28.663  32.728  1.00  0.00    -0.744 OA
ENDBRANCH  66  70
ENDBRANCH  49  63
BRANCH  50  74
ATOM     74  C   UNL A   1      44.569  25.375  33.669  1.00  0.00     0.023 A 
ATOM     75  C   UNL A   1      43.416  25.587  34.450  1.00  0.00     0.031 A 
ATOM     76  C   UNL A   1      45.763  25.083  34.351  1.00  0.00     0.131 A 
ATOM     77  C   UNL A   1      43.487  25.567  35.851  1.00  0.00     0.055 A 
ATOM     78  C   UNL A   1      45.828  25.043  35.750  1.00  0.00     0.041 A 
ATOM     79  F   UNL A   1      46.905  24.898  33.671  1.00  0.00    -0.206 F 
ATOM     80  C   UNL A   1      44.689  25.303  36.508  1.00  0.00     0.022 A 
BRANCH  77  81
ATOM     81  S   UNL A   1      42.019  25.961  36.840  1.00  0.00     0.124 S 
ATOM     82  O   UNL A   1      41.292  24.694  36.836  1.00  0.00    -0.237 OA
ATOM     83  O   UNL A   1      42.614  26.341  38.115  1.00  0.00    -0.237 OA
ATOM     84  O   UNL A   1      41.383  27.039  36.087  1.00  0.00    -0.744 OA
ENDBRANCH  77  81
ENDBRANCH  50  74
BRANCH  62  85
ATOM     85  C   UNL A   1      45.462  28.470  28.173  1.00  0.00     0.023 A 
ATOM     86  C   UNL A   1      45.613  27.209  27.579  1.00  0.00     0.031 A 
ATOM     87  C   UNL A   1      46.624  29.249  28.344  1.00  0.00     0.131 A 
ATOM     88  C   UNL A   1      46.886  26.740  27.231  1.00  0.00     0.055 A 
ATOM     89  C   UNL A   1      47.888  28.801  27.941  1.00  0.00     0.041 A 
ATOM     90  F   UNL A   1      46.591  30.421  28.983  1.00  0.00    -0.206 F 
ATOM     91  C   UNL A   1      48.026  27.532  27.397  1.00  0.00     0.022 A 
BRANCH  88  92
ATOM     92  S   UNL A   1      47.101  25.031  26.679  1.00  0.00     0.124 S 
ATOM     93  O   UNL A   1      45.848  24.410  27.099  1.00  0.00    -0.237 OA
ATOM     94  O   UNL A   1      47.267  25.194  25.236  1.00  0.00    -0.237 OA
ATOM     95  O   UNL A   1      48.290  24.576  27.393  1.00  0.00    -0.744 OA
ENDBRANCH  88  92
ENDBRANCH  62  85
ENDBRANCH  36  37
ENDBRANCH  28  31
ENDBRANCH  26  27
ENDBRANCH  25  26
ENDBRANCH   1  25
TORSDOF 17
ENDMDL
MODEL 2
REMARK VINA RESULT:     -12.5      3.386      6.978
REMARK SMILES Cc1cccc2nc([C@@H]3CCCC[C@@H]3C(=O)NCCCCCCNC(=O)c3ccc(-c4c5nc(c(-c6cc(S(=O)(=O)[O-])ccc6F)c6ccc([nH]6)c(-c6cc(S(=O)(=O)[O-])ccc6F)c6nc(c(-c7cc(S(=O)(=O)[O-])ccc7F)c7ccc4[nH]7)C=C6)C=C5)cc3)oc12
REMARK SMILES IDX 21 1 20 2 19 3 18 4 17 5 15 6 16 7 14 9 9 10 10 11 11 12
REMARK SMILES IDX 13 13 12 14 8 15 1 16 2 17 3 18 91 19 4 20 6 21 90 22 5 23
REMARK SMILES IDX 7 24 22 25 23 26 24 27 25 28 26 30 27 31 28 32 89 33 29 34
REMARK SMILES IDX 88 35 30 36 31 37 32 38 82 39 33 40 87 41 81 42 83 43 34 44
REMARK SMILES IDX 86 45 80 46 79 47 35 49 67 50 47 51 66 52 48 53 51 54 65 55
REMARK SMILES IDX 84 56 49 57 50 58 64 60 85 61 52 62 36 63 37 64 45 65 38 66
REMARK SMILES IDX 44 67 46 68 43 69 39 70 40 71 41 72 42 73 68 74 69 75 77 76
REMARK SMILES IDX 70 77 76 78 78 79 75 80 71 81 72 82 73 83 74 84 53 85 54 86
REMARK SMILES IDX 62 87 55 88 61 89 63 90 60 91 56 92 57 93 58 94 59 95
REMARK H PARENT 17 8 24 29 83 48 51 59
REMARK Flexibility Score: inf
ROOT
ATOM      1  C   UNL A   1      37.957  22.566  25.729  1.00  0.00     0.002 C 
ENDROOT
BRANCH   1   2
ATOM      2  C   UNL A   1      36.467  22.192  25.768  1.00  0.00     0.002 C 
BRANCH   2   3
ATOM      3  C   UNL A   1      35.479  23.352  25.585  1.00  0.00     0.021 C 
BRANCH   3   4
ATOM      4  C   UNL A   1      35.270  23.792  24.137  1.00  0.00     0.116 C 
BRANCH   4   5
ATOM      5  N   UNL A   1      34.057  24.567  23.939  1.00  0.00    -0.356 N 
ATOM      6  C   UNL A   1      33.287  24.363  22.828  1.00  0.00     0.223 C 
ATOM      7  O   UNL A   1      33.541  24.935  21.770  1.00  0.00    -0.275 OA
ATOM      8  H   UNL A   1      33.790  25.240  24.607  1.00  0.00     0.163 HD
BRANCH   6   9
ATOM      9  C   UNL A   1      32.021  23.524  23.009  1.00  0.00     0.091 C 
ATOM     10  C   UNL A   1      31.269  23.817  24.329  1.00  0.00     0.088 C 
ATOM     11  C   UNL A   1      31.800  23.017  25.528  1.00  0.00     0.014 C 
ATOM     12  C   UNL A   1      31.881  21.526  25.229  1.00  0.00     0.001 C 
ATOM     13  C   UNL A   1      32.247  22.021  22.778  1.00  0.00     0.014 C 
ATOM     14  C   UNL A   1      32.736  21.250  24.003  1.00  0.00     0.001 C 
BRANCH  10  15
ATOM     15  C   UNL A   1      31.242  25.277  24.663  1.00  0.00     0.199 A 
ATOM     16  C   UNL A   1      29.657  28.775  22.517  1.00  0.00     0.048 C 
ATOM     17  C   UNL A   1      30.441  28.600  23.776  1.00  0.00    -0.006 A 
ATOM     18  C   UNL A   1      30.876  29.719  24.518  1.00  0.00     0.007 A 
ATOM     19  C   UNL A   1      30.838  27.366  24.300  1.00  0.00     0.157 A 
ATOM     20  C   UNL A   1      31.616  29.589  25.699  1.00  0.00     0.003 A 
ATOM     21  C   UNL A   1      31.547  27.201  25.480  1.00  0.00     0.110 A 
ATOM     22  O   UNL A   1      30.631  26.119  23.768  1.00  0.00    -0.440 OA
ATOM     23  C   UNL A   1      31.951  28.327  26.204  1.00  0.00     0.032 A 
ATOM     24  N   UNL A   1      31.734  25.869  25.734  1.00  0.00    -0.213 NA
ENDBRANCH  10  15
ENDBRANCH   6   9
ENDBRANCH   4   5
ENDBRANCH   3   4
ENDBRANCH   2   3
ENDBRANCH   1   2
BRANCH   1  25
ATOM     25  C   UNL A   1      38.946  21.434  26.037  1.00  0.00     0.021 C 
BRANCH  25  26
ATOM     26  C   UNL A   1      40.121  21.887  26.883  1.00  0.00     0.116 C 
BRANCH  26  27
ATOM     27  N   UNL A   1      41.384  21.881  26.139  1.00  0.00    -0.352 N 
ATOM     28  C   UNL A   1      42.127  22.972  25.728  1.00  0.00     0.251 C 
ATOM     29  H   UNL A   1      41.745  20.996  25.905  1.00  0.00     0.163 HD
ATOM     30  O   UNL A   1      42.978  22.871  24.859  1.00  0.00    -0.269 OA
BRANCH  28  31
ATOM     31  C   UNL A   1      41.885  24.258  26.405  1.00  0.00     0.039 A 
ATOM     32  C   UNL A   1      40.894  25.153  25.987  1.00  0.00     0.014 A 
ATOM     33  C   UNL A   1      42.709  24.556  27.487  1.00  0.00     0.014 A 
ATOM     34  C   UNL A   1      40.735  26.344  26.691  1.00  0.00     0.010 A 
ATOM     35  C   UNL A   1      42.421  25.614  28.295  1.00  0.00     0.010 A 
ATOM     36  C   UNL A   1      41.518  26.558  27.834  1.00  0.00    -0.014 A 
BRANCH  36  37
ATOM     37  C   UNL A   1      41.477  27.793  28.588  1.00  0.00     0.031 A 
ATOM     38  C   UNL A   1      42.370  28.869  28.088  1.00  0.00     0.074 A 
ATOM     39  C   UNL A   1      40.473  28.010  29.466  1.00  0.00     0.049 A 
ATOM     40  N   UNL A   1      43.422  29.356  28.656  1.00  0.00    -0.248 NA
ATOM     41  C   UNL A   1      42.156  29.356  26.715  1.00  0.00     0.031 C 
ATOM     42  C   UNL A   1      39.298  27.174  29.756  1.00  0.00     0.029 A 
ATOM     43  N   UNL A   1      40.242  29.108  30.221  1.00  0.00    -0.354 N 
ATOM     44  C   UNL A   1      43.889  30.357  27.806  1.00  0.00     0.074 A 
ATOM     45  C   UNL A   1      43.200  30.171  26.554  1.00  0.00     0.031 C 
ATOM     46  C   UNL A   1      38.384  27.895  30.444  1.00  0.00     0.029 A 
ATOM     47  C   UNL A   1      38.977  29.171  30.792  1.00  0.00     0.049 A 
ATOM     48  H   UNL A   1      40.918  29.810  30.357  1.00  0.00     0.167 HD
ATOM     49  C   UNL A   1      44.646  31.396  28.262  1.00  0.00     0.034 A 
ATOM     50  C   UNL A   1      38.460  30.239  31.449  1.00  0.00     0.034 A 
ATOM     51  C   UNL A   1      45.070  31.167  29.618  1.00  0.00     0.049 A 
ATOM     52  C   UNL A   1      39.604  31.110  31.826  1.00  0.00     0.074 A 
ATOM     53  C   UNL A   1      45.900  30.253  30.232  1.00  0.00     0.029 A 
ATOM     54  N   UNL A   1      44.288  31.701  30.616  1.00  0.00    -0.354 N 
ATOM     55  N   UNL A   1      40.528  30.758  32.680  1.00  0.00    -0.248 NA
ATOM     56  C   UNL A   1      39.987  32.149  30.880  1.00  0.00     0.031 C 
ATOM     57  C   UNL A   1      45.253  29.940  31.462  1.00  0.00     0.029 A 
ATOM     58  C   UNL A   1      44.104  30.729  31.566  1.00  0.00     0.049 A 
ATOM     59  H   UNL A   1      43.925  32.616  30.642  1.00  0.00     0.167 HD
ATOM     60  C   UNL A   1      41.718  31.211  32.122  1.00  0.00     0.074 A 
ATOM     61  C   UNL A   1      41.312  32.117  31.047  1.00  0.00     0.031 C 
ATOM     62  C   UNL A   1      42.906  30.586  32.373  1.00  0.00     0.034 A 
BRANCH  49  63
ATOM     63  C   UNL A   1      44.733  32.755  27.613  1.00  0.00     0.023 A 
ATOM     64  C   UNL A   1      43.857  33.811  27.925  1.00  0.00     0.031 A 
ATOM     65  C   UNL A   1      45.843  33.092  26.813  1.00  0.00     0.131 A 
ATOM     66  C   UNL A   1      44.073  35.111  27.449  1.00  0.00     0.055 A 
ATOM     67  C   UNL A   1      46.096  34.403  26.389  1.00  0.00     0.041 A 
ATOM     68  F   UNL A   1      46.747  32.164  26.459  1.00  0.00    -0.206 F 
ATOM     69  C   UNL A   1      45.207  35.422  26.706  1.00  0.00     0.022 A 
BRANCH  66  70
ATOM     70  S   UNL A   1      42.887  36.433  27.817  1.00  0.00     0.124 S 
ATOM     71  O   UNL A   1      43.595  37.196  28.839  1.00  0.00    -0.237 OA
ATOM     72  O   UNL A   1      42.756  37.085  26.516  1.00  0.00    -0.237 OA
ATOM     73  O   UNL A   1      41.701  35.712  28.268  1.00  0.00    -0.744 OA
ENDBRANCH  66  70
ENDBRANCH  49  63
BRANCH  50  74
ATOM     74  C   UNL A   1      37.088  30.778  31.272  1.00  0.00     0.023 A 
ATOM     75  C   UNL A   1      36.596  31.029  29.977  1.00  0.00     0.031 A 
ATOM     76  C   UNL A   1      36.385  31.345  32.349  1.00  0.00     0.131 A 
ATOM     77  C   UNL A   1      35.486  31.863  29.783  1.00  0.00     0.055 A 
ATOM     78  C   UNL A   1      35.264  32.163  32.155  1.00  0.00     0.041 A 
ATOM     79  F   UNL A   1      36.815  31.172  33.608  1.00  0.00    -0.206 F 
ATOM     80  C   UNL A   1      34.819  32.440  30.865  1.00  0.00     0.022 A 
BRANCH  77  81
ATOM     81  S   UNL A   1      34.939  32.271  28.103  1.00  0.00     0.124 S 
ATOM     82  O   UNL A   1      36.044  33.088  27.605  1.00  0.00    -0.237 OA
ATOM     83  O   UNL A   1      34.814  30.948  27.502  1.00  0.00    -0.237 OA
ATOM     84  O   UNL A   1      33.688  32.994  28.320  1.00  0.00    -0.744 OA
ENDBRANCH  77  81
ENDBRANCH  50  74
BRANCH  62  85
ATOM     85  C   UNL A   1      42.948  29.487  33.414  1.00  0.00     0.023 A 
ATOM     86  C   UNL A   1      43.348  29.846  34.709  1.00  0.00     0.031 A 
ATOM     87  C   UNL A   1      42.874  28.111  33.117  1.00  0.00     0.131 A 
ATOM     88  C   UNL A   1      43.711  28.861  35.635  1.00  0.00     0.055 A 
ATOM     89  C   UNL A   1      43.182  27.127  34.063  1.00  0.00     0.041 A 
ATOM     90  F   UNL A   1      42.593  27.678  31.886  1.00  0.00    -0.206 F 
ATOM     91  C   UNL A   1      43.621  27.501  35.326  1.00  0.00     0.022 A 
BRANCH  88  92
ATOM     92  S   UNL A   1      44.442  29.334  37.221  1.00  0.00     0.124 S 
ATOM     93  O   UNL A   1      45.781  29.766  36.827  1.00  0.00    -0.237 OA
ATOM     94  O   UNL A   1      43.545  30.398  37.666  1.00  0.00    -0.237 OA
ATOM     95  O   UNL A   1      44.393  28.108  38.012  1.00  0.00    -0.744 OA
ENDBRANCH  88  92
ENDBRANCH  62  85
ENDBRANCH  36  37
ENDBRANCH  28  31
ENDBRANCH  26  27
ENDBRANCH  25  26
ENDBRANCH   1  25
TORSDOF 17
ENDMDL
MODEL 3
REMARK VINA RESULT:     -12.4      4.153      9.750
REMARK SMILES Cc1cccc2nc([C@@H]3CCCC[C@@H]3C(=O)NCCCCCCNC(=O)c3ccc(-c4c5nc(c(-c6cc(S(=O)(=O)[O-])ccc6F)c6ccc([nH]6)c(-c6cc(S(=O)(=O)[O-])ccc6F)c6nc(c(-c7cc(S(=O)(=O)[O-])ccc7F)c7ccc4[nH]7)C=C6)C=C5)cc3)oc12
REMARK SMILES IDX 21 1 20 2 19 3 18 4 17 5 15 6 16 7 14 9 9 10 10 11 11 12
REMARK SMILES IDX 13 13 12 14 8 15 1 16 2 17 3 18 91 19 4 20 6 21 90 22 5 23
REMARK SMILES IDX 7 24 22 25 23 26 24 27 25 28 26 30 27 31 28 32 89 33 29 34
REMARK SMILES IDX 88 35 30 36 31 37 32 38 82 39 33 40 87 41 81 42 83 43 34 44
REMARK SMILES IDX 86 45 80 46 79 47 35 49 67 50 47 51 66 52 48 53 51 54 65 55
REMARK SMILES IDX 84 56 49 57 50 58 64 60 85 61 52 62 36 63 37 64 45 65 38 66
REMARK SMILES IDX 44 67 46 68 43 69 39 70 40 71 41 72 42 73 68 74 69 75 77 76
REMARK SMILES IDX 70 77 76 78 78 79 75 80 71 81 72 82 73 83 74 84 53 85 54 86
REMARK SMILES IDX 62 87 55 88 61 89 63 90 60 91 56 92 57 93 58 94 59 95
REMARK H PARENT 17 8 24 29 83 48 51 59
REMARK Flexibility Score: inf
ROOT
ATOM      1  C   UNL A   1      31.447  30.646  26.691  1.00  0.00     0.002 C 
ENDROOT
BRANCH   1   2
ATOM      2  C   UNL A   1      32.877  30.177  26.999  1.00  0.00     0.002 C 
BRANCH   2   3
ATOM      3  C   UNL A   1      33.072  28.660  27.131  1.00  0.00     0.021 C 
BRANCH   3   4
ATOM      4  C   UNL A   1      31.779  27.845  27.112  1.00  0.00     0.116 C 
BRANCH   4   5
ATOM      5  N   UNL A   1      31.865  26.648  26.293  1.00  0.00    -0.356 N 
ATOM      6  C   UNL A   1      30.743  26.147  25.693  1.00  0.00     0.223 C 
ATOM      7  O   UNL A   1      29.988  25.390  26.299  1.00  0.00    -0.275 OA
ATOM      8  H   UNL A   1      32.732  26.198  26.169  1.00  0.00     0.163 HD
BRANCH   6   9
ATOM      9  C   UNL A   1      30.565  26.443  24.203  1.00  0.00     0.091 C 
ATOM     10  C   UNL A   1      31.716  25.901  23.322  1.00  0.00     0.088 C 
ATOM     11  C   UNL A   1      32.914  26.856  23.224  1.00  0.00     0.014 C 
ATOM     12  C   UNL A   1      32.493  28.263  22.820  1.00  0.00     0.001 C 
ATOM     13  C   UNL A   1      30.239  27.916  23.909  1.00  0.00     0.014 C 
ATOM     14  C   UNL A   1      31.457  28.830  23.778  1.00  0.00     0.001 C 
BRANCH  10  15
ATOM     15  C   UNL A   1      32.180  24.544  23.755  1.00  0.00     0.199 A 
ATOM     16  C   UNL A   1      35.584  23.226  26.211  1.00  0.00     0.048 C 
ATOM     17  C   UNL A   1      34.533  22.510  25.427  1.00  0.00    -0.006 A 
ATOM     18  C   UNL A   1      34.539  21.102  25.329  1.00  0.00     0.007 A 
ATOM     19  C   UNL A   1      33.509  23.138  24.713  1.00  0.00     0.157 A 
ATOM     20  C   UNL A   1      33.571  20.402  24.599  1.00  0.00     0.003 A 
ATOM     21  C   UNL A   1      32.519  22.474  24.004  1.00  0.00     0.110 A 
ATOM     22  O   UNL A   1      33.290  24.483  24.562  1.00  0.00    -0.440 OA
ATOM     23  C   UNL A   1      32.539  21.077  23.937  1.00  0.00     0.032 A 
ATOM     24  N   UNL A   1      31.644  23.376  23.461  1.00  0.00    -0.213 NA
ENDBRANCH  10  15
ENDBRANCH   6   9
ENDBRANCH   4   5
ENDBRANCH   3   4
ENDBRANCH   2   3
ENDBRANCH   1   2
BRANCH   1  25
ATOM     25  C   UNL A   1      31.199  32.158  26.773  1.00  0.00     0.021 C 
BRANCH  25  26
ATOM     26  C   UNL A   1      32.482  32.966  26.842  1.00  0.00     0.116 C 
BRANCH  26  27
ATOM     27  N   UNL A   1      32.310  34.230  27.564  1.00  0.00    -0.352 N 
ATOM     28  C   UNL A   1      32.972  34.646  28.706  1.00  0.00     0.251 C 
ATOM     29  H   UNL A   1      31.647  34.855  27.194  1.00  0.00     0.163 HD
ATOM     30  O   UNL A   1      32.540  35.556  29.395  1.00  0.00    -0.269 OA
BRANCH  28  31
ATOM     31  C   UNL A   1      34.242  33.979  29.041  1.00  0.00     0.039 A 
ATOM     32  C   UNL A   1      34.436  33.292  30.244  1.00  0.00     0.014 A 
ATOM     33  C   UNL A   1      35.264  34.077  28.099  1.00  0.00     0.014 A 
ATOM     34  C   UNL A   1      35.670  32.689  30.472  1.00  0.00     0.010 A 
ATOM     35  C   UNL A   1      36.388  33.320  28.229  1.00  0.00     0.010 A 
ATOM     36  C   UNL A   1      36.634  32.726  29.457  1.00  0.00    -0.014 A 
BRANCH  36  37
ATOM     37  C   UNL A   1      37.970  32.192  29.626  1.00  0.00     0.031 A 
ATOM     38  C   UNL A   1      38.154  30.794  29.165  1.00  0.00     0.074 A 
ATOM     39  C   UNL A   1      38.998  33.029  29.889  1.00  0.00     0.049 A 
ATOM     40  N   UNL A   1      38.384  29.745  29.883  1.00  0.00    -0.248 NA
ATOM     41  C   UNL A   1      37.898  30.498  27.746  1.00  0.00     0.031 C 
ATOM     42  C   UNL A   1      39.000  34.498  29.975  1.00  0.00     0.029 A 
ATOM     43  N   UNL A   1      40.308  32.728  30.034  1.00  0.00    -0.354 N 
ATOM     44  C   UNL A   1      38.505  28.685  28.986  1.00  0.00     0.074 A 
ATOM     45  C   UNL A   1      37.999  29.168  27.726  1.00  0.00     0.031 C 
ATOM     46  C   UNL A   1      40.272  34.955  29.930  1.00  0.00     0.029 A 
ATOM     47  C   UNL A   1      41.168  33.818  29.992  1.00  0.00     0.049 A 
ATOM     48  H   UNL A   1      40.629  31.806  30.160  1.00  0.00     0.167 HD
ATOM     49  C   UNL A   1      39.212  27.559  29.291  1.00  0.00     0.034 A 
ATOM     50  C   UNL A   1      42.523  33.754  29.952  1.00  0.00     0.034 A 
ATOM     51  C   UNL A   1      39.568  27.537  30.685  1.00  0.00     0.049 A 
ATOM     52  C   UNL A   1      42.904  32.389  30.405  1.00  0.00     0.074 A 
ATOM     53  C   UNL A   1      38.859  27.447  31.864  1.00  0.00     0.029 A 
ATOM     54  N   UNL A   1      40.806  28.034  31.021  1.00  0.00    -0.354 N 
ATOM     55  N   UNL A   1      42.703  31.950  31.618  1.00  0.00    -0.248 NA
ATOM     56  C   UNL A   1      43.040  31.364  29.380  1.00  0.00     0.031 C 
ATOM     57  C   UNL A   1      39.525  28.334  32.759  1.00  0.00     0.029 A 
ATOM     58  C   UNL A   1      40.642  28.861  32.105  1.00  0.00     0.049 A 
ATOM     59  H   UNL A   1      41.656  27.834  30.567  1.00  0.00     0.167 HD
ATOM     60  C   UNL A   1      42.268  30.640  31.453  1.00  0.00     0.074 A 
ATOM     61  C   UNL A   1      42.560  30.316  30.056  1.00  0.00     0.031 C 
ATOM     62  C   UNL A   1      41.442  30.043  32.363  1.00  0.00     0.034 A 
BRANCH  49  63
ATOM     63  C   UNL A   1      39.862  26.645  28.282  1.00  0.00     0.023 A 
ATOM     64  C   UNL A   1      40.934  27.045  27.463  1.00  0.00     0.031 A 
ATOM     65  C   UNL A   1      39.558  25.268  28.269  1.00  0.00     0.131 A 
ATOM     66  C   UNL A   1      41.638  26.128  26.672  1.00  0.00     0.055 A 
ATOM     67  C   UNL A   1      40.302  24.340  27.529  1.00  0.00     0.041 A 
ATOM     68  F   UNL A   1      38.559  24.774  29.018  1.00  0.00    -0.206 F 
ATOM     69  C   UNL A   1      41.349  24.768  26.723  1.00  0.00     0.022 A 
BRANCH  66  70
ATOM     70  S   UNL A   1      42.972  26.691  25.579  1.00  0.00     0.124 S 
ATOM     71  O   UNL A   1      43.405  25.441  24.965  1.00  0.00    -0.237 OA
ATOM     72  O   UNL A   1      42.262  27.617  24.698  1.00  0.00    -0.237 OA
ATOM     73  O   UNL A   1      43.922  27.316  26.494  1.00  0.00    -0.744 OA
ENDBRANCH  66  70
ENDBRANCH  49  63
BRANCH  50  74
ATOM     74  C   UNL A   1      43.397  34.559  29.064  1.00  0.00     0.023 A 
ATOM     75  C   UNL A   1      43.605  34.154  27.731  1.00  0.00     0.031 A 
ATOM     76  C   UNL A   1      44.275  35.524  29.587  1.00  0.00     0.131 A 
ATOM     77  C   UNL A   1      44.685  34.656  26.991  1.00  0.00     0.055 A 
ATOM     78  C   UNL A   1      45.342  36.040  28.840  1.00  0.00     0.041 A 
ATOM     79  F   UNL A   1      44.153  35.934  30.859  1.00  0.00    -0.206 F 
ATOM     80  C   UNL A   1      45.562  35.593  27.539  1.00  0.00     0.022 A 
BRANCH  77  81
ATOM     81  S   UNL A   1      45.008  34.034  25.318  1.00  0.00     0.124 S 
ATOM     82  O   UNL A   1      45.045  32.588  25.526  1.00  0.00    -0.237 OA
ATOM     83  O   UNL A   1      43.850  34.535  24.587  1.00  0.00    -0.237 OA
ATOM     84  O   UNL A   1      46.291  34.641  24.974  1.00  0.00    -0.744 OA
ENDBRANCH  77  81
ENDBRANCH  50  74
BRANCH  62  85
ATOM     85  C   UNL A   1      41.137  30.767  33.658  1.00  0.00     0.023 A 
ATOM     86  C   UNL A   1      40.246  31.847  33.593  1.00  0.00     0.031 A 
ATOM     87  C   UNL A   1      41.874  30.607  34.848  1.00  0.00     0.131 A 
ATOM     88  C   UNL A   1      40.151  32.751  34.657  1.00  0.00     0.055 A 
ATOM     89  C   UNL A   1      41.736  31.479  35.934  1.00  0.00     0.041 A 
ATOM     90  F   UNL A   1      42.812  29.664  34.966  1.00  0.00    -0.206 F 
ATOM     91  C   UNL A   1      40.883  32.570  35.835  1.00  0.00     0.022 A 
BRANCH  88  92
ATOM     92  S   UNL A   1      39.174  34.263  34.479  1.00  0.00     0.124 S 
ATOM     93  O   UNL A   1      38.018  33.986  35.327  1.00  0.00    -0.237 OA
ATOM     94  O   UNL A   1      40.092  35.282  34.983  1.00  0.00    -0.237 OA
ATOM     95  O   UNL A   1      38.893  34.335  33.048  1.00  0.00    -0.744 OA
ENDBRANCH  88  92
ENDBRANCH  62  85
ENDBRANCH  36  37
ENDBRANCH  28  31
ENDBRANCH  26  27
ENDBRANCH  25  26
ENDBRANCH   1  25
TORSDOF 17
ENDMDL
