MODEL 1
REMARK VINA RESULT:     -13.3      0.000      0.000
REMARK SMILES Cc1cc([N+](=O)[O-])ccc1NC(=O)[C@@H]1[C@@H](C(=O)NCCCCCCNC(=O)c2ccc(-c3c4nc(c(-c5cc(S(=O)(=O)[O-])ccc5F)c5ccc([nH]5)c(-c5cc(S(=O)(=O)[O-])ccc5F)c5nc(c(-c6cc(S(=O)(=O)[O-])ccc6F)c6ccc3[nH]6)C=C5)C=C4)cc2)[C@H]2C=C[C@@H]1C2
REMARK SMILES IDX 21 1 20 2 19 3 18 4 16 5 17 6 15 8 14 9 94 10 91 11 93 12
REMARK SMILES IDX 95 13 92 14 12 15 11 16 13 18 10 19 1 20 2 21 3 22 4 23 9 24
REMARK SMILES IDX 8 25 5 26 6 27 7 28 22 29 23 30 24 31 25 32 26 33 27 35
REMARK SMILES IDX 28 36 29 37 90 38 30 39 89 40 31 41 32 42 33 43 83 44 34 45
REMARK SMILES IDX 88 46 82 47 84 48 35 49 87 50 81 51 80 52 36 54 68 55 48 56
REMARK SMILES IDX 67 57 49 58 52 59 66 60 85 61 50 62 51 63 65 65 86 66 53 67
REMARK SMILES IDX 37 68 38 69 46 70 39 71 45 72 47 73 44 74 40 75 41 76 42 77
REMARK SMILES IDX 43 78 69 79 70 80 78 81 71 82 77 83 79 84 76 85 72 86 73 87
REMARK SMILES IDX 74 88 75 89 54 90 55 91 63 92 56 93 62 94 64 95 61 96 57 97
REMARK SMILES IDX 58 98 59 99 60 100
REMARK H PARENT 18 7 11 17 25 34 84 53 52 64
REMARK Flexibility Score: inf
ROOT
ATOM      1  C   UNL A   1      31.365  28.794  25.812  1.00  0.00     0.002 C 
ENDROOT
BRANCH   1   2
ATOM      2  C   UNL A   1      31.468  27.613  26.784  1.00  0.00     0.021 C 
BRANCH   2   3
ATOM      3  C   UNL A   1      32.392  26.469  26.377  1.00  0.00     0.116 C 
BRANCH   3   4
ATOM      4  N   UNL A   1      32.045  25.198  26.972  1.00  0.00    -0.356 N 
ATOM      5  C   UNL A   1      32.454  23.944  26.643  1.00  0.00     0.224 C 
ATOM      6  O   UNL A   1      32.072  23.014  27.357  1.00  0.00    -0.275 OA
ATOM      7  H   UNL A   1      31.418  25.248  27.730  1.00  0.00     0.163 HD
BRANCH   5   8
ATOM      8  C   UNL A   1      33.279  23.698  25.380  1.00  0.00     0.098 C 
ATOM      9  C   UNL A   1      33.190  22.182  24.940  1.00  0.00     0.099 C 
ATOM     10  C   UNL A   1      34.679  21.799  24.741  1.00  0.00     0.025 C 
ATOM     11  C   UNL A   1      34.812  23.891  25.511  1.00  0.00     0.025 C 
ATOM     12  C   UNL A   1      35.299  21.723  26.118  1.00  0.00    -0.027 C 
ATOM     13  C   UNL A   1      35.295  23.120  24.279  1.00  0.00     0.017 C 
ATOM     14  C   UNL A   1      35.367  22.979  26.585  1.00  0.00    -0.027 C 
BRANCH   9  15
ATOM     15  C   UNL A   1      32.365  21.913  23.696  1.00  0.00     0.228 C 
ATOM     16  N   UNL A   1      32.072  20.638  23.280  1.00  0.00    -0.326 N 
ATOM     17  H   UNL A   1      31.530  20.615  22.458  1.00  0.00     0.169 HD
ATOM     18  O   UNL A   1      31.975  22.833  22.970  1.00  0.00    -0.274 OA
BRANCH  16  19
ATOM     19  C   UNL A   1      32.380  19.354  23.778  1.00  0.00     0.044 A 
ATOM     20  C   UNL A   1      32.363  18.388  21.379  1.00  0.00     0.047 C 
ATOM     21  C   UNL A   1      32.601  18.295  22.866  1.00  0.00    -0.021 A 
ATOM     22  C   UNL A   1      33.057  17.047  23.346  1.00  0.00     0.091 A 
ATOM     23  C   UNL A   1      33.277  16.846  24.712  1.00  0.00     0.269 A 
ATOM     24  C   UNL A   1      32.498  19.078  25.148  1.00  0.00     0.033 A 
ATOM     25  C   UNL A   1      32.967  17.851  25.621  1.00  0.00     0.088 A 
BRANCH  23  26
ATOM     26  N   UNL A   1      33.833  15.578  25.193  1.00  0.00     0.062 N 
ATOM     27  O   UNL A   1      35.053  15.527  25.405  1.00  0.00    -0.258 OA
ATOM     28  O   UNL A   1      33.050  14.635  25.373  1.00  0.00    -0.258 OA
ENDBRANCH  23  26
ENDBRANCH  16  19
ENDBRANCH   9  15
ENDBRANCH   5   8
ENDBRANCH   3   4
ENDBRANCH   2   3
ENDBRANCH   1   2
BRANCH   1  29
ATOM     29  C   UNL A   1      32.592  29.699  25.653  1.00  0.00     0.002 C 
BRANCH  29  30
ATOM     30  C   UNL A   1      32.928  30.618  26.824  1.00  0.00     0.021 C 
BRANCH  30  31
ATOM     31  C   UNL A   1      34.028  30.122  27.753  1.00  0.00     0.116 C 
BRANCH  31  32
ATOM     32  N   UNL A   1      34.697  31.139  28.550  1.00  0.00    -0.352 N 
ATOM     33  C   UNL A   1      35.932  31.058  29.182  1.00  0.00     0.251 C 
ATOM     34  H   UNL A   1      34.216  31.991  28.653  1.00  0.00     0.163 HD
ATOM     35  O   UNL A   1      36.345  31.964  29.885  1.00  0.00    -0.269 OA
BRANCH  33  36
ATOM     36  C   UNL A   1      36.810  29.891  28.888  1.00  0.00     0.039 A 
ATOM     37  C   UNL A   1      37.159  29.059  29.957  1.00  0.00     0.014 A 
ATOM     38  C   UNL A   1      37.454  29.757  27.661  1.00  0.00     0.014 A 
ATOM     39  C   UNL A   1      38.311  28.279  29.868  1.00  0.00     0.010 A 
ATOM     40  C   UNL A   1      38.651  29.065  27.604  1.00  0.00     0.010 A 
ATOM     41  C   UNL A   1      39.114  28.381  28.729  1.00  0.00    -0.014 A 
BRANCH  41  42
ATOM     42  C   UNL A   1      40.491  27.900  28.690  1.00  0.00     0.031 A 
ATOM     43  C   UNL A   1      40.793  26.523  28.245  1.00  0.00     0.074 A 
ATOM     44  C   UNL A   1      41.516  28.683  29.098  1.00  0.00     0.049 A 
ATOM     45  N   UNL A   1      41.697  25.776  28.787  1.00  0.00    -0.248 NA
ATOM     46  C   UNL A   1      40.080  25.870  27.153  1.00  0.00     0.031 C 
ATOM     47  C   UNL A   1      42.941  28.369  28.999  1.00  0.00     0.029 A 
ATOM     48  N   UNL A   1      41.489  29.832  29.886  1.00  0.00    -0.354 N 
ATOM     49  C   UNL A   1      41.892  24.700  27.952  1.00  0.00     0.074 A 
ATOM     50  C   UNL A   1      40.801  24.754  27.003  1.00  0.00     0.031 C 
ATOM     51  C   UNL A   1      43.597  29.065  29.942  1.00  0.00     0.029 A 
ATOM     52  C   UNL A   1      42.595  29.748  30.743  1.00  0.00     0.049 A 
ATOM     53  H   UNL A   1      40.825  30.558  29.850  1.00  0.00     0.167 HD
ATOM     54  C   UNL A   1      43.038  23.966  28.030  1.00  0.00     0.034 A 
ATOM     55  C   UNL A   1      42.531  29.740  32.105  1.00  0.00     0.034 A 
ATOM     56  C   UNL A   1      43.982  24.523  28.992  1.00  0.00     0.049 A 
ATOM     57  C   UNL A   1      43.248  28.564  32.734  1.00  0.00     0.074 A 
ATOM     58  C   UNL A   1      45.111  25.310  28.833  1.00  0.00     0.029 A 
ATOM     59  N   UNL A   1      43.697  24.512  30.350  1.00  0.00    -0.354 N 
ATOM     60  N   UNL A   1      43.582  27.485  32.085  1.00  0.00    -0.248 NA
ATOM     61  C   UNL A   1      43.598  28.488  34.149  1.00  0.00     0.031 C 
ATOM     62  C   UNL A   1      45.513  25.768  30.110  1.00  0.00     0.029 A 
ATOM     63  C   UNL A   1      44.634  25.252  31.046  1.00  0.00     0.049 A 
ATOM     64  H   UNL A   1      42.935  24.042  30.760  1.00  0.00     0.167 HD
ATOM     65  C   UNL A   1      44.165  26.582  32.944  1.00  0.00     0.074 A 
ATOM     66  C   UNL A   1      44.157  27.266  34.224  1.00  0.00     0.031 C 
ATOM     67  C   UNL A   1      44.584  25.355  32.499  1.00  0.00     0.034 A 
BRANCH  54  68
ATOM     68  C   UNL A   1      43.445  22.937  27.000  1.00  0.00     0.023 A 
ATOM     69  C   UNL A   1      42.823  21.671  26.998  1.00  0.00     0.031 A 
ATOM     70  C   UNL A   1      44.429  23.131  26.013  1.00  0.00     0.131 A 
ATOM     71  C   UNL A   1      43.249  20.641  26.143  1.00  0.00     0.055 A 
ATOM     72  C   UNL A   1      44.888  22.092  25.189  1.00  0.00     0.041 A 
ATOM     73  F   UNL A   1      44.959  24.343  25.784  1.00  0.00    -0.206 F 
ATOM     74  C   UNL A   1      44.309  20.833  25.264  1.00  0.00     0.022 A 
BRANCH  71  75
ATOM     75  S   UNL A   1      42.392  19.044  26.206  1.00  0.00     0.124 S 
ATOM     76  O   UNL A   1      41.070  19.380  25.686  1.00  0.00    -0.237 OA
ATOM     77  O   UNL A   1      43.228  18.209  25.352  1.00  0.00    -0.237 OA
ATOM     78  O   UNL A   1      42.423  18.698  27.627  1.00  0.00    -0.744 OA
ENDBRANCH  71  75
ENDBRANCH  54  68
BRANCH  55  79
ATOM     79  C   UNL A   1      41.322  30.392  32.673  1.00  0.00     0.023 A 
ATOM     80  C   UNL A   1      41.285  31.800  32.689  1.00  0.00     0.031 A 
ATOM     81  C   UNL A   1      40.114  29.695  32.814  1.00  0.00     0.131 A 
ATOM     82  C   UNL A   1      40.054  32.470  32.688  1.00  0.00     0.055 A 
ATOM     83  C   UNL A   1      38.890  30.369  32.857  1.00  0.00     0.041 A 
ATOM     84  F   UNL A   1      40.090  28.355  32.772  1.00  0.00    -0.206 F 
ATOM     85  C   UNL A   1      38.852  31.758  32.748  1.00  0.00     0.022 A 
BRANCH  82  86
ATOM     86  S   UNL A   1      40.007  34.256  32.355  1.00  0.00     0.124 S 
ATOM     87  O   UNL A   1      41.349  34.504  31.841  1.00  0.00    -0.237 OA
ATOM     88  O   UNL A   1      38.924  34.388  31.385  1.00  0.00    -0.237 OA
ATOM     89  O   UNL A   1      39.717  34.821  33.670  1.00  0.00    -0.744 OA
ENDBRANCH  82  86
ENDBRANCH  55  79
BRANCH  67  90
ATOM     90  C   UNL A   1      45.077  24.174  33.324  1.00  0.00     0.023 A 
ATOM     91  C   UNL A   1      46.342  24.098  33.921  1.00  0.00     0.031 A 
ATOM     92  C   UNL A   1      44.233  23.056  33.575  1.00  0.00     0.131 A 
ATOM     93  C   UNL A   1      46.742  22.969  34.668  1.00  0.00     0.055 A 
ATOM     94  C   UNL A   1      44.612  21.957  34.353  1.00  0.00     0.041 A 
ATOM     95  F   UNL A   1      42.986  22.980  33.089  1.00  0.00    -0.206 F 
ATOM     96  C   UNL A   1      45.881  21.903  34.901  1.00  0.00     0.022 A 
BRANCH  93  97
ATOM     97  S   UNL A   1      48.439  22.918  35.302  1.00  0.00     0.124 S 
ATOM     98  O   UNL A   1      48.442  24.030  36.250  1.00  0.00    -0.237 OA
ATOM     99  O   UNL A   1      48.510  21.585  35.891  1.00  0.00    -0.237 OA
ATOM    100  O   UNL A   1      49.262  23.115  34.111  1.00  0.00    -0.744 OA
ENDBRANCH  93  97
ENDBRANCH  67  90
ENDBRANCH  41  42
ENDBRANCH  33  36
ENDBRANCH  31  32
ENDBRANCH  30  31
ENDBRANCH  29  30
ENDBRANCH   1  29
TORSDOF 19
ENDMDL
MODEL 2
REMARK VINA RESULT:     -12.8      3.958     10.757
REMARK SMILES Cc1cc([N+](=O)[O-])ccc1NC(=O)[C@@H]1[C@@H](C(=O)NCCCCCCNC(=O)c2ccc(-c3c4nc(c(-c5cc(S(=O)(=O)[O-])ccc5F)c5ccc([nH]5)c(-c5cc(S(=O)(=O)[O-])ccc5F)c5nc(c(-c6cc(S(=O)(=O)[O-])ccc6F)c6ccc3[nH]6)C=C5)C=C4)cc2)[C@H]2C=C[C@@H]1C2
REMARK SMILES IDX 21 1 20 2 19 3 18 4 16 5 17 6 15 8 14 9 94 10 91 11 93 12
REMARK SMILES IDX 95 13 92 14 12 15 11 16 13 18 10 19 1 20 2 21 3 22 4 23 9 24
REMARK SMILES IDX 8 25 5 26 6 27 7 28 22 29 23 30 24 31 25 32 26 33 27 35
REMARK SMILES IDX 28 36 29 37 90 38 30 39 89 40 31 41 32 42 33 43 83 44 34 45
REMARK SMILES IDX 88 46 82 47 84 48 35 49 87 50 81 51 80 52 36 54 68 55 48 56
REMARK SMILES IDX 67 57 49 58 52 59 66 60 85 61 50 62 51 63 65 65 86 66 53 67
REMARK SMILES IDX 37 68 38 69 46 70 39 71 45 72 47 73 44 74 40 75 41 76 42 77
REMARK SMILES IDX 43 78 69 79 70 80 78 81 71 82 77 83 79 84 76 85 72 86 73 87
REMARK SMILES IDX 74 88 75 89 54 90 55 91 63 92 56 93 62 94 64 95 61 96 57 97
REMARK SMILES IDX 58 98 59 99 60 100
REMARK H PARENT 18 7 11 17 25 34 84 53 52 64
REMARK Flexibility Score: inf
ROOT
ATOM      1  C   UNL A   1      35.569  20.744  25.505  1.00  0.00     0.002 C 
ENDROOT
BRANCH   1   2
ATOM      2  C   UNL A   1      34.328  20.321  24.710  1.00  0.00     0.021 C 
BRANCH   2   3
ATOM      3  C   UNL A   1      33.009  20.265  25.475  1.00  0.00     0.116 C 
BRANCH   3   4
ATOM      4  N   UNL A   1      32.951  21.165  26.605  1.00  0.00    -0.356 N 
ATOM      5  C   UNL A   1      32.478  22.437  26.678  1.00  0.00     0.224 C 
ATOM      6  O   UNL A   1      32.468  22.979  27.786  1.00  0.00    -0.275 OA
ATOM      7  H   UNL A   1      33.308  20.802  27.448  1.00  0.00     0.163 HD
BRANCH   5   8
ATOM      8  C   UNL A   1      32.066  23.191  25.414  1.00  0.00     0.098 C 
ATOM      9  C   UNL A   1      32.599  24.679  25.451  1.00  0.00     0.099 C 
ATOM     10  C   UNL A   1      31.329  25.502  25.111  1.00  0.00     0.025 C 
ATOM     11  C   UNL A   1      30.544  23.413  25.212  1.00  0.00     0.025 C 
ATOM     12  C   UNL A   1      30.424  25.429  26.319  1.00  0.00    -0.027 C 
ATOM     13  C   UNL A   1      30.564  24.553  24.188  1.00  0.00     0.017 C 
ATOM     14  C   UNL A   1      29.962  24.171  26.387  1.00  0.00    -0.027 C 
BRANCH   9  15
ATOM     15  C   UNL A   1      33.742  24.984  24.502  1.00  0.00     0.228 C 
ATOM     16  N   UNL A   1      34.263  26.248  24.375  1.00  0.00    -0.326 N 
ATOM     17  H   UNL A   1      34.999  26.298  23.724  1.00  0.00     0.169 HD
ATOM     18  O   UNL A   1      34.210  24.118  23.757  1.00  0.00    -0.274 OA
BRANCH  16  19
ATOM     19  C   UNL A   1      33.971  27.490  24.980  1.00  0.00     0.044 A 
ATOM     20  C   UNL A   1      32.798  28.297  22.821  1.00  0.00     0.047 C 
ATOM     21  C   UNL A   1      33.199  28.439  24.268  1.00  0.00    -0.021 A 
ATOM     22  C   UNL A   1      32.774  29.618  24.919  1.00  0.00     0.091 A 
ATOM     23  C   UNL A   1      33.120  29.861  26.251  1.00  0.00     0.269 A 
ATOM     24  C   UNL A   1      34.396  27.824  26.273  1.00  0.00     0.033 A 
ATOM     25  C   UNL A   1      33.960  28.981  26.923  1.00  0.00     0.088 A 
BRANCH  23  26
ATOM     26  N   UNL A   1      32.603  31.044  26.945  1.00  0.00     0.062 N 
ATOM     27  O   UNL A   1      33.315  31.556  27.821  1.00  0.00    -0.258 OA
ATOM     28  O   UNL A   1      31.491  31.472  26.606  1.00  0.00    -0.258 OA
ENDBRANCH  23  26
ENDBRANCH  16  19
ENDBRANCH   9  15
ENDBRANCH   5   8
ENDBRANCH   3   4
ENDBRANCH   2   3
ENDBRANCH   1   2
BRANCH   1  29
ATOM     29  C   UNL A   1      36.612  21.615  24.793  1.00  0.00     0.002 C 
BRANCH  29  30
ATOM     30  C   UNL A   1      38.037  21.568  25.337  1.00  0.00     0.021 C 
BRANCH  30  31
ATOM     31  C   UNL A   1      38.631  22.911  25.737  1.00  0.00     0.116 C 
BRANCH  31  32
ATOM     32  N   UNL A   1      40.046  22.907  26.079  1.00  0.00    -0.352 N 
ATOM     33  C   UNL A   1      40.804  23.946  26.605  1.00  0.00     0.251 C 
ATOM     34  H   UNL A   1      40.526  22.063  25.919  1.00  0.00     0.163 HD
ATOM     35  O   UNL A   1      42.005  23.830  26.777  1.00  0.00    -0.269 OA
BRANCH  33  36
ATOM     36  C   UNL A   1      40.104  25.172  27.078  1.00  0.00     0.039 A 
ATOM     37  C   UNL A   1      40.426  26.382  26.454  1.00  0.00     0.014 A 
ATOM     38  C   UNL A   1      39.340  25.171  28.242  1.00  0.00     0.014 A 
ATOM     39  C   UNL A   1      40.201  27.582  27.128  1.00  0.00     0.010 A 
ATOM     40  C   UNL A   1      39.208  26.347  28.959  1.00  0.00     0.010 A 
ATOM     41  C   UNL A   1      39.699  27.543  28.432  1.00  0.00    -0.014 A 
BRANCH  41  42
ATOM     42  C   UNL A   1      39.766  28.685  29.336  1.00  0.00     0.031 A 
ATOM     43  C   UNL A   1      38.706  29.715  29.327  1.00  0.00     0.074 A 
ATOM     44  C   UNL A   1      40.817  28.852  30.172  1.00  0.00     0.049 A 
ATOM     45  N   UNL A   1      38.932  30.980  29.463  1.00  0.00    -0.248 NA
ATOM     46  C   UNL A   1      37.294  29.395  29.147  1.00  0.00     0.031 C 
ATOM     47  C   UNL A   1      40.951  29.880  31.204  1.00  0.00     0.029 A 
ATOM     48  N   UNL A   1      42.083  28.271  30.125  1.00  0.00    -0.354 N 
ATOM     49  C   UNL A   1      37.720  31.590  29.689  1.00  0.00     0.074 A 
ATOM     50  C   UNL A   1      36.727  30.581  29.389  1.00  0.00     0.031 C 
ATOM     51  C   UNL A   1      42.258  30.083  31.437  1.00  0.00     0.029 A 
ATOM     52  C   UNL A   1      42.992  29.278  30.476  1.00  0.00     0.049 A 
ATOM     53  H   UNL A   1      42.296  27.338  29.891  1.00  0.00     0.167 HD
ATOM     54  C   UNL A   1      37.666  32.823  30.265  1.00  0.00     0.034 A 
ATOM     55  C   UNL A   1      44.011  29.722  29.685  1.00  0.00     0.034 A 
ATOM     56  C   UNL A   1      38.987  33.303  30.659  1.00  0.00     0.049 A 
ATOM     57  C   UNL A   1      44.002  31.223  29.480  1.00  0.00     0.074 A 
ATOM     58  C   UNL A   1      39.635  33.330  31.882  1.00  0.00     0.029 A 
ATOM     59  N   UNL A   1      39.938  33.620  29.700  1.00  0.00    -0.354 N 
ATOM     60  N   UNL A   1      42.968  31.981  29.710  1.00  0.00    -0.248 NA
ATOM     61  C   UNL A   1      45.134  31.977  28.953  1.00  0.00     0.031 C 
ATOM     62  C   UNL A   1      40.989  33.676  31.657  1.00  0.00     0.029 A 
ATOM     63  C   UNL A   1      41.160  33.868  30.297  1.00  0.00     0.049 A 
ATOM     64  H   UNL A   1      39.768  33.663  28.732  1.00  0.00     0.167 HD
ATOM     65  C   UNL A   1      43.257  33.284  29.374  1.00  0.00     0.074 A 
ATOM     66  C   UNL A   1      44.632  33.225  28.912  1.00  0.00     0.031 C 
ATOM     67  C   UNL A   1      42.317  34.272  29.507  1.00  0.00     0.034 A 
BRANCH  54  68
ATOM     68  C   UNL A   1      36.391  33.455  30.775  1.00  0.00     0.023 A 
ATOM     69  C   UNL A   1      35.537  34.123  29.873  1.00  0.00     0.031 A 
ATOM     70  C   UNL A   1      35.967  33.443  32.117  1.00  0.00     0.131 A 
ATOM     71  C   UNL A   1      34.406  34.829  30.314  1.00  0.00     0.055 A 
ATOM     72  C   UNL A   1      34.865  34.184  32.567  1.00  0.00     0.041 A 
ATOM     73  F   UNL A   1      36.584  32.686  33.038  1.00  0.00    -0.206 F 
ATOM     74  C   UNL A   1      34.086  34.898  31.666  1.00  0.00     0.022 A 
BRANCH  71  75
ATOM     75  S   UNL A   1      33.361  35.660  29.086  1.00  0.00     0.124 S 
ATOM     76  O   UNL A   1      34.348  36.240  28.181  1.00  0.00    -0.237 OA
ATOM     77  O   UNL A   1      32.569  34.556  28.556  1.00  0.00    -0.237 OA
ATOM     78  O   UNL A   1      32.610  36.631  29.882  1.00  0.00    -0.744 OA
ENDBRANCH  71  75
ENDBRANCH  54  68
BRANCH  55  79
ATOM     79  C   UNL A   1      44.493  28.738  28.681  1.00  0.00     0.023 A 
ATOM     80  C   UNL A   1      45.321  27.692  29.135  1.00  0.00     0.031 A 
ATOM     81  C   UNL A   1      43.858  28.589  27.440  1.00  0.00     0.131 A 
ATOM     82  C   UNL A   1      45.374  26.482  28.432  1.00  0.00     0.055 A 
ATOM     83  C   UNL A   1      43.948  27.395  26.718  1.00  0.00     0.041 A 
ATOM     84  F   UNL A   1      43.033  29.539  26.977  1.00  0.00    -0.206 F 
ATOM     85  C   UNL A   1      44.670  26.319  27.234  1.00  0.00     0.022 A 
BRANCH  82  86
ATOM     86  S   UNL A   1      46.155  25.033  29.200  1.00  0.00     0.124 S 
ATOM     87  O   UNL A   1      45.100  24.031  29.103  1.00  0.00    -0.237 OA
ATOM     88  O   UNL A   1      47.327  24.800  28.362  1.00  0.00    -0.237 OA
ATOM     89  O   UNL A   1      46.457  25.507  30.549  1.00  0.00    -0.744 OA
ENDBRANCH  82  86
ENDBRANCH  55  79
BRANCH  67  90
ATOM     90  C   UNL A   1      42.392  35.713  29.023  1.00  0.00     0.023 A 
ATOM     91  C   UNL A   1      43.212  36.697  29.591  1.00  0.00     0.031 A 
ATOM     92  C   UNL A   1      41.634  36.147  27.899  1.00  0.00     0.131 A 
ATOM     93  C   UNL A   1      43.230  38.020  29.100  1.00  0.00     0.055 A 
ATOM     94  C   UNL A   1      41.686  37.447  27.384  1.00  0.00     0.041 A 
ATOM     95  F   UNL A   1      40.812  35.325  27.233  1.00  0.00    -0.206 F 
ATOM     96  C   UNL A   1      42.483  38.400  27.991  1.00  0.00     0.022 A 
BRANCH  93  97
ATOM     97  S   UNL A   1      44.238  39.246  29.976  1.00  0.00     0.124 S 
ATOM     98  O   UNL A   1      43.810  39.057  31.360  1.00  0.00    -0.237 OA
ATOM     99  O   UNL A   1      45.596  38.809  29.669  1.00  0.00    -0.237 OA
ATOM    100  O   UNL A   1      43.843  40.516  29.371  1.00  0.00    -0.744 OA
ENDBRANCH  93  97
ENDBRANCH  67  90
ENDBRANCH  41  42
ENDBRANCH  33  36
ENDBRANCH  31  32
ENDBRANCH  30  31
ENDBRANCH  29  30
ENDBRANCH   1  29
TORSDOF 19
ENDMDL
MODEL 3
REMARK VINA RESULT:     -12.7      3.640      5.387
REMARK SMILES Cc1cc([N+](=O)[O-])ccc1NC(=O)[C@@H]1[C@@H](C(=O)NCCCCCCNC(=O)c2ccc(-c3c4nc(c(-c5cc(S(=O)(=O)[O-])ccc5F)c5ccc([nH]5)c(-c5cc(S(=O)(=O)[O-])ccc5F)c5nc(c(-c6cc(S(=O)(=O)[O-])ccc6F)c6ccc3[nH]6)C=C5)C=C4)cc2)[C@H]2C=C[C@@H]1C2
REMARK SMILES IDX 21 1 20 2 19 3 18 4 16 5 17 6 15 8 14 9 94 10 91 11 93 12
REMARK SMILES IDX 95 13 92 14 12 15 11 16 13 18 10 19 1 20 2 21 3 22 4 23 9 24
REMARK SMILES IDX 8 25 5 26 6 27 7 28 22 29 23 30 24 31 25 32 26 33 27 35
REMARK SMILES IDX 28 36 29 37 90 38 30 39 89 40 31 41 32 42 33 43 83 44 34 45
REMARK SMILES IDX 88 46 82 47 84 48 35 49 87 50 81 51 80 52 36 54 68 55 48 56
REMARK SMILES IDX 67 57 49 58 52 59 66 60 85 61 50 62 51 63 65 65 86 66 53 67
REMARK SMILES IDX 37 68 38 69 46 70 39 71 45 72 47 73 44 74 40 75 41 76 42 77
REMARK SMILES IDX 43 78 69 79 70 80 78 81 71 82 77 83 79 84 76 85 72 86 73 87
REMARK SMILES IDX 74 88 75 89 54 90 55 91 63 92 56 93 62 94 64 95 61 96 57 97
REMARK SMILES IDX 58 98 59 99 60 100
REMARK H PARENT 18 7 11 17 25 34 84 53 52 64
REMARK Flexibility Score: inf
ROOT
ATOM      1  C   UNL A   1      34.378  30.671  27.284  1.00  0.00     0.002 C 
ENDROOT
BRANCH   1   2
ATOM      2  C   UNL A   1      32.874  30.666  26.988  1.00  0.00     0.021 C 
BRANCH   2   3
ATOM      3  C   UNL A   1      32.178  29.307  26.993  1.00  0.00     0.116 C 
BRANCH   3   4
ATOM      4  N   UNL A   1      33.051  28.204  26.659  1.00  0.00    -0.356 N 
ATOM      5  C   UNL A   1      32.777  27.053  25.990  1.00  0.00     0.224 C 
ATOM      6  O   UNL A   1      33.719  26.290  25.760  1.00  0.00    -0.275 OA
ATOM      7  H   UNL A   1      33.983  28.301  26.962  1.00  0.00     0.163 HD
BRANCH   5   8
ATOM      8  C   UNL A   1      31.340  26.685  25.623  1.00  0.00     0.098 C 
ATOM      9  C   UNL A   1      31.234  25.154  25.242  1.00  0.00     0.099 C 
ATOM     10  C   UNL A   1      30.474  25.193  23.891  1.00  0.00     0.025 C 
ATOM     11  C   UNL A   1      30.760  27.360  24.352  1.00  0.00     0.025 C 
ATOM     12  C   UNL A   1      31.437  25.740  22.862  1.00  0.00    -0.027 C 
ATOM     13  C   UNL A   1      29.583  26.425  24.055  1.00  0.00     0.017 C 
ATOM     14  C   UNL A   1      31.618  27.038  23.147  1.00  0.00    -0.027 C 
BRANCH   9  15
ATOM     15  C   UNL A   1      30.533  24.278  26.261  1.00  0.00     0.228 C 
ATOM     16  N   UNL A   1      30.930  22.986  26.504  1.00  0.00    -0.326 N 
ATOM     17  H   UNL A   1      30.384  22.537  27.190  1.00  0.00     0.169 HD
ATOM     18  O   UNL A   1      29.534  24.671  26.871  1.00  0.00    -0.274 OA
BRANCH  16  19
ATOM     19  C   UNL A   1      31.954  22.165  25.983  1.00  0.00     0.044 A 
ATOM     20  C   UNL A   1      33.401  22.587  28.085  1.00  0.00     0.047 C 
ATOM     21  C   UNL A   1      33.099  21.906  26.773  1.00  0.00    -0.021 A 
ATOM     22  C   UNL A   1      34.055  20.967  26.325  1.00  0.00     0.091 A 
ATOM     23  C   UNL A   1      33.886  20.304  25.106  1.00  0.00     0.269 A 
ATOM     24  C   UNL A   1      31.880  21.570  24.716  1.00  0.00     0.033 A 
ATOM     25  C   UNL A   1      32.815  20.628  24.281  1.00  0.00     0.088 A 
BRANCH  23  26
ATOM     26  N   UNL A   1      34.836  19.268  24.690  1.00  0.00     0.062 N 
ATOM     27  O   UNL A   1      36.042  19.551  24.709  1.00  0.00    -0.258 OA
ATOM     28  O   UNL A   1      34.379  18.166  24.357  1.00  0.00    -0.258 OA
ENDBRANCH  23  26
ENDBRANCH  16  19
ENDBRANCH   9  15
ENDBRANCH   5   8
ENDBRANCH   3   4
ENDBRANCH   2   3
ENDBRANCH   1   2
BRANCH   1  29
ATOM     29  C   UNL A   1      34.991  31.957  27.852  1.00  0.00     0.002 C 
BRANCH  29  30
ATOM     30  C   UNL A   1      34.382  32.499  29.143  1.00  0.00     0.021 C 
BRANCH  30  31
ATOM     31  C   UNL A   1      34.385  34.015  29.284  1.00  0.00     0.116 C 
BRANCH  31  32
ATOM     32  N   UNL A   1      33.522  34.561  30.320  1.00  0.00    -0.352 N 
ATOM     33  C   UNL A   1      33.699  34.512  31.698  1.00  0.00     0.251 C 
ATOM     34  H   UNL A   1      32.712  35.025  30.007  1.00  0.00     0.163 HD
ATOM     35  O   UNL A   1      32.855  34.949  32.461  1.00  0.00    -0.269 OA
BRANCH  33  36
ATOM     36  C   UNL A   1      35.001  34.027  32.233  1.00  0.00     0.039 A 
ATOM     37  C   UNL A   1      36.109  34.870  32.100  1.00  0.00     0.014 A 
ATOM     38  C   UNL A   1      35.175  32.705  32.635  1.00  0.00     0.014 A 
ATOM     39  C   UNL A   1      37.392  34.323  32.123  1.00  0.00     0.010 A 
ATOM     40  C   UNL A   1      36.437  32.141  32.558  1.00  0.00     0.010 A 
ATOM     41  C   UNL A   1      37.537  32.938  32.235  1.00  0.00    -0.014 A 
BRANCH  41  42
ATOM     42  C   UNL A   1      38.781  32.247  31.913  1.00  0.00     0.031 A 
ATOM     43  C   UNL A   1      38.761  30.976  31.158  1.00  0.00     0.074 A 
ATOM     44  C   UNL A   1      39.974  32.729  32.330  1.00  0.00     0.049 A 
ATOM     45  N   UNL A   1      39.546  29.981  31.408  1.00  0.00    -0.248 NA
ATOM     46  C   UNL A   1      37.833  30.722  30.062  1.00  0.00     0.031 C 
ATOM     47  C   UNL A   1      41.294  32.204  31.978  1.00  0.00     0.029 A 
ATOM     48  N   UNL A   1      40.250  33.656  33.334  1.00  0.00    -0.354 N 
ATOM     49  C   UNL A   1      39.444  29.106  30.352  1.00  0.00     0.074 A 
ATOM     50  C   UNL A   1      38.302  29.561  29.591  1.00  0.00     0.031 C 
ATOM     51  C   UNL A   1      42.160  32.543  32.946  1.00  0.00     0.029 A 
ATOM     52  C   UNL A   1      41.393  33.190  33.997  1.00  0.00     0.049 A 
ATOM     53  H   UNL A   1      39.742  34.475  33.537  1.00  0.00     0.167 HD
ATOM     54  C   UNL A   1      40.424  28.187  30.122  1.00  0.00     0.034 A 
ATOM     55  C   UNL A   1      41.457  32.885  35.325  1.00  0.00     0.034 A 
ATOM     56  C   UNL A   1      41.546  28.340  31.042  1.00  0.00     0.049 A 
ATOM     57  C   UNL A   1      41.982  31.491  35.597  1.00  0.00     0.074 A 
ATOM     58  C   UNL A   1      42.789  28.934  30.896  1.00  0.00     0.029 A 
ATOM     59  N   UNL A   1      41.393  28.070  32.394  1.00  0.00    -0.354 N 
ATOM     60  N   UNL A   1      42.033  30.546  34.701  1.00  0.00    -0.248 NA
ATOM     61  C   UNL A   1      42.442  31.037  36.905  1.00  0.00     0.031 C 
ATOM     62  C   UNL A   1      43.392  29.015  32.173  1.00  0.00     0.029 A 
ATOM     63  C   UNL A   1      42.520  28.460  33.094  1.00  0.00     0.049 A 
ATOM     64  H   UNL A   1      40.596  27.658  32.799  1.00  0.00     0.167 HD
ATOM     65  C   UNL A   1      42.504  29.385  35.270  1.00  0.00     0.074 A 
ATOM     66  C   UNL A   1      42.752  29.752  36.652  1.00  0.00     0.031 C 
ATOM     67  C   UNL A   1      42.629  28.238  34.530  1.00  0.00     0.034 A 
BRANCH  54  68
ATOM     68  C   UNL A   1      40.521  27.364  28.858  1.00  0.00     0.023 A 
ATOM     69  C   UNL A   1      41.528  27.655  27.914  1.00  0.00     0.031 A 
ATOM     70  C   UNL A   1      39.665  26.299  28.522  1.00  0.00     0.131 A 
ATOM     71  C   UNL A   1      41.586  27.001  26.672  1.00  0.00     0.055 A 
ATOM     72  C   UNL A   1      39.691  25.676  27.266  1.00  0.00     0.041 A 
ATOM     73  F   UNL A   1      38.791  25.799  29.410  1.00  0.00    -0.206 F 
ATOM     74  C   UNL A   1      40.645  26.038  26.325  1.00  0.00     0.022 A 
BRANCH  71  75
ATOM     75  S   UNL A   1      42.915  27.437  25.517  1.00  0.00     0.124 S 
ATOM     76  O   UNL A   1      42.259  28.399  24.637  1.00  0.00    -0.237 OA
ATOM     77  O   UNL A   1      43.938  27.971  26.409  1.00  0.00    -0.237 OA
ATOM     78  O   UNL A   1      43.251  26.159  24.890  1.00  0.00    -0.744 OA
ENDBRANCH  71  75
ENDBRANCH  54  68
BRANCH  55  79
ATOM     79  C   UNL A   1      40.460  33.590  36.173  1.00  0.00     0.023 A 
ATOM     80  C   UNL A   1      39.340  32.858  36.611  1.00  0.00     0.031 A 
ATOM     81  C   UNL A   1      40.784  34.775  36.848  1.00  0.00     0.131 A 
ATOM     82  C   UNL A   1      38.672  33.231  37.785  1.00  0.00     0.055 A 
ATOM     83  C   UNL A   1      40.087  35.169  37.995  1.00  0.00     0.041 A 
ATOM     84  F   UNL A   1      41.860  35.492  36.493  1.00  0.00    -0.206 F 
ATOM     85  C   UNL A   1      39.057  34.373  38.494  1.00  0.00     0.022 A 
BRANCH  82  86
ATOM     86  S   UNL A   1      37.465  32.095  38.529  1.00  0.00     0.124 S 
ATOM     87  O   UNL A   1      36.236  32.878  38.472  1.00  0.00    -0.237 OA
ATOM     88  O   UNL A   1      37.514  30.931  37.650  1.00  0.00    -0.237 OA
ATOM     89  O   UNL A   1      38.014  31.871  39.864  1.00  0.00    -0.744 OA
ENDBRANCH  82  86
ENDBRANCH  55  79
BRANCH  67  90
ATOM     90  C   UNL A   1      42.953  26.833  35.021  1.00  0.00     0.023 A 
ATOM     91  C   UNL A   1      43.935  26.005  34.461  1.00  0.00     0.031 A 
ATOM     92  C   UNL A   1      42.276  26.277  36.143  1.00  0.00     0.131 A 
ATOM     93  C   UNL A   1      44.181  24.708  34.958  1.00  0.00     0.055 A 
ATOM     94  C   UNL A   1      42.551  25.008  36.664  1.00  0.00     0.041 A 
ATOM     95  F   UNL A   1      41.319  26.946  36.803  1.00  0.00    -0.206 F 
ATOM     96  C   UNL A   1      43.506  24.208  36.066  1.00  0.00     0.022 A 
BRANCH  93  97
ATOM     97  S   UNL A   1      45.392  23.674  34.092  1.00  0.00     0.124 S 
ATOM     98  O   UNL A   1      45.443  22.489  34.946  1.00  0.00    -0.237 OA
ATOM     99  O   UNL A   1      44.766  23.488  32.788  1.00  0.00    -0.237 OA
ATOM    100  O   UNL A   1      46.605  24.489  34.088  1.00  0.00    -0.744 OA
ENDBRANCH  93  97
ENDBRANCH  67  90
ENDBRANCH  41  42
ENDBRANCH  33  36
ENDBRANCH  31  32
ENDBRANCH  30  31
ENDBRANCH  29  30
ENDBRANCH   1  29
TORSDOF 19
ENDMDL
