MODEL 1
REMARK VINA RESULT:     -11.8      0.000      0.000
REMARK SMILES O=C(COc1ccc(N2C[C@@H](C(=O)NCCCCCCNC(=O)c3ccc(-c4c5nc(c(-c6cc(S(=O)(=O)[O-])ccc6F)c6ccc([nH]6)c(-c6cc(S(=O)(=O)[O-])ccc6F)c6nc(c(-c7cc(S(=O)(=O)[O-])ccc7F)c7ccc4[nH]7)C=C6)C=C5)cc3)CC2=O)cc1)Nc1ccc(Cl)cc1Cl
REMARK SMILES IDX 16 1 15 2 14 3 12 4 13 5 11 7 9 8 10 9 88 10 87 11 89 12
REMARK SMILES IDX 8 13 5 14 6 15 91 16 7 17 90 18 4 19 3 20 2 21 1 22 92 23
REMARK SMILES IDX 93 25 94 26 99 27 95 28 98 29 100 30 96 31 97 32 17 33 18 34
REMARK SMILES IDX 19 35 20 36 21 37 22 38 23 40 24 41 25 42 86 43 26 44 85 45
REMARK SMILES IDX 27 46 28 47 29 48 79 49 30 50 84 51 78 52 80 53 31 54 83 55
REMARK SMILES IDX 77 56 76 57 32 59 64 60 44 61 63 62 45 63 48 64 62 65 81 66
REMARK SMILES IDX 46 67 47 68 61 70 82 71 49 72 33 73 34 74 42 75 35 76 41 77
REMARK SMILES IDX 43 78 40 79 36 80 37 81 38 82 39 83 65 84 66 85 74 86 67 87
REMARK SMILES IDX 73 88 75 89 72 90 68 91 69 92 70 93 71 94 50 95 51 96 59 97
REMARK SMILES IDX 52 98 58 99 60 100 57 101 53 102 54 103 55 104 56 105
REMARK H PARENT 14 6 92 24 21 39 80 58 48 69
REMARK Flexibility Score: inf
ROOT
ATOM      1  C   UNL A   1      31.872  27.765  26.240  1.00  0.00     0.021 C 
ENDROOT
BRANCH   1   2
ATOM      2  C   UNL A   1      31.324  26.542  25.502  1.00  0.00     0.116 C 
BRANCH   2   3
ATOM      3  N   UNL A   1      30.399  25.794  26.338  1.00  0.00    -0.356 N 
ATOM      4  C   UNL A   1      30.152  24.467  26.458  1.00  0.00     0.225 C 
ATOM      5  O   UNL A   1      29.261  24.123  27.242  1.00  0.00    -0.275 OA
ATOM      6  H   UNL A   1      29.849  26.358  26.927  1.00  0.00     0.163 HD
BRANCH   4   7
ATOM      7  C   UNL A   1      30.941  23.410  25.716  1.00  0.00     0.107 C 
ATOM      8  N   UNL A   1      33.218  23.153  25.183  1.00  0.00    -0.312 N 
ATOM      9  C   UNL A   1      32.324  23.206  26.308  1.00  0.00     0.139 C 
ATOM     10  C   UNL A   1      32.586  23.441  23.975  1.00  0.00     0.227 C 
ATOM     11  C   UNL A   1      31.122  23.664  24.229  1.00  0.00     0.116 C 
ATOM     12  O   UNL A   1      33.078  23.488  22.854  1.00  0.00    -0.274 OA
BRANCH   8  13
ATOM     13  C   UNL A   1      34.610  22.964  25.335  1.00  0.00     0.044 A 
ATOM     14  C   UNL A   1      37.403  22.661  25.551  1.00  0.00     0.120 A 
ATOM     15  C   UNL A   1      36.598  21.557  25.278  1.00  0.00     0.048 A 
ATOM     16  C   UNL A   1      36.809  23.907  25.724  1.00  0.00     0.048 A 
ATOM     17  C   UNL A   1      35.202  21.700  25.204  1.00  0.00     0.030 A 
ATOM     18  C   UNL A   1      35.429  24.058  25.607  1.00  0.00     0.030 A 
BRANCH  14  19
ATOM     19  O   UNL A   1      38.763  22.508  25.475  1.00  0.00    -0.484 OA
BRANCH  19  20
ATOM     20  C   UNL A   1      39.244  21.269  26.002  1.00  0.00     0.329 C 
BRANCH  20  21
ATOM     21  C   UNL A   1      40.747  21.195  26.286  1.00  0.00     0.262 C 
ATOM     22  O   UNL A   1      41.216  20.256  26.921  1.00  0.00    -0.271 OA
ATOM     23  N   UNL A   1      41.427  22.334  25.870  1.00  0.00    -0.322 N 
ATOM     24  H   UNL A   1      40.937  22.987  25.320  1.00  0.00     0.170 HD
BRANCH  23  25
ATOM     25  C   UNL A   1      42.778  22.615  26.186  1.00  0.00     0.060 A 
ATOM     26  C   UNL A   1      43.685  22.507  25.117  1.00  0.00     0.029 A 
ATOM     27  C   UNL A   1      43.260  23.016  27.446  1.00  0.00     0.066 A 
ATOM     28  C   UNL A   1      45.019  22.889  25.274  1.00  0.00     0.023 A 
ATOM     29  C   UNL A   1      44.599  23.399  27.599  1.00  0.00     0.043 A 
ATOM     30  Cl  UNL A   1      42.323  22.884  28.894  1.00  0.00    -0.082 Cl
ATOM     31  C   UNL A   1      45.465  23.350  26.510  1.00  0.00     0.042 A 
ATOM     32  Cl  UNL A   1      47.103  23.838  26.687  1.00  0.00    -0.084 Cl
ENDBRANCH  23  25
ENDBRANCH  20  21
ENDBRANCH  19  20
ENDBRANCH  14  19
ENDBRANCH   8  13
ENDBRANCH   4   7
ENDBRANCH   2   3
ENDBRANCH   1   2
BRANCH   1  33
ATOM     33  C   UNL A   1      32.305  28.916  25.321  1.00  0.00     0.002 C 
BRANCH  33  34
ATOM     34  C   UNL A   1      31.611  30.257  25.582  1.00  0.00     0.002 C 
BRANCH  34  35
ATOM     35  C   UNL A   1      31.865  30.859  26.965  1.00  0.00     0.021 C 
BRANCH  35  36
ATOM     36  C   UNL A   1      33.067  31.795  27.041  1.00  0.00     0.116 C 
BRANCH  36  37
ATOM     37  N   UNL A   1      32.674  33.169  27.310  1.00  0.00    -0.352 N 
ATOM     38  C   UNL A   1      33.118  34.015  28.297  1.00  0.00     0.251 C 
ATOM     39  H   UNL A   1      31.996  33.544  26.702  1.00  0.00     0.163 HD
ATOM     40  O   UNL A   1      32.534  35.074  28.507  1.00  0.00    -0.269 OA
BRANCH  38  41
ATOM     41  C   UNL A   1      34.286  33.628  29.117  1.00  0.00     0.039 A 
ATOM     42  C   UNL A   1      34.113  32.724  30.167  1.00  0.00     0.014 A 
ATOM     43  C   UNL A   1      35.555  34.143  28.834  1.00  0.00     0.014 A 
ATOM     44  C   UNL A   1      35.225  32.283  30.892  1.00  0.00     0.010 A 
ATOM     45  C   UNL A   1      36.667  33.648  29.508  1.00  0.00     0.010 A 
ATOM     46  C   UNL A   1      36.517  32.711  30.543  1.00  0.00    -0.014 A 
BRANCH  46  47
ATOM     47  C   UNL A   1      37.728  32.201  31.239  1.00  0.00     0.031 A 
ATOM     48  C   UNL A   1      38.576  31.146  30.581  1.00  0.00     0.074 A 
ATOM     49  C   UNL A   1      38.008  32.616  32.493  1.00  0.00     0.049 A 
ATOM     50  N   UNL A   1      39.578  30.465  31.074  1.00  0.00    -0.248 NA
ATOM     51  C   UNL A   1      38.233  30.789  29.196  1.00  0.00     0.031 C 
ATOM     52  C   UNL A   1      37.244  33.615  33.243  1.00  0.00     0.029 A 
ATOM     53  N   UNL A   1      38.994  32.230  33.369  1.00  0.00    -0.354 N 
ATOM     54  C   UNL A   1      39.963  29.578  30.073  1.00  0.00     0.074 A 
ATOM     55  C   UNL A   1      39.067  29.787  28.958  1.00  0.00     0.031 C 
ATOM     56  C   UNL A   1      37.789  33.764  34.462  1.00  0.00     0.029 A 
ATOM     57  C   UNL A   1      38.903  32.832  34.606  1.00  0.00     0.049 A 
ATOM     58  H   UNL A   1      39.699  31.585  33.136  1.00  0.00     0.167 HD
ATOM     59  C   UNL A   1      40.977  28.681  30.087  1.00  0.00     0.034 A 
ATOM     60  C   UNL A   1      39.611  32.629  35.738  1.00  0.00     0.034 A 
ATOM     61  C   UNL A   1      41.879  28.508  31.198  1.00  0.00     0.049 A 
ATOM     62  C   UNL A   1      40.721  31.604  35.729  1.00  0.00     0.074 A 
ATOM     63  C   UNL A   1      42.992  27.689  31.279  1.00  0.00     0.029 A 
ATOM     64  N   UNL A   1      41.767  29.148  32.425  1.00  0.00    -0.354 N 
ATOM     65  N   UNL A   1      41.113  30.821  34.751  1.00  0.00    -0.248 NA
ATOM     66  C   UNL A   1      41.489  31.437  36.972  1.00  0.00     0.031 C 
ATOM     67  C   UNL A   1      43.498  27.765  32.578  1.00  0.00     0.029 A 
ATOM     68  C   UNL A   1      42.764  28.708  33.280  1.00  0.00     0.049 A 
ATOM     69  H   UNL A   1      41.080  29.816  32.652  1.00  0.00     0.167 HD
ATOM     70  C   UNL A   1      42.199  30.106  35.248  1.00  0.00     0.074 A 
ATOM     71  C   UNL A   1      42.404  30.551  36.610  1.00  0.00     0.031 C 
ATOM     72  C   UNL A   1      42.965  29.172  34.633  1.00  0.00     0.034 A 
BRANCH  59  73
ATOM     73  C   UNL A   1      41.153  27.785  28.886  1.00  0.00     0.023 A 
ATOM     74  C   UNL A   1      42.159  28.002  27.930  1.00  0.00     0.031 A 
ATOM     75  C   UNL A   1      40.312  26.669  28.717  1.00  0.00     0.131 A 
ATOM     76  C   UNL A   1      42.273  27.142  26.827  1.00  0.00     0.055 A 
ATOM     77  C   UNL A   1      40.477  25.775  27.658  1.00  0.00     0.041 A 
ATOM     78  F   UNL A   1      39.318  26.425  29.585  1.00  0.00    -0.206 F 
ATOM     79  C   UNL A   1      41.457  26.015  26.700  1.00  0.00     0.022 A 
BRANCH  76  80
ATOM     80  S   UNL A   1      43.434  27.574  25.503  1.00  0.00     0.124 S 
ATOM     81  O   UNL A   1      44.268  26.375  25.441  1.00  0.00    -0.237 OA
ATOM     82  O   UNL A   1      42.550  27.796  24.367  1.00  0.00    -0.237 OA
ATOM     83  O   UNL A   1      44.108  28.766  26.013  1.00  0.00    -0.744 OA
ENDBRANCH  76  80
ENDBRANCH  59  73
BRANCH  60  84
ATOM     84  C   UNL A   1      39.275  33.368  36.993  1.00  0.00     0.023 A 
ATOM     85  C   UNL A   1      39.859  34.612  37.280  1.00  0.00     0.031 A 
ATOM     86  C   UNL A   1      38.432  32.798  37.965  1.00  0.00     0.131 A 
ATOM     87  C   UNL A   1      39.654  35.210  38.533  1.00  0.00     0.055 A 
ATOM     88  C   UNL A   1      38.171  33.433  39.181  1.00  0.00     0.041 A 
ATOM     89  F   UNL A   1      37.850  31.609  37.746  1.00  0.00    -0.206 F 
ATOM     90  C   UNL A   1      38.801  34.637  39.480  1.00  0.00     0.022 A 
BRANCH  87  91
ATOM     91  S   UNL A   1      40.633  36.677  38.962  1.00  0.00     0.124 S 
ATOM     92  O   UNL A   1      41.062  36.358  40.320  1.00  0.00    -0.237 OA
ATOM     93  O   UNL A   1      41.673  36.657  37.940  1.00  0.00    -0.237 OA
ATOM     94  O   UNL A   1      39.673  37.773  38.853  1.00  0.00    -0.744 OA
ENDBRANCH  87  91
ENDBRANCH  60  84
BRANCH  72  95
ATOM     95  C   UNL A   1      44.148  28.622  35.390  1.00  0.00     0.023 A 
ATOM     96  C   UNL A   1      44.018  27.598  36.343  1.00  0.00     0.031 A 
ATOM     97  C   UNL A   1      45.439  29.113  35.116  1.00  0.00     0.131 A 
ATOM     98  C   UNL A   1      45.157  27.119  37.011  1.00  0.00     0.055 A 
ATOM     99  C   UNL A   1      46.572  28.593  35.740  1.00  0.00     0.041 A 
ATOM    100  F   UNL A   1      45.619  30.095  34.218  1.00  0.00    -0.206 F 
ATOM    101  C   UNL A   1      46.433  27.595  36.700  1.00  0.00     0.022 A 
BRANCH  98 102
ATOM    102  S   UNL A   1      44.947  25.902  38.339  1.00  0.00     0.124 S 
ATOM    103  O   UNL A   1      43.834  26.465  39.095  1.00  0.00    -0.237 OA
ATOM    104  O   UNL A   1      44.660  24.677  37.600  1.00  0.00    -0.237 OA
ATOM    105  O   UNL A   1      46.236  25.918  39.028  1.00  0.00    -0.744 OA
ENDBRANCH  98 102
ENDBRANCH  72  95
ENDBRANCH  46  47
ENDBRANCH  38  41
ENDBRANCH  36  37
ENDBRANCH  35  36
ENDBRANCH  34  35
ENDBRANCH  33  34
ENDBRANCH   1  33
TORSDOF 21
ENDMDL
MODEL 2
REMARK VINA RESULT:     -11.6      5.446     11.990
REMARK SMILES O=C(COc1ccc(N2C[C@@H](C(=O)NCCCCCCNC(=O)c3ccc(-c4c5nc(c(-c6cc(S(=O)(=O)[O-])ccc6F)c6ccc([nH]6)c(-c6cc(S(=O)(=O)[O-])ccc6F)c6nc(c(-c7cc(S(=O)(=O)[O-])ccc7F)c7ccc4[nH]7)C=C6)C=C5)cc3)CC2=O)cc1)Nc1ccc(Cl)cc1Cl
REMARK SMILES IDX 16 1 15 2 14 3 12 4 13 5 11 7 9 8 10 9 88 10 87 11 89 12
REMARK SMILES IDX 8 13 5 14 6 15 91 16 7 17 90 18 4 19 3 20 2 21 1 22 92 23
REMARK SMILES IDX 93 25 94 26 99 27 95 28 98 29 100 30 96 31 97 32 17 33 18 34
REMARK SMILES IDX 19 35 20 36 21 37 22 38 23 40 24 41 25 42 86 43 26 44 85 45
REMARK SMILES IDX 27 46 28 47 29 48 79 49 30 50 84 51 78 52 80 53 31 54 83 55
REMARK SMILES IDX 77 56 76 57 32 59 64 60 44 61 63 62 45 63 48 64 62 65 81 66
REMARK SMILES IDX 46 67 47 68 61 70 82 71 49 72 33 73 34 74 42 75 35 76 41 77
REMARK SMILES IDX 43 78 40 79 36 80 37 81 38 82 39 83 65 84 66 85 74 86 67 87
REMARK SMILES IDX 73 88 75 89 72 90 68 91 69 92 70 93 71 94 50 95 51 96 59 97
REMARK SMILES IDX 52 98 58 99 60 100 57 101 53 102 54 103 55 104 56 105
REMARK H PARENT 14 6 92 24 21 39 80 58 48 69
REMARK Flexibility Score: inf
ROOT
ATOM      1  C   UNL A   1      36.667  22.754  24.427  1.00  0.00     0.021 C 
ENDROOT
BRANCH   1   2
ATOM      2  C   UNL A   1      35.137  22.793  24.408  1.00  0.00     0.116 C 
BRANCH   2   3
ATOM      3  N   UNL A   1      34.632  22.940  23.053  1.00  0.00    -0.356 N 
ATOM      4  C   UNL A   1      33.475  23.452  22.564  1.00  0.00     0.225 C 
ATOM      5  O   UNL A   1      33.305  23.406  21.342  1.00  0.00    -0.275 OA
ATOM      6  H   UNL A   1      35.244  22.603  22.360  1.00  0.00     0.163 HD
BRANCH   4   7
ATOM      7  C   UNL A   1      32.428  24.106  23.439  1.00  0.00     0.107 C 
ATOM      8  N   UNL A   1      32.516  25.688  25.179  1.00  0.00    -0.312 N 
ATOM      9  C   UNL A   1      32.776  25.546  23.771  1.00  0.00     0.139 C 
ATOM     10  C   UNL A   1      32.187  24.481  25.793  1.00  0.00     0.227 C 
ATOM     11  C   UNL A   1      32.150  23.396  24.754  1.00  0.00     0.116 C 
ATOM     12  O   UNL A   1      31.927  24.276  26.972  1.00  0.00    -0.274 OA
BRANCH   8  13
ATOM     13  C   UNL A   1      32.717  26.907  25.863  1.00  0.00     0.044 A 
ATOM     14  C   UNL A   1      33.034  29.386  27.163  1.00  0.00     0.120 A 
ATOM     15  C   UNL A   1      34.109  28.804  26.494  1.00  0.00     0.048 A 
ATOM     16  C   UNL A   1      31.811  28.724  27.188  1.00  0.00     0.048 A 
ATOM     17  C   UNL A   1      33.962  27.551  25.875  1.00  0.00     0.030 A 
ATOM     18  C   UNL A   1      31.652  27.503  26.536  1.00  0.00     0.030 A 
BRANCH  14  19
ATOM     19  O   UNL A   1      33.178  30.667  27.631  1.00  0.00    -0.484 OA
BRANCH  19  20
ATOM     20  C   UNL A   1      34.406  31.295  27.254  1.00  0.00     0.329 C 
BRANCH  20  21
ATOM     21  C   UNL A   1      34.766  32.579  28.007  1.00  0.00     0.262 C 
ATOM     22  O   UNL A   1      35.939  32.899  28.170  1.00  0.00    -0.271 OA
ATOM     23  N   UNL A   1      33.654  33.207  28.556  1.00  0.00    -0.322 N 
ATOM     24  H   UNL A   1      32.763  32.875  28.297  1.00  0.00     0.170 HD
BRANCH  23  25
ATOM     25  C   UNL A   1      33.719  34.293  29.462  1.00  0.00     0.060 A 
ATOM     26  C   UNL A   1      33.381  35.549  28.928  1.00  0.00     0.029 A 
ATOM     27  C   UNL A   1      34.052  34.205  30.827  1.00  0.00     0.066 A 
ATOM     28  C   UNL A   1      33.279  36.670  29.754  1.00  0.00     0.023 A 
ATOM     29  C   UNL A   1      33.947  35.331  31.652  1.00  0.00     0.043 A 
ATOM     30  Cl  UNL A   1      34.781  32.799  31.525  1.00  0.00    -0.082 Cl
ATOM     31  C   UNL A   1      33.545  36.551  31.115  1.00  0.00     0.042 A 
ATOM     32  Cl  UNL A   1      33.394  37.932  32.127  1.00  0.00    -0.084 Cl
ENDBRANCH  23  25
ENDBRANCH  20  21
ENDBRANCH  19  20
ENDBRANCH  14  19
ENDBRANCH   8  13
ENDBRANCH   4   7
ENDBRANCH   2   3
ENDBRANCH   1   2
BRANCH   1  33
ATOM     33  C   UNL A   1      37.296  23.256  25.735  1.00  0.00     0.002 C 
BRANCH  33  34
ATOM     34  C   UNL A   1      38.740  22.807  25.979  1.00  0.00     0.002 C 
BRANCH  34  35
ATOM     35  C   UNL A   1      39.047  21.364  25.574  1.00  0.00     0.021 C 
BRANCH  35  36
ATOM     36  C   UNL A   1      39.668  20.513  26.676  1.00  0.00     0.116 C 
BRANCH  36  37
ATOM     37  N   UNL A   1      40.685  19.609  26.161  1.00  0.00    -0.352 N 
ATOM     38  C   UNL A   1      41.989  19.881  25.821  1.00  0.00     0.251 C 
ATOM     39  H   UNL A   1      40.400  18.674  26.038  1.00  0.00     0.163 HD
ATOM     40  O   UNL A   1      42.651  19.047  25.211  1.00  0.00    -0.269 OA
BRANCH  38  41
ATOM     41  C   UNL A   1      42.575  21.192  26.175  1.00  0.00     0.039 A 
ATOM     42  C   UNL A   1      42.661  22.186  25.199  1.00  0.00     0.014 A 
ATOM     43  C   UNL A   1      43.020  21.442  27.476  1.00  0.00     0.014 A 
ATOM     44  C   UNL A   1      43.131  23.457  25.545  1.00  0.00     0.010 A 
ATOM     45  C   UNL A   1      43.419  22.727  27.834  1.00  0.00     0.010 A 
ATOM     46  C   UNL A   1      43.477  23.750  26.874  1.00  0.00    -0.014 A 
BRANCH  46  47
ATOM     47  C   UNL A   1      43.904  25.112  27.293  1.00  0.00     0.031 A 
ATOM     48  C   UNL A   1      42.886  26.076  27.840  1.00  0.00     0.074 A 
ATOM     49  C   UNL A   1      45.179  25.508  27.094  1.00  0.00     0.049 A 
ATOM     50  N   UNL A   1      43.018  27.346  28.120  1.00  0.00    -0.248 NA
ATOM     51  C   UNL A   1      41.533  25.548  28.075  1.00  0.00     0.031 C 
ATOM     52  C   UNL A   1      46.249  24.670  26.548  1.00  0.00     0.029 A 
ATOM     53  N   UNL A   1      45.787  26.723  27.302  1.00  0.00    -0.354 N 
ATOM     54  C   UNL A   1      41.761  27.777  28.533  1.00  0.00     0.074 A 
ATOM     55  C   UNL A   1      40.874  26.640  28.435  1.00  0.00     0.031 C 
ATOM     56  C   UNL A   1      47.378  25.394  26.465  1.00  0.00     0.029 A 
ATOM     57  C   UNL A   1      47.103  26.762  26.895  1.00  0.00     0.049 A 
ATOM     58  H   UNL A   1      45.326  27.494  27.704  1.00  0.00     0.167 HD
ATOM     59  C   UNL A   1      41.389  29.008  28.959  1.00  0.00     0.034 A 
ATOM     60  C   UNL A   1      47.978  27.789  26.839  1.00  0.00     0.034 A 
ATOM     61  C   UNL A   1      42.296  30.122  29.077  1.00  0.00     0.049 A 
ATOM     62  C   UNL A   1      47.527  29.155  27.299  1.00  0.00     0.074 A 
ATOM     63  C   UNL A   1      42.040  31.385  29.581  1.00  0.00     0.029 A 
ATOM     64  N   UNL A   1      43.625  30.117  28.674  1.00  0.00    -0.354 N 
ATOM     65  N   UNL A   1      46.350  29.528  27.748  1.00  0.00    -0.248 NA
ATOM     66  C   UNL A   1      48.520  30.239  27.253  1.00  0.00     0.031 C 
ATOM     67  C   UNL A   1      43.182  32.169  29.402  1.00  0.00     0.029 A 
ATOM     68  C   UNL A   1      44.185  31.368  28.878  1.00  0.00     0.049 A 
ATOM     69  H   UNL A   1      44.098  29.339  28.298  1.00  0.00     0.167 HD
ATOM     70  C   UNL A   1      46.479  30.875  28.079  1.00  0.00     0.074 A 
ATOM     71  C   UNL A   1      47.845  31.249  27.782  1.00  0.00     0.031 C 
ATOM     72  C   UNL A   1      45.554  31.724  28.591  1.00  0.00     0.034 A 
BRANCH  59  73
ATOM     73  C   UNL A   1      39.937  29.237  29.296  1.00  0.00     0.023 A 
ATOM     74  C   UNL A   1      39.486  29.355  30.621  1.00  0.00     0.031 A 
ATOM     75  C   UNL A   1      38.992  29.374  28.263  1.00  0.00     0.131 A 
ATOM     76  C   UNL A   1      38.122  29.561  30.879  1.00  0.00     0.055 A 
ATOM     77  C   UNL A   1      37.649  29.652  28.523  1.00  0.00     0.041 A 
ATOM     78  F   UNL A   1      39.361  29.247  26.979  1.00  0.00    -0.206 F 
ATOM     79  C   UNL A   1      37.206  29.737  29.838  1.00  0.00     0.022 A 
BRANCH  76  80
ATOM     80  S   UNL A   1      37.540  29.490  32.595  1.00  0.00     0.124 S 
ATOM     81  O   UNL A   1      36.228  30.125  32.488  1.00  0.00    -0.237 OA
ATOM     82  O   UNL A   1      37.537  28.058  32.869  1.00  0.00    -0.237 OA
ATOM     83  O   UNL A   1      38.540  30.264  33.329  1.00  0.00    -0.744 OA
ENDBRANCH  76  80
ENDBRANCH  59  73
BRANCH  60  84
ATOM     84  C   UNL A   1      49.353  27.594  26.287  1.00  0.00     0.023 A 
ATOM     85  C   UNL A   1      49.631  27.829  24.931  1.00  0.00     0.031 A 
ATOM     86  C   UNL A   1      50.390  27.083  27.090  1.00  0.00     0.131 A 
ATOM     87  C   UNL A   1      50.885  27.487  24.402  1.00  0.00     0.055 A 
ATOM     88  C   UNL A   1      51.660  26.814  26.575  1.00  0.00     0.041 A 
ATOM     89  F   UNL A   1      50.180  26.835  28.392  1.00  0.00    -0.206 F 
ATOM     90  C   UNL A   1      51.907  26.997  25.219  1.00  0.00     0.022 A 
BRANCH  87  91
ATOM     91  S   UNL A   1      51.114  27.558  22.604  1.00  0.00     0.124 S 
ATOM     92  O   UNL A   1      49.859  26.989  22.124  1.00  0.00    -0.237 OA
ATOM     93  O   UNL A   1      51.298  28.988  22.378  1.00  0.00    -0.237 OA
ATOM     94  O   UNL A   1      52.299  26.735  22.377  1.00  0.00    -0.744 OA
ENDBRANCH  87  91
ENDBRANCH  60  84
BRANCH  72  95
ATOM     95  C   UNL A   1      46.001  33.121  28.943  1.00  0.00     0.023 A 
ATOM     96  C   UNL A   1      45.706  34.229  28.131  1.00  0.00     0.031 A 
ATOM     97  C   UNL A   1      46.704  33.345  30.142  1.00  0.00     0.131 A 
ATOM     98  C   UNL A   1      46.141  35.508  28.513  1.00  0.00     0.055 A 
ATOM     99  C   UNL A   1      47.080  34.625  30.545  1.00  0.00     0.041 A 
ATOM    100  F   UNL A   1      47.015  32.321  30.952  1.00  0.00    -0.206 F 
ATOM    101  C   UNL A   1      46.806  35.715  29.725  1.00  0.00     0.022 A 
BRANCH  98 102
ATOM    102  S   UNL A   1      45.876  36.899  27.380  1.00  0.00     0.124 S 
ATOM    103  O   UNL A   1      47.199  37.065  26.788  1.00  0.00    -0.237 OA
ATOM    104  O   UNL A   1      44.839  36.387  26.490  1.00  0.00    -0.237 OA
ATOM    105  O   UNL A   1      45.451  37.985  28.262  1.00  0.00    -0.744 OA
ENDBRANCH  98 102
ENDBRANCH  72  95
ENDBRANCH  46  47
ENDBRANCH  38  41
ENDBRANCH  36  37
ENDBRANCH  35  36
ENDBRANCH  34  35
ENDBRANCH  33  34
ENDBRANCH   1  33
TORSDOF 21
ENDMDL
MODEL 3
REMARK VINA RESULT:     -10.8      4.737     10.335
REMARK SMILES O=C(COc1ccc(N2C[C@@H](C(=O)NCCCCCCNC(=O)c3ccc(-c4c5nc(c(-c6cc(S(=O)(=O)[O-])ccc6F)c6ccc([nH]6)c(-c6cc(S(=O)(=O)[O-])ccc6F)c6nc(c(-c7cc(S(=O)(=O)[O-])ccc7F)c7ccc4[nH]7)C=C6)C=C5)cc3)CC2=O)cc1)Nc1ccc(Cl)cc1Cl
REMARK SMILES IDX 16 1 15 2 14 3 12 4 13 5 11 7 9 8 10 9 88 10 87 11 89 12
REMARK SMILES IDX 8 13 5 14 6 15 91 16 7 17 90 18 4 19 3 20 2 21 1 22 92 23
REMARK SMILES IDX 93 25 94 26 99 27 95 28 98 29 100 30 96 31 97 32 17 33 18 34
REMARK SMILES IDX 19 35 20 36 21 37 22 38 23 40 24 41 25 42 86 43 26 44 85 45
REMARK SMILES IDX 27 46 28 47 29 48 79 49 30 50 84 51 78 52 80 53 31 54 83 55
REMARK SMILES IDX 77 56 76 57 32 59 64 60 44 61 63 62 45 63 48 64 62 65 81 66
REMARK SMILES IDX 46 67 47 68 61 70 82 71 49 72 33 73 34 74 42 75 35 76 41 77
REMARK SMILES IDX 43 78 40 79 36 80 37 81 38 82 39 83 65 84 66 85 74 86 67 87
REMARK SMILES IDX 73 88 75 89 72 90 68 91 69 92 70 93 71 94 50 95 51 96 59 97
REMARK SMILES IDX 52 98 58 99 60 100 57 101 53 102 54 103 55 104 56 105
REMARK H PARENT 14 6 92 24 21 39 80 58 48 69
REMARK Flexibility Score: inf
ROOT
ATOM      1  C   UNL A   1      35.986  33.725  34.457  1.00  0.00     0.021 C 
ENDROOT
BRANCH   1   2
ATOM      2  C   UNL A   1      37.085  32.691  34.205  1.00  0.00     0.116 C 
BRANCH   2   3
ATOM      3  N   UNL A   1      37.272  31.830  35.362  1.00  0.00    -0.356 N 
ATOM      4  C   UNL A   1      38.316  31.065  35.767  1.00  0.00     0.225 C 
ATOM      5  O   UNL A   1      38.165  30.398  36.795  1.00  0.00    -0.275 OA
ATOM      6  H   UNL A   1      36.494  31.795  35.963  1.00  0.00     0.163 HD
BRANCH   4   7
ATOM      7  C   UNL A   1      39.646  31.035  35.046  1.00  0.00     0.107 C 
ATOM      8  N   UNL A   1      41.439  29.511  35.000  1.00  0.00    -0.312 N 
ATOM      9  C   UNL A   1      40.049  29.627  34.646  1.00  0.00     0.139 C 
ATOM     10  C   UNL A   1      41.913  30.619  35.701  1.00  0.00     0.227 C 
ATOM     11  C   UNL A   1      40.811  31.635  35.816  1.00  0.00     0.116 C 
ATOM     12  O   UNL A   1      43.038  30.810  36.146  1.00  0.00    -0.274 OA
BRANCH   8  13
ATOM     13  C   UNL A   1      42.179  28.330  34.772  1.00  0.00     0.044 A 
ATOM     14  C   UNL A   1      43.573  25.940  34.242  1.00  0.00     0.120 A 
ATOM     15  C   UNL A   1      43.172  26.244  35.541  1.00  0.00     0.048 A 
ATOM     16  C   UNL A   1      43.285  26.835  33.217  1.00  0.00     0.048 A 
ATOM     17  C   UNL A   1      42.508  27.451  35.813  1.00  0.00     0.030 A 
ATOM     18  C   UNL A   1      42.586  28.012  33.477  1.00  0.00     0.030 A 
BRANCH  14  19
ATOM     19  O   UNL A   1      44.091  24.695  33.997  1.00  0.00    -0.484 OA
BRANCH  19  20
ATOM     20  C   UNL A   1      43.732  23.708  34.967  1.00  0.00     0.329 C 
BRANCH  20  21
ATOM     21  C   UNL A   1      44.881  23.120  35.791  1.00  0.00     0.262 C 
ATOM     22  O   UNL A   1      45.189  23.612  36.872  1.00  0.00    -0.271 OA
ATOM     23  N   UNL A   1      45.561  22.112  35.117  1.00  0.00    -0.322 N 
ATOM     24  H   UNL A   1      45.171  21.775  34.278  1.00  0.00     0.170 HD
BRANCH  23  25
ATOM     25  C   UNL A   1      46.778  21.539  35.560  1.00  0.00     0.060 A 
ATOM     26  C   UNL A   1      47.941  22.250  35.218  1.00  0.00     0.029 A 
ATOM     27  C   UNL A   1      46.901  20.364  36.325  1.00  0.00     0.066 A 
ATOM     28  C   UNL A   1      49.187  21.857  35.712  1.00  0.00     0.023 A 
ATOM     29  C   UNL A   1      48.152  19.974  36.820  1.00  0.00     0.043 A 
ATOM     30  Cl  UNL A   1      45.601  19.244  36.541  1.00  0.00    -0.082 Cl
ATOM     31  C   UNL A   1      49.283  20.731  36.526  1.00  0.00     0.042 A 
ATOM     32  Cl  UNL A   1      50.818  20.269  37.147  1.00  0.00    -0.084 Cl
ENDBRANCH  23  25
ENDBRANCH  20  21
ENDBRANCH  19  20
ENDBRANCH  14  19
ENDBRANCH   8  13
ENDBRANCH   4   7
ENDBRANCH   2   3
ENDBRANCH   1   2
BRANCH   1  33
ATOM     33  C   UNL A   1      35.696  34.643  33.261  1.00  0.00     0.002 C 
BRANCH  33  34
ATOM     34  C   UNL A   1      34.452  35.525  33.401  1.00  0.00     0.002 C 
BRANCH  34  35
ATOM     35  C   UNL A   1      33.370  35.292  32.344  1.00  0.00     0.021 C 
BRANCH  35  36
ATOM     36  C   UNL A   1      33.688  35.872  30.970  1.00  0.00     0.116 C 
BRANCH  36  37
ATOM     37  N   UNL A   1      32.957  35.196  29.910  1.00  0.00    -0.352 N 
ATOM     38  C   UNL A   1      33.393  34.215  29.052  1.00  0.00     0.251 C 
ATOM     39  H   UNL A   1      32.022  35.481  29.789  1.00  0.00     0.163 HD
ATOM     40  O   UNL A   1      32.709  33.898  28.083  1.00  0.00    -0.269 OA
BRANCH  38  41
ATOM     41  C   UNL A   1      34.699  33.564  29.293  1.00  0.00     0.039 A 
ATOM     42  C   UNL A   1      35.814  33.984  28.565  1.00  0.00     0.014 A 
ATOM     43  C   UNL A   1      34.823  32.555  30.251  1.00  0.00     0.014 A 
ATOM     44  C   UNL A   1      37.071  33.439  28.847  1.00  0.00     0.010 A 
ATOM     45  C   UNL A   1      36.084  32.066  30.580  1.00  0.00     0.010 A 
ATOM     46  C   UNL A   1      37.223  32.503  29.884  1.00  0.00    -0.014 A 
BRANCH  46  47
ATOM     47  C   UNL A   1      38.556  31.963  30.264  1.00  0.00     0.031 A 
ATOM     48  C   UNL A   1      39.416  32.720  31.240  1.00  0.00     0.074 A 
ATOM     49  C   UNL A   1      39.026  30.849  29.663  1.00  0.00     0.049 A 
ATOM     50  N   UNL A   1      40.657  32.504  31.588  1.00  0.00    -0.248 NA
ATOM     51  C   UNL A   1      38.806  33.892  31.888  1.00  0.00     0.031 C 
ATOM     52  C   UNL A   1      38.295  30.045  28.682  1.00  0.00     0.029 A 
ATOM     53  N   UNL A   1      40.242  30.216  29.767  1.00  0.00    -0.354 N 
ATOM     54  C   UNL A   1      40.989  33.529  32.469  1.00  0.00     0.074 A 
ATOM     55  C   UNL A   1      39.827  34.384  32.576  1.00  0.00     0.031 C 
ATOM     56  C   UNL A   1      39.073  29.027  28.277  1.00  0.00     0.029 A 
ATOM     57  C   UNL A   1      40.379  29.137  28.921  1.00  0.00     0.049 A 
ATOM     58  H   UNL A   1      40.948  30.505  30.388  1.00  0.00     0.167 HD
ATOM     59  C   UNL A   1      42.154  33.729  33.130  1.00  0.00     0.034 A 
ATOM     60  C   UNL A   1      41.445  28.349  28.664  1.00  0.00     0.034 A 
ATOM     61  C   UNL A   1      43.291  32.849  33.032  1.00  0.00     0.049 A 
ATOM     62  C   UNL A   1      42.739  28.612  29.399  1.00  0.00     0.074 A 
ATOM     63  C   UNL A   1      44.486  32.913  33.727  1.00  0.00     0.029 A 
ATOM     64  N   UNL A   1      43.385  31.757  32.180  1.00  0.00    -0.354 N 
ATOM     65  N   UNL A   1      43.012  29.548  30.278  1.00  0.00    -0.248 NA
ATOM     66  C   UNL A   1      43.866  27.710  29.116  1.00  0.00     0.031 C 
ATOM     67  C   UNL A   1      45.334  31.919  33.234  1.00  0.00     0.029 A 
ATOM     68  C   UNL A   1      44.634  31.169  32.301  1.00  0.00     0.049 A 
ATOM     69  H   UNL A   1      42.670  31.447  31.578  1.00  0.00     0.167 HD
ATOM     70  C   UNL A   1      44.325  29.317  30.683  1.00  0.00     0.074 A 
ATOM     71  C   UNL A   1      44.788  28.155  29.957  1.00  0.00     0.031 C 
ATOM     72  C   UNL A   1      45.077  30.000  31.581  1.00  0.00     0.034 A 
BRANCH  59  73
ATOM     73  C   UNL A   1      42.283  34.962  33.989  1.00  0.00     0.023 A 
ATOM     74  C   UNL A   1      41.835  34.997  35.320  1.00  0.00     0.031 A 
ATOM     75  C   UNL A   1      42.902  36.115  33.471  1.00  0.00     0.131 A 
ATOM     76  C   UNL A   1      41.973  36.173  36.073  1.00  0.00     0.055 A 
ATOM     77  C   UNL A   1      43.103  37.257  34.247  1.00  0.00     0.041 A 
ATOM     78  F   UNL A   1      43.328  36.147  32.198  1.00  0.00    -0.206 F 
ATOM     79  C   UNL A   1      42.629  37.293  35.554  1.00  0.00     0.022 A 
BRANCH  76  80
ATOM     80  S   UNL A   1      41.192  36.257  37.707  1.00  0.00     0.124 S 
ATOM     81  O   UNL A   1      42.106  37.144  38.425  1.00  0.00    -0.237 OA
ATOM     82  O   UNL A   1      39.877  36.807  37.401  1.00  0.00    -0.237 OA
ATOM     83  O   UNL A   1      41.197  34.868  38.162  1.00  0.00    -0.744 OA
ENDBRANCH  76  80
ENDBRANCH  59  73
BRANCH  60  84
ATOM     84  C   UNL A   1      41.367  27.266  27.637  1.00  0.00     0.023 A 
ATOM     85  C   UNL A   1      41.244  25.919  28.011  1.00  0.00     0.031 A 
ATOM     86  C   UNL A   1      41.503  27.557  26.267  1.00  0.00     0.131 A 
ATOM     87  C   UNL A   1      41.333  24.910  27.040  1.00  0.00     0.055 A 
ATOM     88  C   UNL A   1      41.517  26.553  25.296  1.00  0.00     0.041 A 
ATOM     89  F   UNL A   1      41.628  28.827  25.851  1.00  0.00    -0.206 F 
ATOM     90  C   UNL A   1      41.453  25.218  25.682  1.00  0.00     0.022 A 
BRANCH  87  91
ATOM     91  S   UNL A   1      41.436  23.184  27.591  1.00  0.00     0.124 S 
ATOM     92  O   UNL A   1      40.029  22.802  27.629  1.00  0.00    -0.237 OA
ATOM     93  O   UNL A   1      42.238  22.576  26.536  1.00  0.00    -0.237 OA
ATOM     94  O   UNL A   1      42.091  23.281  28.894  1.00  0.00    -0.744 OA
ENDBRANCH  87  91
ENDBRANCH  60  84
BRANCH  72  95
ATOM     95  C   UNL A   1      46.453  29.465  31.896  1.00  0.00     0.023 A 
ATOM     96  C   UNL A   1      46.658  28.412  32.802  1.00  0.00     0.031 A 
ATOM     97  C   UNL A   1      47.575  30.003  31.238  1.00  0.00     0.131 A 
ATOM     98  C   UNL A   1      47.960  27.950  33.050  1.00  0.00     0.055 A 
ATOM     99  C   UNL A   1      48.859  29.500  31.443  1.00  0.00     0.041 A 
ATOM    100  F   UNL A   1      47.435  31.014  30.365  1.00  0.00    -0.206 F 
ATOM    101  C   UNL A   1      49.058  28.472  32.360  1.00  0.00     0.022 A 
BRANCH  98 102
ATOM    102  S   UNL A   1      48.215  26.690  34.330  1.00  0.00     0.124 S 
ATOM    103  O   UNL A   1      49.663  26.722  34.503  1.00  0.00    -0.237 OA
ATOM    104  O   UNL A   1      47.429  27.210  35.444  1.00  0.00    -0.237 OA
ATOM    105  O   UNL A   1      47.690  25.469  33.720  1.00  0.00    -0.744 OA
ENDBRANCH  98 102
ENDBRANCH  72  95
ENDBRANCH  46  47
ENDBRANCH  38  41
ENDBRANCH  36  37
ENDBRANCH  35  36
ENDBRANCH  34  35
ENDBRANCH  33  34
ENDBRANCH   1  33
TORSDOF 21
ENDMDL
