MODEL 1
REMARK VINA RESULT:      -9.6      0.000      0.000
REMARK SMILES CCCCCNC(=O)Oc1cccc(-c2ccc([C@@H](C)C(=O)NCCCCCCNC(=O)c3ccc(-c4c5nc(c(-c6cc(S(=O)(=O)[O-])ccc6F)c6ccc([nH]6)c(-c6cc(S(=O)(=O)[O-])ccc6F)c6nc(c(-c7cc(S(=O)(=O)[O-])ccc7F)c7ccc4[nH]7)C=C6)C=C5)cc3)cc2F)c1
REMARK SMILES IDX 24 1 23 2 21 3 22 4 19 6 20 7 18 8 15 9 16 10 97 11 17 12
REMARK SMILES IDX 96 13 98 14 14 15 10 16 11 17 99 18 12 19 13 20 9 21 7 22
REMARK SMILES IDX 6 23 8 25 5 26 4 27 3 28 2 29 1 30 25 31 26 32 27 33 28 34
REMARK SMILES IDX 29 35 30 36 31 37 32 39 33 40 34 41 95 42 35 43 94 44 36 45
REMARK SMILES IDX 37 46 38 47 88 48 39 49 93 50 87 51 89 52 40 53 92 54 86 55
REMARK SMILES IDX 85 56 41 58 73 59 53 60 72 61 54 62 57 63 71 64 90 65 55 66
REMARK SMILES IDX 56 67 70 69 91 70 58 71 42 72 43 73 51 74 44 75 50 76 52 77
REMARK SMILES IDX 49 78 45 79 46 80 47 81 48 82 74 83 75 84 83 85 76 86 82 87
REMARK SMILES IDX 84 88 81 89 77 90 78 91 79 92 80 93 59 94 60 95 68 96 61 97
REMARK SMILES IDX 67 98 69 99 66 100 62 101 63 102 64 103 65 104
REMARK H PARENT 23 5 6 24 30 38 89 57 57 68
REMARK Flexibility Score: inf
ROOT
ATOM      1  C   UNL A   1      41.839  28.572  32.502  1.00  0.00     0.116 C 
ENDROOT
BRANCH   1   2
ATOM      2  N   UNL A   1      40.464  28.121  32.556  1.00  0.00    -0.356 N 
ATOM      3  C   UNL A   1      39.303  28.781  32.814  1.00  0.00     0.227 C 
ATOM      4  O   UNL A   1      38.279  28.088  32.871  1.00  0.00    -0.274 OA
ATOM      5  H   UNL A   1      40.349  27.161  32.373  1.00  0.00     0.163 HD
BRANCH   3   6
ATOM      6  C   UNL A   1      39.206  30.302  33.003  1.00  0.00     0.105 C 
ATOM      7  C   UNL A   1      39.286  30.753  34.463  1.00  0.00     0.023 C 
BRANCH   6   8
ATOM      8  C   UNL A   1      38.116  30.963  32.175  1.00  0.00    -0.033 A 
ATOM      9  C   UNL A   1      36.091  32.154  30.531  1.00  0.00     0.018 A 
ATOM     10  C   UNL A   1      35.796  31.593  31.784  1.00  0.00     0.012 A 
ATOM     11  C   UNL A   1      37.435  32.109  30.132  1.00  0.00     0.131 A 
ATOM     12  C   UNL A   1      36.790  31.053  32.604  1.00  0.00     0.005 A 
ATOM     13  C   UNL A   1      38.425  31.509  30.921  1.00  0.00     0.044 A 
ATOM     14  F   UNL A   1      37.826  32.666  28.974  1.00  0.00    -0.206 F 
BRANCH   9  15
ATOM     15  C   UNL A   1      35.013  32.759  29.716  1.00  0.00    -0.012 A 
ATOM     16  C   UNL A   1      33.393  34.515  29.272  1.00  0.00     0.133 A 
ATOM     17  C   UNL A   1      32.980  33.895  28.098  1.00  0.00     0.047 A 
ATOM     18  C   UNL A   1      34.393  33.966  30.079  1.00  0.00     0.056 A 
ATOM     19  C   UNL A   1      33.580  32.703  27.718  1.00  0.00     0.004 A 
ATOM     20  C   UNL A   1      34.573  32.140  28.525  1.00  0.00     0.009 A 
BRANCH  16  21
ATOM     21  O   UNL A   1      32.651  35.636  29.678  1.00  0.00    -0.410 OA
BRANCH  21  22
ATOM     22  C   UNL A   1      33.229  36.894  29.639  1.00  0.00     0.412 C 
ATOM     23  N   UNL A   1      33.320  37.464  30.879  1.00  0.00    -0.321 N 
ATOM     24  H   UNL A   1      33.694  38.374  30.925  1.00  0.00     0.167 HD
ATOM     25  O   UNL A   1      33.624  37.481  28.641  1.00  0.00    -0.224 OA
BRANCH  23  26
ATOM     26  C   UNL A   1      32.919  36.858  32.133  1.00  0.00     0.119 C 
BRANCH  26  27
ATOM     27  C   UNL A   1      34.074  36.797  33.131  1.00  0.00     0.021 C 
BRANCH  27  28
ATOM     28  C   UNL A   1      35.029  35.614  32.935  1.00  0.00     0.002 C 
BRANCH  28  29
ATOM     29  C   UNL A   1      34.957  34.524  34.008  1.00  0.00    -0.003 C 
ATOM     30  C   UNL A   1      36.319  34.094  34.528  1.00  0.00     0.004 C 
ENDBRANCH  28  29
ENDBRANCH  27  28
ENDBRANCH  26  27
ENDBRANCH  23  26
ENDBRANCH  21  22
ENDBRANCH  16  21
ENDBRANCH   9  15
ENDBRANCH   6   8
ENDBRANCH   3   6
ENDBRANCH   1   2
BRANCH   1  31
ATOM     31  C   UNL A   1      42.759  27.683  33.343  1.00  0.00     0.021 C 
BRANCH  31  32
ATOM     32  C   UNL A   1      42.083  27.106  34.590  1.00  0.00     0.002 C 
BRANCH  32  33
ATOM     33  C   UNL A   1      42.139  25.578  34.704  1.00  0.00     0.002 C 
BRANCH  33  34
ATOM     34  C   UNL A   1      41.980  25.019  36.123  1.00  0.00     0.021 C 
BRANCH  34  35
ATOM     35  C   UNL A   1      42.388  25.981  37.236  1.00  0.00     0.116 C 
BRANCH  35  36
ATOM     36  N   UNL A   1      43.319  25.359  38.164  1.00  0.00    -0.352 N 
ATOM     37  C   UNL A   1      44.531  24.761  37.922  1.00  0.00     0.251 C 
ATOM     38  H   UNL A   1      43.039  25.369  39.107  1.00  0.00     0.163 HD
ATOM     39  O   UNL A   1      45.037  24.051  38.786  1.00  0.00    -0.269 OA
BRANCH  37  40
ATOM     40  C   UNL A   1      45.216  24.964  36.627  1.00  0.00     0.039 A 
ATOM     41  C   UNL A   1      45.556  26.261  36.236  1.00  0.00     0.014 A 
ATOM     42  C   UNL A   1      45.494  23.883  35.784  1.00  0.00     0.014 A 
ATOM     43  C   UNL A   1      46.225  26.467  35.027  1.00  0.00     0.010 A 
ATOM     44  C   UNL A   1      46.224  24.082  34.614  1.00  0.00     0.010 A 
ATOM     45  C   UNL A   1      46.595  25.377  34.222  1.00  0.00    -0.014 A 
BRANCH  45  46
ATOM     46  C   UNL A   1      47.378  25.578  32.974  1.00  0.00     0.031 A 
ATOM     47  C   UNL A   1      46.686  25.599  31.637  1.00  0.00     0.074 A 
ATOM     48  C   UNL A   1      48.719  25.695  33.044  1.00  0.00     0.049 A 
ATOM     49  N   UNL A   1      47.202  25.709  30.440  1.00  0.00    -0.248 NA
ATOM     50  C   UNL A   1      45.223  25.451  31.649  1.00  0.00     0.031 C 
ATOM     51  C   UNL A   1      49.505  25.649  34.281  1.00  0.00     0.029 A 
ATOM     52  N   UNL A   1      49.661  25.869  32.062  1.00  0.00    -0.354 N 
ATOM     53  C   UNL A   1      46.131  25.642  29.556  1.00  0.00     0.074 A 
ATOM     54  C   UNL A   1      44.945  25.412  30.354  1.00  0.00     0.031 C 
ATOM     55  C   UNL A   1      50.802  25.816  33.983  1.00  0.00     0.029 A 
ATOM     56  C   UNL A   1      50.951  25.933  32.536  1.00  0.00     0.049 A 
ATOM     57  H   UNL A   1      49.435  25.943  31.107  1.00  0.00     0.167 HD
ATOM     58  C   UNL A   1      46.134  25.782  28.207  1.00  0.00     0.034 A 
ATOM     59  C   UNL A   1      52.122  26.057  31.881  1.00  0.00     0.034 A 
ATOM     60  C   UNL A   1      47.327  26.010  27.426  1.00  0.00     0.049 A 
ATOM     61  C   UNL A   1      52.102  26.180  30.378  1.00  0.00     0.074 A 
ATOM     62  C   UNL A   1      47.440  26.209  26.061  1.00  0.00     0.029 A 
ATOM     63  N   UNL A   1      48.617  26.064  27.940  1.00  0.00    -0.354 N 
ATOM     64  N   UNL A   1      51.073  26.162  29.561  1.00  0.00    -0.248 NA
ATOM     65  C   UNL A   1      53.399  26.350  29.711  1.00  0.00     0.031 C 
ATOM     66  C   UNL A   1      48.799  26.309  25.741  1.00  0.00     0.029 A 
ATOM     67  C   UNL A   1      49.532  26.260  26.916  1.00  0.00     0.049 A 
ATOM     68  H   UNL A   1      48.848  25.977  28.893  1.00  0.00     0.167 HD
ATOM     69  C   UNL A   1      51.601  26.347  28.286  1.00  0.00     0.074 A 
ATOM     70  C   UNL A   1      53.032  26.499  28.447  1.00  0.00     0.031 C 
ATOM     71  C   UNL A   1      50.960  26.391  27.090  1.00  0.00     0.034 A 
BRANCH  58  72
ATOM     72  C   UNL A   1      44.807  25.669  27.492  1.00  0.00     0.023 A 
ATOM     73  C   UNL A   1      44.083  26.809  27.098  1.00  0.00     0.031 A 
ATOM     74  C   UNL A   1      44.250  24.410  27.211  1.00  0.00     0.131 A 
ATOM     75  C   UNL A   1      42.815  26.668  26.514  1.00  0.00     0.055 A 
ATOM     76  C   UNL A   1      43.025  24.274  26.555  1.00  0.00     0.041 A 
ATOM     77  F   UNL A   1      44.883  23.284  27.579  1.00  0.00    -0.206 F 
ATOM     78  C   UNL A   1      42.292  25.408  26.216  1.00  0.00     0.022 A 
BRANCH  75  79
ATOM     79  S   UNL A   1      41.800  28.152  26.281  1.00  0.00     0.124 S 
ATOM     80  O   UNL A   1      40.476  27.666  26.658  1.00  0.00    -0.237 OA
ATOM     81  O   UNL A   1      42.416  29.104  27.197  1.00  0.00    -0.237 OA
ATOM     82  O   UNL A   1      41.962  28.459  24.860  1.00  0.00    -0.744 OA
ENDBRANCH  75  79
ENDBRANCH  58  72
BRANCH  59  83
ATOM     83  C   UNL A   1      53.413  26.056  32.630  1.00  0.00     0.023 A 
ATOM     84  C   UNL A   1      54.081  24.857  32.925  1.00  0.00     0.031 A 
ATOM     85  C   UNL A   1      53.973  27.256  33.105  1.00  0.00     0.131 A 
ATOM     86  C   UNL A   1      55.240  24.879  33.715  1.00  0.00     0.055 A 
ATOM     87  C   UNL A   1      55.160  27.277  33.840  1.00  0.00     0.041 A 
ATOM     88  F   UNL A   1      53.379  28.432  32.849  1.00  0.00    -0.206 F 
ATOM     89  C   UNL A   1      55.792  26.080  34.163  1.00  0.00     0.022 A 
BRANCH  86  90
ATOM     90  S   UNL A   1      55.964  23.298  34.235  1.00  0.00     0.124 S 
ATOM     91  O   UNL A   1      57.153  23.226  33.395  1.00  0.00    -0.237 OA
ATOM     92  O   UNL A   1      56.195  23.527  35.658  1.00  0.00    -0.237 OA
ATOM     93  O   UNL A   1      54.918  22.326  33.923  1.00  0.00    -0.744 OA
ENDBRANCH  86  90
ENDBRANCH  59  83
BRANCH  71  94
ATOM     94  C   UNL A   1      51.810  26.650  25.868  1.00  0.00     0.023 A 
ATOM     95  C   UNL A   1      51.902  27.929  25.289  1.00  0.00     0.031 A 
ATOM     96  C   UNL A   1      52.521  25.598  25.262  1.00  0.00     0.131 A 
ATOM     97  C   UNL A   1      52.632  28.109  24.104  1.00  0.00     0.055 A 
ATOM     98  C   UNL A   1      53.300  25.798  24.122  1.00  0.00     0.041 A 
ATOM     99  F   UNL A   1      52.468  24.357  25.770  1.00  0.00    -0.206 F 
ATOM    100  C   UNL A   1      53.346  27.056  23.527  1.00  0.00     0.022 A 
BRANCH  97 101
ATOM    101  S   UNL A   1      52.546  29.715  23.266  1.00  0.00     0.124 S 
ATOM    102  O   UNL A   1      53.954  30.092  23.187  1.00  0.00    -0.237 OA
ATOM    103  O   UNL A   1      51.906  29.372  22.000  1.00  0.00    -0.237 OA
ATOM    104  O   UNL A   1      51.735  30.531  24.168  1.00  0.00    -0.744 OA
ENDBRANCH  97 101
ENDBRANCH  71  94
ENDBRANCH  45  46
ENDBRANCH  37  40
ENDBRANCH  35  36
ENDBRANCH  34  35
ENDBRANCH  33  34
ENDBRANCH  32  33
ENDBRANCH  31  32
ENDBRANCH   1  31
TORSDOF 24
ENDMDL
MODEL 2
REMARK VINA RESULT:      -9.4      1.893      2.145
REMARK SMILES CCCCCNC(=O)Oc1cccc(-c2ccc([C@@H](C)C(=O)NCCCCCCNC(=O)c3ccc(-c4c5nc(c(-c6cc(S(=O)(=O)[O-])ccc6F)c6ccc([nH]6)c(-c6cc(S(=O)(=O)[O-])ccc6F)c6nc(c(-c7cc(S(=O)(=O)[O-])ccc7F)c7ccc4[nH]7)C=C6)C=C5)cc3)cc2F)c1
REMARK SMILES IDX 24 1 23 2 21 3 22 4 19 6 20 7 18 8 15 9 16 10 97 11 17 12
REMARK SMILES IDX 96 13 98 14 14 15 10 16 11 17 99 18 12 19 13 20 9 21 7 22
REMARK SMILES IDX 6 23 8 25 5 26 4 27 3 28 2 29 1 30 25 31 26 32 27 33 28 34
REMARK SMILES IDX 29 35 30 36 31 37 32 39 33 40 34 41 95 42 35 43 94 44 36 45
REMARK SMILES IDX 37 46 38 47 88 48 39 49 93 50 87 51 89 52 40 53 92 54 86 55
REMARK SMILES IDX 85 56 41 58 73 59 53 60 72 61 54 62 57 63 71 64 90 65 55 66
REMARK SMILES IDX 56 67 70 69 91 70 58 71 42 72 43 73 51 74 44 75 50 76 52 77
REMARK SMILES IDX 49 78 45 79 46 80 47 81 48 82 74 83 75 84 83 85 76 86 82 87
REMARK SMILES IDX 84 88 81 89 77 90 78 91 79 92 80 93 59 94 60 95 68 96 61 97
REMARK SMILES IDX 67 98 69 99 66 100 62 101 63 102 64 103 65 104
REMARK H PARENT 23 5 6 24 30 38 89 57 57 68
REMARK Flexibility Score: inf
ROOT
ATOM      1  C   UNL A   1      41.976  28.420  32.545  1.00  0.00     0.116 C 
ENDROOT
BRANCH   1   2
ATOM      2  N   UNL A   1      40.609  27.941  32.561  1.00  0.00    -0.356 N 
ATOM      3  C   UNL A   1      39.431  28.571  32.817  1.00  0.00     0.227 C 
ATOM      4  O   UNL A   1      38.420  27.857  32.836  1.00  0.00    -0.274 OA
ATOM      5  H   UNL A   1      40.516  26.985  32.347  1.00  0.00     0.163 HD
BRANCH   3   6
ATOM      6  C   UNL A   1      39.301  30.083  33.050  1.00  0.00     0.105 C 
ATOM      7  C   UNL A   1      39.331  30.490  34.524  1.00  0.00     0.023 C 
BRANCH   6   8
ATOM      8  C   UNL A   1      38.223  30.751  32.211  1.00  0.00    -0.033 A 
ATOM      9  C   UNL A   1      36.224  31.955  30.546  1.00  0.00     0.018 A 
ATOM     10  C   UNL A   1      35.907  31.371  31.783  1.00  0.00     0.012 A 
ATOM     11  C   UNL A   1      37.576  31.927  30.174  1.00  0.00     0.131 A 
ATOM     12  C   UNL A   1      36.888  30.824  32.615  1.00  0.00     0.005 A 
ATOM     13  C   UNL A   1      38.554  31.320  30.974  1.00  0.00     0.044 A 
ATOM     14  F   UNL A   1      37.986  32.506  29.035  1.00  0.00    -0.206 F 
BRANCH   9  15
ATOM     15  C   UNL A   1      35.158  32.567  29.720  1.00  0.00    -0.012 A 
ATOM     16  C   UNL A   1      33.550  34.330  29.262  1.00  0.00     0.133 A 
ATOM     17  C   UNL A   1      33.150  33.715  28.080  1.00  0.00     0.047 A 
ATOM     18  C   UNL A   1      34.537  33.775  30.079  1.00  0.00     0.056 A 
ATOM     19  C   UNL A   1      33.751  32.522  27.704  1.00  0.00     0.004 A 
ATOM     20  C   UNL A   1      34.731  31.953  28.521  1.00  0.00     0.009 A 
BRANCH  16  21
ATOM     21  O   UNL A   1      32.806  35.452  29.662  1.00  0.00    -0.410 OA
BRANCH  21  22
ATOM     22  C   UNL A   1      33.333  36.721  29.493  1.00  0.00     0.412 C 
ATOM     23  N   UNL A   1      33.364  37.432  30.662  1.00  0.00    -0.321 N 
ATOM     24  H   UNL A   1      33.699  38.356  30.612  1.00  0.00     0.167 HD
ATOM     25  O   UNL A   1      33.732  37.209  28.444  1.00  0.00    -0.224 OA
BRANCH  23  26
ATOM     26  C   UNL A   1      32.952  36.955  31.966  1.00  0.00     0.119 C 
BRANCH  26  27
ATOM     27  C   UNL A   1      34.143  36.759  32.903  1.00  0.00     0.021 C 
BRANCH  27  28
ATOM     28  C   UNL A   1      34.720  35.339  32.920  1.00  0.00     0.002 C 
BRANCH  28  29
ATOM     29  C   UNL A   1      35.095  34.797  34.302  1.00  0.00    -0.003 C 
ATOM     30  C   UNL A   1      36.413  34.038  34.319  1.00  0.00     0.004 C 
ENDBRANCH  28  29
ENDBRANCH  27  28
ENDBRANCH  26  27
ENDBRANCH  23  26
ENDBRANCH  21  22
ENDBRANCH  16  21
ENDBRANCH   9  15
ENDBRANCH   6   8
ENDBRANCH   3   6
ENDBRANCH   1   2
BRANCH   1  31
ATOM     31  C   UNL A   1      42.851  27.663  33.547  1.00  0.00     0.021 C 
BRANCH  31  32
ATOM     32  C   UNL A   1      42.064  27.043  34.706  1.00  0.00     0.002 C 
BRANCH  32  33
ATOM     33  C   UNL A   1      42.182  25.519  34.822  1.00  0.00     0.002 C 
BRANCH  33  34
ATOM     34  C   UNL A   1      42.058  24.958  36.244  1.00  0.00     0.021 C 
BRANCH  34  35
ATOM     35  C   UNL A   1      42.413  25.946  37.351  1.00  0.00     0.116 C 
BRANCH  35  36
ATOM     36  N   UNL A   1      43.388  25.386  38.275  1.00  0.00    -0.352 N 
ATOM     37  C   UNL A   1      44.618  24.833  38.023  1.00  0.00     0.251 C 
ATOM     38  H   UNL A   1      43.125  25.408  39.223  1.00  0.00     0.163 HD
ATOM     39  O   UNL A   1      45.170  24.165  38.893  1.00  0.00    -0.269 OA
BRANCH  37  40
ATOM     40  C   UNL A   1      45.269  25.030  36.709  1.00  0.00     0.039 A 
ATOM     41  C   UNL A   1      45.558  26.329  36.286  1.00  0.00     0.014 A 
ATOM     42  C   UNL A   1      45.563  23.942  35.882  1.00  0.00     0.014 A 
ATOM     43  C   UNL A   1      46.195  26.532  35.060  1.00  0.00     0.010 A 
ATOM     44  C   UNL A   1      46.261  24.141  34.693  1.00  0.00     0.010 A 
ATOM     45  C   UNL A   1      46.583  25.439  34.268  1.00  0.00    -0.014 A 
BRANCH  45  46
ATOM     46  C   UNL A   1      47.332  25.640  32.998  1.00  0.00     0.031 A 
ATOM     47  C   UNL A   1      46.617  25.581  31.676  1.00  0.00     0.074 A 
ATOM     48  C   UNL A   1      48.665  25.828  33.040  1.00  0.00     0.049 A 
ATOM     49  N   UNL A   1      47.106  25.678  30.466  1.00  0.00    -0.248 NA
ATOM     50  C   UNL A   1      45.164  25.357  31.720  1.00  0.00     0.031 C 
ATOM     51  C   UNL A   1      49.474  25.863  34.262  1.00  0.00     0.029 A 
ATOM     52  N   UNL A   1      49.580  26.019  32.035  1.00  0.00    -0.354 N 
ATOM     53  C   UNL A   1      46.025  25.527  29.605  1.00  0.00     0.074 A 
ATOM     54  C   UNL A   1      44.866  25.263  30.432  1.00  0.00     0.031 C 
ATOM     55  C   UNL A   1      50.756  26.088  33.935  1.00  0.00     0.029 A 
ATOM     56  C   UNL A   1      50.873  26.165  32.483  1.00  0.00     0.049 A 
ATOM     57  H   UNL A   1      49.334  26.050  31.082  1.00  0.00     0.167 HD
ATOM     58  C   UNL A   1      45.996  25.623  28.252  1.00  0.00     0.034 A 
ATOM     59  C   UNL A   1      52.024  26.329  31.801  1.00  0.00     0.034 A 
ATOM     60  C   UNL A   1      47.162  25.887  27.442  1.00  0.00     0.049 A 
ATOM     61  C   UNL A   1      51.972  26.401  30.296  1.00  0.00     0.074 A 
ATOM     62  C   UNL A   1      47.241  26.047  26.070  1.00  0.00     0.029 A 
ATOM     63  N   UNL A   1      48.457  26.025  27.930  1.00  0.00    -0.354 N 
ATOM     64  N   UNL A   1      50.932  26.303  29.500  1.00  0.00    -0.248 NA
ATOM     65  C   UNL A   1      53.246  26.617  29.600  1.00  0.00     0.031 C 
ATOM     66  C   UNL A   1      48.587  26.207  25.721  1.00  0.00     0.029 A 
ATOM     67  C   UNL A   1      49.342  26.235  26.882  1.00  0.00     0.049 A 
ATOM     68  H   UNL A   1      48.708  25.982  28.881  1.00  0.00     0.167 HD
ATOM     69  C   UNL A   1      51.427  26.474  28.209  1.00  0.00     0.074 A 
ATOM     70  C   UNL A   1      52.851  26.705  28.339  1.00  0.00     0.031 C 
ATOM     71  C   UNL A   1      50.764  26.445  27.025  1.00  0.00     0.034 A 
BRANCH  58  72
ATOM     72  C   UNL A   1      44.665  25.419  27.567  1.00  0.00     0.023 A 
ATOM     73  C   UNL A   1      44.250  24.149  27.127  1.00  0.00     0.031 A 
ATOM     74  C   UNL A   1      43.804  26.506  27.337  1.00  0.00     0.131 A 
ATOM     75  C   UNL A   1      43.047  24.011  26.418  1.00  0.00     0.055 A 
ATOM     76  C   UNL A   1      42.569  26.349  26.704  1.00  0.00     0.041 A 
ATOM     77  F   UNL A   1      44.152  27.746  27.715  1.00  0.00    -0.206 F 
ATOM     78  C   UNL A   1      42.191  25.098  26.226  1.00  0.00     0.022 A 
BRANCH  75  79
ATOM     79  S   UNL A   1      42.685  22.419  25.628  1.00  0.00     0.124 S 
ATOM     80  O   UNL A   1      43.115  22.668  24.254  1.00  0.00    -0.237 OA
ATOM     81  O   UNL A   1      43.507  21.492  26.397  1.00  0.00    -0.237 OA
ATOM     82  O   UNL A   1      41.242  22.268  25.804  1.00  0.00    -0.744 OA
ENDBRANCH  75  79
ENDBRANCH  58  72
BRANCH  59  83
ATOM     83  C   UNL A   1      53.326  26.418  32.526  1.00  0.00     0.023 A 
ATOM     84  C   UNL A   1      53.835  27.654  32.956  1.00  0.00     0.031 A 
ATOM     85  C   UNL A   1      54.105  25.269  32.756  1.00  0.00     0.131 A 
ATOM     86  C   UNL A   1      55.106  27.719  33.547  1.00  0.00     0.055 A 
ATOM     87  C   UNL A   1      55.343  25.333  33.397  1.00  0.00     0.041 A 
ATOM     88  F   UNL A   1      53.666  24.062  32.368  1.00  0.00    -0.206 F 
ATOM     89  C   UNL A   1      55.858  26.567  33.783  1.00  0.00     0.022 A 
BRANCH  86  90
ATOM     90  S   UNL A   1      55.809  29.352  33.913  1.00  0.00     0.124 S 
ATOM     91  O   UNL A   1      56.026  29.888  32.575  1.00  0.00    -0.237 OA
ATOM     92  O   UNL A   1      54.741  29.972  34.690  1.00  0.00    -0.237 OA
ATOM     93  O   UNL A   1      57.023  29.037  34.665  1.00  0.00    -0.744 OA
ENDBRANCH  86  90
ENDBRANCH  59  83
BRANCH  71  94
ATOM     94  C   UNL A   1      51.578  26.708  25.780  1.00  0.00     0.023 A 
ATOM     95  C   UNL A   1      51.601  27.973  25.165  1.00  0.00     0.031 A 
ATOM     96  C   UNL A   1      52.323  25.673  25.187  1.00  0.00     0.131 A 
ATOM     97  C   UNL A   1      52.299  28.153  23.962  1.00  0.00     0.055 A 
ATOM     98  C   UNL A   1      53.070  25.875  24.027  1.00  0.00     0.041 A 
ATOM     99  F   UNL A   1      52.335  24.444  25.729  1.00  0.00    -0.206 F 
ATOM    100  C   UNL A   1      53.048  27.117  23.398  1.00  0.00     0.022 A 
BRANCH  97 101
ATOM    101  S   UNL A   1      52.125  29.730  23.083  1.00  0.00     0.124 S 
ATOM    102  O   UNL A   1      51.821  30.653  24.173  1.00  0.00    -0.237 OA
ATOM    103  O   UNL A   1      53.437  29.887  22.463  1.00  0.00    -0.237 OA
ATOM    104  O   UNL A   1      51.026  29.486  22.151  1.00  0.00    -0.744 OA
ENDBRANCH  97 101
ENDBRANCH  71  94
ENDBRANCH  45  46
ENDBRANCH  37  40
ENDBRANCH  35  36
ENDBRANCH  34  35
ENDBRANCH  33  34
ENDBRANCH  32  33
ENDBRANCH  31  32
ENDBRANCH   1  31
TORSDOF 24
ENDMDL
MODEL 3
REMARK VINA RESULT:      -9.3      6.550     10.936
REMARK SMILES CCCCCNC(=O)Oc1cccc(-c2ccc([C@@H](C)C(=O)NCCCCCCNC(=O)c3ccc(-c4c5nc(c(-c6cc(S(=O)(=O)[O-])ccc6F)c6ccc([nH]6)c(-c6cc(S(=O)(=O)[O-])ccc6F)c6nc(c(-c7cc(S(=O)(=O)[O-])ccc7F)c7ccc4[nH]7)C=C6)C=C5)cc3)cc2F)c1
REMARK SMILES IDX 24 1 23 2 21 3 22 4 19 6 20 7 18 8 15 9 16 10 97 11 17 12
REMARK SMILES IDX 96 13 98 14 14 15 10 16 11 17 99 18 12 19 13 20 9 21 7 22
REMARK SMILES IDX 6 23 8 25 5 26 4 27 3 28 2 29 1 30 25 31 26 32 27 33 28 34
REMARK SMILES IDX 29 35 30 36 31 37 32 39 33 40 34 41 95 42 35 43 94 44 36 45
REMARK SMILES IDX 37 46 38 47 88 48 39 49 93 50 87 51 89 52 40 53 92 54 86 55
REMARK SMILES IDX 85 56 41 58 73 59 53 60 72 61 54 62 57 63 71 64 90 65 55 66
REMARK SMILES IDX 56 67 70 69 91 70 58 71 42 72 43 73 51 74 44 75 50 76 52 77
REMARK SMILES IDX 49 78 45 79 46 80 47 81 48 82 74 83 75 84 83 85 76 86 82 87
REMARK SMILES IDX 84 88 81 89 77 90 78 91 79 92 80 93 59 94 60 95 68 96 61 97
REMARK SMILES IDX 67 98 69 99 66 100 62 101 63 102 64 103 65 104
REMARK H PARENT 23 5 6 24 30 38 89 57 57 68
REMARK Flexibility Score: inf
ROOT
ATOM      1  C   UNL A   1      35.335  32.328  31.976  1.00  0.00     0.116 C 
ENDROOT
BRANCH   1   2
ATOM      2  N   UNL A   1      35.181  31.758  30.654  1.00  0.00    -0.356 N 
ATOM      3  C   UNL A   1      36.094  31.375  29.721  1.00  0.00     0.227 C 
ATOM      4  O   UNL A   1      35.641  30.995  28.633  1.00  0.00    -0.274 OA
ATOM      5  H   UNL A   1      34.246  31.623  30.381  1.00  0.00     0.163 HD
BRANCH   3   6
ATOM      6  C   UNL A   1      37.612  31.367  29.959  1.00  0.00     0.105 C 
ATOM      7  C   UNL A   1      38.316  32.653  29.524  1.00  0.00     0.023 C 
BRANCH   6   8
ATOM      8  C   UNL A   1      38.299  30.076  29.546  1.00  0.00    -0.033 A 
ATOM      9  C   UNL A   1      39.677  27.695  28.736  1.00  0.00     0.018 A 
ATOM     10  C   UNL A   1      39.102  27.823  30.011  1.00  0.00     0.012 A 
ATOM     11  C   UNL A   1      39.530  28.793  27.876  1.00  0.00     0.131 A 
ATOM     12  C   UNL A   1      38.392  28.966  30.389  1.00  0.00     0.005 A 
ATOM     13  C   UNL A   1      38.877  29.967  28.274  1.00  0.00     0.044 A 
ATOM     14  F   UNL A   1      39.999  28.747  26.619  1.00  0.00    -0.206 F 
BRANCH   9  15
ATOM     15  C   UNL A   1      40.379  26.447  28.361  1.00  0.00    -0.012 A 
ATOM     16  C   UNL A   1      40.600  24.438  27.012  1.00  0.00     0.133 A 
ATOM     17  C   UNL A   1      41.783  24.087  27.654  1.00  0.00     0.047 A 
ATOM     18  C   UNL A   1      39.899  25.597  27.351  1.00  0.00     0.056 A 
ATOM     19  C   UNL A   1      42.278  24.912  28.653  1.00  0.00     0.004 A 
ATOM     20  C   UNL A   1      41.576  26.067  29.008  1.00  0.00     0.009 A 
BRANCH  16  21
ATOM     21  O   UNL A   1      40.076  23.493  26.115  1.00  0.00    -0.410 OA
BRANCH  21  22
ATOM     22  C   UNL A   1      39.512  22.325  26.600  1.00  0.00     0.412 C 
ATOM     23  N   UNL A   1      38.185  22.216  26.284  1.00  0.00    -0.321 N 
ATOM     24  H   UNL A   1      37.710  21.423  26.623  1.00  0.00     0.167 HD
ATOM     25  O   UNL A   1      40.081  21.458  27.250  1.00  0.00    -0.224 OA
BRANCH  23  26
ATOM     26  C   UNL A   1      37.412  23.156  25.498  1.00  0.00     0.119 C 
BRANCH  26  27
ATOM     27  C   UNL A   1      35.995  23.326  26.045  1.00  0.00     0.021 C 
BRANCH  27  28
ATOM     28  C   UNL A   1      35.139  22.055  26.014  1.00  0.00     0.002 C 
BRANCH  28  29
ATOM     29  C   UNL A   1      34.693  21.595  24.624  1.00  0.00    -0.003 C 
ATOM     30  C   UNL A   1      33.192  21.383  24.507  1.00  0.00     0.004 C 
ENDBRANCH  28  29
ENDBRANCH  27  28
ENDBRANCH  26  27
ENDBRANCH  23  26
ENDBRANCH  21  22
ENDBRANCH  16  21
ENDBRANCH   9  15
ENDBRANCH   6   8
ENDBRANCH   3   6
ENDBRANCH   1   2
BRANCH   1  31
ATOM     31  C   UNL A   1      35.730  33.805  31.912  1.00  0.00     0.021 C 
BRANCH  31  32
ATOM     32  C   UNL A   1      35.982  34.434  33.286  1.00  0.00     0.002 C 
BRANCH  32  33
ATOM     33  C   UNL A   1      35.570  33.563  34.479  1.00  0.00     0.002 C 
BRANCH  33  34
ATOM     34  C   UNL A   1      36.002  34.086  35.854  1.00  0.00     0.021 C 
BRANCH  34  35
ATOM     35  C   UNL A   1      37.413  33.683  36.274  1.00  0.00     0.116 C 
BRANCH  35  36
ATOM     36  N   UNL A   1      37.476  32.279  36.650  1.00  0.00    -0.352 N 
ATOM     37  C   UNL A   1      38.151  31.242  36.057  1.00  0.00     0.251 C 
ATOM     38  H   UNL A   1      36.958  32.036  37.451  1.00  0.00     0.163 HD
ATOM     39  O   UNL A   1      37.861  30.085  36.351  1.00  0.00    -0.269 OA
BRANCH  37  40
ATOM     40  C   UNL A   1      39.211  31.515  35.062  1.00  0.00     0.039 A 
ATOM     41  C   UNL A   1      38.850  32.001  33.804  1.00  0.00     0.014 A 
ATOM     42  C   UNL A   1      40.555  31.261  35.356  1.00  0.00     0.014 A 
ATOM     43  C   UNL A   1      39.841  32.288  32.862  1.00  0.00     0.010 A 
ATOM     44  C   UNL A   1      41.545  31.614  34.442  1.00  0.00     0.010 A 
ATOM     45  C   UNL A   1      41.199  32.129  33.185  1.00  0.00    -0.014 A 
BRANCH  45  46
ATOM     46  C   UNL A   1      42.264  32.506  32.218  1.00  0.00     0.031 A 
ATOM     47  C   UNL A   1      42.912  33.862  32.290  1.00  0.00     0.074 A 
ATOM     48  C   UNL A   1      42.613  31.640  31.246  1.00  0.00     0.049 A 
ATOM     49  N   UNL A   1      43.817  34.390  31.505  1.00  0.00    -0.248 NA
ATOM     50  C   UNL A   1      42.464  34.751  33.372  1.00  0.00     0.031 C 
ATOM     51  C   UNL A   1      42.024  30.311  31.050  1.00  0.00     0.029 A 
ATOM     52  N   UNL A   1      43.536  31.742  30.236  1.00  0.00    -0.354 N 
ATOM     53  C   UNL A   1      44.046  35.670  31.996  1.00  0.00     0.074 A 
ATOM     54  C   UNL A   1      43.134  35.862  33.104  1.00  0.00     0.031 C 
ATOM     55  C   UNL A   1      42.618  29.717  30.004  1.00  0.00     0.029 A 
ATOM     56  C   UNL A   1      43.593  30.634  29.423  1.00  0.00     0.049 A 
ATOM     57  H   UNL A   1      44.104  32.535  30.105  1.00  0.00     0.167 HD
ATOM     58  C   UNL A   1      44.949  36.592  31.576  1.00  0.00     0.034 A 
ATOM     59  C   UNL A   1      44.336  30.387  28.326  1.00  0.00     0.034 A 
ATOM     60  C   UNL A   1      45.851  36.384  30.468  1.00  0.00     0.049 A 
ATOM     61  C   UNL A   1      45.311  31.439  27.859  1.00  0.00     0.074 A 
ATOM     62  C   UNL A   1      46.833  37.231  29.985  1.00  0.00     0.029 A 
ATOM     63  N   UNL A   1      45.878  35.249  29.665  1.00  0.00    -0.354 N 
ATOM     64  N   UNL A   1      45.548  32.628  28.365  1.00  0.00    -0.248 NA
ATOM     65  C   UNL A   1      46.125  31.112  26.682  1.00  0.00     0.031 C 
ATOM     66  C   UNL A   1      47.402  36.643  28.849  1.00  0.00     0.029 A 
ATOM     67  C   UNL A   1      46.837  35.390  28.672  1.00  0.00     0.049 A 
ATOM     68  H   UNL A   1      45.302  34.461  29.784  1.00  0.00     0.167 HD
ATOM     69  C   UNL A   1      46.560  33.177  27.581  1.00  0.00     0.074 A 
ATOM     70  C   UNL A   1      46.902  32.180  26.588  1.00  0.00     0.031 C 
ATOM     71  C   UNL A   1      47.155  34.394  27.676  1.00  0.00     0.034 A 
BRANCH  58  72
ATOM     72  C   UNL A   1      44.986  37.914  32.307  1.00  0.00     0.023 A 
ATOM     73  C   UNL A   1      44.100  38.958  31.987  1.00  0.00     0.031 A 
ATOM     74  C   UNL A   1      45.926  38.142  33.327  1.00  0.00     0.131 A 
ATOM     75  C   UNL A   1      44.219  40.201  32.626  1.00  0.00     0.055 A 
ATOM     76  C   UNL A   1      45.987  39.354  34.017  1.00  0.00     0.041 A 
ATOM     77  F   UNL A   1      46.813  37.192  33.665  1.00  0.00    -0.206 F 
ATOM     78  C   UNL A   1      45.140  40.399  33.658  1.00  0.00     0.022 A 
BRANCH  75  79
ATOM     79  S   UNL A   1      43.251  41.598  31.993  1.00  0.00     0.124 S 
ATOM     80  O   UNL A   1      41.908  41.026  31.942  1.00  0.00    -0.237 OA
ATOM     81  O   UNL A   1      43.472  42.621  33.007  1.00  0.00    -0.237 OA
ATOM     82  O   UNL A   1      43.854  41.870  30.689  1.00  0.00    -0.744 OA
ENDBRANCH  75  79
ENDBRANCH  58  72
BRANCH  59  83
ATOM     83  C   UNL A   1      44.182  29.104  27.579  1.00  0.00     0.023 A 
ATOM     84  C   UNL A   1      44.988  27.993  27.870  1.00  0.00     0.031 A 
ATOM     85  C   UNL A   1      43.254  28.988  26.527  1.00  0.00     0.131 A 
ATOM     86  C   UNL A   1      44.889  26.833  27.087  1.00  0.00     0.055 A 
ATOM     87  C   UNL A   1      43.118  27.811  25.790  1.00  0.00     0.041 A 
ATOM     88  F   UNL A   1      42.456  30.018  26.209  1.00  0.00    -0.206 F 
ATOM     89  C   UNL A   1      43.950  26.728  26.059  1.00  0.00     0.022 A 
BRANCH  86  90
ATOM     90  S   UNL A   1      46.078  25.491  27.369  1.00  0.00     0.124 S 
ATOM     91  O   UNL A   1      47.270  26.007  26.707  1.00  0.00    -0.237 OA
ATOM     92  O   UNL A   1      46.126  25.433  28.827  1.00  0.00    -0.237 OA
ATOM     93  O   UNL A   1      45.451  24.341  26.721  1.00  0.00    -0.744 OA
ENDBRANCH  86  90
ENDBRANCH  59  83
BRANCH  71  94
ATOM     94  C   UNL A   1      48.264  34.691  26.694  1.00  0.00     0.023 A 
ATOM     95  C   UNL A   1      49.578  34.234  26.903  1.00  0.00     0.031 A 
ATOM     96  C   UNL A   1      48.007  35.459  25.544  1.00  0.00     0.131 A 
ATOM     97  C   UNL A   1      50.597  34.605  26.013  1.00  0.00     0.055 A 
ATOM     98  C   UNL A   1      49.012  35.768  24.626  1.00  0.00     0.041 A 
ATOM     99  F   UNL A   1      46.773  35.923  25.295  1.00  0.00    -0.206 F 
ATOM    100  C   UNL A   1      50.319  35.354  24.866  1.00  0.00     0.022 A 
BRANCH  97 101
ATOM    101  S   UNL A   1      52.311  34.187  26.431  1.00  0.00     0.124 S 
ATOM    102  O   UNL A   1      52.159  32.885  27.073  1.00  0.00    -0.237 OA
ATOM    103  O   UNL A   1      52.958  34.181  25.123  1.00  0.00    -0.237 OA
ATOM    104  O   UNL A   1      52.723  35.273  27.319  1.00  0.00    -0.744 OA
ENDBRANCH  97 101
ENDBRANCH  71  94
ENDBRANCH  45  46
ENDBRANCH  37  40
ENDBRANCH  35  36
ENDBRANCH  34  35
ENDBRANCH  33  34
ENDBRANCH  32  33
ENDBRANCH  31  32
ENDBRANCH   1  31
TORSDOF 24
ENDMDL
