MODEL 1
REMARK VINA RESULT:     -12.9      0.000      0.000
REMARK SMILES O=C(NCCCCCCNC(=O)c1ccc(-c2c3nc(c(-c4cc(S(=O)(=O)[O-])ccc4F)c4ccc([nH]4)c(-c4cc(S(=O)(=O)[O-])ccc4F)c4nc(c(-c5cc(S(=O)(=O)[O-])ccc5F)c5ccc2[nH]5)C=C4)C=C3)cc1)c1ccc(NS(=O)(=O)C2=Cc3ccccc3CC2)cc1
REMARK SMILES IDX 6 1 5 2 4 3 3 4 1 5 2 6 76 8 77 9 95 10 78 11 94 12 79 13
REMARK SMILES IDX 80 14 81 16 82 17 83 18 84 19 85 20 93 21 86 22 92 23 87 24
REMARK SMILES IDX 91 25 88 26 90 27 89 28 7 29 8 30 9 31 10 32 11 33 12 35
REMARK SMILES IDX 13 36 14 37 75 38 15 39 74 40 16 41 17 42 18 43 68 44 19 45
REMARK SMILES IDX 73 46 67 47 69 48 20 49 72 50 66 51 65 52 21 54 53 55 33 56
REMARK SMILES IDX 52 57 34 58 37 59 51 60 70 61 35 62 36 63 50 65 71 66 38 67
REMARK SMILES IDX 22 68 23 69 31 70 24 71 30 72 32 73 29 74 25 75 26 76 27 77
REMARK SMILES IDX 28 78 54 79 55 80 63 81 56 82 62 83 64 84 61 85 57 86 58 87
REMARK SMILES IDX 59 88 60 89 39 90 40 91 48 92 41 93 47 94 49 95 46 96 42 97
REMARK SMILES IDX 43 98 44 99 45 100
REMARK H PARENT 3 7 80 15 10 34 69 53 37 64
REMARK Flexibility Score: inf
ROOT
ATOM      1  C   UNL A   1      31.657  29.870  25.470  1.00  0.00     0.002 C 
ENDROOT
BRANCH   1   2
ATOM      2  C   UNL A   1      32.912  29.135  24.988  1.00  0.00     0.021 C 
BRANCH   2   3
ATOM      3  C   UNL A   1      33.082  29.071  23.472  1.00  0.00     0.116 C 
BRANCH   3   4
ATOM      4  N   UNL A   1      31.876  29.487  22.777  1.00  0.00    -0.352 N 
ATOM      5  O   UNL A   1      29.951  29.176  21.640  1.00  0.00    -0.269 OA
ATOM      6  C   UNL A   1      30.805  28.723  22.396  1.00  0.00     0.251 C 
ATOM      7  H   UNL A   1      31.822  30.443  22.551  1.00  0.00     0.163 HD
BRANCH   6   8
ATOM      8  C   UNL A   1      30.660  27.348  22.919  1.00  0.00     0.039 A 
ATOM      9  C   UNL A   1      31.437  26.314  22.393  1.00  0.00     0.016 A 
ATOM     10  C   UNL A   1      29.839  27.114  24.025  1.00  0.00     0.016 A 
ATOM     11  C   UNL A   1      31.386  25.046  22.972  1.00  0.00     0.027 A 
ATOM     12  C   UNL A   1      29.778  25.833  24.589  1.00  0.00     0.027 A 
ATOM     13  C   UNL A   1      30.550  24.793  24.061  1.00  0.00     0.049 A 
BRANCH  13  14
ATOM     14  N   UNL A   1      30.653  23.560  24.778  1.00  0.00    -0.280 N 
ATOM     15  H   UNL A   1      30.256  22.743  24.397  1.00  0.00     0.180 HD
BRANCH  14  16
ATOM     16  S   UNL A   1      31.452  23.481  26.279  1.00  0.00     0.258 S 
ATOM     17  O   UNL A   1      32.251  24.689  26.310  1.00  0.00    -0.202 OA
ATOM     18  O   UNL A   1      30.388  23.323  27.254  1.00  0.00    -0.202 OA
BRANCH  16  19
ATOM     19  C   UNL A   1      32.487  22.053  26.307  1.00  0.00     0.066 C 
ATOM     20  C   UNL A   1      33.154  21.771  25.166  1.00  0.00     0.026 C 
ATOM     21  C   UNL A   1      33.254  21.846  27.590  1.00  0.00     0.055 C 
ATOM     22  C   UNL A   1      34.502  22.406  25.083  1.00  0.00    -0.021 A 
ATOM     23  C   UNL A   1      34.498  22.746  27.607  1.00  0.00     0.041 C 
ATOM     24  C   UNL A   1      35.127  22.524  23.837  1.00  0.00     0.008 A 
ATOM     25  C   UNL A   1      35.145  22.882  26.245  1.00  0.00    -0.040 A 
ATOM     26  C   UNL A   1      36.367  23.155  23.737  1.00  0.00     0.001 A 
ATOM     27  C   UNL A   1      36.380  23.532  26.126  1.00  0.00     0.004 A 
ATOM     28  C   UNL A   1      36.984  23.670  24.876  1.00  0.00     0.000 A 
ENDBRANCH  16  19
ENDBRANCH  14  16
ENDBRANCH  13  14
ENDBRANCH   6   8
ENDBRANCH   3   4
ENDBRANCH   2   3
ENDBRANCH   1   2
BRANCH   1  29
ATOM     29  C   UNL A   1      31.776  30.560  26.831  1.00  0.00     0.002 C 
BRANCH  29  30
ATOM     30  C   UNL A   1      31.526  32.070  26.834  1.00  0.00     0.021 C 
BRANCH  30  31
ATOM     31  C   UNL A   1      32.774  32.945  26.936  1.00  0.00     0.116 C 
BRANCH  31  32
ATOM     32  N   UNL A   1      32.525  34.199  27.623  1.00  0.00    -0.352 N 
ATOM     33  C   UNL A   1      33.123  34.710  28.750  1.00  0.00     0.251 C 
ATOM     34  H   UNL A   1      31.828  34.768  27.223  1.00  0.00     0.163 HD
ATOM     35  O   UNL A   1      32.674  35.732  29.261  1.00  0.00    -0.269 OA
BRANCH  33  36
ATOM     36  C   UNL A   1      34.276  34.014  29.365  1.00  0.00     0.039 A 
ATOM     37  C   UNL A   1      35.568  34.405  28.999  1.00  0.00     0.014 A 
ATOM     38  C   UNL A   1      34.094  32.978  30.286  1.00  0.00     0.014 A 
ATOM     39  C   UNL A   1      36.675  33.802  29.602  1.00  0.00     0.010 A 
ATOM     40  C   UNL A   1      35.198  32.419  30.929  1.00  0.00     0.010 A 
ATOM     41  C   UNL A   1      36.499  32.826  30.596  1.00  0.00    -0.014 A 
BRANCH  41  42
ATOM     42  C   UNL A   1      37.663  32.222  31.297  1.00  0.00     0.031 A 
ATOM     43  C   UNL A   1      38.425  31.092  30.660  1.00  0.00     0.074 A 
ATOM     44  C   UNL A   1      37.991  32.647  32.534  1.00  0.00     0.049 A 
ATOM     45  N   UNL A   1      39.412  30.383  31.144  1.00  0.00    -0.248 NA
ATOM     46  C   UNL A   1      38.001  30.690  29.311  1.00  0.00     0.031 C 
ATOM     47  C   UNL A   1      37.307  33.713  33.269  1.00  0.00     0.029 A 
ATOM     48  N   UNL A   1      38.976  32.230  33.394  1.00  0.00    -0.354 N 
ATOM     49  C   UNL A   1      39.714  29.436  30.170  1.00  0.00     0.074 A 
ATOM     50  C   UNL A   1      38.773  29.637  29.087  1.00  0.00     0.031 C 
ATOM     51  C   UNL A   1      37.905  33.879  34.461  1.00  0.00     0.029 A 
ATOM     52  C   UNL A   1      38.985  32.906  34.593  1.00  0.00     0.049 A 
ATOM     53  H   UNL A   1      39.615  31.515  33.174  1.00  0.00     0.167 HD
ATOM     54  C   UNL A   1      40.695  28.499  30.172  1.00  0.00     0.034 A 
ATOM     55  C   UNL A   1      39.767  32.751  35.680  1.00  0.00     0.034 A 
ATOM     56  C   UNL A   1      41.643  28.330  31.247  1.00  0.00     0.049 A 
ATOM     57  C   UNL A   1      40.842  31.694  35.661  1.00  0.00     0.074 A 
ATOM     58  C   UNL A   1      42.722  27.465  31.316  1.00  0.00     0.029 A 
ATOM     59  N   UNL A   1      41.624  29.034  32.443  1.00  0.00    -0.354 N 
ATOM     60  N   UNL A   1      41.149  30.845  34.709  1.00  0.00    -0.248 NA
ATOM     61  C   UNL A   1      41.681  31.582  36.862  1.00  0.00     0.031 C 
ATOM     62  C   UNL A   1      43.315  27.602  32.576  1.00  0.00     0.029 A 
ATOM     63  C   UNL A   1      42.651  28.599  33.268  1.00  0.00     0.049 A 
ATOM     64  H   UNL A   1      40.976  29.738  32.673  1.00  0.00     0.167 HD
ATOM     65  C   UNL A   1      42.240  30.122  35.185  1.00  0.00     0.074 A 
ATOM     66  C   UNL A   1      42.542  30.642  36.502  1.00  0.00     0.031 C 
ATOM     67  C   UNL A   1      42.935  29.123  34.583  1.00  0.00     0.034 A 
BRANCH  54  68
ATOM     68  C   UNL A   1      40.770  27.566  28.988  1.00  0.00     0.023 A 
ATOM     69  C   UNL A   1      41.718  27.741  27.965  1.00  0.00     0.031 A 
ATOM     70  C   UNL A   1      39.868  26.493  28.873  1.00  0.00     0.131 A 
ATOM     71  C   UNL A   1      41.696  26.903  26.839  1.00  0.00     0.055 A 
ATOM     72  C   UNL A   1      39.902  25.615  27.787  1.00  0.00     0.041 A 
ATOM     73  F   UNL A   1      38.928  26.287  29.810  1.00  0.00    -0.206 F 
ATOM     74  C   UNL A   1      40.811  25.826  26.755  1.00  0.00     0.022 A 
BRANCH  71  75
ATOM     75  S   UNL A   1      42.755  27.321  25.427  1.00  0.00     0.124 S 
ATOM     76  O   UNL A   1      42.671  26.101  24.626  1.00  0.00    -0.237 OA
ATOM     77  O   UNL A   1      42.092  28.496  24.873  1.00  0.00    -0.237 OA
ATOM     78  O   UNL A   1      44.060  27.568  26.038  1.00  0.00    -0.744 OA
ENDBRANCH  71  75
ENDBRANCH  54  68
BRANCH  55  79
ATOM     79  C   UNL A   1      39.569  33.605  36.885  1.00  0.00     0.023 A 
ATOM     80  C   UNL A   1      39.032  33.069  38.066  1.00  0.00     0.031 A 
ATOM     81  C   UNL A   1      39.864  34.980  36.858  1.00  0.00     0.131 A 
ATOM     82  C   UNL A   1      38.758  33.911  39.155  1.00  0.00     0.055 A 
ATOM     83  C   UNL A   1      39.636  35.804  37.962  1.00  0.00     0.041 A 
ATOM     84  F   UNL A   1      40.385  35.542  35.756  1.00  0.00    -0.206 F 
ATOM     85  C   UNL A   1      39.066  35.273  39.115  1.00  0.00     0.022 A 
BRANCH  82  86
ATOM     86  S   UNL A   1      37.907  33.213  40.597  1.00  0.00     0.124 S 
ATOM     87  O   UNL A   1      38.546  31.908  40.717  1.00  0.00    -0.237 OA
ATOM     88  O   UNL A   1      38.228  34.185  41.637  1.00  0.00    -0.237 OA
ATOM     89  O   UNL A   1      36.505  33.187  40.183  1.00  0.00    -0.744 OA
ENDBRANCH  82  86
ENDBRANCH  55  79
BRANCH  67  90
ATOM     90  C   UNL A   1      44.120  28.568  35.334  1.00  0.00     0.023 A 
ATOM     91  C   UNL A   1      43.966  27.630  36.370  1.00  0.00     0.031 A 
ATOM     92  C   UNL A   1      45.419  29.000  35.018  1.00  0.00     0.131 A 
ATOM     93  C   UNL A   1      45.090  27.195  37.089  1.00  0.00     0.055 A 
ATOM     94  C   UNL A   1      46.539  28.522  35.700  1.00  0.00     0.041 A 
ATOM     95  F   UNL A   1      45.621  29.897  34.039  1.00  0.00    -0.206 F 
ATOM     96  C   UNL A   1      46.375  27.624  36.751  1.00  0.00     0.022 A 
BRANCH  93  97
ATOM     97  S   UNL A   1      44.839  26.124  38.531  1.00  0.00     0.124 S 
ATOM     98  O   UNL A   1      45.164  24.808  37.994  1.00  0.00    -0.237 OA
ATOM     99  O   UNL A   1      45.789  26.671  39.495  1.00  0.00    -0.237 OA
ATOM    100  O   UNL A   1      43.430  26.326  38.868  1.00  0.00    -0.744 OA
ENDBRANCH  93  97
ENDBRANCH  67  90
ENDBRANCH  41  42
ENDBRANCH  33  36
ENDBRANCH  31  32
ENDBRANCH  30  31
ENDBRANCH  29  30
ENDBRANCH   1  29
TORSDOF 19
ENDMDL
MODEL 2
REMARK VINA RESULT:     -12.3      1.751      2.055
REMARK SMILES O=C(NCCCCCCNC(=O)c1ccc(-c2c3nc(c(-c4cc(S(=O)(=O)[O-])ccc4F)c4ccc([nH]4)c(-c4cc(S(=O)(=O)[O-])ccc4F)c4nc(c(-c5cc(S(=O)(=O)[O-])ccc5F)c5ccc2[nH]5)C=C4)C=C3)cc1)c1ccc(NS(=O)(=O)C2=Cc3ccccc3CC2)cc1
REMARK SMILES IDX 6 1 5 2 4 3 3 4 1 5 2 6 76 8 77 9 95 10 78 11 94 12 79 13
REMARK SMILES IDX 80 14 81 16 82 17 83 18 84 19 85 20 93 21 86 22 92 23 87 24
REMARK SMILES IDX 91 25 88 26 90 27 89 28 7 29 8 30 9 31 10 32 11 33 12 35
REMARK SMILES IDX 13 36 14 37 75 38 15 39 74 40 16 41 17 42 18 43 68 44 19 45
REMARK SMILES IDX 73 46 67 47 69 48 20 49 72 50 66 51 65 52 21 54 53 55 33 56
REMARK SMILES IDX 52 57 34 58 37 59 51 60 70 61 35 62 36 63 50 65 71 66 38 67
REMARK SMILES IDX 22 68 23 69 31 70 24 71 30 72 32 73 29 74 25 75 26 76 27 77
REMARK SMILES IDX 28 78 54 79 55 80 63 81 56 82 62 83 64 84 61 85 57 86 58 87
REMARK SMILES IDX 59 88 60 89 39 90 40 91 48 92 41 93 47 94 49 95 46 96 42 97
REMARK SMILES IDX 43 98 44 99 45 100
REMARK H PARENT 3 7 80 15 10 34 69 53 37 64
REMARK Flexibility Score: inf
ROOT
ATOM      1  C   UNL A   1      31.727  29.806  25.380  1.00  0.00     0.002 C 
ENDROOT
BRANCH   1   2
ATOM      2  C   UNL A   1      32.993  29.128  24.845  1.00  0.00     0.021 C 
BRANCH   2   3
ATOM      3  C   UNL A   1      33.063  28.996  23.326  1.00  0.00     0.116 C 
BRANCH   3   4
ATOM      4  N   UNL A   1      31.838  29.446  22.689  1.00  0.00    -0.352 N 
ATOM      5  O   UNL A   1      29.848  29.190  21.656  1.00  0.00    -0.269 OA
ATOM      6  C   UNL A   1      30.724  28.716  22.373  1.00  0.00     0.251 C 
ATOM      7  H   UNL A   1      31.804  30.401  22.455  1.00  0.00     0.163 HD
BRANCH   6   8
ATOM      8  C   UNL A   1      30.559  27.352  22.917  1.00  0.00     0.039 A 
ATOM      9  C   UNL A   1      31.370  26.312  22.457  1.00  0.00     0.016 A 
ATOM     10  C   UNL A   1      29.682  27.136  23.983  1.00  0.00     0.016 A 
ATOM     11  C   UNL A   1      31.297  25.057  23.061  1.00  0.00     0.027 A 
ATOM     12  C   UNL A   1      29.600  25.867  24.572  1.00  0.00     0.027 A 
ATOM     13  C   UNL A   1      30.406  24.821  24.108  1.00  0.00     0.049 A 
BRANCH  13  14
ATOM     14  N   UNL A   1      30.478  23.605  24.858  1.00  0.00    -0.280 N 
ATOM     15  H   UNL A   1      30.067  22.787  24.495  1.00  0.00     0.180 HD
BRANCH  14  16
ATOM     16  S   UNL A   1      31.264  23.549  26.367  1.00  0.00     0.258 S 
ATOM     17  O   UNL A   1      32.053  24.763  26.392  1.00  0.00    -0.202 OA
ATOM     18  O   UNL A   1      30.192  23.394  27.334  1.00  0.00    -0.202 OA
BRANCH  16  19
ATOM     19  C   UNL A   1      32.309  22.129  26.420  1.00  0.00     0.066 C 
ATOM     20  C   UNL A   1      32.870  21.751  25.250  1.00  0.00     0.026 C 
ATOM     21  C   UNL A   1      33.193  22.032  27.639  1.00  0.00     0.055 C 
ATOM     22  C   UNL A   1      34.199  22.378  24.989  1.00  0.00    -0.021 A 
ATOM     23  C   UNL A   1      34.425  22.932  27.465  1.00  0.00     0.041 C 
ATOM     24  C   UNL A   1      34.705  22.389  23.685  1.00  0.00     0.008 A 
ATOM     25  C   UNL A   1      34.943  22.951  26.041  1.00  0.00    -0.040 A 
ATOM     26  C   UNL A   1      35.925  23.009  23.418  1.00  0.00     0.001 A 
ATOM     27  C   UNL A   1      36.156  23.589  25.753  1.00  0.00     0.004 A 
ATOM     28  C   UNL A   1      36.641  23.620  24.446  1.00  0.00     0.000 A 
ENDBRANCH  16  19
ENDBRANCH  14  16
ENDBRANCH  13  14
ENDBRANCH   6   8
ENDBRANCH   3   4
ENDBRANCH   2   3
ENDBRANCH   1   2
BRANCH   1  29
ATOM     29  C   UNL A   1      31.827  30.366  26.801  1.00  0.00     0.002 C 
BRANCH  29  30
ATOM     30  C   UNL A   1      31.496  31.852  26.953  1.00  0.00     0.021 C 
BRANCH  30  31
ATOM     31  C   UNL A   1      32.685  32.806  26.849  1.00  0.00     0.116 C 
BRANCH  31  32
ATOM     32  N   UNL A   1      32.472  34.049  27.568  1.00  0.00    -0.352 N 
ATOM     33  C   UNL A   1      33.118  34.535  28.680  1.00  0.00     0.251 C 
ATOM     34  H   UNL A   1      31.763  34.629  27.208  1.00  0.00     0.163 HD
ATOM     35  O   UNL A   1      32.696  35.550  29.228  1.00  0.00    -0.269 OA
BRANCH  33  36
ATOM     36  C   UNL A   1      34.290  33.822  29.235  1.00  0.00     0.039 A 
ATOM     37  C   UNL A   1      35.569  34.295  28.929  1.00  0.00     0.014 A 
ATOM     38  C   UNL A   1      34.138  32.689  30.041  1.00  0.00     0.014 A 
ATOM     39  C   UNL A   1      36.693  33.673  29.480  1.00  0.00     0.010 A 
ATOM     40  C   UNL A   1      35.256  32.107  30.638  1.00  0.00     0.010 A 
ATOM     41  C   UNL A   1      36.544  32.593  30.366  1.00  0.00    -0.014 A 
BRANCH  41  42
ATOM     42  C   UNL A   1      37.723  31.962  31.016  1.00  0.00     0.031 A 
ATOM     43  C   UNL A   1      38.542  30.943  30.271  1.00  0.00     0.074 A 
ATOM     44  C   UNL A   1      38.016  32.259  32.299  1.00  0.00     0.049 A 
ATOM     45  N   UNL A   1      39.551  30.225  30.691  1.00  0.00    -0.248 NA
ATOM     46  C   UNL A   1      38.154  30.679  28.878  1.00  0.00     0.031 C 
ATOM     47  C   UNL A   1      37.277  33.206  33.136  1.00  0.00     0.029 A 
ATOM     48  N   UNL A   1      39.005  31.788  33.125  1.00  0.00    -0.354 N 
ATOM     49  C   UNL A   1      39.906  29.407  29.623  1.00  0.00     0.074 A 
ATOM     50  C   UNL A   1      38.972  29.690  28.552  1.00  0.00     0.031 C 
ATOM     51  C   UNL A   1      37.851  33.261  34.349  1.00  0.00     0.029 A 
ATOM     52  C   UNL A   1      38.970  32.325  34.392  1.00  0.00     0.049 A 
ATOM     53  H   UNL A   1      39.678  31.129  32.839  1.00  0.00     0.167 HD
ATOM     54  C   UNL A   1      40.926  28.516  29.538  1.00  0.00     0.034 A 
ATOM     55  C   UNL A   1      39.742  32.081  35.469  1.00  0.00     0.034 A 
ATOM     56  C   UNL A   1      41.866  28.267  30.604  1.00  0.00     0.049 A 
ATOM     57  C   UNL A   1      40.862  31.078  35.352  1.00  0.00     0.074 A 
ATOM     58  C   UNL A   1      42.980  27.444  30.596  1.00  0.00     0.029 A 
ATOM     59  N   UNL A   1      41.800  28.830  31.872  1.00  0.00    -0.354 N 
ATOM     60  N   UNL A   1      41.218  30.354  34.317  1.00  0.00    -0.248 NA
ATOM     61  C   UNL A   1      41.689  30.866  36.547  1.00  0.00     0.031 C 
ATOM     62  C   UNL A   1      43.549  27.462  31.874  1.00  0.00     0.029 A 
ATOM     63  C   UNL A   1      42.833  28.347  32.662  1.00  0.00     0.049 A 
ATOM     64  H   UNL A   1      41.119  29.476  32.167  1.00  0.00     0.167 HD
ATOM     65  C   UNL A   1      42.332  29.627  34.728  1.00  0.00     0.074 A 
ATOM     66  C   UNL A   1      42.593  30.008  36.100  1.00  0.00     0.031 C 
ATOM     67  C   UNL A   1      43.077  28.731  34.032  1.00  0.00     0.034 A 
BRANCH  54  68
ATOM     68  C   UNL A   1      41.057  27.726  28.259  1.00  0.00     0.023 A 
ATOM     69  C   UNL A   1      40.764  26.353  28.203  1.00  0.00     0.031 A 
ATOM     70  C   UNL A   1      41.497  28.354  27.080  1.00  0.00     0.131 A 
ATOM     71  C   UNL A   1      40.982  25.638  27.015  1.00  0.00     0.055 A 
ATOM     72  C   UNL A   1      41.639  27.653  25.880  1.00  0.00     0.041 A 
ATOM     73  F   UNL A   1      41.811  29.660  27.077  1.00  0.00    -0.206 F 
ATOM     74  C   UNL A   1      41.394  26.284  25.846  1.00  0.00     0.022 A 
BRANCH  71  75
ATOM     75  S   UNL A   1      40.847  23.830  27.054  1.00  0.00     0.124 S 
ATOM     76  O   UNL A   1      41.664  23.448  25.904  1.00  0.00    -0.237 OA
ATOM     77  O   UNL A   1      41.395  23.500  28.364  1.00  0.00    -0.237 OA
ATOM     78  O   UNL A   1      39.413  23.590  26.898  1.00  0.00    -0.744 OA
ENDBRANCH  71  75
ENDBRANCH  54  68
BRANCH  55  79
ATOM     79  C   UNL A   1      39.492  32.785  36.758  1.00  0.00     0.023 A 
ATOM     80  C   UNL A   1      38.672  32.213  37.743  1.00  0.00     0.031 A 
ATOM     81  C   UNL A   1      40.025  34.063  37.003  1.00  0.00     0.131 A 
ATOM     82  C   UNL A   1      38.366  32.937  38.906  1.00  0.00     0.055 A 
ATOM     83  C   UNL A   1      39.758  34.758  38.185  1.00  0.00     0.041 A 
ATOM     84  F   UNL A   1      40.820  34.654  36.097  1.00  0.00    -0.206 F 
ATOM     85  C   UNL A   1      38.912  34.201  39.138  1.00  0.00     0.022 A 
BRANCH  82  86
ATOM     86  S   UNL A   1      37.167  32.234  40.073  1.00  0.00     0.124 S 
ATOM     87  O   UNL A   1      36.266  31.517  39.178  1.00  0.00    -0.237 OA
ATOM     88  O   UNL A   1      38.021  31.410  40.922  1.00  0.00    -0.237 OA
ATOM     89  O   UNL A   1      36.596  33.413  40.722  1.00  0.00    -0.744 OA
ENDBRANCH  82  86
ENDBRANCH  55  79
BRANCH  67  90
ATOM     90  C   UNL A   1      44.274  28.144  34.738  1.00  0.00     0.023 A 
ATOM     91  C   UNL A   1      45.527  28.780  34.720  1.00  0.00     0.031 A 
ATOM     92  C   UNL A   1      44.160  26.922  35.421  1.00  0.00     0.131 A 
ATOM     93  C   UNL A   1      46.631  28.163  35.330  1.00  0.00     0.055 A 
ATOM     94  C   UNL A   1      45.248  26.339  36.072  1.00  0.00     0.041 A 
ATOM     95  F   UNL A   1      42.985  26.271  35.465  1.00  0.00    -0.206 F 
ATOM     96  C   UNL A   1      46.495  26.955  36.017  1.00  0.00     0.022 A 
BRANCH  93  97
ATOM     97  S   UNL A   1      48.267  28.920  35.137  1.00  0.00     0.124 S 
ATOM     98  O   UNL A   1      48.872  28.676  36.442  1.00  0.00    -0.237 OA
ATOM     99  O   UNL A   1      48.831  28.165  34.022  1.00  0.00    -0.237 OA
ATOM    100  O   UNL A   1      47.965  30.321  34.846  1.00  0.00    -0.744 OA
ENDBRANCH  93  97
ENDBRANCH  67  90
ENDBRANCH  41  42
ENDBRANCH  33  36
ENDBRANCH  31  32
ENDBRANCH  30  31
ENDBRANCH  29  30
ENDBRANCH   1  29
TORSDOF 19
ENDMDL
MODEL 3
REMARK VINA RESULT:     -12.2      1.403      7.646
REMARK SMILES O=C(NCCCCCCNC(=O)c1ccc(-c2c3nc(c(-c4cc(S(=O)(=O)[O-])ccc4F)c4ccc([nH]4)c(-c4cc(S(=O)(=O)[O-])ccc4F)c4nc(c(-c5cc(S(=O)(=O)[O-])ccc5F)c5ccc2[nH]5)C=C4)C=C3)cc1)c1ccc(NS(=O)(=O)C2=Cc3ccccc3CC2)cc1
REMARK SMILES IDX 6 1 5 2 4 3 3 4 1 5 2 6 76 8 77 9 95 10 78 11 94 12 79 13
REMARK SMILES IDX 80 14 81 16 82 17 83 18 84 19 85 20 93 21 86 22 92 23 87 24
REMARK SMILES IDX 91 25 88 26 90 27 89 28 7 29 8 30 9 31 10 32 11 33 12 35
REMARK SMILES IDX 13 36 14 37 75 38 15 39 74 40 16 41 17 42 18 43 68 44 19 45
REMARK SMILES IDX 73 46 67 47 69 48 20 49 72 50 66 51 65 52 21 54 53 55 33 56
REMARK SMILES IDX 52 57 34 58 37 59 51 60 70 61 35 62 36 63 50 65 71 66 38 67
REMARK SMILES IDX 22 68 23 69 31 70 24 71 30 72 32 73 29 74 25 75 26 76 27 77
REMARK SMILES IDX 28 78 54 79 55 80 63 81 56 82 62 83 64 84 61 85 57 86 58 87
REMARK SMILES IDX 59 88 60 89 39 90 40 91 48 92 41 93 47 94 49 95 46 96 42 97
REMARK SMILES IDX 43 98 44 99 45 100
REMARK H PARENT 3 7 80 15 10 34 69 53 37 64
REMARK Flexibility Score: inf
ROOT
ATOM      1  C   UNL A   1      31.505  30.263  25.478  1.00  0.00     0.002 C 
ENDROOT
BRANCH   1   2
ATOM      2  C   UNL A   1      32.665  29.321  25.136  1.00  0.00     0.021 C 
BRANCH   2   3
ATOM      3  C   UNL A   1      32.932  29.139  23.643  1.00  0.00     0.116 C 
BRANCH   3   4
ATOM      4  N   UNL A   1      31.783  29.521  22.840  1.00  0.00    -0.352 N 
ATOM      5  O   UNL A   1      29.959  29.156  21.562  1.00  0.00    -0.269 OA
ATOM      6  C   UNL A   1      30.752  28.735  22.399  1.00  0.00     0.251 C 
ATOM      7  H   UNL A   1      31.741  30.469  22.580  1.00  0.00     0.163 HD
BRANCH   6   8
ATOM      8  C   UNL A   1      30.575  27.376  22.952  1.00  0.00     0.039 A 
ATOM      9  C   UNL A   1      31.303  26.307  22.427  1.00  0.00     0.016 A 
ATOM     10  C   UNL A   1      29.776  27.191  24.083  1.00  0.00     0.016 A 
ATOM     11  C   UNL A   1      31.226  25.053  23.032  1.00  0.00     0.027 A 
ATOM     12  C   UNL A   1      29.688  25.923  24.674  1.00  0.00     0.027 A 
ATOM     13  C   UNL A   1      30.411  24.848  24.146  1.00  0.00     0.049 A 
BRANCH  13  14
ATOM     14  N   UNL A   1      30.492  23.626  24.885  1.00  0.00    -0.280 N 
ATOM     15  H   UNL A   1      29.912  22.870  24.636  1.00  0.00     0.180 HD
BRANCH  14  16
ATOM     16  S   UNL A   1      31.573  23.457  26.189  1.00  0.00     0.258 S 
ATOM     17  O   UNL A   1      32.422  24.627  26.088  1.00  0.00    -0.202 OA
ATOM     18  O   UNL A   1      30.722  23.312  27.356  1.00  0.00    -0.202 OA
BRANCH  16  19
ATOM     19  C   UNL A   1      32.518  21.985  25.967  1.00  0.00     0.066 C 
ATOM     20  C   UNL A   1      33.176  21.864  24.794  1.00  0.00     0.026 C 
ATOM     21  C   UNL A   1      33.259  21.512  27.194  1.00  0.00     0.055 C 
ATOM     22  C   UNL A   1      34.562  22.419  24.820  1.00  0.00    -0.021 A 
ATOM     23  C   UNL A   1      34.555  22.316  27.365  1.00  0.00     0.041 C 
ATOM     24  C   UNL A   1      35.204  22.711  23.613  1.00  0.00     0.008 A 
ATOM     25  C   UNL A   1      35.222  22.645  26.046  1.00  0.00    -0.040 A 
ATOM     26  C   UNL A   1      36.481  23.271  23.622  1.00  0.00     0.001 A 
ATOM     27  C   UNL A   1      36.496  23.228  26.039  1.00  0.00     0.004 A 
ATOM     28  C   UNL A   1      37.119  23.542  24.832  1.00  0.00     0.000 A 
ENDBRANCH  16  19
ENDBRANCH  14  16
ENDBRANCH  13  14
ENDBRANCH   6   8
ENDBRANCH   3   4
ENDBRANCH   2   3
ENDBRANCH   1   2
BRANCH   1  29
ATOM     29  C   UNL A   1      31.596  30.956  26.839  1.00  0.00     0.002 C 
BRANCH  29  30
ATOM     30  C   UNL A   1      31.638  32.486  26.804  1.00  0.00     0.021 C 
BRANCH  30  31
ATOM     31  C   UNL A   1      32.961  33.119  27.230  1.00  0.00     0.116 C 
BRANCH  31  32
ATOM     32  N   UNL A   1      32.778  34.316  28.031  1.00  0.00    -0.352 N 
ATOM     33  C   UNL A   1      33.409  34.694  29.192  1.00  0.00     0.251 C 
ATOM     34  H   UNL A   1      32.105  34.951  27.692  1.00  0.00     0.163 HD
ATOM     35  O   UNL A   1      33.013  35.686  29.799  1.00  0.00    -0.269 OA
BRANCH  33  36
ATOM     36  C   UNL A   1      34.532  33.893  29.727  1.00  0.00     0.039 A 
ATOM     37  C   UNL A   1      35.835  34.230  29.350  1.00  0.00     0.014 A 
ATOM     38  C   UNL A   1      34.311  32.810  30.583  1.00  0.00     0.014 A 
ATOM     39  C   UNL A   1      36.919  33.524  29.880  1.00  0.00     0.010 A 
ATOM     40  C   UNL A   1      35.394  32.145  31.157  1.00  0.00     0.010 A 
ATOM     41  C   UNL A   1      36.709  32.496  30.814  1.00  0.00    -0.014 A 
BRANCH  41  42
ATOM     42  C   UNL A   1      37.851  31.780  31.441  1.00  0.00     0.031 A 
ATOM     43  C   UNL A   1      38.341  32.184  32.804  1.00  0.00     0.074 A 
ATOM     44  C   UNL A   1      38.487  30.809  30.753  1.00  0.00     0.049 A 
ATOM     45  N   UNL A   1      39.369  31.739  33.480  1.00  0.00    -0.248 NA
ATOM     46  C   UNL A   1      37.591  33.251  33.483  1.00  0.00     0.031 C 
ATOM     47  C   UNL A   1      38.126  30.350  29.411  1.00  0.00     0.029 A 
ATOM     48  N   UNL A   1      39.575  30.041  31.084  1.00  0.00    -0.354 N 
ATOM     49  C   UNL A   1      39.403  32.484  34.654  1.00  0.00     0.074 A 
ATOM     50  C   UNL A   1      38.318  33.441  34.574  1.00  0.00     0.031 C 
ATOM     51  C   UNL A   1      38.964  29.367  29.041  1.00  0.00     0.029 A 
ATOM     52  C   UNL A   1      39.947  29.155  30.099  1.00  0.00     0.049 A 
ATOM     53  H   UNL A   1      40.045  30.116  31.945  1.00  0.00     0.167 HD
ATOM     54  C   UNL A   1      40.251  32.371  35.708  1.00  0.00     0.034 A 
ATOM     55  C   UNL A   1      40.970  28.280  30.048  1.00  0.00     0.034 A 
ATOM     56  C   UNL A   1      41.310  31.393  35.785  1.00  0.00     0.049 A 
ATOM     57  C   UNL A   1      41.905  28.181  31.227  1.00  0.00     0.074 A 
ATOM     58  C   UNL A   1      42.174  31.141  36.837  1.00  0.00     0.029 A 
ATOM     59  N   UNL A   1      41.655  30.511  34.770  1.00  0.00    -0.354 N 
ATOM     60  N   UNL A   1      41.890  28.856  32.353  1.00  0.00    -0.248 NA
ATOM     61  C   UNL A   1      42.990  27.196  31.131  1.00  0.00     0.031 C 
ATOM     62  C   UNL A   1      43.079  30.153  36.435  1.00  0.00     0.029 A 
ATOM     63  C   UNL A   1      42.739  29.738  35.159  1.00  0.00     0.049 A 
ATOM     64  H   UNL A   1      41.198  30.445  33.901  1.00  0.00     0.167 HD
ATOM     65  C   UNL A   1      42.942  28.350  33.112  1.00  0.00     0.074 A 
ATOM     66  C   UNL A   1      43.563  27.309  32.320  1.00  0.00     0.031 C 
ATOM     67  C   UNL A   1      43.353  28.709  34.355  1.00  0.00     0.034 A 
BRANCH  54  68
ATOM     68  C   UNL A   1      40.083  33.348  36.846  1.00  0.00     0.023 A 
ATOM     69  C   UNL A   1      39.416  32.997  38.032  1.00  0.00     0.031 A 
ATOM     70  C   UNL A   1      40.587  34.656  36.736  1.00  0.00     0.131 A 
ATOM     71  C   UNL A   1      39.207  33.962  39.029  1.00  0.00     0.055 A 
ATOM     72  C   UNL A   1      40.442  35.590  37.765  1.00  0.00     0.041 A 
ATOM     73  F   UNL A   1      41.216  35.055  35.619  1.00  0.00    -0.206 F 
ATOM     74  C   UNL A   1      39.737  35.249  38.914  1.00  0.00     0.022 A 
BRANCH  71  75
ATOM     75  S   UNL A   1      38.119  33.549  40.420  1.00  0.00     0.124 S 
ATOM     76  O   UNL A   1      36.955  32.998  39.730  1.00  0.00    -0.237 OA
ATOM     77  O   UNL A   1      38.922  32.597  41.178  1.00  0.00    -0.237 OA
ATOM     78  O   UNL A   1      37.893  34.837  41.074  1.00  0.00    -0.744 OA
ENDBRANCH  71  75
ENDBRANCH  54  68
BRANCH  55  79
ATOM     79  C   UNL A   1      41.182  27.427  28.844  1.00  0.00     0.023 A 
ATOM     80  C   UNL A   1      42.166  27.751  27.898  1.00  0.00     0.031 A 
ATOM     81  C   UNL A   1      40.369  26.307  28.596  1.00  0.00     0.131 A 
ATOM     82  C   UNL A   1      42.280  26.995  26.721  1.00  0.00     0.055 A 
ATOM     83  C   UNL A   1      40.521  25.528  27.447  1.00  0.00     0.041 A 
ATOM     84  F   UNL A   1      39.417  25.950  29.472  1.00  0.00    -0.206 F 
ATOM     85  C   UNL A   1      41.471  25.880  26.494  1.00  0.00     0.022 A 
BRANCH  82  86
ATOM     86  S   UNL A   1      43.445  27.548  25.445  1.00  0.00     0.124 S 
ATOM     87  O   UNL A   1      44.206  26.331  25.189  1.00  0.00    -0.237 OA
ATOM     88  O   UNL A   1      42.545  27.980  24.381  1.00  0.00    -0.237 OA
ATOM     89  O   UNL A   1      44.187  28.621  26.106  1.00  0.00    -0.744 OA
ENDBRANCH  82  86
ENDBRANCH  55  79
BRANCH  67  90
ATOM     90  C   UNL A   1      44.501  27.928  34.946  1.00  0.00     0.023 A 
ATOM     91  C   UNL A   1      45.835  28.343  34.792  1.00  0.00     0.031 A 
ATOM     92  C   UNL A   1      44.253  26.741  35.657  1.00  0.00     0.131 A 
ATOM     93  C   UNL A   1      46.875  27.548  35.297  1.00  0.00     0.055 A 
ATOM     94  C   UNL A   1      45.289  25.983  36.205  1.00  0.00     0.041 A 
ATOM     95  F   UNL A   1      42.997  26.298  35.830  1.00  0.00    -0.206 F 
ATOM     96  C   UNL A   1      46.610  26.380  36.014  1.00  0.00     0.022 A 
BRANCH  93  97
ATOM     97  S   UNL A   1      48.587  28.019  34.927  1.00  0.00     0.124 S 
ATOM     98  O   UNL A   1      49.328  27.317  35.970  1.00  0.00    -0.237 OA
ATOM     99  O   UNL A   1      48.764  27.512  33.570  1.00  0.00    -0.237 OA
ATOM    100  O   UNL A   1      48.576  29.476  35.047  1.00  0.00    -0.744 OA
ENDBRANCH  93  97
ENDBRANCH  67  90
ENDBRANCH  41  42
ENDBRANCH  33  36
ENDBRANCH  31  32
ENDBRANCH  30  31
ENDBRANCH  29  30
ENDBRANCH   1  29
TORSDOF 19
ENDMDL
