MODEL 1
REMARK VINA RESULT:     -10.1      0.000      0.000
REMARK SMILES C[C@H](NC(=O)CCN1C(=O)/C(=C/c2ccc([N+](=O)[O-])cc2)SC1=S)C(=O)NCCCCCCNC(=O)c1ccc(-c2c3nc(c(-c4cc(S(=O)(=O)[O-])ccc4F)c4ccc([nH]4)c(-c4cc(S(=O)(=O)[O-])ccc4F)c4nc(c(-c5cc(S(=O)(=O)[O-])ccc5F)c5ccc2[nH]5)C=C4)C=C3)cc1
REMARK SMILES IDX 29 1 28 2 27 3 25 4 26 5 2 7 1 8 3 9 4 10 5 12 6 13 7 14
REMARK SMILES IDX 8 15 9 16 23 17 10 18 11 19 22 20 24 21 12 22 13 23 14 24
REMARK SMILES IDX 21 25 15 26 20 27 16 28 17 29 18 30 19 31 30 32 31 33 32 34
REMARK SMILES IDX 33 35 34 36 35 37 36 39 37 40 38 41 99 42 39 43 98 44 40 45
REMARK SMILES IDX 41 46 42 47 92 48 43 49 97 50 91 51 93 52 44 53 96 54 90 55
REMARK SMILES IDX 89 56 45 58 77 59 57 60 76 61 58 62 61 63 75 64 94 65 59 66
REMARK SMILES IDX 60 67 74 69 95 70 62 71 46 72 47 73 55 74 48 75 54 76 56 77
REMARK SMILES IDX 53 78 49 79 50 80 51 81 52 82 78 83 79 84 87 85 80 86 86 87
REMARK SMILES IDX 88 88 85 89 81 90 82 91 83 92 84 93 63 94 64 95 72 96 65 97
REMARK SMILES IDX 71 98 73 99 70 100 66 101 67 102 68 103 69 104
REMARK H PARENT 27 6 3 11 34 38 93 57 61 68
REMARK Flexibility Score: inf
ROOT
ATOM      1  C   UNL A   1      38.185  29.655  28.908  1.00  0.00     0.021 C 
ENDROOT
BRANCH   1   2
ATOM      2  C   UNL A   1      36.832  29.747  29.602  1.00  0.00     0.116 C 
BRANCH   2   3
ATOM      3  N   UNL A   1      36.269  31.057  29.395  1.00  0.00    -0.354 N 
ATOM      4  C   UNL A   1      35.524  31.455  28.339  1.00  0.00     0.242 C 
ATOM      5  O   UNL A   1      35.675  32.616  27.951  1.00  0.00    -0.273 OA
ATOM      6  H   UNL A   1      36.445  31.730  30.091  1.00  0.00     0.163 HD
BRANCH   4   7
ATOM      7  C   UNL A   1      34.471  30.530  27.700  1.00  0.00     0.168 C 
ATOM      8  C   UNL A   1      34.915  29.408  26.772  1.00  0.00     0.041 C 
BRANCH   7   9
ATOM      9  N   UNL A   1      33.273  31.198  27.231  1.00  0.00    -0.345 N 
ATOM     10  C   UNL A   1      32.128  30.649  26.737  1.00  0.00     0.222 C 
ATOM     11  H   UNL A   1      33.288  32.181  27.275  1.00  0.00     0.164 HD
ATOM     12  O   UNL A   1      31.280  31.412  26.271  1.00  0.00    -0.275 OA
BRANCH  10  13
ATOM     13  C   UNL A   1      31.870  29.149  26.794  1.00  0.00     0.122 C 
BRANCH  13  14
ATOM     14  C   UNL A   1      31.203  28.515  25.561  1.00  0.00     0.137 C 
BRANCH  14  15
ATOM     15  N   UNL A   1      31.872  27.318  25.010  1.00  0.00    -0.292 N 
ATOM     16  C   UNL A   1      31.695  26.081  25.614  1.00  0.00     0.266 C 
ATOM     17  C   UNL A   1      32.658  27.304  23.873  1.00  0.00     0.148 C 
ATOM     18  O   UNL A   1      30.795  25.764  26.378  1.00  0.00    -0.268 OA
ATOM     19  C   UNL A   1      32.803  25.172  25.201  1.00  0.00     0.081 C 
ATOM     20  S   UNL A   1      33.478  25.746  23.733  1.00  0.00    -0.054 SA
ATOM     21  S   UNL A   1      32.901  28.526  22.766  1.00  0.00    -0.052 S 
ATOM     22  C   UNL A   1      33.240  24.193  26.009  1.00  0.00     0.029 C 
BRANCH  22  23
ATOM     23  C   UNL A   1      34.439  23.347  25.873  1.00  0.00    -0.024 A 
ATOM     24  C   UNL A   1      35.691  23.905  26.169  1.00  0.00     0.015 A 
ATOM     25  C   UNL A   1      34.390  22.044  25.352  1.00  0.00     0.015 A 
ATOM     26  C   UNL A   1      36.868  23.165  25.994  1.00  0.00     0.086 A 
ATOM     27  C   UNL A   1      35.560  21.294  25.172  1.00  0.00     0.086 A 
ATOM     28  C   UNL A   1      36.797  21.856  25.503  1.00  0.00     0.269 A 
BRANCH  28  29
ATOM     29  N   UNL A   1      38.028  21.073  25.330  1.00  0.00     0.062 N 
ATOM     30  O   UNL A   1      37.919  19.926  24.875  1.00  0.00    -0.258 OA
ATOM     31  O   UNL A   1      39.100  21.608  25.647  1.00  0.00    -0.258 OA
ENDBRANCH  28  29
ENDBRANCH  22  23
ENDBRANCH  14  15
ENDBRANCH  13  14
ENDBRANCH  10  13
ENDBRANCH   7   9
ENDBRANCH   4   7
ENDBRANCH   2   3
ENDBRANCH   1   2
BRANCH   1  32
ATOM     32  C   UNL A   1      38.392  28.385  28.073  1.00  0.00     0.002 C 
BRANCH  32  33
ATOM     33  C   UNL A   1      39.357  27.355  28.666  1.00  0.00     0.002 C 
BRANCH  33  34
ATOM     34  C   UNL A   1      39.362  25.990  27.978  1.00  0.00     0.021 C 
BRANCH  34  35
ATOM     35  C   UNL A   1      40.697  25.258  28.013  1.00  0.00     0.116 C 
BRANCH  35  36
ATOM     36  N   UNL A   1      41.243  25.030  26.690  1.00  0.00    -0.352 N 
ATOM     37  C   UNL A   1      42.000  25.891  25.932  1.00  0.00     0.251 C 
ATOM     38  H   UNL A   1      41.050  24.154  26.286  1.00  0.00     0.163 HD
ATOM     39  O   UNL A   1      42.278  25.615  24.772  1.00  0.00    -0.269 OA
BRANCH  37  40
ATOM     40  C   UNL A   1      42.429  27.170  26.534  1.00  0.00     0.039 A 
ATOM     41  C   UNL A   1      41.765  28.341  26.169  1.00  0.00     0.014 A 
ATOM     42  C   UNL A   1      43.434  27.193  27.507  1.00  0.00     0.014 A 
ATOM     43  C   UNL A   1      42.069  29.534  26.825  1.00  0.00     0.010 A 
ATOM     44  C   UNL A   1      43.684  28.368  28.208  1.00  0.00     0.010 A 
ATOM     45  C   UNL A   1      43.004  29.549  27.874  1.00  0.00    -0.014 A 
BRANCH  45  46
ATOM     46  C   UNL A   1      43.277  30.795  28.634  1.00  0.00     0.031 A 
ATOM     47  C   UNL A   1      42.448  31.138  29.838  1.00  0.00     0.074 A 
ATOM     48  C   UNL A   1      44.228  31.645  28.199  1.00  0.00     0.049 A 
ATOM     49  N   UNL A   1      42.486  32.204  30.594  1.00  0.00    -0.248 NA
ATOM     50  C   UNL A   1      41.417  30.162  30.221  1.00  0.00     0.031 C 
ATOM     51  C   UNL A   1      45.060  31.442  27.010  1.00  0.00     0.029 A 
ATOM     52  N   UNL A   1      44.646  32.854  28.694  1.00  0.00    -0.354 N 
ATOM     53  C   UNL A   1      41.484  32.030  31.544  1.00  0.00     0.074 A 
ATOM     54  C   UNL A   1      40.809  30.792  31.214  1.00  0.00     0.031 C 
ATOM     55  C   UNL A   1      45.895  32.484  26.876  1.00  0.00     0.029 A 
ATOM     56  C   UNL A   1      45.632  33.447  27.942  1.00  0.00     0.049 A 
ATOM     57  H   UNL A   1      44.275  33.258  29.511  1.00  0.00     0.167 HD
ATOM     58  C   UNL A   1      41.176  32.814  32.607  1.00  0.00     0.034 A 
ATOM     59  C   UNL A   1      46.242  34.641  28.082  1.00  0.00     0.034 A 
ATOM     60  C   UNL A   1      41.860  34.048  32.913  1.00  0.00     0.049 A 
ATOM     61  C   UNL A   1      45.864  35.516  29.247  1.00  0.00     0.074 A 
ATOM     62  C   UNL A   1      41.673  34.896  33.990  1.00  0.00     0.029 A 
ATOM     63  N   UNL A   1      42.854  34.622  32.126  1.00  0.00    -0.354 N 
ATOM     64  N   UNL A   1      44.959  35.309  30.175  1.00  0.00    -0.248 NA
ATOM     65  C   UNL A   1      46.597  36.779  29.389  1.00  0.00     0.031 C 
ATOM     66  C   UNL A   1      42.500  36.013  33.819  1.00  0.00     0.029 A 
ATOM     67  C   UNL A   1      43.261  35.829  32.674  1.00  0.00     0.049 A 
ATOM     68  H   UNL A   1      43.218  34.227  31.301  1.00  0.00     0.167 HD
ATOM     69  C   UNL A   1      45.023  36.412  31.021  1.00  0.00     0.074 A 
ATOM     70  C   UNL A   1      46.071  37.269  30.504  1.00  0.00     0.031 C 
ATOM     71  C   UNL A   1      44.286  36.690  32.127  1.00  0.00     0.034 A 
BRANCH  58  72
ATOM     72  C   UNL A   1      40.037  32.360  33.489  1.00  0.00     0.023 A 
ATOM     73  C   UNL A   1      38.754  32.931  33.385  1.00  0.00     0.031 A 
ATOM     74  C   UNL A   1      40.241  31.389  34.485  1.00  0.00     0.131 A 
ATOM     75  C   UNL A   1      37.762  32.604  34.321  1.00  0.00     0.055 A 
ATOM     76  C   UNL A   1      39.221  31.000  35.356  1.00  0.00     0.041 A 
ATOM     77  F   UNL A   1      41.446  30.821  34.649  1.00  0.00    -0.206 F 
ATOM     78  C   UNL A   1      37.978  31.623  35.291  1.00  0.00     0.022 A 
BRANCH  75  79
ATOM     79  S   UNL A   1      36.253  33.612  34.365  1.00  0.00     0.124 S 
ATOM     80  O   UNL A   1      36.731  34.881  33.822  1.00  0.00    -0.237 OA
ATOM     81  O   UNL A   1      35.344  32.853  33.513  1.00  0.00    -0.237 OA
ATOM     82  O   UNL A   1      35.903  33.641  35.783  1.00  0.00    -0.744 OA
ENDBRANCH  75  79
ENDBRANCH  58  72
BRANCH  59  83
ATOM     83  C   UNL A   1      47.250  35.083  27.078  1.00  0.00     0.023 A 
ATOM     84  C   UNL A   1      48.496  34.445  26.965  1.00  0.00     0.031 A 
ATOM     85  C   UNL A   1      46.979  36.160  26.215  1.00  0.00     0.131 A 
ATOM     86  C   UNL A   1      49.435  34.910  26.031  1.00  0.00     0.055 A 
ATOM     87  C   UNL A   1      47.899  36.589  25.257  1.00  0.00     0.041 A 
ATOM     88  F   UNL A   1      45.798  36.797  26.276  1.00  0.00    -0.206 F 
ATOM     89  C   UNL A   1      49.140  35.968  25.167  1.00  0.00     0.022 A 
BRANCH  86  90
ATOM     90  S   UNL A   1      51.079  34.143  25.994  1.00  0.00     0.124 S 
ATOM     91  O   UNL A   1      51.283  33.811  27.399  1.00  0.00    -0.237 OA
ATOM     92  O   UNL A   1      50.867  33.015  25.092  1.00  0.00    -0.237 OA
ATOM     93  O   UNL A   1      51.937  35.203  25.470  1.00  0.00    -0.744 OA
ENDBRANCH  86  90
ENDBRANCH  59  83
BRANCH  71  94
ATOM     94  C   UNL A   1      44.605  37.972  32.854  1.00  0.00     0.023 A 
ATOM     95  C   UNL A   1      43.864  39.148  32.634  1.00  0.00     0.031 A 
ATOM     96  C   UNL A   1      45.667  38.023  33.773  1.00  0.00     0.131 A 
ATOM     97  C   UNL A   1      44.229  40.336  33.284  1.00  0.00     0.055 A 
ATOM     98  C   UNL A   1      45.988  39.193  34.462  1.00  0.00     0.041 A 
ATOM     99  F   UNL A   1      46.410  36.931  34.020  1.00  0.00    -0.206 F 
ATOM    100  C   UNL A   1      45.275  40.362  34.210  1.00  0.00     0.022 A 
BRANCH  97 101
ATOM    101  S   UNL A   1      43.369  41.871  32.842  1.00  0.00     0.124 S 
ATOM    102  O   UNL A   1      41.993  41.568  33.224  1.00  0.00    -0.237 OA
ATOM    103  O   UNL A   1      44.056  42.861  33.666  1.00  0.00    -0.237 OA
ATOM    104  O   UNL A   1      43.602  41.993  31.405  1.00  0.00    -0.744 OA
ENDBRANCH  97 101
ENDBRANCH  71  94
ENDBRANCH  45  46
ENDBRANCH  37  40
ENDBRANCH  35  36
ENDBRANCH  34  35
ENDBRANCH  33  34
ENDBRANCH  32  33
ENDBRANCH   1  32
TORSDOF 22
ENDMDL
MODEL 2
REMARK VINA RESULT:      -9.6      3.364      9.364
REMARK SMILES C[C@H](NC(=O)CCN1C(=O)/C(=C/c2ccc([N+](=O)[O-])cc2)SC1=S)C(=O)NCCCCCCNC(=O)c1ccc(-c2c3nc(c(-c4cc(S(=O)(=O)[O-])ccc4F)c4ccc([nH]4)c(-c4cc(S(=O)(=O)[O-])ccc4F)c4nc(c(-c5cc(S(=O)(=O)[O-])ccc5F)c5ccc2[nH]5)C=C4)C=C3)cc1
REMARK SMILES IDX 29 1 28 2 27 3 25 4 26 5 2 7 1 8 3 9 4 10 5 12 6 13 7 14
REMARK SMILES IDX 8 15 9 16 23 17 10 18 11 19 22 20 24 21 12 22 13 23 14 24
REMARK SMILES IDX 21 25 15 26 20 27 16 28 17 29 18 30 19 31 30 32 31 33 32 34
REMARK SMILES IDX 33 35 34 36 35 37 36 39 37 40 38 41 99 42 39 43 98 44 40 45
REMARK SMILES IDX 41 46 42 47 92 48 43 49 97 50 91 51 93 52 44 53 96 54 90 55
REMARK SMILES IDX 89 56 45 58 77 59 57 60 76 61 58 62 61 63 75 64 94 65 59 66
REMARK SMILES IDX 60 67 74 69 95 70 62 71 46 72 47 73 55 74 48 75 54 76 56 77
REMARK SMILES IDX 53 78 49 79 50 80 51 81 52 82 78 83 79 84 87 85 80 86 86 87
REMARK SMILES IDX 88 88 85 89 81 90 82 91 83 92 84 93 63 94 64 95 72 96 65 97
REMARK SMILES IDX 71 98 73 99 70 100 66 101 67 102 68 103 69 104
REMARK H PARENT 27 6 3 11 34 38 93 57 61 68
REMARK Flexibility Score: inf
ROOT
ATOM      1  C   UNL A   1      38.474  21.399  25.692  1.00  0.00     0.021 C 
ENDROOT
BRANCH   1   2
ATOM      2  C   UNL A   1      38.149  22.881  25.831  1.00  0.00     0.116 C 
BRANCH   2   3
ATOM      3  N   UNL A   1      37.623  23.381  24.587  1.00  0.00    -0.354 N 
ATOM      4  C   UNL A   1      36.475  22.995  23.985  1.00  0.00     0.242 C 
ATOM      5  O   UNL A   1      36.473  22.957  22.753  1.00  0.00    -0.273 OA
ATOM      6  H   UNL A   1      38.152  24.072  24.127  1.00  0.00     0.163 HD
BRANCH   4   7
ATOM      7  C   UNL A   1      35.199  22.698  24.797  1.00  0.00     0.168 C 
ATOM      8  C   UNL A   1      34.959  23.416  26.117  1.00  0.00     0.041 C 
BRANCH   7   9
ATOM      9  N   UNL A   1      34.817  21.300  24.846  1.00  0.00    -0.345 N 
ATOM     10  C   UNL A   1      33.672  20.747  25.334  1.00  0.00     0.222 C 
ATOM     11  H   UNL A   1      35.473  20.666  24.478  1.00  0.00     0.164 HD
ATOM     12  O   UNL A   1      33.611  19.517  25.397  1.00  0.00    -0.275 OA
BRANCH  10  13
ATOM     13  C   UNL A   1      32.482  21.601  25.748  1.00  0.00     0.122 C 
BRANCH  13  14
ATOM     14  C   UNL A   1      31.523  22.038  24.627  1.00  0.00     0.137 C 
BRANCH  14  15
ATOM     15  N   UNL A   1      31.628  23.449  24.200  1.00  0.00    -0.292 N 
ATOM     16  C   UNL A   1      31.236  24.467  25.058  1.00  0.00     0.266 C 
ATOM     17  C   UNL A   1      32.143  23.873  22.990  1.00  0.00     0.148 C 
ATOM     18  O   UNL A   1      31.098  24.388  26.270  1.00  0.00    -0.268 OA
ATOM     19  C   UNL A   1      30.980  25.703  24.264  1.00  0.00     0.081 C 
ATOM     20  S   UNL A   1      31.825  25.597  22.776  1.00  0.00    -0.054 SA
ATOM     21  S   UNL A   1      32.919  22.972  21.822  1.00  0.00    -0.052 S 
ATOM     22  C   UNL A   1      30.076  26.613  24.661  1.00  0.00     0.029 C 
BRANCH  22  23
ATOM     23  C   UNL A   1      29.538  27.768  23.921  1.00  0.00    -0.024 A 
ATOM     24  C   UNL A   1      30.317  28.930  23.829  1.00  0.00     0.015 A 
ATOM     25  C   UNL A   1      28.233  27.792  23.402  1.00  0.00     0.015 A 
ATOM     26  C   UNL A   1      29.827  30.078  23.193  1.00  0.00     0.086 A 
ATOM     27  C   UNL A   1      27.730  28.934  22.764  1.00  0.00     0.086 A 
ATOM     28  C   UNL A   1      28.535  30.073  22.655  1.00  0.00     0.269 A 
BRANCH  28  29
ATOM     29  N   UNL A   1      28.022  31.271  21.976  1.00  0.00     0.062 N 
ATOM     30  O   UNL A   1      27.934  31.237  20.741  1.00  0.00    -0.258 OA
ATOM     31  O   UNL A   1      27.706  32.240  22.680  1.00  0.00    -0.258 OA
ENDBRANCH  28  29
ENDBRANCH  22  23
ENDBRANCH  14  15
ENDBRANCH  13  14
ENDBRANCH  10  13
ENDBRANCH   7   9
ENDBRANCH   4   7
ENDBRANCH   2   3
ENDBRANCH   1   2
BRANCH   1  32
ATOM     32  C   UNL A   1      39.882  21.005  26.153  1.00  0.00     0.002 C 
BRANCH  32  33
ATOM     33  C   UNL A   1      40.893  22.152  26.240  1.00  0.00     0.002 C 
BRANCH  33  34
ATOM     34  C   UNL A   1      42.252  21.876  25.599  1.00  0.00     0.021 C 
BRANCH  34  35
ATOM     35  C   UNL A   1      43.096  20.825  26.307  1.00  0.00     0.116 C 
BRANCH  35  36
ATOM     36  N   UNL A   1      44.429  20.712  25.751  1.00  0.00    -0.352 N 
ATOM     37  C   UNL A   1      45.352  21.713  25.566  1.00  0.00     0.251 C 
ATOM     38  H   UNL A   1      44.707  19.810  25.472  1.00  0.00     0.163 HD
ATOM     39  O   UNL A   1      46.392  21.494  24.957  1.00  0.00    -0.269 OA
BRANCH  37  40
ATOM     40  C   UNL A   1      45.041  23.062  26.081  1.00  0.00     0.039 A 
ATOM     41  C   UNL A   1      45.185  23.310  27.446  1.00  0.00     0.014 A 
ATOM     42  C   UNL A   1      44.682  24.090  25.203  1.00  0.00     0.014 A 
ATOM     43  C   UNL A   1      45.024  24.609  27.928  1.00  0.00     0.010 A 
ATOM     44  C   UNL A   1      44.592  25.396  25.674  1.00  0.00     0.010 A 
ATOM     45  C   UNL A   1      44.763  25.667  27.041  1.00  0.00    -0.014 A 
BRANCH  45  46
ATOM     46  C   UNL A   1      44.670  27.066  27.529  1.00  0.00     0.031 A 
ATOM     47  C   UNL A   1      45.905  27.916  27.616  1.00  0.00     0.074 A 
ATOM     48  C   UNL A   1      43.484  27.545  27.953  1.00  0.00     0.049 A 
ATOM     49  N   UNL A   1      46.044  29.133  28.074  1.00  0.00    -0.248 NA
ATOM     50  C   UNL A   1      47.158  27.298  27.155  1.00  0.00     0.031 C 
ATOM     51  C   UNL A   1      42.226  26.794  27.965  1.00  0.00     0.029 A 
ATOM     52  N   UNL A   1      43.144  28.770  28.469  1.00  0.00    -0.354 N 
ATOM     53  C   UNL A   1      47.399  29.429  27.958  1.00  0.00     0.074 A 
ATOM     54  C   UNL A   1      48.044  28.232  27.460  1.00  0.00     0.031 C 
ATOM     55  C   UNL A   1      41.252  27.578  28.452  1.00  0.00     0.029 A 
ATOM     56  C   UNL A   1      41.820  28.870  28.825  1.00  0.00     0.049 A 
ATOM     57  H   UNL A   1      43.787  29.508  28.574  1.00  0.00     0.167 HD
ATOM     58  C   UNL A   1      48.037  30.598  28.214  1.00  0.00     0.034 A 
ATOM     59  C   UNL A   1      41.142  29.881  29.404  1.00  0.00     0.034 A 
ATOM     60  C   UNL A   1      47.373  31.776  28.716  1.00  0.00     0.049 A 
ATOM     61  C   UNL A   1      41.873  31.160  29.716  1.00  0.00     0.074 A 
ATOM     62  C   UNL A   1      47.905  33.030  28.961  1.00  0.00     0.029 A 
ATOM     63  N   UNL A   1      46.029  31.842  29.069  1.00  0.00    -0.354 N 
ATOM     64  N   UNL A   1      43.142  31.448  29.540  1.00  0.00    -0.248 NA
ATOM     65  C   UNL A   1      41.080  32.251  30.293  1.00  0.00     0.031 C 
ATOM     66  C   UNL A   1      46.904  33.830  29.526  1.00  0.00     0.029 A 
ATOM     67  C   UNL A   1      45.724  33.101  29.564  1.00  0.00     0.049 A 
ATOM     68  H   UNL A   1      45.386  31.102  28.978  1.00  0.00     0.167 HD
ATOM     69  C   UNL A   1      43.296  32.761  29.974  1.00  0.00     0.074 A 
ATOM     70  C   UNL A   1      41.986  33.214  30.397  1.00  0.00     0.031 C 
ATOM     71  C   UNL A   1      44.418  33.526  30.014  1.00  0.00     0.034 A 
BRANCH  58  72
ATOM     72  C   UNL A   1      49.529  30.632  27.975  1.00  0.00     0.023 A 
ATOM     73  C   UNL A   1      50.063  30.878  26.696  1.00  0.00     0.031 A 
ATOM     74  C   UNL A   1      50.430  30.359  29.018  1.00  0.00     0.131 A 
ATOM     75  C   UNL A   1      51.442  30.745  26.473  1.00  0.00     0.055 A 
ATOM     76  C   UNL A   1      51.811  30.320  28.809  1.00  0.00     0.041 A 
ATOM     77  F   UNL A   1      49.984  30.097  30.257  1.00  0.00    -0.206 F 
ATOM     78  C   UNL A   1      52.323  30.493  27.526  1.00  0.00     0.022 A 
BRANCH  75  79
ATOM     79  S   UNL A   1      52.040  30.724  24.760  1.00  0.00     0.124 S 
ATOM     80  O   UNL A   1      51.310  29.586  24.207  1.00  0.00    -0.237 OA
ATOM     81  O   UNL A   1      51.640  32.039  24.272  1.00  0.00    -0.237 OA
ATOM     82  O   UNL A   1      53.480  30.521  24.903  1.00  0.00    -0.744 OA
ENDBRANCH  75  79
ENDBRANCH  58  72
BRANCH  59  83
ATOM     83  C   UNL A   1      39.703  29.710  29.749  1.00  0.00     0.023 A 
ATOM     84  C   UNL A   1      38.691  30.270  28.953  1.00  0.00     0.031 A 
ATOM     85  C   UNL A   1      39.320  28.983  30.890  1.00  0.00     0.131 A 
ATOM     86  C   UNL A   1      37.345  30.118  29.326  1.00  0.00     0.055 A 
ATOM     87  C   UNL A   1      37.979  28.796  31.231  1.00  0.00     0.041 A 
ATOM     88  F   UNL A   1      40.249  28.419  31.678  1.00  0.00    -0.206 F 
ATOM     89  C   UNL A   1      36.983  29.374  30.452  1.00  0.00     0.022 A 
BRANCH  86  90
ATOM     90  S   UNL A   1      36.071  30.956  28.345  1.00  0.00     0.124 S 
ATOM     91  O   UNL A   1      35.796  29.968  27.308  1.00  0.00    -0.237 OA
ATOM     92  O   UNL A   1      35.014  31.160  29.332  1.00  0.00    -0.237 OA
ATOM     93  O   UNL A   1      36.737  32.174  27.889  1.00  0.00    -0.744 OA
ENDBRANCH  86  90
ENDBRANCH  59  83
BRANCH  71  94
ATOM     94  C   UNL A   1      44.263  34.937  30.526  1.00  0.00     0.023 A 
ATOM     95  C   UNL A   1      43.854  35.986  29.682  1.00  0.00     0.031 A 
ATOM     96  C   UNL A   1      44.533  35.238  31.872  1.00  0.00     0.131 A 
ATOM     97  C   UNL A   1      43.779  37.294  30.181  1.00  0.00     0.055 A 
ATOM     98  C   UNL A   1      44.399  36.532  32.377  1.00  0.00     0.041 A 
ATOM     99  F   UNL A   1      44.930  34.276  32.721  1.00  0.00    -0.206 F 
ATOM    100  C   UNL A   1      44.031  37.571  31.527  1.00  0.00     0.022 A 
BRANCH  97 101
ATOM    101  S   UNL A   1      43.426  38.648  29.027  1.00  0.00     0.124 S 
ATOM    102  O   UNL A   1      42.277  38.127  28.292  1.00  0.00    -0.237 OA
ATOM    103  O   UNL A   1      43.154  39.764  29.928  1.00  0.00    -0.237 OA
ATOM    104  O   UNL A   1      44.657  38.766  28.249  1.00  0.00    -0.744 OA
ENDBRANCH  97 101
ENDBRANCH  71  94
ENDBRANCH  45  46
ENDBRANCH  37  40
ENDBRANCH  35  36
ENDBRANCH  34  35
ENDBRANCH  33  34
ENDBRANCH  32  33
ENDBRANCH   1  32
TORSDOF 22
ENDMDL
MODEL 3
REMARK VINA RESULT:      -9.5      5.748      8.607
REMARK SMILES C[C@H](NC(=O)CCN1C(=O)/C(=C/c2ccc([N+](=O)[O-])cc2)SC1=S)C(=O)NCCCCCCNC(=O)c1ccc(-c2c3nc(c(-c4cc(S(=O)(=O)[O-])ccc4F)c4ccc([nH]4)c(-c4cc(S(=O)(=O)[O-])ccc4F)c4nc(c(-c5cc(S(=O)(=O)[O-])ccc5F)c5ccc2[nH]5)C=C4)C=C3)cc1
REMARK SMILES IDX 29 1 28 2 27 3 25 4 26 5 2 7 1 8 3 9 4 10 5 12 6 13 7 14
REMARK SMILES IDX 8 15 9 16 23 17 10 18 11 19 22 20 24 21 12 22 13 23 14 24
REMARK SMILES IDX 21 25 15 26 20 27 16 28 17 29 18 30 19 31 30 32 31 33 32 34
REMARK SMILES IDX 33 35 34 36 35 37 36 39 37 40 38 41 99 42 39 43 98 44 40 45
REMARK SMILES IDX 41 46 42 47 92 48 43 49 97 50 91 51 93 52 44 53 96 54 90 55
REMARK SMILES IDX 89 56 45 58 77 59 57 60 76 61 58 62 61 63 75 64 94 65 59 66
REMARK SMILES IDX 60 67 74 69 95 70 62 71 46 72 47 73 55 74 48 75 54 76 56 77
REMARK SMILES IDX 53 78 49 79 50 80 51 81 52 82 78 83 79 84 87 85 80 86 86 87
REMARK SMILES IDX 88 88 85 89 81 90 82 91 83 92 84 93 63 94 64 95 72 96 65 97
REMARK SMILES IDX 71 98 73 99 70 100 66 101 67 102 68 103 69 104
REMARK H PARENT 27 6 3 11 34 38 93 57 61 68
REMARK Flexibility Score: inf
ROOT
ATOM      1  C   UNL A   1      39.788  23.716  27.338  1.00  0.00     0.021 C 
ENDROOT
BRANCH   1   2
ATOM      2  C   UNL A   1      39.336  22.601  26.403  1.00  0.00     0.116 C 
BRANCH   2   3
ATOM      3  N   UNL A   1      38.227  23.057  25.605  1.00  0.00    -0.354 N 
ATOM      4  C   UNL A   1      37.413  22.290  24.845  1.00  0.00     0.242 C 
ATOM      5  O   UNL A   1      37.008  22.778  23.787  1.00  0.00    -0.273 OA
ATOM      6  H   UNL A   1      38.044  24.024  25.612  1.00  0.00     0.163 HD
BRANCH   4   7
ATOM      7  C   UNL A   1      36.942  20.901  25.316  1.00  0.00     0.168 C 
ATOM      8  C   UNL A   1      37.763  19.667  24.968  1.00  0.00     0.041 C 
BRANCH   7   9
ATOM      9  N   UNL A   1      35.515  20.668  25.207  1.00  0.00    -0.345 N 
ATOM     10  C   UNL A   1      34.493  21.355  25.791  1.00  0.00     0.222 C 
ATOM     11  H   UNL A   1      35.249  19.913  24.635  1.00  0.00     0.164 HD
ATOM     12  O   UNL A   1      33.353  20.902  25.666  1.00  0.00    -0.275 OA
BRANCH  10  13
ATOM     13  C   UNL A   1      34.728  22.663  26.533  1.00  0.00     0.122 C 
BRANCH  13  14
ATOM     14  C   UNL A   1      33.481  23.379  27.081  1.00  0.00     0.137 C 
BRANCH  14  15
ATOM     15  N   UNL A   1      32.627  24.048  26.077  1.00  0.00    -0.292 N 
ATOM     16  C   UNL A   1      33.173  24.985  25.211  1.00  0.00     0.266 C 
ATOM     17  C   UNL A   1      31.285  23.785  25.880  1.00  0.00     0.148 C 
ATOM     18  O   UNL A   1      34.357  25.124  24.938  1.00  0.00    -0.268 OA
ATOM     19  C   UNL A   1      32.080  25.836  24.660  1.00  0.00     0.081 C 
ATOM     20  S   UNL A   1      30.594  24.990  24.789  1.00  0.00    -0.054 SA
ATOM     21  S   UNL A   1      30.356  22.576  26.553  1.00  0.00    -0.052 S 
ATOM     22  C   UNL A   1      32.300  27.113  24.308  1.00  0.00     0.029 C 
BRANCH  22  23
ATOM     23  C   UNL A   1      31.322  28.157  23.953  1.00  0.00    -0.024 A 
ATOM     24  C   UNL A   1      30.580  28.009  22.772  1.00  0.00     0.015 A 
ATOM     25  C   UNL A   1      31.185  29.346  24.687  1.00  0.00     0.015 A 
ATOM     26  C   UNL A   1      29.685  29.002  22.355  1.00  0.00     0.086 A 
ATOM     27  C   UNL A   1      30.294  30.348  24.281  1.00  0.00     0.086 A 
ATOM     28  C   UNL A   1      29.539  30.167  23.116  1.00  0.00     0.269 A 
BRANCH  28  29
ATOM     29  N   UNL A   1      28.592  31.206  22.688  1.00  0.00     0.062 N 
ATOM     30  O   UNL A   1      28.808  31.768  21.606  1.00  0.00    -0.258 OA
ATOM     31  O   UNL A   1      27.635  31.454  23.433  1.00  0.00    -0.258 OA
ENDBRANCH  28  29
ENDBRANCH  22  23
ENDBRANCH  14  15
ENDBRANCH  13  14
ENDBRANCH  10  13
ENDBRANCH   7   9
ENDBRANCH   4   7
ENDBRANCH   2   3
ENDBRANCH   1   2
BRANCH   1  32
ATOM     32  C   UNL A   1      39.702  25.126  26.742  1.00  0.00     0.002 C 
BRANCH  32  33
ATOM     33  C   UNL A   1      41.044  25.827  26.507  1.00  0.00     0.002 C 
BRANCH  33  34
ATOM     34  C   UNL A   1      42.045  25.054  25.649  1.00  0.00     0.021 C 
BRANCH  34  35
ATOM     35  C   UNL A   1      43.331  25.804  25.330  1.00  0.00     0.116 C 
BRANCH  35  36
ATOM     36  N   UNL A   1      44.516  25.001  25.555  1.00  0.00    -0.352 N 
ATOM     37  C   UNL A   1      45.294  24.947  26.686  1.00  0.00     0.251 C 
ATOM     38  H   UNL A   1      44.797  24.424  24.809  1.00  0.00     0.163 HD
ATOM     39  O   UNL A   1      46.348  24.324  26.685  1.00  0.00    -0.269 OA
BRANCH  37  40
ATOM     40  C   UNL A   1      44.852  25.693  27.882  1.00  0.00     0.039 A 
ATOM     41  C   UNL A   1      45.151  27.053  27.975  1.00  0.00     0.014 A 
ATOM     42  C   UNL A   1      44.083  25.062  28.866  1.00  0.00     0.014 A 
ATOM     43  C   UNL A   1      44.628  27.798  29.032  1.00  0.00     0.010 A 
ATOM     44  C   UNL A   1      43.506  25.822  29.878  1.00  0.00     0.010 A 
ATOM     45  C   UNL A   1      43.772  27.197  29.970  1.00  0.00    -0.014 A 
BRANCH  45  46
ATOM     46  C   UNL A   1      43.144  27.996  31.052  1.00  0.00     0.031 A 
ATOM     47  C   UNL A   1      41.796  28.623  30.838  1.00  0.00     0.074 A 
ATOM     48  C   UNL A   1      43.818  28.208  32.199  1.00  0.00     0.049 A 
ATOM     49  N   UNL A   1      41.111  29.407  31.629  1.00  0.00    -0.248 NA
ATOM     50  C   UNL A   1      41.150  28.358  29.544  1.00  0.00     0.031 C 
ATOM     51  C   UNL A   1      45.156  27.693  32.499  1.00  0.00     0.029 A 
ATOM     52  N   UNL A   1      43.478  28.923  33.320  1.00  0.00    -0.354 N 
ATOM     53  C   UNL A   1      39.952  29.730  30.931  1.00  0.00     0.074 A 
ATOM     54  C   UNL A   1      40.070  29.119  29.624  1.00  0.00     0.031 C 
ATOM     55  C   UNL A   1      45.518  28.099  33.726  1.00  0.00     0.029 A 
ATOM     56  C   UNL A   1      44.459  28.935  34.284  1.00  0.00     0.049 A 
ATOM     57  H   UNL A   1      42.615  29.383  33.425  1.00  0.00     0.167 HD
ATOM     58  C   UNL A   1      38.878  30.443  31.353  1.00  0.00     0.034 A 
ATOM     59  C   UNL A   1      44.509  29.564  35.475  1.00  0.00     0.034 A 
ATOM     60  C   UNL A   1      38.785  31.048  32.660  1.00  0.00     0.049 A 
ATOM     61  C   UNL A   1      43.324  30.382  35.913  1.00  0.00     0.074 A 
ATOM     62  C   UNL A   1      37.728  31.747  33.216  1.00  0.00     0.029 A 
ATOM     63  N   UNL A   1      39.800  31.044  33.612  1.00  0.00    -0.354 N 
ATOM     64  N   UNL A   1      42.205  30.626  35.269  1.00  0.00    -0.248 NA
ATOM     65  C   UNL A   1      43.402  31.000  37.242  1.00  0.00     0.031 C 
ATOM     66  C   UNL A   1      38.127  32.222  34.471  1.00  0.00     0.029 A 
ATOM     67  C   UNL A   1      39.407  31.758  34.734  1.00  0.00     0.049 A 
ATOM     68  H   UNL A   1      40.670  30.596  33.505  1.00  0.00     0.167 HD
ATOM     69  C   UNL A   1      41.441  31.416  36.122  1.00  0.00     0.074 A 
ATOM     70  C   UNL A   1      42.217  31.588  37.334  1.00  0.00     0.031 C 
ATOM     71  C   UNL A   1      40.207  31.948  35.923  1.00  0.00     0.034 A 
BRANCH  58  72
ATOM     72  C   UNL A   1      37.742  30.619  30.372  1.00  0.00     0.023 A 
ATOM     73  C   UNL A   1      37.413  31.883  29.846  1.00  0.00     0.031 A 
ATOM     74  C   UNL A   1      36.939  29.527  30.000  1.00  0.00     0.131 A 
ATOM     75  C   UNL A   1      36.258  32.040  29.066  1.00  0.00     0.055 A 
ATOM     76  C   UNL A   1      35.842  29.675  29.146  1.00  0.00     0.041 A 
ATOM     77  F   UNL A   1      37.187  28.299  30.482  1.00  0.00    -0.206 F 
ATOM     78  C   UNL A   1      35.484  30.941  28.691  1.00  0.00     0.022 A 
BRANCH  75  79
ATOM     79  S   UNL A   1      35.684  33.724  28.707  1.00  0.00     0.124 S 
ATOM     80  O   UNL A   1      34.471  33.801  29.517  1.00  0.00    -0.237 OA
ATOM     81  O   UNL A   1      36.806  34.541  29.154  1.00  0.00    -0.237 OA
ATOM     82  O   UNL A   1      35.459  33.707  27.263  1.00  0.00    -0.744 OA
ENDBRANCH  75  79
ENDBRANCH  58  72
BRANCH  59  83
ATOM     83  C   UNL A   1      45.733  29.464  36.318  1.00  0.00     0.023 A 
ATOM     84  C   UNL A   1      45.795  28.587  37.413  1.00  0.00     0.031 A 
ATOM     85  C   UNL A   1      46.863  30.254  36.038  1.00  0.00     0.131 A 
ATOM     86  C   UNL A   1      46.953  28.544  38.207  1.00  0.00     0.055 A 
ATOM     87  C   UNL A   1      48.028  30.172  36.803  1.00  0.00     0.041 A 
ATOM     88  F   UNL A   1      46.858  31.099  34.996  1.00  0.00    -0.206 F 
ATOM     89  C   UNL A   1      48.074  29.320  37.901  1.00  0.00     0.022 A 
BRANCH  86  90
ATOM     90  S   UNL A   1      46.956  27.492  39.684  1.00  0.00     0.124 S 
ATOM     91  O   UNL A   1      45.620  27.728  40.220  1.00  0.00    -0.237 OA
ATOM     92  O   UNL A   1      47.194  26.169  39.114  1.00  0.00    -0.237 OA
ATOM     93  O   UNL A   1      48.055  28.029  40.483  1.00  0.00    -0.744 OA
ENDBRANCH  86  90
ENDBRANCH  59  83
BRANCH  71  94
ATOM     94  C   UNL A   1      39.623  32.756  37.055  1.00  0.00     0.023 A 
ATOM     95  C   UNL A   1      38.696  32.200  37.955  1.00  0.00     0.031 A 
ATOM     96  C   UNL A   1      39.992  34.101  37.233  1.00  0.00     0.131 A 
ATOM     97  C   UNL A   1      38.131  33.001  38.959  1.00  0.00     0.055 A 
ATOM     98  C   UNL A   1      39.472  34.876  38.270  1.00  0.00     0.041 A 
ATOM     99  F   UNL A   1      40.872  34.683  36.401  1.00  0.00    -0.206 F 
ATOM    100  C   UNL A   1      38.526  34.329  39.133  1.00  0.00     0.022 A 
BRANCH  97 101
ATOM    101  S   UNL A   1      36.807  32.305  39.986  1.00  0.00     0.124 S 
ATOM    102  O   UNL A   1      37.156  30.888  40.010  1.00  0.00    -0.237 OA
ATOM    103  O   UNL A   1      36.978  33.026  41.244  1.00  0.00    -0.237 OA
ATOM    104  O   UNL A   1      35.591  32.632  39.246  1.00  0.00    -0.744 OA
ENDBRANCH  97 101
ENDBRANCH  71  94
ENDBRANCH  45  46
ENDBRANCH  37  40
ENDBRANCH  35  36
ENDBRANCH  34  35
ENDBRANCH  33  34
ENDBRANCH  32  33
ENDBRANCH   1  32
TORSDOF 22
ENDMDL
