MODEL 1
REMARK VINA RESULT:     -13.1      0.000      0.000
REMARK SMILES COc1ccc(C2=NN(C(=O)CCC(=O)NCCCCCCNC(=O)c3ccc(-c4c5nc(c(-c6cc(S(=O)(=O)[O-])ccc6F)c6ccc([nH]6)c(-c6cc(S(=O)(=O)[O-])ccc6F)c6nc(c(-c7cc(S(=O)(=O)[O-])ccc7F)c7ccc4[nH]7)C=C6)C=C5)cc3)[C@H](c3ccc(Cl)cc3Cl)C2)cc1
REMARK SMILES IDX 18 1 17 2 16 3 14 4 15 5 13 7 12 8 10 9 11 10 9 11 7 12 8 13
REMARK SMILES IDX 98 14 89 15 6 16 3 17 4 18 100 19 5 20 99 21 2 22 1 23 90 24
REMARK SMILES IDX 91 25 96 26 92 27 95 28 97 29 93 30 94 31 19 32 20 33 21 34
REMARK SMILES IDX 22 35 23 36 24 37 25 39 26 40 27 41 88 42 28 43 87 44 29 45
REMARK SMILES IDX 30 46 31 47 81 48 32 49 86 50 80 51 82 52 33 53 85 54 79 55
REMARK SMILES IDX 78 56 34 58 66 59 46 60 65 61 47 62 50 63 64 64 83 65 48 66
REMARK SMILES IDX 49 67 63 69 84 70 51 71 35 72 36 73 44 74 37 75 43 76 45 77
REMARK SMILES IDX 42 78 38 79 39 80 40 81 41 82 67 83 68 84 76 85 69 86 75 87
REMARK SMILES IDX 77 88 74 89 70 90 71 91 72 92 73 93 52 94 53 95 61 96 54 97
REMARK SMILES IDX 60 98 62 99 59 100 55 101 56 102 57 103 58 104
REMARK H PARENT 16 6 23 38 82 57 50 68
REMARK Flexibility Score: inf
ROOT
ATOM      1  C   UNL A   1      32.149  27.350  26.858  1.00  0.00     0.021 C 
ENDROOT
BRANCH   1   2
ATOM      2  C   UNL A   1      33.450  25.768  25.960  1.00  0.00     0.116 C 
BRANCH   2   3
ATOM      3  N   UNL A   1      34.218  24.533  26.449  1.00  0.00    -0.356 N 
ATOM      4  C   UNL A   1      33.870  23.363  27.060  1.00  0.00     0.220 C 
ATOM      5  O   UNL A   1      34.777  22.522  27.111  1.00  0.00    -0.275 OA
ATOM      6  H   UNL A   1      35.186  24.600  26.283  1.00  0.00     0.163 HD
BRANCH   4   7
ATOM      7  C   UNL A   1      32.487  22.997  27.608  1.00  0.00     0.110 C 
BRANCH   7   8
ATOM      8  C   UNL A   1      31.369  22.431  26.740  1.00  0.00     0.112 C 
BRANCH   8   9
ATOM      9  C   UNL A   1      30.321  23.472  26.599  1.00  0.00     0.243 C 
ATOM     10  O   UNL A   1      29.413  23.609  27.409  1.00  0.00    -0.273 OA
BRANCH   9  11
ATOM     11  N   UNL A   1      30.460  24.146  25.411  1.00  0.00    -0.225 N 
ATOM     12  C   UNL A   1      29.608  26.421  23.736  1.00  0.00     0.071 C 
ATOM     13  N   UNL A   1      29.458  25.780  25.214  1.00  0.00    -0.174 NA
ATOM     14  C   UNL A   1      30.560  25.198  22.516  1.00  0.00     0.091 C 
ATOM     15  C   UNL A   1      31.225  23.726  23.654  1.00  0.00     0.149 C 
BRANCH  12  16
ATOM     16  C   UNL A   1      29.462  27.852  23.284  1.00  0.00    -0.002 A 
ATOM     17  C   UNL A   1      29.005  30.209  21.804  1.00  0.00     0.118 A 
ATOM     18  C   UNL A   1      27.936  29.580  22.436  1.00  0.00     0.047 A 
ATOM     19  C   UNL A   1      30.301  29.733  22.012  1.00  0.00     0.047 A 
ATOM     20  C   UNL A   1      28.160  28.406  23.175  1.00  0.00     0.014 A 
ATOM     21  C   UNL A   1      30.533  28.548  22.736  1.00  0.00     0.014 A 
BRANCH  17  22
ATOM     22  O   UNL A   1      28.722  31.276  20.995  1.00  0.00    -0.497 OA
ATOM     23  C   UNL A   1      28.214  32.415  21.702  1.00  0.00     0.278 C 
ENDBRANCH  17  22
ENDBRANCH  12  16
BRANCH  15  24
ATOM     24  C   UNL A   1      32.661  23.205  23.336  1.00  0.00    -0.004 A 
ATOM     25  C   UNL A   1      33.055  21.958  23.866  1.00  0.00     0.009 A 
ATOM     26  C   UNL A   1      33.737  24.073  22.972  1.00  0.00     0.047 A 
ATOM     27  C   UNL A   1      34.409  21.611  24.035  1.00  0.00     0.021 A 
ATOM     28  C   UNL A   1      35.081  23.669  23.019  1.00  0.00     0.041 A 
ATOM     29  Cl  UNL A   1      33.603  25.792  22.779  1.00  0.00    -0.084 Cl
ATOM     30  C   UNL A   1      35.413  22.456  23.589  1.00  0.00     0.042 A 
ATOM     31  Cl  UNL A   1      37.067  22.061  23.847  1.00  0.00    -0.084 Cl
ENDBRANCH  15  24
ENDBRANCH   9  11
ENDBRANCH   8   9
ENDBRANCH   7   8
ENDBRANCH   4   7
ENDBRANCH   2   3
ENDBRANCH   1   2
BRANCH   1  32
ATOM     32  C   UNL A   1      32.129  29.146  26.242  1.00  0.00     0.002 C 
BRANCH  32  33
ATOM     33  C   UNL A   1      33.008  30.345  26.927  1.00  0.00     0.002 C 
BRANCH  33  34
ATOM     34  C   UNL A   1      32.419  31.694  27.196  1.00  0.00     0.021 C 
BRANCH  34  35
ATOM     35  C   UNL A   1      33.468  32.690  27.550  1.00  0.00     0.116 C 
BRANCH  35  36
ATOM     36  N   UNL A   1      32.976  34.041  27.864  1.00  0.00    -0.352 N 
ATOM     37  C   UNL A   1      33.539  34.955  28.718  1.00  0.00     0.251 C 
ATOM     38  H   UNL A   1      32.149  34.321  27.409  1.00  0.00     0.163 HD
ATOM     39  O   UNL A   1      33.177  36.115  28.824  1.00  0.00    -0.269 OA
BRANCH  37  40
ATOM     40  C   UNL A   1      34.591  34.414  29.553  1.00  0.00     0.039 A 
ATOM     41  C   UNL A   1      34.233  33.416  30.461  1.00  0.00     0.014 A 
ATOM     42  C   UNL A   1      35.886  34.608  29.074  1.00  0.00     0.014 A 
ATOM     43  C   UNL A   1      35.224  32.567  30.895  1.00  0.00     0.010 A 
ATOM     44  C   UNL A   1      36.800  33.621  29.324  1.00  0.00     0.010 A 
ATOM     45  C   UNL A   1      36.489  32.662  30.298  1.00  0.00    -0.014 A 
BRANCH  45  46
ATOM     46  C   UNL A   1      37.612  31.905  30.829  1.00  0.00     0.031 A 
ATOM     47  C   UNL A   1      37.999  32.221  32.238  1.00  0.00     0.074 A 
ATOM     48  C   UNL A   1      38.230  31.020  30.037  1.00  0.00     0.049 A 
ATOM     49  N   UNL A   1      39.032  31.818  32.913  1.00  0.00    -0.248 NA
ATOM     50  C   UNL A   1      37.142  33.182  32.969  1.00  0.00     0.031 C 
ATOM     51  C   UNL A   1      37.862  30.712  28.649  1.00  0.00     0.029 A 
ATOM     52  N   UNL A   1      39.287  30.205  30.293  1.00  0.00    -0.354 N 
ATOM     53  C   UNL A   1      38.953  32.490  34.123  1.00  0.00     0.074 A 
ATOM     54  C   UNL A   1      37.860  33.422  34.049  1.00  0.00     0.031 C 
ATOM     55  C   UNL A   1      38.652  29.725  28.199  1.00  0.00     0.029 A 
ATOM     56  C   UNL A   1      39.618  29.396  29.237  1.00  0.00     0.049 A 
ATOM     57  H   UNL A   1      39.768  30.196  31.152  1.00  0.00     0.167 HD
ATOM     58  C   UNL A   1      39.707  32.288  35.222  1.00  0.00     0.034 A 
ATOM     59  C   UNL A   1      40.616  28.502  29.149  1.00  0.00     0.034 A 
ATOM     60  C   UNL A   1      40.764  31.321  35.231  1.00  0.00     0.049 A 
ATOM     61  C   UNL A   1      41.489  28.344  30.369  1.00  0.00     0.074 A 
ATOM     62  C   UNL A   1      41.624  30.991  36.256  1.00  0.00     0.029 A 
ATOM     63  N   UNL A   1      41.100  30.523  34.139  1.00  0.00    -0.354 N 
ATOM     64  N   UNL A   1      41.415  28.973  31.523  1.00  0.00    -0.248 NA
ATOM     65  C   UNL A   1      42.563  27.355  30.284  1.00  0.00     0.031 C 
ATOM     66  C   UNL A   1      42.534  30.057  35.756  1.00  0.00     0.029 A 
ATOM     67  C   UNL A   1      42.174  29.719  34.458  1.00  0.00     0.049 A 
ATOM     68  H   UNL A   1      40.637  30.530  33.271  1.00  0.00     0.167 HD
ATOM     69  C   UNL A   1      42.410  28.423  32.321  1.00  0.00     0.074 A 
ATOM     70  C   UNL A   1      43.054  27.402  31.513  1.00  0.00     0.031 C 
ATOM     71  C   UNL A   1      42.766  28.718  33.600  1.00  0.00     0.034 A 
BRANCH  58  72
ATOM     72  C   UNL A   1      39.414  33.138  36.428  1.00  0.00     0.023 A 
ATOM     73  C   UNL A   1      40.066  34.368  36.647  1.00  0.00     0.031 A 
ATOM     74  C   UNL A   1      38.526  32.679  37.413  1.00  0.00     0.131 A 
ATOM     75  C   UNL A   1      39.876  35.055  37.854  1.00  0.00     0.055 A 
ATOM     76  C   UNL A   1      38.268  33.417  38.568  1.00  0.00     0.041 A 
ATOM     77  F   UNL A   1      37.919  31.490  37.285  1.00  0.00    -0.206 F 
ATOM     78  C   UNL A   1      38.954  34.606  38.801  1.00  0.00     0.022 A 
BRANCH  75  79
ATOM     79  S   UNL A   1      40.970  36.450  38.239  1.00  0.00     0.124 S 
ATOM     80  O   UNL A   1      40.009  37.476  38.641  1.00  0.00    -0.237 OA
ATOM     81  O   UNL A   1      41.811  35.912  39.301  1.00  0.00    -0.237 OA
ATOM     82  O   UNL A   1      41.651  36.709  36.972  1.00  0.00    -0.744 OA
ENDBRANCH  75  79
ENDBRANCH  58  72
BRANCH  59  83
ATOM     83  C   UNL A   1      40.829  27.715  27.907  1.00  0.00     0.023 A 
ATOM     84  C   UNL A   1      40.391  26.386  27.824  1.00  0.00     0.031 A 
ATOM     85  C   UNL A   1      41.508  28.255  26.800  1.00  0.00     0.131 A 
ATOM     86  C   UNL A   1      40.709  25.616  26.697  1.00  0.00     0.055 A 
ATOM     87  C   UNL A   1      41.752  27.509  25.647  1.00  0.00     0.041 A 
ATOM     88  F   UNL A   1      41.941  29.526  26.820  1.00  0.00    -0.206 F 
ATOM     89  C   UNL A   1      41.370  26.171  25.600  1.00  0.00     0.022 A 
BRANCH  86  90
ATOM     90  S   UNL A   1      40.374  23.837  26.757  1.00  0.00     0.124 S 
ATOM     91  O   UNL A   1      40.608  23.543  28.167  1.00  0.00    -0.237 OA
ATOM     92  O   UNL A   1      38.987  23.774  26.311  1.00  0.00    -0.237 OA
ATOM     93  O   UNL A   1      41.354  23.276  25.830  1.00  0.00    -0.744 OA
ENDBRANCH  86  90
ENDBRANCH  59  83
BRANCH  71  94
ATOM     94  C   UNL A   1      43.851  27.870  34.203  1.00  0.00     0.023 A 
ATOM     95  C   UNL A   1      43.568  26.647  34.828  1.00  0.00     0.031 A 
ATOM     96  C   UNL A   1      45.187  28.303  34.146  1.00  0.00     0.131 A 
ATOM     97  C   UNL A   1      44.601  25.938  35.449  1.00  0.00     0.055 A 
ATOM     98  C   UNL A   1      46.223  27.542  34.676  1.00  0.00     0.041 A 
ATOM     99  F   UNL A   1      45.505  29.469  33.559  1.00  0.00    -0.206 F 
ATOM    100  C   UNL A   1      45.930  26.361  35.351  1.00  0.00     0.022 A 
BRANCH  97 101
ATOM    101  S   UNL A   1      44.162  24.539  36.509  1.00  0.00     0.124 S 
ATOM    102  O   UNL A   1      42.813  24.225  36.048  1.00  0.00    -0.237 OA
ATOM    103  O   UNL A   1      45.192  23.560  36.179  1.00  0.00    -0.237 OA
ATOM    104  O   UNL A   1      44.243  25.095  37.858  1.00  0.00    -0.744 OA
ENDBRANCH  97 101
ENDBRANCH  71  94
ENDBRANCH  45  46
ENDBRANCH  37  40
ENDBRANCH  35  36
ENDBRANCH  34  35
ENDBRANCH  33  34
ENDBRANCH  32  33
ENDBRANCH   1  32
TORSDOF 22
ENDMDL
MODEL 2
REMARK VINA RESULT:     -12.4      1.946      7.330
REMARK SMILES COc1ccc(C2=NN(C(=O)CCC(=O)NCCCCCCNC(=O)c3ccc(-c4c5nc(c(-c6cc(S(=O)(=O)[O-])ccc6F)c6ccc([nH]6)c(-c6cc(S(=O)(=O)[O-])ccc6F)c6nc(c(-c7cc(S(=O)(=O)[O-])ccc7F)c7ccc4[nH]7)C=C6)C=C5)cc3)[C@H](c3ccc(Cl)cc3Cl)C2)cc1
REMARK SMILES IDX 18 1 17 2 16 3 14 4 15 5 13 7 12 8 10 9 11 10 9 11 7 12 8 13
REMARK SMILES IDX 98 14 89 15 6 16 3 17 4 18 100 19 5 20 99 21 2 22 1 23 90 24
REMARK SMILES IDX 91 25 96 26 92 27 95 28 97 29 93 30 94 31 19 32 20 33 21 34
REMARK SMILES IDX 22 35 23 36 24 37 25 39 26 40 27 41 88 42 28 43 87 44 29 45
REMARK SMILES IDX 30 46 31 47 81 48 32 49 86 50 80 51 82 52 33 53 85 54 79 55
REMARK SMILES IDX 78 56 34 58 66 59 46 60 65 61 47 62 50 63 64 64 83 65 48 66
REMARK SMILES IDX 49 67 63 69 84 70 51 71 35 72 36 73 44 74 37 75 43 76 45 77
REMARK SMILES IDX 42 78 38 79 39 80 40 81 41 82 67 83 68 84 76 85 69 86 75 87
REMARK SMILES IDX 77 88 74 89 70 90 71 91 72 92 73 93 52 94 53 95 61 96 54 97
REMARK SMILES IDX 60 98 62 99 59 100 55 101 56 102 57 103 58 104
REMARK H PARENT 16 6 23 38 82 57 50 68
REMARK Flexibility Score: inf
ROOT
ATOM      1  C   UNL A   1      31.863  27.791  26.975  1.00  0.00     0.021 C 
ENDROOT
BRANCH   1   2
ATOM      2  C   UNL A   1      32.823  26.055  25.942  1.00  0.00     0.116 C 
BRANCH   2   3
ATOM      3  N   UNL A   1      33.869  24.985  26.278  1.00  0.00    -0.356 N 
ATOM      4  C   UNL A   1      33.836  23.766  26.891  1.00  0.00     0.220 C 
ATOM      5  O   UNL A   1      34.882  23.112  26.788  1.00  0.00    -0.275 OA
ATOM      6  H   UNL A   1      34.774  25.236  25.984  1.00  0.00     0.163 HD
BRANCH   4   7
ATOM      7  C   UNL A   1      32.637  23.139  27.610  1.00  0.00     0.110 C 
BRANCH   7   8
ATOM      8  C   UNL A   1      31.542  22.365  26.885  1.00  0.00     0.112 C 
BRANCH   8   9
ATOM      9  C   UNL A   1      30.377  23.267  26.707  1.00  0.00     0.243 C 
ATOM     10  O   UNL A   1      29.440  23.298  27.493  1.00  0.00    -0.273 OA
BRANCH   9  11
ATOM     11  N   UNL A   1      30.463  23.944  25.515  1.00  0.00    -0.225 N 
ATOM     12  C   UNL A   1      29.491  26.187  23.862  1.00  0.00     0.071 C 
ATOM     13  N   UNL A   1      29.402  25.543  25.344  1.00  0.00    -0.174 NA
ATOM     14  C   UNL A   1      30.450  24.994  22.618  1.00  0.00     0.091 C 
ATOM     15  C   UNL A   1      31.194  23.546  23.739  1.00  0.00     0.149 C 
BRANCH  12  16
ATOM     16  C   UNL A   1      29.285  27.611  23.413  1.00  0.00    -0.002 A 
ATOM     17  C   UNL A   1      28.815  30.390  23.290  1.00  0.00     0.118 A 
ATOM     18  C   UNL A   1      30.108  29.923  23.510  1.00  0.00     0.047 A 
ATOM     19  C   UNL A   1      27.795  29.477  23.014  1.00  0.00     0.047 A 
ATOM     20  C   UNL A   1      30.346  28.539  23.570  1.00  0.00     0.014 A 
ATOM     21  C   UNL A   1      28.021  28.089  23.089  1.00  0.00     0.014 A 
BRANCH  17  22
ATOM     22  O   UNL A   1      28.610  31.741  23.363  1.00  0.00    -0.497 OA
ATOM     23  C   UNL A   1      28.372  32.356  22.090  1.00  0.00     0.278 C 
ENDBRANCH  17  22
ENDBRANCH  12  16
BRANCH  15  24
ATOM     24  C   UNL A   1      32.638  23.073  23.383  1.00  0.00    -0.004 A 
ATOM     25  C   UNL A   1      33.085  21.838  23.899  1.00  0.00     0.009 A 
ATOM     26  C   UNL A   1      33.675  23.976  22.995  1.00  0.00     0.047 A 
ATOM     27  C   UNL A   1      34.452  21.535  24.033  1.00  0.00     0.021 A 
ATOM     28  C   UNL A   1      35.032  23.615  23.006  1.00  0.00     0.041 A 
ATOM     29  Cl  UNL A   1      33.481  25.690  22.811  1.00  0.00    -0.084 Cl
ATOM     30  C   UNL A   1      35.417  22.412  23.564  1.00  0.00     0.042 A 
ATOM     31  Cl  UNL A   1      37.089  22.070  23.779  1.00  0.00    -0.084 Cl
ENDBRANCH  15  24
ENDBRANCH   9  11
ENDBRANCH   8   9
ENDBRANCH   7   8
ENDBRANCH   4   7
ENDBRANCH   2   3
ENDBRANCH   1   2
BRANCH   1  32
ATOM     32  C   UNL A   1      32.077  29.588  26.397  1.00  0.00     0.002 C 
BRANCH  32  33
ATOM     33  C   UNL A   1      33.336  30.534  26.843  1.00  0.00     0.002 C 
BRANCH  33  34
ATOM     34  C   UNL A   1      33.201  31.560  27.924  1.00  0.00     0.021 C 
BRANCH  34  35
ATOM     35  C   UNL A   1      33.379  32.940  27.395  1.00  0.00     0.116 C 
BRANCH  35  36
ATOM     36  N   UNL A   1      32.945  34.023  28.294  1.00  0.00    -0.352 N 
ATOM     37  C   UNL A   1      33.636  34.551  29.355  1.00  0.00     0.251 C 
ATOM     38  H   UNL A   1      32.059  34.411  28.112  1.00  0.00     0.163 HD
ATOM     39  O   UNL A   1      33.298  35.548  29.970  1.00  0.00    -0.269 OA
BRANCH  37  40
ATOM     40  C   UNL A   1      34.802  33.785  29.743  1.00  0.00     0.039 A 
ATOM     41  C   UNL A   1      36.048  34.285  29.362  1.00  0.00     0.014 A 
ATOM     42  C   UNL A   1      34.604  32.903  30.805  1.00  0.00     0.014 A 
ATOM     43  C   UNL A   1      37.142  33.887  30.094  1.00  0.00     0.010 A 
ATOM     44  C   UNL A   1      35.653  32.709  31.661  1.00  0.00     0.010 A 
ATOM     45  C   UNL A   1      36.926  33.128  31.253  1.00  0.00    -0.014 A 
BRANCH  45  46
ATOM     46  C   UNL A   1      38.050  32.545  31.970  1.00  0.00     0.031 A 
ATOM     47  C   UNL A   1      38.756  31.428  31.272  1.00  0.00     0.074 A 
ATOM     48  C   UNL A   1      38.355  33.013  33.187  1.00  0.00     0.049 A 
ATOM     49  N   UNL A   1      39.681  30.637  31.723  1.00  0.00    -0.248 NA
ATOM     50  C   UNL A   1      38.308  31.107  29.898  1.00  0.00     0.031 C 
ATOM     51  C   UNL A   1      37.660  34.104  33.882  1.00  0.00     0.029 A 
ATOM     52  N   UNL A   1      39.340  32.641  34.046  1.00  0.00    -0.354 N 
ATOM     53  C   UNL A   1      39.902  29.726  30.701  1.00  0.00     0.074 A 
ATOM     54  C   UNL A   1      38.933  29.968  29.666  1.00  0.00     0.031 C 
ATOM     55  C   UNL A   1      38.288  34.349  35.043  1.00  0.00     0.029 A 
ATOM     56  C   UNL A   1      39.368  33.385  35.197  1.00  0.00     0.049 A 
ATOM     57  H   UNL A   1      39.971  31.908  33.861  1.00  0.00     0.167 HD
ATOM     58  C   UNL A   1      40.882  28.803  30.625  1.00  0.00     0.034 A 
ATOM     59  C   UNL A   1      40.189  33.263  36.253  1.00  0.00     0.034 A 
ATOM     60  C   UNL A   1      41.830  28.636  31.686  1.00  0.00     0.049 A 
ATOM     61  C   UNL A   1      41.233  32.178  36.172  1.00  0.00     0.074 A 
ATOM     62  C   UNL A   1      42.882  27.751  31.772  1.00  0.00     0.029 A 
ATOM     63  N   UNL A   1      41.829  29.389  32.859  1.00  0.00    -0.354 N 
ATOM     64  N   UNL A   1      41.453  31.315  35.202  1.00  0.00    -0.248 NA
ATOM     65  C   UNL A   1      42.144  32.057  37.310  1.00  0.00     0.031 C 
ATOM     66  C   UNL A   1      43.462  27.909  33.033  1.00  0.00     0.029 A 
ATOM     67  C   UNL A   1      42.847  28.968  33.688  1.00  0.00     0.049 A 
ATOM     68  H   UNL A   1      41.196  30.115  33.063  1.00  0.00     0.167 HD
ATOM     69  C   UNL A   1      42.559  30.573  35.596  1.00  0.00     0.074 A 
ATOM     70  C   UNL A   1      42.963  31.108  36.885  1.00  0.00     0.031 C 
ATOM     71  C   UNL A   1      43.194  29.551  34.964  1.00  0.00     0.034 A 
BRANCH  58  72
ATOM     72  C   UNL A   1      40.923  27.938  29.396  1.00  0.00     0.023 A 
ATOM     73  C   UNL A   1      41.857  28.155  28.364  1.00  0.00     0.031 A 
ATOM     74  C   UNL A   1      39.967  26.926  29.215  1.00  0.00     0.131 A 
ATOM     75  C   UNL A   1      41.765  27.424  27.171  1.00  0.00     0.055 A 
ATOM     76  C   UNL A   1      39.943  26.137  28.065  1.00  0.00     0.041 A 
ATOM     77  F   UNL A   1      39.018  26.710  30.139  1.00  0.00    -0.206 F 
ATOM     78  C   UNL A   1      40.838  26.391  27.029  1.00  0.00     0.022 A 
BRANCH  75  79
ATOM     79  S   UNL A   1      42.765  27.952  25.752  1.00  0.00     0.124 S 
ATOM     80  O   UNL A   1      43.058  26.673  25.106  1.00  0.00    -0.237 OA
ATOM     81  O   UNL A   1      41.855  28.835  25.033  1.00  0.00    -0.237 OA
ATOM     82  O   UNL A   1      43.915  28.607  26.369  1.00  0.00    -0.744 OA
ENDBRANCH  75  79
ENDBRANCH  58  72
BRANCH  59  83
ATOM     83  C   UNL A   1      40.062  34.164  37.427  1.00  0.00     0.023 A 
ATOM     84  C   UNL A   1      39.397  33.736  38.584  1.00  0.00     0.031 A 
ATOM     85  C   UNL A   1      40.561  35.479  37.403  1.00  0.00     0.131 A 
ATOM     86  C   UNL A   1      39.175  34.635  39.634  1.00  0.00     0.055 A 
ATOM     87  C   UNL A   1      40.408  36.347  38.485  1.00  0.00     0.041 A 
ATOM     88  F   UNL A   1      41.216  35.940  36.325  1.00  0.00    -0.206 F 
ATOM     89  C   UNL A   1      39.690  35.933  39.603  1.00  0.00     0.022 A 
BRANCH  86  90
ATOM     90  S   UNL A   1      38.070  34.124  40.976  1.00  0.00     0.124 S 
ATOM     91  O   UNL A   1      38.992  33.422  41.862  1.00  0.00    -0.237 OA
ATOM     92  O   UNL A   1      37.566  35.405  41.459  1.00  0.00    -0.237 OA
ATOM     93  O   UNL A   1      37.086  33.280  40.303  1.00  0.00    -0.744 OA
ENDBRANCH  86  90
ENDBRANCH  59  83
BRANCH  71  94
ATOM     94  C   UNL A   1      44.424  29.010  35.638  1.00  0.00     0.023 A 
ATOM     95  C   UNL A   1      44.349  28.004  36.611  1.00  0.00     0.031 A 
ATOM     96  C   UNL A   1      45.689  29.519  35.293  1.00  0.00     0.131 A 
ATOM     97  C   UNL A   1      45.514  27.596  37.269  1.00  0.00     0.055 A 
ATOM     98  C   UNL A   1      46.854  29.036  35.879  1.00  0.00     0.041 A 
ATOM     99  F   UNL A   1      45.809  30.485  34.367  1.00  0.00    -0.206 F 
ATOM    100  C   UNL A   1      46.768  28.082  36.889  1.00  0.00     0.022 A 
BRANCH  97 101
ATOM    101  S   UNL A   1      45.347  26.535  38.726  1.00  0.00     0.124 S 
ATOM    102  O   UNL A   1      43.897  26.423  38.850  1.00  0.00    -0.237 OA
ATOM    103  O   UNL A   1      46.047  25.324  38.313  1.00  0.00    -0.237 OA
ATOM    104  O   UNL A   1      46.004  27.302  39.782  1.00  0.00    -0.744 OA
ENDBRANCH  97 101
ENDBRANCH  71  94
ENDBRANCH  45  46
ENDBRANCH  37  40
ENDBRANCH  35  36
ENDBRANCH  34  35
ENDBRANCH  33  34
ENDBRANCH  32  33
ENDBRANCH   1  32
TORSDOF 22
ENDMDL
MODEL 3
REMARK VINA RESULT:     -11.9      5.668      9.156
REMARK SMILES COc1ccc(C2=NN(C(=O)CCC(=O)NCCCCCCNC(=O)c3ccc(-c4c5nc(c(-c6cc(S(=O)(=O)[O-])ccc6F)c6ccc([nH]6)c(-c6cc(S(=O)(=O)[O-])ccc6F)c6nc(c(-c7cc(S(=O)(=O)[O-])ccc7F)c7ccc4[nH]7)C=C6)C=C5)cc3)[C@H](c3ccc(Cl)cc3Cl)C2)cc1
REMARK SMILES IDX 18 1 17 2 16 3 14 4 15 5 13 7 12 8 10 9 11 10 9 11 7 12 8 13
REMARK SMILES IDX 98 14 89 15 6 16 3 17 4 18 100 19 5 20 99 21 2 22 1 23 90 24
REMARK SMILES IDX 91 25 96 26 92 27 95 28 97 29 93 30 94 31 19 32 20 33 21 34
REMARK SMILES IDX 22 35 23 36 24 37 25 39 26 40 27 41 88 42 28 43 87 44 29 45
REMARK SMILES IDX 30 46 31 47 81 48 32 49 86 50 80 51 82 52 33 53 85 54 79 55
REMARK SMILES IDX 78 56 34 58 66 59 46 60 65 61 47 62 50 63 64 64 83 65 48 66
REMARK SMILES IDX 49 67 63 69 84 70 51 71 35 72 36 73 44 74 37 75 43 76 45 77
REMARK SMILES IDX 42 78 38 79 39 80 40 81 41 82 67 83 68 84 76 85 69 86 75 87
REMARK SMILES IDX 77 88 74 89 70 90 71 91 72 92 73 93 52 94 53 95 61 96 54 97
REMARK SMILES IDX 60 98 62 99 59 100 55 101 56 102 57 103 58 104
REMARK H PARENT 16 6 23 38 82 57 50 68
REMARK Flexibility Score: inf
ROOT
ATOM      1  C   UNL A   1      33.254  27.234  26.432  1.00  0.00     0.021 C 
ENDROOT
BRANCH   1   2
ATOM      2  C   UNL A   1      32.650  25.839  24.792  1.00  0.00     0.116 C 
BRANCH   2   3
ATOM      3  N   UNL A   1      33.321  24.766  23.924  1.00  0.00    -0.356 N 
ATOM      4  C   UNL A   1      34.446  24.002  24.038  1.00  0.00     0.220 C 
ATOM      5  O   UNL A   1      34.536  23.094  23.201  1.00  0.00    -0.275 OA
ATOM      6  H   UNL A   1      32.826  24.588  23.093  1.00  0.00     0.163 HD
BRANCH   4   7
ATOM      7  C   UNL A   1      35.530  24.129  25.114  1.00  0.00     0.110 C 
BRANCH   7   8
ATOM      8  C   UNL A   1      36.987  23.746  24.879  1.00  0.00     0.112 C 
BRANCH   8   9
ATOM      9  C   UNL A   1      37.308  22.591  25.755  1.00  0.00     0.243 C 
ATOM     10  O   UNL A   1      36.466  21.777  26.108  1.00  0.00    -0.273 OA
BRANCH   9  11
ATOM     11  N   UNL A   1      38.613  22.650  26.179  1.00  0.00    -0.225 N 
ATOM     12  C   UNL A   1      41.136  21.192  26.645  1.00  0.00     0.071 C 
ATOM     13  N   UNL A   1      39.657  21.040  26.008  1.00  0.00    -0.174 NA
ATOM     14  C   UNL A   1      41.321  22.892  27.629  1.00  0.00     0.091 C 
ATOM     15  C   UNL A   1      39.679  23.917  27.231  1.00  0.00     0.149 C 
BRANCH  12  16
ATOM     16  C   UNL A   1      42.410  20.455  26.320  1.00  0.00    -0.002 A 
ATOM     17  C   UNL A   1      44.514  19.085  25.036  1.00  0.00     0.118 A 
ATOM     18  C   UNL A   1      44.519  20.477  25.062  1.00  0.00     0.047 A 
ATOM     19  C   UNL A   1      43.535  18.389  25.747  1.00  0.00     0.047 A 
ATOM     20  C   UNL A   1      43.472  21.163  25.703  1.00  0.00     0.014 A 
ATOM     21  C   UNL A   1      42.474  19.067  26.377  1.00  0.00     0.014 A 
BRANCH  17  22
ATOM     22  O   UNL A   1      45.484  18.464  24.296  1.00  0.00    -0.497 OA
ATOM     23  C   UNL A   1      45.485  18.843  22.914  1.00  0.00     0.278 C 
ENDBRANCH  17  22
ENDBRANCH  12  16
BRANCH  15  24
ATOM     24  C   UNL A   1      39.864  25.446  26.985  1.00  0.00    -0.004 A 
ATOM     25  C   UNL A   1      40.761  25.860  25.978  1.00  0.00     0.009 A 
ATOM     26  C   UNL A   1      39.579  26.431  27.981  1.00  0.00     0.047 A 
ATOM     27  C   UNL A   1      41.339  27.143  25.972  1.00  0.00     0.021 A 
ATOM     28  C   UNL A   1      40.055  27.749  27.895  1.00  0.00     0.041 A 
ATOM     29  Cl  UNL A   1      38.949  26.090  29.561  1.00  0.00    -0.084 Cl
ATOM     30  C   UNL A   1      40.965  28.088  26.915  1.00  0.00     0.042 A 
ATOM     31  Cl  UNL A   1      41.713  29.636  26.945  1.00  0.00    -0.084 Cl
ENDBRANCH  15  24
ENDBRANCH   9  11
ENDBRANCH   8   9
ENDBRANCH   7   8
ENDBRANCH   4   7
ENDBRANCH   2   3
ENDBRANCH   1   2
BRANCH   1  32
ATOM     32  C   UNL A   1      34.007  28.947  26.110  1.00  0.00     0.002 C 
BRANCH  32  33
ATOM     33  C   UNL A   1      34.672  29.875  27.283  1.00  0.00     0.002 C 
BRANCH  33  34
ATOM     34  C   UNL A   1      34.165  31.253  27.574  1.00  0.00     0.021 C 
BRANCH  34  35
ATOM     35  C   UNL A   1      35.020  31.953  28.571  1.00  0.00     0.116 C 
BRANCH  35  36
ATOM     36  N   UNL A   1      34.551  31.888  29.965  1.00  0.00    -0.352 N 
ATOM     37  C   UNL A   1      35.228  32.282  31.090  1.00  0.00     0.251 C 
ATOM     38  H   UNL A   1      33.648  31.521  30.104  1.00  0.00     0.163 HD
ATOM     39  O   UNL A   1      34.735  32.350  32.204  1.00  0.00    -0.269 OA
BRANCH  37  40
ATOM     40  C   UNL A   1      36.630  32.568  30.868  1.00  0.00     0.039 A 
ATOM     41  C   UNL A   1      37.433  32.730  31.998  1.00  0.00     0.014 A 
ATOM     42  C   UNL A   1      37.114  32.215  29.608  1.00  0.00     0.014 A 
ATOM     43  C   UNL A   1      38.784  32.515  31.853  1.00  0.00     0.010 A 
ATOM     44  C   UNL A   1      38.407  31.775  29.536  1.00  0.00     0.010 A 
ATOM     45  C   UNL A   1      39.249  32.010  30.630  1.00  0.00    -0.014 A 
BRANCH  45  46
ATOM     46  C   UNL A   1      40.677  31.919  30.368  1.00  0.00     0.031 A 
ATOM     47  C   UNL A   1      41.337  33.184  29.921  1.00  0.00     0.074 A 
ATOM     48  C   UNL A   1      41.289  30.736  30.511  1.00  0.00     0.049 A 
ATOM     49  N   UNL A   1      42.545  33.365  29.482  1.00  0.00    -0.248 NA
ATOM     50  C   UNL A   1      40.498  34.404  29.894  1.00  0.00     0.031 C 
ATOM     51  C   UNL A   1      40.645  29.488  30.940  1.00  0.00     0.029 A 
ATOM     52  N   UNL A   1      42.591  30.396  30.327  1.00  0.00    -0.354 N 
ATOM     53  C   UNL A   1      42.595  34.702  29.115  1.00  0.00     0.074 A 
ATOM     54  C   UNL A   1      41.274  35.254  29.250  1.00  0.00     0.031 C 
ATOM     55  C   UNL A   1      41.579  28.530  31.043  1.00  0.00     0.029 A 
ATOM     56  C   UNL A   1      42.856  29.082  30.614  1.00  0.00     0.049 A 
ATOM     57  H   UNL A   1      43.277  31.031  30.017  1.00  0.00     0.167 HD
ATOM     58  C   UNL A   1      43.683  35.410  28.752  1.00  0.00     0.034 A 
ATOM     59  C   UNL A   1      44.021  28.422  30.515  1.00  0.00     0.034 A 
ATOM     60  C   UNL A   1      44.974  34.797  28.664  1.00  0.00     0.049 A 
ATOM     61  C   UNL A   1      45.210  29.221  30.040  1.00  0.00     0.074 A 
ATOM     62  C   UNL A   1      46.179  35.366  28.312  1.00  0.00     0.029 A 
ATOM     63  N   UNL A   1      45.220  33.453  28.940  1.00  0.00    -0.354 N 
ATOM     64  N   UNL A   1      45.265  30.492  29.697  1.00  0.00    -0.248 NA
ATOM     65  C   UNL A   1      46.485  28.512  29.953  1.00  0.00     0.031 C 
ATOM     66  C   UNL A   1      47.135  34.348  28.289  1.00  0.00     0.029 A 
ATOM     67  C   UNL A   1      46.554  33.168  28.737  1.00  0.00     0.049 A 
ATOM     68  H   UNL A   1      44.542  32.804  29.237  1.00  0.00     0.167 HD
ATOM     69  C   UNL A   1      46.597  30.746  29.393  1.00  0.00     0.074 A 
ATOM     70  C   UNL A   1      47.303  29.495  29.611  1.00  0.00     0.031 C 
ATOM     71  C   UNL A   1      47.194  31.894  28.977  1.00  0.00     0.034 A 
BRANCH  58  72
ATOM     72  C   UNL A   1      43.482  36.862  28.414  1.00  0.00     0.023 A 
ATOM     73  C   UNL A   1      43.660  37.879  29.372  1.00  0.00     0.031 A 
ATOM     74  C   UNL A   1      43.031  37.231  27.138  1.00  0.00     0.131 A 
ATOM     75  C   UNL A   1      43.318  39.202  29.060  1.00  0.00     0.055 A 
ATOM     76  C   UNL A   1      42.786  38.564  26.804  1.00  0.00     0.041 A 
ATOM     77  F   UNL A   1      42.791  36.300  26.202  1.00  0.00    -0.206 F 
ATOM     78  C   UNL A   1      42.917  39.557  27.771  1.00  0.00     0.022 A 
BRANCH  75  79
ATOM     79  S   UNL A   1      43.248  40.420  30.403  1.00  0.00     0.124 S 
ATOM     80  O   UNL A   1      44.315  41.343  30.019  1.00  0.00    -0.237 OA
ATOM     81  O   UNL A   1      41.888  40.935  30.294  1.00  0.00    -0.237 OA
ATOM     82  O   UNL A   1      43.522  39.626  31.598  1.00  0.00    -0.744 OA
ENDBRANCH  75  79
ENDBRANCH  58  72
BRANCH  59  83
ATOM     83  C   UNL A   1      44.116  26.982  30.864  1.00  0.00     0.023 A 
ATOM     84  C   UNL A   1      44.378  26.587  32.184  1.00  0.00     0.031 A 
ATOM     85  C   UNL A   1      43.991  25.978  29.888  1.00  0.00     0.131 A 
ATOM     86  C   UNL A   1      44.590  25.233  32.477  1.00  0.00     0.055 A 
ATOM     87  C   UNL A   1      44.123  24.624  30.200  1.00  0.00     0.041 A 
ATOM     88  F   UNL A   1      43.730  26.298  28.611  1.00  0.00    -0.206 F 
ATOM     89  C   UNL A   1      44.447  24.246  31.500  1.00  0.00     0.022 A 
BRANCH  86  90
ATOM     90  S   UNL A   1      45.203  24.803  34.126  1.00  0.00     0.124 S 
ATOM     91  O   UNL A   1      45.820  23.504  33.879  1.00  0.00    -0.237 OA
ATOM     92  O   UNL A   1      46.118  25.905  34.406  1.00  0.00    -0.237 OA
ATOM     93  O   UNL A   1      43.992  24.775  34.942  1.00  0.00    -0.744 OA
ENDBRANCH  86  90
ENDBRANCH  59  83
BRANCH  71  94
ATOM     94  C   UNL A   1      48.686  31.848  28.808  1.00  0.00     0.023 A 
ATOM     95  C   UNL A   1      49.279  31.420  27.612  1.00  0.00     0.031 A 
ATOM     96  C   UNL A   1      49.521  32.242  29.869  1.00  0.00     0.131 A 
ATOM     97  C   UNL A   1      50.672  31.314  27.535  1.00  0.00     0.055 A 
ATOM     98  C   UNL A   1      50.906  32.231  29.750  1.00  0.00     0.041 A 
ATOM     99  F   UNL A   1      48.997  32.657  31.035  1.00  0.00    -0.206 F 
ATOM    100  C   UNL A   1      51.490  31.745  28.584  1.00  0.00     0.022 A 
BRANCH  97 101
ATOM    101  S   UNL A   1      51.388  30.468  26.105  1.00  0.00     0.124 S 
ATOM    102  O   UNL A   1      50.441  29.376  25.898  1.00  0.00    -0.237 OA
ATOM    103  O   UNL A   1      51.386  31.514  25.088  1.00  0.00    -0.237 OA
ATOM    104  O   UNL A   1      52.710  30.062  26.576  1.00  0.00    -0.744 OA
ENDBRANCH  97 101
ENDBRANCH  71  94
ENDBRANCH  45  46
ENDBRANCH  37  40
ENDBRANCH  35  36
ENDBRANCH  34  35
ENDBRANCH  33  34
ENDBRANCH  32  33
ENDBRANCH   1  32
TORSDOF 22
ENDMDL
