MODEL 1
REMARK VINA RESULT:     -10.9      0.000      0.000
REMARK SMILES CC1CCN(S(=O)(=O)c2ccc3c(ccn3CC(=O)NCCCCCCNC(=O)c3ccc(-c4c5nc(c(-c6cc(S(=O)(=O)[O-])ccc6F)c6ccc([nH]6)c(-c6cc(S(=O)(=O)[O-])ccc6F)c6nc(c(-c7cc(S(=O)(=O)[O-])ccc7F)c7ccc4[nH]7)C=C6)C=C5)cc3)c2)CC1
REMARK SMILES IDX 23 1 22 2 21 3 20 4 18 5 19 6 17 8 16 9 9 10 10 11 93 12
REMARK SMILES IDX 11 13 13 14 12 15 14 16 15 17 6 18 7 19 8 20 5 21 1 22 2 23
REMARK SMILES IDX 3 24 95 25 4 26 94 27 24 28 25 29 26 30 27 31 28 32 29 34
REMARK SMILES IDX 30 35 31 36 92 37 32 38 91 39 33 40 34 41 35 42 85 43 36 44
REMARK SMILES IDX 90 45 84 46 86 47 37 48 89 49 83 50 82 51 38 53 70 54 50 55
REMARK SMILES IDX 69 56 51 57 54 58 68 59 87 60 52 61 53 62 67 64 88 65 55 66
REMARK SMILES IDX 39 67 40 68 48 69 41 70 47 71 49 72 46 73 42 74 43 75 44 76
REMARK SMILES IDX 45 77 71 78 72 79 80 80 73 81 79 82 81 83 78 84 74 85 75 86
REMARK SMILES IDX 76 87 77 88 56 89 57 90 65 91 58 92 64 93 66 94 63 95 59 96
REMARK SMILES IDX 60 97 61 98 62 99
REMARK H PARENT 20 7 27 33 86 52 54 63
REMARK Flexibility Score: inf
ROOT
ATOM      1  C   UNL A   1      36.375  30.694  28.281  1.00  0.00     0.002 C 
ENDROOT
BRANCH   1   2
ATOM      2  C   UNL A   1      35.823  29.952  27.058  1.00  0.00     0.021 C 
BRANCH   2   3
ATOM      3  C   UNL A   1      34.707  28.964  27.397  1.00  0.00     0.116 C 
BRANCH   3   4
ATOM      4  N   UNL A   1      33.420  29.627  27.502  1.00  0.00    -0.355 N 
ATOM      5  C   UNL A   1      32.575  30.028  26.506  1.00  0.00     0.239 C 
ATOM      6  O   UNL A   1      31.550  30.639  26.815  1.00  0.00    -0.273 OA
ATOM      7  H   UNL A   1      33.112  29.814  28.418  1.00  0.00     0.163 HD
BRANCH   5   8
ATOM      8  C   UNL A   1      32.858  29.665  25.061  1.00  0.00     0.222 C 
BRANCH   8   9
ATOM      9  N   UNL A   1      32.103  28.511  24.590  1.00  0.00    -0.338 N 
ATOM     10  C   UNL A   1      32.986  24.498  24.139  1.00  0.00     0.083 A 
ATOM     11  C   UNL A   1      34.020  25.305  24.614  1.00  0.00     0.024 A 
ATOM     12  C   UNL A   1      31.734  25.046  23.831  1.00  0.00     0.032 A 
ATOM     13  C   UNL A   1      33.801  26.651  24.899  1.00  0.00     0.028 A 
ATOM     14  C   UNL A   1      31.529  26.429  24.014  1.00  0.00     0.001 A 
ATOM     15  C   UNL A   1      32.559  27.206  24.554  1.00  0.00     0.049 A 
ATOM     16  C   UNL A   1      30.444  27.303  23.736  1.00  0.00     0.028 A 
ATOM     17  C   UNL A   1      30.819  28.572  24.110  1.00  0.00     0.087 A 
BRANCH  10  18
ATOM     18  S   UNL A   1      33.323  22.798  23.741  1.00  0.00     0.243 S 
ATOM     19  O   UNL A   1      34.657  22.758  23.191  1.00  0.00    -0.207 OA
ATOM     20  O   UNL A   1      32.198  22.307  22.963  1.00  0.00    -0.207 OA
BRANCH  18  21
ATOM     21  N   UNL A   1      33.293  21.939  25.230  1.00  0.00    -0.198 NA
ATOM     22  C   UNL A   1      33.953  17.980  23.746  1.00  0.00     0.008 C 
ATOM     23  C   UNL A   1      33.680  19.051  24.803  1.00  0.00    -0.012 C 
ATOM     24  C   UNL A   1      32.339  19.751  24.520  1.00  0.00     0.020 C 
ATOM     25  C   UNL A   1      34.858  20.034  24.879  1.00  0.00     0.020 C 
ATOM     26  C   UNL A   1      32.133  21.010  25.360  1.00  0.00     0.103 C 
ATOM     27  C   UNL A   1      34.519  21.258  25.720  1.00  0.00     0.103 C 
ENDBRANCH  18  21
ENDBRANCH  10  18
ENDBRANCH   8   9
ENDBRANCH   5   8
ENDBRANCH   3   4
ENDBRANCH   2   3
ENDBRANCH   1   2
BRANCH   1  28
ATOM     28  C   UNL A   1      36.580  32.202  28.089  1.00  0.00     0.002 C 
BRANCH  28  29
ATOM     29  C   UNL A   1      35.579  33.107  28.820  1.00  0.00     0.021 C 
BRANCH  29  30
ATOM     30  C   UNL A   1      34.439  32.361  29.514  1.00  0.00     0.116 C 
BRANCH  30  31
ATOM     31  N   UNL A   1      34.462  32.494  30.956  1.00  0.00    -0.352 N 
ATOM     32  C   UNL A   1      35.376  32.266  31.944  1.00  0.00     0.251 C 
ATOM     33  H   UNL A   1      33.608  32.833  31.310  1.00  0.00     0.163 HD
ATOM     34  O   UNL A   1      35.014  32.592  33.079  1.00  0.00    -0.269 OA
BRANCH  32  35
ATOM     35  C   UNL A   1      36.708  31.621  31.773  1.00  0.00     0.039 A 
ATOM     36  C   UNL A   1      37.927  32.279  31.610  1.00  0.00     0.014 A 
ATOM     37  C   UNL A   1      36.698  30.212  31.721  1.00  0.00     0.014 A 
ATOM     38  C   UNL A   1      39.082  31.555  31.307  1.00  0.00     0.010 A 
ATOM     39  C   UNL A   1      37.848  29.485  31.430  1.00  0.00     0.010 A 
ATOM     40  C   UNL A   1      39.032  30.163  31.171  1.00  0.00    -0.014 A 
BRANCH  40  41
ATOM     41  C   UNL A   1      40.269  29.451  30.850  1.00  0.00     0.031 A 
ATOM     42  C   UNL A   1      41.064  29.020  32.033  1.00  0.00     0.074 A 
ATOM     43  C   UNL A   1      40.645  29.099  29.603  1.00  0.00     0.049 A 
ATOM     44  N   UNL A   1      42.215  29.461  32.421  1.00  0.00    -0.248 NA
ATOM     45  C   UNL A   1      40.433  28.078  32.968  1.00  0.00     0.031 C 
ATOM     46  C   UNL A   1      39.860  29.165  28.369  1.00  0.00     0.029 A 
ATOM     47  N   UNL A   1      41.807  28.510  29.192  1.00  0.00    -0.354 N 
ATOM     48  C   UNL A   1      42.555  28.705  33.544  1.00  0.00     0.074 A 
ATOM     49  C   UNL A   1      41.357  28.002  33.927  1.00  0.00     0.031 C 
ATOM     50  C   UNL A   1      40.472  28.435  27.407  1.00  0.00     0.029 A 
ATOM     51  C   UNL A   1      41.762  27.987  27.906  1.00  0.00     0.049 A 
ATOM     52  H   UNL A   1      42.609  28.460  29.761  1.00  0.00     0.167 HD
ATOM     53  C   UNL A   1      43.851  28.553  33.943  1.00  0.00     0.034 A 
ATOM     54  C   UNL A   1      42.690  27.196  27.310  1.00  0.00     0.034 A 
ATOM     55  C   UNL A   1      44.709  29.524  33.317  1.00  0.00     0.049 A 
ATOM     56  C   UNL A   1      43.971  27.353  28.036  1.00  0.00     0.074 A 
ATOM     57  C   UNL A   1      44.806  30.899  33.327  1.00  0.00     0.029 A 
ATOM     58  N   UNL A   1      45.454  29.106  32.242  1.00  0.00    -0.354 N 
ATOM     59  N   UNL A   1      44.699  28.431  28.011  1.00  0.00    -0.248 NA
ATOM     60  C   UNL A   1      44.236  26.442  29.137  1.00  0.00     0.031 C 
ATOM     61  C   UNL A   1      45.203  31.254  32.005  1.00  0.00     0.029 A 
ATOM     62  C   UNL A   1      45.381  30.076  31.277  1.00  0.00     0.049 A 
ATOM     63  H   UNL A   1      45.953  28.260  32.175  1.00  0.00     0.167 HD
ATOM     64  C   UNL A   1      45.147  28.569  29.315  1.00  0.00     0.074 A 
ATOM     65  C   UNL A   1      44.934  27.259  29.927  1.00  0.00     0.031 C 
ATOM     66  C   UNL A   1      45.380  29.803  29.854  1.00  0.00     0.034 A 
BRANCH  53  67
ATOM     67  C   UNL A   1      44.390  27.305  34.611  1.00  0.00     0.023 A 
ATOM     68  C   UNL A   1      44.218  26.013  34.080  1.00  0.00     0.031 A 
ATOM     69  C   UNL A   1      45.305  27.406  35.682  1.00  0.00     0.131 A 
ATOM     70  C   UNL A   1      44.915  24.907  34.584  1.00  0.00     0.055 A 
ATOM     71  C   UNL A   1      46.053  26.312  36.141  1.00  0.00     0.041 A 
ATOM     72  F   UNL A   1      45.551  28.585  36.273  1.00  0.00    -0.206 F 
ATOM     73  C   UNL A   1      45.862  25.053  35.589  1.00  0.00     0.022 A 
BRANCH  70  74
ATOM     74  S   UNL A   1      44.606  23.249  33.914  1.00  0.00     0.124 S 
ATOM     75  O   UNL A   1      43.464  22.812  34.711  1.00  0.00    -0.237 OA
ATOM     76  O   UNL A   1      44.322  23.547  32.511  1.00  0.00    -0.237 OA
ATOM     77  O   UNL A   1      45.861  22.544  34.154  1.00  0.00    -0.744 OA
ENDBRANCH  70  74
ENDBRANCH  53  67
BRANCH  54  78
ATOM     78  C   UNL A   1      42.430  25.985  26.496  1.00  0.00     0.023 A 
ATOM     79  C   UNL A   1      41.431  25.082  26.903  1.00  0.00     0.031 A 
ATOM     80  C   UNL A   1      43.367  25.530  25.550  1.00  0.00     0.131 A 
ATOM     81  C   UNL A   1      41.433  23.763  26.432  1.00  0.00     0.055 A 
ATOM     82  C   UNL A   1      43.355  24.217  25.065  1.00  0.00     0.041 A 
ATOM     83  F   UNL A   1      44.366  26.329  25.143  1.00  0.00    -0.206 F 
ATOM     84  C   UNL A   1      42.394  23.320  25.522  1.00  0.00     0.022 A 
BRANCH  81  85
ATOM     85  S   UNL A   1      40.238  22.563  27.083  1.00  0.00     0.124 S 
ATOM     86  O   UNL A   1      41.006  21.904  28.137  1.00  0.00    -0.237 OA
ATOM     87  O   UNL A   1      39.162  23.435  27.539  1.00  0.00    -0.237 OA
ATOM     88  O   UNL A   1      39.935  21.725  25.926  1.00  0.00    -0.744 OA
ENDBRANCH  81  85
ENDBRANCH  54  78
BRANCH  66  89
ATOM     89  C   UNL A   1      45.399  31.006  28.931  1.00  0.00     0.023 A 
ATOM     90  C   UNL A   1      46.655  31.484  28.517  1.00  0.00     0.031 A 
ATOM     91  C   UNL A   1      44.272  31.788  28.605  1.00  0.00     0.131 A 
ATOM     92  C   UNL A   1      46.763  32.700  27.831  1.00  0.00     0.055 A 
ATOM     93  C   UNL A   1      44.377  32.965  27.856  1.00  0.00     0.041 A 
ATOM     94  F   UNL A   1      43.051  31.485  29.059  1.00  0.00    -0.206 F 
ATOM     95  C   UNL A   1      45.628  33.435  27.477  1.00  0.00     0.022 A 
BRANCH  92  96
ATOM     96  S   UNL A   1      48.388  33.431  27.514  1.00  0.00     0.124 S 
ATOM     97  O   UNL A   1      48.873  32.633  26.392  1.00  0.00    -0.237 OA
ATOM     98  O   UNL A   1      48.050  34.817  27.196  1.00  0.00    -0.237 OA
ATOM     99  O   UNL A   1      49.110  33.248  28.770  1.00  0.00    -0.744 OA
ENDBRANCH  92  96
ENDBRANCH  66  89
ENDBRANCH  40  41
ENDBRANCH  32  35
ENDBRANCH  30  31
ENDBRANCH  29  30
ENDBRANCH  28  29
ENDBRANCH   1  28
TORSDOF 19
ENDMDL
MODEL 2
REMARK VINA RESULT:     -10.8      1.773      2.286
REMARK SMILES CC1CCN(S(=O)(=O)c2ccc3c(ccn3CC(=O)NCCCCCCNC(=O)c3ccc(-c4c5nc(c(-c6cc(S(=O)(=O)[O-])ccc6F)c6ccc([nH]6)c(-c6cc(S(=O)(=O)[O-])ccc6F)c6nc(c(-c7cc(S(=O)(=O)[O-])ccc7F)c7ccc4[nH]7)C=C6)C=C5)cc3)c2)CC1
REMARK SMILES IDX 23 1 22 2 21 3 20 4 18 5 19 6 17 8 16 9 9 10 10 11 93 12
REMARK SMILES IDX 11 13 13 14 12 15 14 16 15 17 6 18 7 19 8 20 5 21 1 22 2 23
REMARK SMILES IDX 3 24 95 25 4 26 94 27 24 28 25 29 26 30 27 31 28 32 29 34
REMARK SMILES IDX 30 35 31 36 92 37 32 38 91 39 33 40 34 41 35 42 85 43 36 44
REMARK SMILES IDX 90 45 84 46 86 47 37 48 89 49 83 50 82 51 38 53 70 54 50 55
REMARK SMILES IDX 69 56 51 57 54 58 68 59 87 60 52 61 53 62 67 64 88 65 55 66
REMARK SMILES IDX 39 67 40 68 48 69 41 70 47 71 49 72 46 73 42 74 43 75 44 76
REMARK SMILES IDX 45 77 71 78 72 79 80 80 73 81 79 82 81 83 78 84 74 85 75 86
REMARK SMILES IDX 76 87 77 88 56 89 57 90 65 91 58 92 64 93 66 94 63 95 59 96
REMARK SMILES IDX 60 97 61 98 62 99
REMARK H PARENT 20 7 27 33 86 52 54 63
REMARK Flexibility Score: inf
ROOT
ATOM      1  C   UNL A   1      33.738  30.309  27.153  1.00  0.00     0.002 C 
ENDROOT
BRANCH   1   2
ATOM      2  C   UNL A   1      32.292  30.311  26.643  1.00  0.00     0.021 C 
BRANCH   2   3
ATOM      3  C   UNL A   1      32.170  29.979  25.156  1.00  0.00     0.116 C 
BRANCH   3   4
ATOM      4  N   UNL A   1      30.847  30.287  24.645  1.00  0.00    -0.355 N 
ATOM      5  C   UNL A   1      30.162  29.700  23.620  1.00  0.00     0.239 C 
ATOM      6  O   UNL A   1      29.064  30.166  23.304  1.00  0.00    -0.273 OA
ATOM      7  H   UNL A   1      30.377  31.022  25.102  1.00  0.00     0.163 HD
BRANCH   5   8
ATOM      8  C   UNL A   1      30.707  28.463  22.935  1.00  0.00     0.222 C 
BRANCH   8   9
ATOM      9  N   UNL A   1      30.724  27.282  23.789  1.00  0.00    -0.338 N 
ATOM     10  C   UNL A   1      33.714  24.776  25.156  1.00  0.00     0.083 A 
ATOM     11  C   UNL A   1      34.118  25.811  24.314  1.00  0.00     0.024 A 
ATOM     12  C   UNL A   1      32.364  24.612  25.494  1.00  0.00     0.032 A 
ATOM     13  C   UNL A   1      33.208  26.773  23.878  1.00  0.00     0.028 A 
ATOM     14  C   UNL A   1      31.415  25.517  24.974  1.00  0.00     0.001 A 
ATOM     15  C   UNL A   1      31.852  26.587  24.186  1.00  0.00     0.049 A 
ATOM     16  C   UNL A   1      29.998  25.597  25.044  1.00  0.00     0.028 A 
ATOM     17  C   UNL A   1      29.601  26.696  24.318  1.00  0.00     0.087 A 
BRANCH  10  18
ATOM     18  S   UNL A   1      34.897  23.542  25.647  1.00  0.00     0.243 S 
ATOM     19  O   UNL A   1      34.277  22.769  26.697  1.00  0.00    -0.207 OA
ATOM     20  O   UNL A   1      36.157  24.224  25.889  1.00  0.00    -0.207 OA
BRANCH  18  21
ATOM     21  N   UNL A   1      35.146  22.540  24.272  1.00  0.00    -0.198 NA
ATOM     22  C   UNL A   1      32.804  19.161  25.459  1.00  0.00     0.008 C 
ATOM     23  C   UNL A   1      33.740  19.968  24.559  1.00  0.00    -0.012 C 
ATOM     24  C   UNL A   1      35.059  20.269  25.292  1.00  0.00     0.020 C 
ATOM     25  C   UNL A   1      33.033  21.239  24.062  1.00  0.00     0.020 C 
ATOM     26  C   UNL A   1      35.922  21.301  24.568  1.00  0.00     0.103 C 
ATOM     27  C   UNL A   1      34.004  22.197  23.386  1.00  0.00     0.103 C 
ENDBRANCH  18  21
ENDBRANCH  10  18
ENDBRANCH   8   9
ENDBRANCH   5   8
ENDBRANCH   3   4
ENDBRANCH   2   3
ENDBRANCH   1   2
BRANCH   1  28
ATOM     28  C   UNL A   1      34.044  31.342  28.246  1.00  0.00     0.002 C 
BRANCH  28  29
ATOM     29  C   UNL A   1      35.036  32.446  27.858  1.00  0.00     0.021 C 
BRANCH  29  30
ATOM     30  C   UNL A   1      35.003  33.676  28.766  1.00  0.00     0.116 C 
BRANCH  30  31
ATOM     31  N   UNL A   1      34.946  33.347  30.174  1.00  0.00    -0.352 N 
ATOM     32  C   UNL A   1      35.702  32.606  31.037  1.00  0.00     0.251 C 
ATOM     33  H   UNL A   1      34.170  33.759  30.620  1.00  0.00     0.163 HD
ATOM     34  O   UNL A   1      35.339  32.643  32.217  1.00  0.00    -0.269 OA
BRANCH  32  35
ATOM     35  C   UNL A   1      36.854  31.738  30.666  1.00  0.00     0.039 A 
ATOM     36  C   UNL A   1      36.805  30.365  30.421  1.00  0.00     0.014 A 
ATOM     37  C   UNL A   1      38.108  32.379  30.619  1.00  0.00     0.014 A 
ATOM     38  C   UNL A   1      37.984  29.642  30.233  1.00  0.00     0.010 A 
ATOM     39  C   UNL A   1      39.286  31.665  30.421  1.00  0.00     0.010 A 
ATOM     40  C   UNL A   1      39.227  30.285  30.279  1.00  0.00    -0.014 A 
BRANCH  40  41
ATOM     41  C   UNL A   1      40.433  29.483  30.079  1.00  0.00     0.031 A 
ATOM     42  C   UNL A   1      41.154  29.119  31.330  1.00  0.00     0.074 A 
ATOM     43  C   UNL A   1      40.840  29.000  28.886  1.00  0.00     0.049 A 
ATOM     44  N   UNL A   1      42.312  29.533  31.730  1.00  0.00    -0.248 NA
ATOM     45  C   UNL A   1      40.434  28.300  32.315  1.00  0.00     0.031 C 
ATOM     46  C   UNL A   1      40.110  28.996  27.616  1.00  0.00     0.029 A 
ATOM     47  N   UNL A   1      41.982  28.317  28.582  1.00  0.00    -0.354 N 
ATOM     48  C   UNL A   1      42.563  28.865  32.929  1.00  0.00     0.074 A 
ATOM     49  C   UNL A   1      41.312  28.263  33.318  1.00  0.00     0.031 C 
ATOM     50  C   UNL A   1      40.719  28.151  26.751  1.00  0.00     0.029 A 
ATOM     51  C   UNL A   1      41.960  27.683  27.346  1.00  0.00     0.049 A 
ATOM     52  H   UNL A   1      42.757  28.276  29.188  1.00  0.00     0.167 HD
ATOM     53  C   UNL A   1      43.831  28.681  33.399  1.00  0.00     0.034 A 
ATOM     54  C   UNL A   1      42.865  26.794  26.864  1.00  0.00     0.034 A 
ATOM     55  C   UNL A   1      44.767  29.544  32.729  1.00  0.00     0.049 A 
ATOM     56  C   UNL A   1      44.123  26.948  27.631  1.00  0.00     0.074 A 
ATOM     57  C   UNL A   1      44.941  30.908  32.623  1.00  0.00     0.029 A 
ATOM     58  N   UNL A   1      45.530  28.993  31.730  1.00  0.00    -0.354 N 
ATOM     59  N   UNL A   1      44.911  27.980  27.545  1.00  0.00    -0.248 NA
ATOM     60  C   UNL A   1      44.291  26.127  28.818  1.00  0.00     0.031 C 
ATOM     61  C   UNL A   1      45.411  31.121  31.294  1.00  0.00     0.029 A 
ATOM     62  C   UNL A   1      45.551  29.875  30.681  1.00  0.00     0.049 A 
ATOM     63  H   UNL A   1      45.983  28.119  31.760  1.00  0.00     0.167 HD
ATOM     64  C   UNL A   1      45.313  28.211  28.851  1.00  0.00     0.074 A 
ATOM     65  C   UNL A   1      45.001  26.975  29.565  1.00  0.00     0.031 C 
ATOM     66  C   UNL A   1      45.593  29.475  29.289  1.00  0.00     0.034 A 
BRANCH  53  67
ATOM     67  C   UNL A   1      44.271  27.471  34.198  1.00  0.00     0.023 A 
ATOM     68  C   UNL A   1      44.566  27.525  35.573  1.00  0.00     0.031 A 
ATOM     69  C   UNL A   1      44.172  26.176  33.646  1.00  0.00     0.131 A 
ATOM     70  C   UNL A   1      44.746  26.364  36.337  1.00  0.00     0.055 A 
ATOM     71  C   UNL A   1      44.284  25.014  34.423  1.00  0.00     0.041 A 
ATOM     72  F   UNL A   1      43.898  25.997  32.345  1.00  0.00    -0.206 F 
ATOM     73  C   UNL A   1      44.569  25.104  35.779  1.00  0.00     0.022 A 
BRANCH  70  74
ATOM     74  S   UNL A   1      45.196  26.483  38.090  1.00  0.00     0.124 S 
ATOM     75  O   UNL A   1      44.617  27.771  38.461  1.00  0.00    -0.237 OA
ATOM     76  O   UNL A   1      44.531  25.307  38.646  1.00  0.00    -0.237 OA
ATOM     77  O   UNL A   1      46.654  26.419  38.074  1.00  0.00    -0.744 OA
ENDBRANCH  70  74
ENDBRANCH  53  67
BRANCH  54  78
ATOM     78  C   UNL A   1      42.570  25.529  26.149  1.00  0.00     0.023 A 
ATOM     79  C   UNL A   1      41.577  24.670  26.650  1.00  0.00     0.031 A 
ATOM     80  C   UNL A   1      43.475  24.997  25.211  1.00  0.00     0.131 A 
ATOM     81  C   UNL A   1      41.553  23.319  26.277  1.00  0.00     0.055 A 
ATOM     82  C   UNL A   1      43.437  23.652  24.824  1.00  0.00     0.041 A 
ATOM     83  F   UNL A   1      44.468  25.754  24.718  1.00  0.00    -0.206 F 
ATOM     84  C   UNL A   1      42.482  22.801  25.374  1.00  0.00     0.022 A 
BRANCH  81  85
ATOM     85  S   UNL A   1      40.369  22.183  27.048  1.00  0.00     0.124 S 
ATOM     86  O   UNL A   1      40.910  22.041  28.398  1.00  0.00    -0.237 OA
ATOM     87  O   UNL A   1      39.125  22.937  26.945  1.00  0.00    -0.237 OA
ATOM     88  O   UNL A   1      40.459  20.984  26.220  1.00  0.00    -0.744 OA
ENDBRANCH  81  85
ENDBRANCH  54  78
BRANCH  66  89
ATOM     89  C   UNL A   1      45.717  30.587  28.266  1.00  0.00     0.023 A 
ATOM     90  C   UNL A   1      47.014  30.981  27.892  1.00  0.00     0.031 A 
ATOM     91  C   UNL A   1      44.644  31.374  27.799  1.00  0.00     0.131 A 
ATOM     92  C   UNL A   1      47.213  32.125  27.110  1.00  0.00     0.055 A 
ATOM     93  C   UNL A   1      44.843  32.474  26.956  1.00  0.00     0.041 A 
ATOM     94  F   UNL A   1      43.386  31.157  28.199  1.00  0.00    -0.206 F 
ATOM     95  C   UNL A   1      46.133  32.863  26.619  1.00  0.00     0.022 A 
BRANCH  92  96
ATOM     96  S   UNL A   1      48.883  32.767  26.835  1.00  0.00     0.124 S 
ATOM     97  O   UNL A   1      49.125  33.533  28.054  1.00  0.00    -0.237 OA
ATOM     98  O   UNL A   1      49.669  31.542  26.700  1.00  0.00    -0.237 OA
ATOM     99  O   UNL A   1      48.762  33.556  25.612  1.00  0.00    -0.744 OA
ENDBRANCH  92  96
ENDBRANCH  66  89
ENDBRANCH  40  41
ENDBRANCH  32  35
ENDBRANCH  30  31
ENDBRANCH  29  30
ENDBRANCH  28  29
ENDBRANCH   1  28
TORSDOF 19
ENDMDL
MODEL 3
REMARK VINA RESULT:     -10.8      2.030      2.828
REMARK SMILES CC1CCN(S(=O)(=O)c2ccc3c(ccn3CC(=O)NCCCCCCNC(=O)c3ccc(-c4c5nc(c(-c6cc(S(=O)(=O)[O-])ccc6F)c6ccc([nH]6)c(-c6cc(S(=O)(=O)[O-])ccc6F)c6nc(c(-c7cc(S(=O)(=O)[O-])ccc7F)c7ccc4[nH]7)C=C6)C=C5)cc3)c2)CC1
REMARK SMILES IDX 23 1 22 2 21 3 20 4 18 5 19 6 17 8 16 9 9 10 10 11 93 12
REMARK SMILES IDX 11 13 13 14 12 15 14 16 15 17 6 18 7 19 8 20 5 21 1 22 2 23
REMARK SMILES IDX 3 24 95 25 4 26 94 27 24 28 25 29 26 30 27 31 28 32 29 34
REMARK SMILES IDX 30 35 31 36 92 37 32 38 91 39 33 40 34 41 35 42 85 43 36 44
REMARK SMILES IDX 90 45 84 46 86 47 37 48 89 49 83 50 82 51 38 53 70 54 50 55
REMARK SMILES IDX 69 56 51 57 54 58 68 59 87 60 52 61 53 62 67 64 88 65 55 66
REMARK SMILES IDX 39 67 40 68 48 69 41 70 47 71 49 72 46 73 42 74 43 75 44 76
REMARK SMILES IDX 45 77 71 78 72 79 80 80 73 81 79 82 81 83 78 84 74 85 75 86
REMARK SMILES IDX 76 87 77 88 56 89 57 90 65 91 58 92 64 93 66 94 63 95 59 96
REMARK SMILES IDX 60 97 61 98 62 99
REMARK H PARENT 20 7 27 33 86 52 54 63
REMARK Flexibility Score: inf
ROOT
ATOM      1  C   UNL A   1      33.817  29.199  26.190  1.00  0.00     0.002 C 
ENDROOT
BRANCH   1   2
ATOM      2  C   UNL A   1      33.428  27.757  25.842  1.00  0.00     0.021 C 
BRANCH   2   3
ATOM      3  C   UNL A   1      32.056  27.640  25.179  1.00  0.00     0.116 C 
BRANCH   3   4
ATOM      4  N   UNL A   1      31.146  26.833  25.971  1.00  0.00    -0.355 N 
ATOM      5  C   UNL A   1      30.173  25.970  25.552  1.00  0.00     0.239 C 
ATOM      6  O   UNL A   1      29.461  25.430  26.401  1.00  0.00    -0.273 OA
ATOM      7  H   UNL A   1      31.243  26.918  26.947  1.00  0.00     0.163 HD
BRANCH   5   8
ATOM      8  C   UNL A   1      30.021  25.633  24.082  1.00  0.00     0.222 C 
BRANCH   8   9
ATOM      9  N   UNL A   1      31.107  24.816  23.554  1.00  0.00    -0.338 N 
ATOM     10  C   UNL A   1      32.848  21.257  24.733  1.00  0.00     0.083 A 
ATOM     11  C   UNL A   1      31.820  21.735  25.543  1.00  0.00     0.024 A 
ATOM     12  C   UNL A   1      33.254  21.969  23.596  1.00  0.00     0.032 A 
ATOM     13  C   UNL A   1      31.097  22.871  25.184  1.00  0.00     0.028 A 
ATOM     14  C   UNL A   1      32.601  23.177  23.277  1.00  0.00     0.001 A 
ATOM     15  C   UNL A   1      31.528  23.603  24.067  1.00  0.00     0.049 A 
ATOM     16  C   UNL A   1      32.803  24.164  22.274  1.00  0.00     0.028 A 
ATOM     17  C   UNL A   1      31.865  25.152  22.460  1.00  0.00     0.087 A 
BRANCH  10  18
ATOM     18  S   UNL A   1      33.778  19.834  25.256  1.00  0.00     0.243 S 
ATOM     19  O   UNL A   1      33.038  19.231  26.338  1.00  0.00    -0.207 OA
ATOM     20  O   UNL A   1      35.150  20.268  25.462  1.00  0.00    -0.207 OA
BRANCH  18  21
ATOM     21  N   UNL A   1      33.807  18.759  23.915  1.00  0.00    -0.198 NA
ATOM     22  C   UNL A   1      32.499  15.189  25.878  1.00  0.00     0.008 C 
ATOM     23  C   UNL A   1      32.998  16.041  24.711  1.00  0.00    -0.012 C 
ATOM     24  C   UNL A   1      34.396  16.605  25.021  1.00  0.00     0.020 C 
ATOM     25  C   UNL A   1      31.974  17.138  24.380  1.00  0.00     0.020 C 
ATOM     26  C   UNL A   1      34.836  17.684  24.033  1.00  0.00     0.103 C 
ATOM     27  C   UNL A   1      32.542  18.166  23.410  1.00  0.00     0.103 C 
ENDBRANCH  18  21
ENDBRANCH  10  18
ENDBRANCH   8   9
ENDBRANCH   5   8
ENDBRANCH   3   4
ENDBRANCH   2   3
ENDBRANCH   1   2
BRANCH   1  28
ATOM     28  C   UNL A   1      32.640  30.169  26.356  1.00  0.00     0.002 C 
BRANCH  28  29
ATOM     29  C   UNL A   1      32.929  31.431  27.180  1.00  0.00     0.021 C 
BRANCH  29  30
ATOM     30  C   UNL A   1      34.328  31.479  27.796  1.00  0.00     0.116 C 
BRANCH  30  31
ATOM     31  N   UNL A   1      34.339  31.977  29.155  1.00  0.00    -0.352 N 
ATOM     32  C   UNL A   1      35.251  32.031  30.170  1.00  0.00     0.251 C 
ATOM     33  H   UNL A   1      33.474  32.375  29.410  1.00  0.00     0.163 HD
ATOM     34  O   UNL A   1      34.873  32.628  31.183  1.00  0.00    -0.269 OA
BRANCH  32  35
ATOM     35  C   UNL A   1      36.597  31.394  30.171  1.00  0.00     0.039 A 
ATOM     36  C   UNL A   1      37.816  32.045  29.973  1.00  0.00     0.014 A 
ATOM     37  C   UNL A   1      36.608  29.995  30.337  1.00  0.00     0.014 A 
ATOM     38  C   UNL A   1      38.994  31.307  29.846  1.00  0.00     0.010 A 
ATOM     39  C   UNL A   1      37.781  29.256  30.222  1.00  0.00     0.010 A 
ATOM     40  C   UNL A   1      38.969  29.910  29.924  1.00  0.00    -0.014 A 
BRANCH  40  41
ATOM     41  C   UNL A   1      40.230  29.182  29.782  1.00  0.00     0.031 A 
ATOM     42  C   UNL A   1      40.927  28.888  31.065  1.00  0.00     0.074 A 
ATOM     43  C   UNL A   1      40.710  28.705  28.615  1.00  0.00     0.049 A 
ATOM     44  N   UNL A   1      42.041  29.382  31.498  1.00  0.00    -0.248 NA
ATOM     45  C   UNL A   1      40.224  28.043  32.041  1.00  0.00     0.031 C 
ATOM     46  C   UNL A   1      40.029  28.632  27.321  1.00  0.00     0.029 A 
ATOM     47  N   UNL A   1      41.904  28.091  28.365  1.00  0.00    -0.354 N 
ATOM     48  C   UNL A   1      42.289  28.753  32.718  1.00  0.00     0.074 A 
ATOM     49  C   UNL A   1      41.066  28.080  33.074  1.00  0.00     0.031 C 
ATOM     50  C   UNL A   1      40.721  27.812  26.495  1.00  0.00     0.029 A 
ATOM     51  C   UNL A   1      41.966  27.435  27.142  1.00  0.00     0.049 A 
ATOM     52  H   UNL A   1      42.656  28.110  28.999  1.00  0.00     0.167 HD
ATOM     53  C   UNL A   1      43.548  28.659  33.236  1.00  0.00     0.034 A 
ATOM     54  C   UNL A   1      42.943  26.597  26.711  1.00  0.00     0.034 A 
ATOM     55  C   UNL A   1      44.452  29.568  32.582  1.00  0.00     0.049 A 
ATOM     56  C   UNL A   1      44.159  26.844  27.519  1.00  0.00     0.074 A 
ATOM     57  C   UNL A   1      44.543  30.938  32.455  1.00  0.00     0.029 A 
ATOM     58  N   UNL A   1      45.284  29.048  31.622  1.00  0.00    -0.354 N 
ATOM     59  N   UNL A   1      44.883  27.922  27.439  1.00  0.00    -0.248 NA
ATOM     60  C   UNL A   1      44.335  26.058  28.728  1.00  0.00     0.031 C 
ATOM     61  C   UNL A   1      45.047  31.156  31.139  1.00  0.00     0.029 A 
ATOM     62  C   UNL A   1      45.288  29.911  30.557  1.00  0.00     0.049 A 
ATOM     63  H   UNL A   1      45.790  28.206  31.686  1.00  0.00     0.167 HD
ATOM     64  C   UNL A   1      45.222  28.202  28.754  1.00  0.00     0.074 A 
ATOM     65  C   UNL A   1      44.963  26.962  29.482  1.00  0.00     0.031 C 
ATOM     66  C   UNL A   1      45.406  29.489  29.176  1.00  0.00     0.034 A 
BRANCH  53  67
ATOM     67  C   UNL A   1      44.034  27.494  34.075  1.00  0.00     0.023 A 
ATOM     68  C   UNL A   1      44.332  27.606  35.446  1.00  0.00     0.031 A 
ATOM     69  C   UNL A   1      43.980  26.178  33.569  1.00  0.00     0.131 A 
ATOM     70  C   UNL A   1      44.555  26.480  36.248  1.00  0.00     0.055 A 
ATOM     71  C   UNL A   1      44.136  25.048  34.385  1.00  0.00     0.041 A 
ATOM     72  F   UNL A   1      43.708  25.944  32.276  1.00  0.00    -0.206 F 
ATOM     73  C   UNL A   1      44.422  25.195  35.736  1.00  0.00     0.022 A 
BRANCH  70  74
ATOM     74  S   UNL A   1      45.007  26.676  37.994  1.00  0.00     0.124 S 
ATOM     75  O   UNL A   1      44.228  27.850  38.375  1.00  0.00    -0.237 OA
ATOM     76  O   UNL A   1      44.556  25.406  38.560  1.00  0.00    -0.237 OA
ATOM     77  O   UNL A   1      46.455  26.855  37.955  1.00  0.00    -0.744 OA
ENDBRANCH  70  74
ENDBRANCH  53  67
BRANCH  54  78
ATOM     78  C   UNL A   1      42.754  25.303  26.012  1.00  0.00     0.023 A 
ATOM     79  C   UNL A   1      41.768  24.411  26.468  1.00  0.00     0.031 A 
ATOM     80  C   UNL A   1      43.744  24.791  25.152  1.00  0.00     0.131 A 
ATOM     81  C   UNL A   1      41.830  23.052  26.130  1.00  0.00     0.055 A 
ATOM     82  C   UNL A   1      43.792  23.437  24.800  1.00  0.00     0.041 A 
ATOM     83  F   UNL A   1      44.735  25.581  24.708  1.00  0.00    -0.206 F 
ATOM     84  C   UNL A   1      42.841  22.556  25.306  1.00  0.00     0.022 A 
BRANCH  81  85
ATOM     85  S   UNL A   1      40.647  21.881  26.849  1.00  0.00     0.124 S 
ATOM     86  O   UNL A   1      40.955  20.648  26.128  1.00  0.00    -0.237 OA
ATOM     87  O   UNL A   1      41.030  21.900  28.256  1.00  0.00    -0.237 OA
ATOM     88  O   UNL A   1      39.349  22.471  26.533  1.00  0.00    -0.744 OA
ENDBRANCH  81  85
ENDBRANCH  54  78
BRANCH  66  89
ATOM     89  C   UNL A   1      45.497  30.588  28.136  1.00  0.00     0.023 A 
ATOM     90  C   UNL A   1      46.745  31.211  27.960  1.00  0.00     0.031 A 
ATOM     91  C   UNL A   1      44.394  31.154  27.463  1.00  0.00     0.131 A 
ATOM     92  C   UNL A   1      46.862  32.359  27.167  1.00  0.00     0.055 A 
ATOM     93  C   UNL A   1      44.529  32.257  26.613  1.00  0.00     0.041 A 
ATOM     94  F   UNL A   1      43.147  30.712  27.663  1.00  0.00    -0.206 F 
ATOM     95  C   UNL A   1      45.765  32.875  26.473  1.00  0.00     0.022 A 
BRANCH  92  96
ATOM     96  S   UNL A   1      48.410  33.297  27.138  1.00  0.00     0.124 S 
ATOM     97  O   UNL A   1      48.892  33.142  28.507  1.00  0.00    -0.237 OA
ATOM     98  O   UNL A   1      49.184  32.591  26.118  1.00  0.00    -0.237 OA
ATOM     99  O   UNL A   1      47.998  34.649  26.768  1.00  0.00    -0.744 OA
ENDBRANCH  92  96
ENDBRANCH  66  89
ENDBRANCH  40  41
ENDBRANCH  32  35
ENDBRANCH  30  31
ENDBRANCH  29  30
ENDBRANCH  28  29
ENDBRANCH   1  28
TORSDOF 19
ENDMDL
