MODEL 1
REMARK VINA RESULT:     -13.3      0.000      0.000
REMARK SMILES O=C(NCCCCCCNC(=O)c1ccc(-c2c3nc(c(-c4cc(S(=O)(=O)[O-])ccc4F)c4ccc([nH]4)c(-c4cc(S(=O)(=O)[O-])ccc4F)c4nc(c(-c5cc(S(=O)(=O)[O-])ccc5F)c5ccc2[nH]5)C=C4)C=C3)cc1)c1ccc(NC(=O)[C@@H]2CC=CC[C@H]2C(=O)Nc2cccc([N+](=O)[O-])c2)cc1
REMARK SMILES IDX 5 1 4 2 3 3 1 4 2 5 76 7 77 8 102 9 78 10 101 11 79 12 80 13
REMARK SMILES IDX 81 14 82 16 83 17 84 18 88 19 85 20 87 21 86 22 89 23 90 24
REMARK SMILES IDX 91 25 92 27 93 28 100 29 94 30 96 31 95 32 97 33 98 34 99 35
REMARK SMILES IDX 6 36 7 37 8 38 9 39 10 40 11 41 12 43 13 44 14 45 75 46
REMARK SMILES IDX 15 47 74 48 16 49 17 50 18 51 68 52 19 53 73 54 67 55 69 56
REMARK SMILES IDX 20 57 72 58 66 59 65 60 21 62 53 63 33 64 52 65 34 66 37 67
REMARK SMILES IDX 51 68 70 69 35 70 36 71 50 73 71 74 38 75 22 76 23 77 31 78
REMARK SMILES IDX 24 79 30 80 32 81 29 82 25 83 26 84 27 85 28 86 54 87 55 88
REMARK SMILES IDX 63 89 56 90 62 91 64 92 61 93 57 94 58 95 59 96 60 97 39 98
REMARK SMILES IDX 40 99 48 100 41 101 47 102 49 103 46 104 42 105 43 106
REMARK SMILES IDX 44 107 45 108
REMARK H PARENT 3 6 80 15 91 26 10 42 69 61 37 72
REMARK Flexibility Score: inf
ROOT
ATOM      1  C   UNL A   1      33.752  28.371  25.981  1.00  0.00     0.021 C 
ENDROOT
BRANCH   1   2
ATOM      2  C   UNL A   1      33.513  29.108  24.672  1.00  0.00     0.116 C 
BRANCH   2   3
ATOM      3  N   UNL A   1      32.174  29.680  24.589  1.00  0.00    -0.352 N 
ATOM      4  O   UNL A   1      30.011  29.768  23.903  1.00  0.00    -0.269 OA
ATOM      5  C   UNL A   1      31.036  29.115  24.062  1.00  0.00     0.251 C 
ATOM      6  H   UNL A   1      32.071  30.588  24.957  1.00  0.00     0.163 HD
BRANCH   5   7
ATOM      7  C   UNL A   1      31.073  27.690  23.689  1.00  0.00     0.039 A 
ATOM      8  C   UNL A   1      30.763  26.736  24.651  1.00  0.00     0.016 A 
ATOM      9  C   UNL A   1      31.485  27.295  22.419  1.00  0.00     0.016 A 
ATOM     10  C   UNL A   1      31.003  25.395  24.390  1.00  0.00     0.027 A 
ATOM     11  C   UNL A   1      31.635  25.930  22.144  1.00  0.00     0.027 A 
ATOM     12  C   UNL A   1      31.406  24.962  23.136  1.00  0.00     0.041 A 
BRANCH  12  13
ATOM     13  N   UNL A   1      31.571  23.620  22.767  1.00  0.00    -0.326 N 
ATOM     14  C   UNL A   1      32.461  22.633  23.039  1.00  0.00     0.228 C 
ATOM     15  H   UNL A   1      30.863  23.316  22.156  1.00  0.00     0.169 HD
ATOM     16  O   UNL A   1      32.182  21.517  22.577  1.00  0.00    -0.274 OA
BRANCH  14  17
ATOM     17  C   UNL A   1      33.777  22.783  23.793  1.00  0.00     0.095 C 
ATOM     18  C   UNL A   1      34.878  23.567  23.065  1.00  0.00     0.041 C 
ATOM     19  C   UNL A   1      34.147  21.484  24.528  1.00  0.00     0.095 C 
ATOM     20  C   UNL A   1      36.279  23.165  23.421  1.00  0.00    -0.030 C 
ATOM     21  C   UNL A   1      35.584  21.406  25.067  1.00  0.00     0.041 C 
ATOM     22  C   UNL A   1      36.590  22.208  24.305  1.00  0.00    -0.030 C 
BRANCH  19  23
ATOM     23  C   UNL A   1      33.112  21.051  25.594  1.00  0.00     0.228 C 
ATOM     24  O   UNL A   1      32.766  21.878  26.449  1.00  0.00    -0.274 OA
ATOM     25  N   UNL A   1      32.464  19.841  25.599  1.00  0.00    -0.326 N 
ATOM     26  H   UNL A   1      31.725  19.771  26.245  1.00  0.00     0.169 HD
BRANCH  25  27
ATOM     27  C   UNL A   1      32.689  18.693  24.832  1.00  0.00     0.048 A 
ATOM     28  C   UNL A   1      32.460  18.744  23.457  1.00  0.00     0.026 A 
ATOM     29  C   UNL A   1      33.141  17.509  25.402  1.00  0.00     0.111 A 
ATOM     30  C   UNL A   1      32.869  17.683  22.642  1.00  0.00     0.009 A 
ATOM     31  C   UNL A   1      33.622  16.482  24.587  1.00  0.00     0.271 A 
ATOM     32  C   UNL A   1      33.497  16.566  23.199  1.00  0.00     0.086 A 
BRANCH  31  33
ATOM     33  N   UNL A   1      34.331  15.352  25.200  1.00  0.00     0.062 N 
ATOM     34  O   UNL A   1      35.542  15.480  25.423  1.00  0.00    -0.258 OA
ATOM     35  O   UNL A   1      33.669  14.344  25.490  1.00  0.00    -0.258 OA
ENDBRANCH  31  33
ENDBRANCH  25  27
ENDBRANCH  19  23
ENDBRANCH  14  17
ENDBRANCH  12  13
ENDBRANCH   5   7
ENDBRANCH   2   3
ENDBRANCH   1   2
BRANCH   1  36
ATOM     36  C   UNL A   1      33.240  29.104  27.219  1.00  0.00     0.002 C 
BRANCH  36  37
ATOM     37  C   UNL A   1      33.920  30.445  27.506  1.00  0.00     0.002 C 
BRANCH  37  38
ATOM     38  C   UNL A   1      32.978  31.645  27.636  1.00  0.00     0.021 C 
BRANCH  38  39
ATOM     39  C   UNL A   1      33.557  32.976  27.165  1.00  0.00     0.116 C 
BRANCH  39  40
ATOM     40  N   UNL A   1      33.009  34.108  27.894  1.00  0.00    -0.352 N 
ATOM     41  C   UNL A   1      33.349  34.597  29.130  1.00  0.00     0.251 C 
ATOM     42  H   UNL A   1      32.286  34.595  27.434  1.00  0.00     0.163 HD
ATOM     43  O   UNL A   1      32.654  35.465  29.652  1.00  0.00    -0.269 OA
BRANCH  41  44
ATOM     44  C   UNL A   1      34.529  34.057  29.840  1.00  0.00     0.039 A 
ATOM     45  C   UNL A   1      34.330  33.141  30.875  1.00  0.00     0.014 A 
ATOM     46  C   UNL A   1      35.823  34.454  29.493  1.00  0.00     0.014 A 
ATOM     47  C   UNL A   1      35.432  32.573  31.519  1.00  0.00     0.010 A 
ATOM     48  C   UNL A   1      36.921  33.837  30.089  1.00  0.00     0.010 A 
ATOM     49  C   UNL A   1      36.737  32.891  31.109  1.00  0.00    -0.014 A 
BRANCH  49  50
ATOM     50  C   UNL A   1      37.919  32.248  31.737  1.00  0.00     0.031 A 
ATOM     51  C   UNL A   1      38.621  31.114  31.041  1.00  0.00     0.074 A 
ATOM     52  C   UNL A   1      38.321  32.642  32.961  1.00  0.00     0.049 A 
ATOM     53  N   UNL A   1      39.612  30.370  31.460  1.00  0.00    -0.248 NA
ATOM     54  C   UNL A   1      38.118  30.752  29.708  1.00  0.00     0.031 C 
ATOM     55  C   UNL A   1      37.693  33.700  33.755  1.00  0.00     0.029 A 
ATOM     56  N   UNL A   1      39.341  32.191  33.760  1.00  0.00    -0.354 N 
ATOM     57  C   UNL A   1      39.849  29.447  30.446  1.00  0.00     0.074 A 
ATOM     58  C   UNL A   1      38.848  29.684  29.427  1.00  0.00     0.031 C 
ATOM     59  C   UNL A   1      38.350  33.825  34.918  1.00  0.00     0.029 A 
ATOM     60  C   UNL A   1      39.416  32.829  34.975  1.00  0.00     0.049 A 
ATOM     61  H   UNL A   1      39.961  31.475  33.488  1.00  0.00     0.167 HD
ATOM     62  C   UNL A   1      40.825  28.508  30.361  1.00  0.00     0.034 A 
ATOM     63  C   UNL A   1      40.238  32.628  36.024  1.00  0.00     0.034 A 
ATOM     64  C   UNL A   1      41.814  28.287  31.388  1.00  0.00     0.049 A 
ATOM     65  C   UNL A   1      41.301  31.564  35.922  1.00  0.00     0.074 A 
ATOM     66  C   UNL A   1      42.870  27.392  31.392  1.00  0.00     0.029 A 
ATOM     67  N   UNL A   1      41.868  28.963  32.601  1.00  0.00    -0.354 N 
ATOM     68  N   UNL A   1      41.539  30.727  34.938  1.00  0.00    -0.248 NA
ATOM     69  C   UNL A   1      42.213  31.428  37.064  1.00  0.00     0.031 C 
ATOM     70  C   UNL A   1      43.519  27.480  32.629  1.00  0.00     0.029 A 
ATOM     71  C   UNL A   1      42.918  28.485  33.371  1.00  0.00     0.049 A 
ATOM     72  H   UNL A   1      41.249  29.678  32.876  1.00  0.00     0.167 HD
ATOM     73  C   UNL A   1      42.646  29.982  35.334  1.00  0.00     0.074 A 
ATOM     74  C   UNL A   1      43.037  30.480  36.638  1.00  0.00     0.031 C 
ATOM     75  C   UNL A   1      43.285  28.979  34.677  1.00  0.00     0.034 A 
BRANCH  62  76
ATOM     76  C   UNL A   1      40.843  27.644  29.122  1.00  0.00     0.023 A 
ATOM     77  C   UNL A   1      41.775  27.856  28.090  1.00  0.00     0.031 A 
ATOM     78  C   UNL A   1      39.889  26.625  28.944  1.00  0.00     0.131 A 
ATOM     79  C   UNL A   1      41.676  27.130  26.894  1.00  0.00     0.055 A 
ATOM     80  C   UNL A   1      39.854  25.843  27.786  1.00  0.00     0.041 A 
ATOM     81  F   UNL A   1      38.961  26.385  29.882  1.00  0.00    -0.206 F 
ATOM     82  C   UNL A   1      40.738  26.106  26.744  1.00  0.00     0.022 A 
BRANCH  79  83
ATOM     83  S   UNL A   1      42.680  27.659  25.478  1.00  0.00     0.124 S 
ATOM     84  O   UNL A   1      42.623  26.477  24.620  1.00  0.00    -0.237 OA
ATOM     85  O   UNL A   1      41.958  28.832  25.000  1.00  0.00    -0.237 OA
ATOM     86  O   UNL A   1      43.989  27.928  26.069  1.00  0.00    -0.744 OA
ENDBRANCH  79  83
ENDBRANCH  62  76
BRANCH  63  87
ATOM     87  C   UNL A   1      40.079  33.435  37.267  1.00  0.00     0.023 A 
ATOM     88  C   UNL A   1      39.390  32.930  38.379  1.00  0.00     0.031 A 
ATOM     89  C   UNL A   1      40.602  34.738  37.350  1.00  0.00     0.131 A 
ATOM     90  C   UNL A   1      39.204  33.737  39.512  1.00  0.00     0.055 A 
ATOM     91  C   UNL A   1      40.459  35.519  38.497  1.00  0.00     0.041 A 
ATOM     92  F   UNL A   1      41.277  35.266  36.316  1.00  0.00    -0.206 F 
ATOM     93  C   UNL A   1      39.746  35.022  39.584  1.00  0.00     0.022 A 
BRANCH  90  94
ATOM     94  S   UNL A   1      38.181  33.107  40.871  1.00  0.00     0.124 S 
ATOM     95  O   UNL A   1      36.855  33.099  40.264  1.00  0.00    -0.237 OA
ATOM     96  O   UNL A   1      38.783  31.802  41.122  1.00  0.00    -0.237 OA
ATOM     97  O   UNL A   1      38.377  34.095  41.930  1.00  0.00    -0.744 OA
ENDBRANCH  90  94
ENDBRANCH  63  87
BRANCH  75  98
ATOM     98  C   UNL A   1      44.497  28.384  35.352  1.00  0.00     0.023 A 
ATOM     99  C   UNL A   1      44.389  27.322  36.266  1.00  0.00     0.031 A 
ATOM    100  C   UNL A   1      45.779  28.898  35.083  1.00  0.00     0.131 A 
ATOM    101  C   UNL A   1      45.535  26.844  36.921  1.00  0.00     0.055 A 
ATOM    102  C   UNL A   1      46.922  28.378  35.692  1.00  0.00     0.041 A 
ATOM    103  F   UNL A   1      45.941  29.914  34.221  1.00  0.00    -0.206 F 
ATOM    104  C   UNL A   1      46.802  27.353  36.627  1.00  0.00     0.022 A 
BRANCH 101 105
ATOM    105  S   UNL A   1      45.336  25.604  38.231  1.00  0.00     0.124 S 
ATOM    106  O   UNL A   1      44.177  24.851  37.762  1.00  0.00    -0.237 OA
ATOM    107  O   UNL A   1      46.613  24.900  38.190  1.00  0.00    -0.237 OA
ATOM    108  O   UNL A   1      45.111  26.408  39.432  1.00  0.00    -0.744 OA
ENDBRANCH 101 105
ENDBRANCH  75  98
ENDBRANCH  49  50
ENDBRANCH  41  44
ENDBRANCH  39  40
ENDBRANCH  38  39
ENDBRANCH  37  38
ENDBRANCH  36  37
ENDBRANCH   1  36
TORSDOF 21
ENDMDL
MODEL 2
REMARK VINA RESULT:     -12.9      5.612     10.779
REMARK SMILES O=C(NCCCCCCNC(=O)c1ccc(-c2c3nc(c(-c4cc(S(=O)(=O)[O-])ccc4F)c4ccc([nH]4)c(-c4cc(S(=O)(=O)[O-])ccc4F)c4nc(c(-c5cc(S(=O)(=O)[O-])ccc5F)c5ccc2[nH]5)C=C4)C=C3)cc1)c1ccc(NC(=O)[C@@H]2CC=CC[C@H]2C(=O)Nc2cccc([N+](=O)[O-])c2)cc1
REMARK SMILES IDX 5 1 4 2 3 3 1 4 2 5 76 7 77 8 102 9 78 10 101 11 79 12 80 13
REMARK SMILES IDX 81 14 82 16 83 17 84 18 88 19 85 20 87 21 86 22 89 23 90 24
REMARK SMILES IDX 91 25 92 27 93 28 100 29 94 30 96 31 95 32 97 33 98 34 99 35
REMARK SMILES IDX 6 36 7 37 8 38 9 39 10 40 11 41 12 43 13 44 14 45 75 46
REMARK SMILES IDX 15 47 74 48 16 49 17 50 18 51 68 52 19 53 73 54 67 55 69 56
REMARK SMILES IDX 20 57 72 58 66 59 65 60 21 62 53 63 33 64 52 65 34 66 37 67
REMARK SMILES IDX 51 68 70 69 35 70 36 71 50 73 71 74 38 75 22 76 23 77 31 78
REMARK SMILES IDX 24 79 30 80 32 81 29 82 25 83 26 84 27 85 28 86 54 87 55 88
REMARK SMILES IDX 63 89 56 90 62 91 64 92 61 93 57 94 58 95 59 96 60 97 39 98
REMARK SMILES IDX 40 99 48 100 41 101 47 102 49 103 46 104 42 105 43 106
REMARK SMILES IDX 44 107 45 108
REMARK H PARENT 3 6 80 15 91 26 10 42 69 61 37 72
REMARK Flexibility Score: inf
ROOT
ATOM      1  C   UNL A   1      38.301  24.066  26.699  1.00  0.00     0.021 C 
ENDROOT
BRANCH   1   2
ATOM      2  C   UNL A   1      37.066  23.719  25.881  1.00  0.00     0.116 C 
BRANCH   2   3
ATOM      3  N   UNL A   1      37.038  22.317  25.478  1.00  0.00    -0.352 N 
ATOM      4  O   UNL A   1      36.041  20.341  24.967  1.00  0.00    -0.269 OA
ATOM      5  C   UNL A   1      35.950  21.553  25.124  1.00  0.00     0.251 C 
ATOM      6  H   UNL A   1      37.909  21.858  25.458  1.00  0.00     0.163 HD
BRANCH   5   7
ATOM      7  C   UNL A   1      34.656  22.230  24.932  1.00  0.00     0.039 A 
ATOM      8  C   UNL A   1      34.386  22.829  23.707  1.00  0.00     0.016 A 
ATOM      9  C   UNL A   1      33.744  22.338  25.980  1.00  0.00     0.016 A 
ATOM     10  C   UNL A   1      33.278  23.654  23.576  1.00  0.00     0.027 A 
ATOM     11  C   UNL A   1      32.584  23.103  25.799  1.00  0.00     0.027 A 
ATOM     12  C   UNL A   1      32.345  23.782  24.593  1.00  0.00     0.041 A 
BRANCH  12  13
ATOM     13  N   UNL A   1      31.154  24.514  24.499  1.00  0.00    -0.326 N 
ATOM     14  C   UNL A   1      30.776  25.798  24.716  1.00  0.00     0.228 C 
ATOM     15  H   UNL A   1      30.401  23.955  24.201  1.00  0.00     0.169 HD
ATOM     16  O   UNL A   1      29.606  26.072  24.406  1.00  0.00    -0.274 OA
BRANCH  14  17
ATOM     17  C   UNL A   1      31.620  26.896  25.352  1.00  0.00     0.095 C 
ATOM     18  C   UNL A   1      31.761  26.830  26.879  1.00  0.00     0.041 C 
ATOM     19  C   UNL A   1      31.356  28.256  24.684  1.00  0.00     0.095 C 
ATOM     20  C   UNL A   1      31.959  28.157  27.552  1.00  0.00    -0.030 C 
ATOM     21  C   UNL A   1      31.909  29.484  25.425  1.00  0.00     0.041 C 
ATOM     22  C   UNL A   1      32.023  29.329  26.908  1.00  0.00    -0.030 C 
BRANCH  19  23
ATOM     23  C   UNL A   1      31.706  28.292  23.178  1.00  0.00     0.228 C 
ATOM     24  O   UNL A   1      32.774  27.786  22.808  1.00  0.00    -0.274 OA
ATOM     25  N   UNL A   1      30.863  28.755  22.197  1.00  0.00    -0.326 N 
ATOM     26  H   UNL A   1      31.160  28.571  21.277  1.00  0.00     0.169 HD
BRANCH  25  27
ATOM     27  C   UNL A   1      29.651  29.444  22.299  1.00  0.00     0.048 A 
ATOM     28  C   UNL A   1      28.526  28.767  22.769  1.00  0.00     0.026 A 
ATOM     29  C   UNL A   1      29.542  30.786  21.955  1.00  0.00     0.111 A 
ATOM     30  C   UNL A   1      27.360  29.479  23.074  1.00  0.00     0.009 A 
ATOM     31  C   UNL A   1      28.410  31.513  22.331  1.00  0.00     0.271 A 
ATOM     32  C   UNL A   1      27.314  30.864  22.902  1.00  0.00     0.086 A 
BRANCH  31  33
ATOM     33  N   UNL A   1      28.417  32.975  22.193  1.00  0.00     0.062 N 
ATOM     34  O   UNL A   1      29.137  33.626  22.962  1.00  0.00    -0.258 OA
ATOM     35  O   UNL A   1      27.725  33.473  21.292  1.00  0.00    -0.258 OA
ENDBRANCH  31  33
ENDBRANCH  25  27
ENDBRANCH  19  23
ENDBRANCH  14  17
ENDBRANCH  12  13
ENDBRANCH   5   7
ENDBRANCH   2   3
ENDBRANCH   1   2
BRANCH   1  36
ATOM     36  C   UNL A   1      39.589  23.410  26.204  1.00  0.00     0.002 C 
BRANCH  36  37
ATOM     37  C   UNL A   1      40.119  22.276  27.086  1.00  0.00     0.002 C 
BRANCH  37  38
ATOM     38  C   UNL A   1      40.190  20.901  26.416  1.00  0.00     0.021 C 
BRANCH  38  39
ATOM     39  C   UNL A   1      41.180  19.924  27.045  1.00  0.00     0.116 C 
BRANCH  39  40
ATOM     40  N   UNL A   1      42.127  19.396  26.079  1.00  0.00    -0.352 N 
ATOM     41  C   UNL A   1      43.142  20.035  25.412  1.00  0.00     0.251 C 
ATOM     42  H   UNL A   1      42.027  18.438  25.872  1.00  0.00     0.163 HD
ATOM     43  O   UNL A   1      43.733  19.455  24.505  1.00  0.00    -0.269 OA
BRANCH  41  44
ATOM     44  C   UNL A   1      43.498  21.426  25.766  1.00  0.00     0.039 A 
ATOM     45  C   UNL A   1      43.345  22.426  24.804  1.00  0.00     0.014 A 
ATOM     46  C   UNL A   1      43.984  21.745  27.038  1.00  0.00     0.014 A 
ATOM     47  C   UNL A   1      43.619  23.755  25.135  1.00  0.00     0.010 A 
ATOM     48  C   UNL A   1      44.192  23.077  27.388  1.00  0.00     0.010 A 
ATOM     49  C   UNL A   1      44.012  24.096  26.439  1.00  0.00    -0.014 A 
BRANCH  49  50
ATOM     50  C   UNL A   1      44.243  25.511  26.828  1.00  0.00     0.031 A 
ATOM     51  C   UNL A   1      45.624  26.102  26.741  1.00  0.00     0.074 A 
ATOM     52  C   UNL A   1      43.224  26.243  27.318  1.00  0.00     0.049 A 
ATOM     53  N   UNL A   1      46.045  27.284  27.112  1.00  0.00    -0.248 NA
ATOM     54  C   UNL A   1      46.675  25.233  26.193  1.00  0.00     0.031 C 
ATOM     55  C   UNL A   1      41.850  25.767  27.491  1.00  0.00     0.029 A 
ATOM     56  N   UNL A   1      43.186  27.537  27.775  1.00  0.00    -0.354 N 
ATOM     57  C   UNL A   1      47.411  27.301  26.848  1.00  0.00     0.074 A 
ATOM     58  C   UNL A   1      47.754  25.983  26.353  1.00  0.00     0.031 C 
ATOM     59  C   UNL A   1      41.103  26.757  28.003  1.00  0.00     0.029 A 
ATOM     60  C   UNL A   1      41.950  27.924  28.236  1.00  0.00     0.049 A 
ATOM     61  H   UNL A   1      43.971  28.131  27.774  1.00  0.00     0.167 HD
ATOM     62  C   UNL A   1      48.291  28.325  26.979  1.00  0.00     0.034 A 
ATOM     63  C   UNL A   1      41.544  29.080  28.797  1.00  0.00     0.034 A 
ATOM     64  C   UNL A   1      47.930  29.632  27.475  1.00  0.00     0.049 A 
ATOM     65  C   UNL A   1      42.541  30.200  28.958  1.00  0.00     0.074 A 
ATOM     66  C   UNL A   1      48.728  30.754  27.615  1.00  0.00     0.029 A 
ATOM     67  N   UNL A   1      46.663  29.992  27.920  1.00  0.00    -0.354 N 
ATOM     68  N   UNL A   1      43.821  30.214  28.664  1.00  0.00    -0.248 NA
ATOM     69  C   UNL A   1      42.036  31.461  29.514  1.00  0.00     0.031 C 
ATOM     70  C   UNL A   1      47.964  31.769  28.203  1.00  0.00     0.029 A 
ATOM     71  C   UNL A   1      46.666  31.308  28.360  1.00  0.00     0.049 A 
ATOM     72  H   UNL A   1      45.877  29.400  27.922  1.00  0.00     0.167 HD
ATOM     73  C   UNL A   1      44.267  31.495  28.976  1.00  0.00     0.074 A 
ATOM     74  C   UNL A   1      43.116  32.227  29.464  1.00  0.00     0.031 C 
ATOM     75  C   UNL A   1      45.515  32.020  28.863  1.00  0.00     0.034 A 
BRANCH  62  76
ATOM     76  C   UNL A   1      49.728  28.052  26.602  1.00  0.00     0.023 A 
ATOM     77  C   UNL A   1      50.183  28.205  25.279  1.00  0.00     0.031 A 
ATOM     78  C   UNL A   1      50.647  27.588  27.560  1.00  0.00     0.131 A 
ATOM     79  C   UNL A   1      51.483  27.809  24.934  1.00  0.00     0.055 A 
ATOM     80  C   UNL A   1      51.968  27.282  27.226  1.00  0.00     0.041 A 
ATOM     81  F   UNL A   1      50.270  27.402  28.835  1.00  0.00    -0.206 F 
ATOM     82  C   UNL A   1      52.388  27.373  25.903  1.00  0.00     0.022 A 
BRANCH  79  83
ATOM     83  S   UNL A   1      51.917  27.713  23.174  1.00  0.00     0.124 S 
ATOM     84  O   UNL A   1      53.114  26.877  23.212  1.00  0.00    -0.237 OA
ATOM     85  O   UNL A   1      50.728  27.104  22.589  1.00  0.00    -0.237 OA
ATOM     86  O   UNL A   1      52.152  29.107  22.804  1.00  0.00    -0.744 OA
ENDBRANCH  79  83
ENDBRANCH  62  76
BRANCH  63  87
ATOM     87  C   UNL A   1      40.138  29.234  29.265  1.00  0.00     0.023 A 
ATOM     88  C   UNL A   1      39.802  29.096  30.620  1.00  0.00     0.031 A 
ATOM     89  C   UNL A   1      39.102  29.502  28.352  1.00  0.00     0.131 A 
ATOM     90  C   UNL A   1      38.460  29.186  31.020  1.00  0.00     0.055 A 
ATOM     91  C   UNL A   1      37.775  29.641  28.761  1.00  0.00     0.041 A 
ATOM     92  F   UNL A   1      39.370  29.651  27.044  1.00  0.00    -0.206 F 
ATOM     93  C   UNL A   1      37.447  29.471  30.103  1.00  0.00     0.022 A 
BRANCH  90  94
ATOM     94  S   UNL A   1      38.046  28.855  32.754  1.00  0.00     0.124 S 
ATOM     95  O   UNL A   1      36.717  29.446  32.859  1.00  0.00    -0.237 OA
ATOM     96  O   UNL A   1      38.109  27.399  32.808  1.00  0.00    -0.237 OA
ATOM     97  O   UNL A   1      39.098  29.550  33.494  1.00  0.00    -0.744 OA
ENDBRANCH  90  94
ENDBRANCH  63  87
BRANCH  75  98
ATOM     98  C   UNL A   1      45.682  33.471  29.245  1.00  0.00     0.023 A 
ATOM     99  C   UNL A   1      45.467  34.509  28.323  1.00  0.00     0.031 A 
ATOM    100  C   UNL A   1      46.076  33.817  30.550  1.00  0.00     0.131 A 
ATOM    101  C   UNL A   1      45.700  35.841  28.702  1.00  0.00     0.055 A 
ATOM    102  C   UNL A   1      46.247  35.146  30.940  1.00  0.00     0.041 A 
ATOM    103  F   UNL A   1      46.298  32.866  31.472  1.00  0.00    -0.206 F 
ATOM    104  C   UNL A   1      46.072  36.166  30.008  1.00  0.00     0.022 A 
BRANCH 101 105
ATOM    105  S   UNL A   1      45.596  37.137  27.437  1.00  0.00     0.124 S 
ATOM    106  O   UNL A   1      46.401  38.202  28.028  1.00  0.00    -0.237 OA
ATOM    107  O   UNL A   1      46.169  36.479  26.268  1.00  0.00    -0.237 OA
ATOM    108  O   UNL A   1      44.164  37.418  27.350  1.00  0.00    -0.744 OA
ENDBRANCH 101 105
ENDBRANCH  75  98
ENDBRANCH  49  50
ENDBRANCH  41  44
ENDBRANCH  39  40
ENDBRANCH  38  39
ENDBRANCH  37  38
ENDBRANCH  36  37
ENDBRANCH   1  36
TORSDOF 21
ENDMDL
MODEL 3
REMARK VINA RESULT:     -12.9      1.648      7.237
REMARK SMILES O=C(NCCCCCCNC(=O)c1ccc(-c2c3nc(c(-c4cc(S(=O)(=O)[O-])ccc4F)c4ccc([nH]4)c(-c4cc(S(=O)(=O)[O-])ccc4F)c4nc(c(-c5cc(S(=O)(=O)[O-])ccc5F)c5ccc2[nH]5)C=C4)C=C3)cc1)c1ccc(NC(=O)[C@@H]2CC=CC[C@H]2C(=O)Nc2cccc([N+](=O)[O-])c2)cc1
REMARK SMILES IDX 5 1 4 2 3 3 1 4 2 5 76 7 77 8 102 9 78 10 101 11 79 12 80 13
REMARK SMILES IDX 81 14 82 16 83 17 84 18 88 19 85 20 87 21 86 22 89 23 90 24
REMARK SMILES IDX 91 25 92 27 93 28 100 29 94 30 96 31 95 32 97 33 98 34 99 35
REMARK SMILES IDX 6 36 7 37 8 38 9 39 10 40 11 41 12 43 13 44 14 45 75 46
REMARK SMILES IDX 15 47 74 48 16 49 17 50 18 51 68 52 19 53 73 54 67 55 69 56
REMARK SMILES IDX 20 57 72 58 66 59 65 60 21 62 53 63 33 64 52 65 34 66 37 67
REMARK SMILES IDX 51 68 70 69 35 70 36 71 50 73 71 74 38 75 22 76 23 77 31 78
REMARK SMILES IDX 24 79 30 80 32 81 29 82 25 83 26 84 27 85 28 86 54 87 55 88
REMARK SMILES IDX 63 89 56 90 62 91 64 92 61 93 57 94 58 95 59 96 60 97 39 98
REMARK SMILES IDX 40 99 48 100 41 101 47 102 49 103 46 104 42 105 43 106
REMARK SMILES IDX 44 107 45 108
REMARK H PARENT 3 6 80 15 91 26 10 42 69 61 37 72
REMARK Flexibility Score: inf
ROOT
ATOM      1  C   UNL A   1      33.743  29.225  26.380  1.00  0.00     0.021 C 
ENDROOT
BRANCH   1   2
ATOM      2  C   UNL A   1      33.293  29.129  24.931  1.00  0.00     0.116 C 
BRANCH   2   3
ATOM      3  N   UNL A   1      31.966  29.698  24.718  1.00  0.00    -0.352 N 
ATOM      4  O   UNL A   1      29.896  29.805  23.792  1.00  0.00    -0.269 OA
ATOM      5  C   UNL A   1      30.902  29.152  24.040  1.00  0.00     0.251 C 
ATOM      6  H   UNL A   1      31.813  30.588  25.111  1.00  0.00     0.163 HD
BRANCH   5   7
ATOM      7  C   UNL A   1      30.996  27.744  23.613  1.00  0.00     0.039 A 
ATOM      8  C   UNL A   1      30.568  26.749  24.483  1.00  0.00     0.016 A 
ATOM      9  C   UNL A   1      31.573  27.406  22.391  1.00  0.00     0.016 A 
ATOM     10  C   UNL A   1      30.847  25.420  24.197  1.00  0.00     0.027 A 
ATOM     11  C   UNL A   1      31.765  26.054  22.079  1.00  0.00     0.027 A 
ATOM     12  C   UNL A   1      31.414  25.043  22.989  1.00  0.00     0.041 A 
BRANCH  12  13
ATOM     13  N   UNL A   1      31.634  23.719  22.586  1.00  0.00    -0.326 N 
ATOM     14  C   UNL A   1      32.524  22.741  22.886  1.00  0.00     0.228 C 
ATOM     15  H   UNL A   1      30.976  23.424  21.916  1.00  0.00     0.169 HD
ATOM     16  O   UNL A   1      32.302  21.636  22.367  1.00  0.00    -0.274 OA
BRANCH  14  17
ATOM     17  C   UNL A   1      33.780  22.889  23.736  1.00  0.00     0.095 C 
ATOM     18  C   UNL A   1      34.932  23.674  23.093  1.00  0.00     0.041 C 
ATOM     19  C   UNL A   1      34.096  21.587  24.493  1.00  0.00     0.095 C 
ATOM     20  C   UNL A   1      36.303  23.271  23.550  1.00  0.00    -0.030 C 
ATOM     21  C   UNL A   1      35.489  21.508  25.136  1.00  0.00     0.041 C 
ATOM     22  C   UNL A   1      36.548  22.313  24.452  1.00  0.00    -0.030 C 
BRANCH  19  23
ATOM     23  C   UNL A   1      32.985  21.152  25.478  1.00  0.00     0.228 C 
ATOM     24  O   UNL A   1      32.543  21.990  26.275  1.00  0.00    -0.274 OA
ATOM     25  N   UNL A   1      32.374  19.922  25.463  1.00  0.00    -0.326 N 
ATOM     26  H   UNL A   1      31.584  19.846  26.045  1.00  0.00     0.169 HD
BRANCH  25  27
ATOM     27  C   UNL A   1      32.697  18.762  24.752  1.00  0.00     0.048 A 
ATOM     28  C   UNL A   1      32.401  18.699  23.391  1.00  0.00     0.026 A 
ATOM     29  C   UNL A   1      33.312  17.676  25.365  1.00  0.00     0.111 A 
ATOM     30  C   UNL A   1      32.895  17.642  22.618  1.00  0.00     0.009 A 
ATOM     31  C   UNL A   1      33.874  16.662  24.587  1.00  0.00     0.271 A 
ATOM     32  C   UNL A   1      33.676  16.643  23.205  1.00  0.00     0.086 A 
BRANCH  31  33
ATOM     33  N   UNL A   1      34.738  15.662  25.225  1.00  0.00     0.062 N 
ATOM     34  O   UNL A   1      35.859  16.025  25.607  1.00  0.00    -0.258 OA
ATOM     35  O   UNL A   1      34.285  14.518  25.375  1.00  0.00    -0.258 OA
ENDBRANCH  31  33
ENDBRANCH  25  27
ENDBRANCH  19  23
ENDBRANCH  14  17
ENDBRANCH  12  13
ENDBRANCH   5   7
ENDBRANCH   2   3
ENDBRANCH   1   2
BRANCH   1  36
ATOM     36  C   UNL A   1      32.949  30.223  27.222  1.00  0.00     0.002 C 
BRANCH  36  37
ATOM     37  C   UNL A   1      33.714  31.488  27.619  1.00  0.00     0.002 C 
BRANCH  37  38
ATOM     38  C   UNL A   1      32.911  32.790  27.549  1.00  0.00     0.021 C 
BRANCH  38  39
ATOM     39  C   UNL A   1      33.699  34.056  27.873  1.00  0.00     0.116 C 
BRANCH  39  40
ATOM     40  N   UNL A   1      33.251  34.689  29.101  1.00  0.00    -0.352 N 
ATOM     41  C   UNL A   1      33.691  34.506  30.388  1.00  0.00     0.251 C 
ATOM     42  H   UNL A   1      32.525  35.346  28.995  1.00  0.00     0.163 HD
ATOM     43  O   UNL A   1      33.071  35.013  31.319  1.00  0.00    -0.269 OA
BRANCH  41  44
ATOM     44  C   UNL A   1      34.887  33.676  30.650  1.00  0.00     0.039 A 
ATOM     45  C   UNL A   1      36.132  34.134  30.215  1.00  0.00     0.014 A 
ATOM     46  C   UNL A   1      34.783  32.452  31.318  1.00  0.00     0.014 A 
ATOM     47  C   UNL A   1      37.282  33.395  30.504  1.00  0.00     0.010 A 
ATOM     48  C   UNL A   1      35.936  31.751  31.664  1.00  0.00     0.010 A 
ATOM     49  C   UNL A   1      37.197  32.215  31.260  1.00  0.00    -0.014 A 
BRANCH  49  50
ATOM     50  C   UNL A   1      38.416  31.451  31.634  1.00  0.00     0.031 A 
ATOM     51  C   UNL A   1      39.155  31.783  32.901  1.00  0.00     0.074 A 
ATOM     52  C   UNL A   1      38.891  30.505  30.802  1.00  0.00     0.049 A 
ATOM     53  N   UNL A   1      40.279  31.293  33.358  1.00  0.00    -0.248 NA
ATOM     54  C   UNL A   1      38.564  32.827  33.750  1.00  0.00     0.031 C 
ATOM     55  C   UNL A   1      38.286  30.124  29.523  1.00  0.00     0.029 A 
ATOM     56  N   UNL A   1      39.998  29.699  30.896  1.00  0.00    -0.354 N 
ATOM     57  C   UNL A   1      40.535  31.972  34.545  1.00  0.00     0.074 A 
ATOM     58  C   UNL A   1      39.483  32.957  34.694  1.00  0.00     0.031 C 
ATOM     59  C   UNL A   1      39.021  29.152  28.962  1.00  0.00     0.029 A 
ATOM     60  C   UNL A   1      40.172  28.870  29.814  1.00  0.00     0.049 A 
ATOM     61  H   UNL A   1      40.611  29.716  31.667  1.00  0.00     0.167 HD
ATOM     62  C   UNL A   1      41.537  31.776  35.439  1.00  0.00     0.034 A 
ATOM     63  C   UNL A   1      41.154  27.992  29.530  1.00  0.00     0.034 A 
ATOM     64  C   UNL A   1      42.576  30.789  35.272  1.00  0.00     0.049 A 
ATOM     65  C   UNL A   1      42.272  27.803  30.523  1.00  0.00     0.074 A 
ATOM     66  C   UNL A   1      43.617  30.478  36.129  1.00  0.00     0.029 A 
ATOM     67  N   UNL A   1      42.713  29.956  34.168  1.00  0.00    -0.354 N 
ATOM     68  N   UNL A   1      42.477  28.424  31.662  1.00  0.00    -0.248 NA
ATOM     69  C   UNL A   1      43.282  26.788  30.199  1.00  0.00     0.031 C 
ATOM     70  C   UNL A   1      44.418  29.506  35.517  1.00  0.00     0.029 A 
ATOM     71  C   UNL A   1      43.835  29.153  34.310  1.00  0.00     0.049 A 
ATOM     72  H   UNL A   1      42.102  29.938  33.396  1.00  0.00     0.167 HD
ATOM     73  C   UNL A   1      43.627  27.855  32.202  1.00  0.00     0.074 A 
ATOM     74  C   UNL A   1      44.059  26.832  31.272  1.00  0.00     0.031 C 
ATOM     75  C   UNL A   1      44.265  28.148  33.365  1.00  0.00     0.034 A 
BRANCH  62  76
ATOM     76  C   UNL A   1      41.556  32.669  36.658  1.00  0.00     0.023 A 
ATOM     77  C   UNL A   1      40.852  32.330  37.828  1.00  0.00     0.031 A 
ATOM     78  C   UNL A   1      42.246  33.894  36.640  1.00  0.00     0.131 A 
ATOM     79  C   UNL A   1      40.775  33.244  38.889  1.00  0.00     0.055 A 
ATOM     80  C   UNL A   1      42.240  34.759  37.737  1.00  0.00     0.041 A 
ATOM     81  F   UNL A   1      42.921  34.283  35.547  1.00  0.00    -0.206 F 
ATOM     82  C   UNL A   1      41.486  34.445  38.864  1.00  0.00     0.022 A 
BRANCH  79  83
ATOM     83  S   UNL A   1      39.597  32.912  40.230  1.00  0.00     0.124 S 
ATOM     84  O   UNL A   1      39.426  34.243  40.806  1.00  0.00    -0.237 OA
ATOM     85  O   UNL A   1      38.447  32.372  39.512  1.00  0.00    -0.237 OA
ATOM     86  O   UNL A   1      40.307  31.959  41.080  1.00  0.00    -0.744 OA
ENDBRANCH  79  83
ENDBRANCH  62  76
BRANCH  63  87
ATOM     87  C   UNL A   1      41.136  27.237  28.245  1.00  0.00     0.023 A 
ATOM     88  C   UNL A   1      40.840  25.866  28.211  1.00  0.00     0.031 A 
ATOM     89  C   UNL A   1      41.437  27.878  27.029  1.00  0.00     0.131 A 
ATOM     90  C   UNL A   1      40.892  25.170  26.993  1.00  0.00     0.055 A 
ATOM     91  C   UNL A   1      41.437  27.193  25.814  1.00  0.00     0.041 A 
ATOM     92  F   UNL A   1      41.719  29.191  27.005  1.00  0.00    -0.206 F 
ATOM     93  C   UNL A   1      41.175  25.826  25.794  1.00  0.00     0.022 A 
BRANCH  90  94
ATOM     94  S   UNL A   1      40.651  23.373  27.008  1.00  0.00     0.124 S 
ATOM     95  O   UNL A   1      39.237  23.260  26.668  1.00  0.00    -0.237 OA
ATOM     96  O   UNL A   1      41.596  22.933  25.988  1.00  0.00    -0.237 OA
ATOM     97  O   UNL A   1      40.995  22.995  28.378  1.00  0.00    -0.744 OA
ENDBRANCH  90  94
ENDBRANCH  63  87
BRANCH  75  98
ATOM     98  C   UNL A   1      45.480  27.320  33.706  1.00  0.00     0.023 A 
ATOM     99  C   UNL A   1      45.372  26.087  34.371  1.00  0.00     0.031 A 
ATOM    100  C   UNL A   1      46.766  27.780  33.369  1.00  0.00     0.131 A 
ATOM    101  C   UNL A   1      46.532  25.381  34.728  1.00  0.00     0.055 A 
ATOM    102  C   UNL A   1      47.913  27.045  33.673  1.00  0.00     0.041 A 
ATOM    103  F   UNL A   1      46.928  28.953  32.736  1.00  0.00    -0.206 F 
ATOM    104  C   UNL A   1      47.800  25.844  34.368  1.00  0.00     0.022 A 
BRANCH 101 105
ATOM    105  S   UNL A   1      46.366  23.891  35.749  1.00  0.00     0.124 S 
ATOM    106  O   UNL A   1      46.324  22.836  34.741  1.00  0.00    -0.237 OA
ATOM    107  O   UNL A   1      47.571  23.940  36.570  1.00  0.00    -0.237 OA
ATOM    108  O   UNL A   1      45.114  24.109  36.472  1.00  0.00    -0.744 OA
ENDBRANCH 101 105
ENDBRANCH  75  98
ENDBRANCH  49  50
ENDBRANCH  41  44
ENDBRANCH  39  40
ENDBRANCH  38  39
ENDBRANCH  37  38
ENDBRANCH  36  37
ENDBRANCH   1  36
TORSDOF 21
ENDMDL
