MODEL 1
REMARK VINA RESULT:     -11.7      0.000      0.000
REMARK SMILES O=C(Cc1ccccc1C(=O)NCCCCCCNC(=O)c1ccc(-c2c3nc(c(-c4cc(S(=O)(=O)[O-])ccc4F)c4ccc([nH]4)c(-c4cc(S(=O)(=O)[O-])ccc4F)c4nc(c(-c5cc(S(=O)(=O)[O-])ccc5F)c5ccc2[nH]5)C=C4)C=C3)cc1)Nc1cccc(OC[C@@H]2CCCO2)c1
REMARK SMILES IDX 14 1 13 2 12 3 10 4 11 5 9 7 4 8 5 9 6 10 8 11 7 12 3 13
REMARK SMILES IDX 2 14 1 15 85 16 86 18 87 19 98 20 88 21 90 22 89 23 91 24
REMARK SMILES IDX 92 25 93 26 94 27 97 28 95 29 96 30 15 31 16 32 17 33 18 34
REMARK SMILES IDX 19 35 20 36 21 38 22 39 23 40 84 41 24 42 83 43 25 44 26 45
REMARK SMILES IDX 27 46 77 47 28 48 82 49 76 50 78 51 29 52 81 53 75 54 74 55
REMARK SMILES IDX 30 57 62 58 42 59 61 60 43 61 46 62 60 63 79 64 44 65 45 66
REMARK SMILES IDX 59 68 80 69 47 70 31 71 32 72 40 73 33 74 39 75 41 76 38 77
REMARK SMILES IDX 34 78 35 79 36 80 37 81 63 82 64 83 72 84 65 85 71 86 73 87
REMARK SMILES IDX 70 88 66 89 67 90 68 91 69 92 48 93 49 94 57 95 50 96 56 97
REMARK SMILES IDX 58 98 55 99 51 100 52 101 53 102 54 103
REMARK H PARENT 12 6 85 17 19 37 78 56 46 67
REMARK Flexibility Score: inf
ROOT
ATOM      1  C   UNL A   1      34.625  24.275  25.308  1.00  0.00     0.021 C 
ENDROOT
BRANCH   1   2
ATOM      2  C   UNL A   1      33.624  25.371  25.713  1.00  0.00     0.116 C 
BRANCH   2   3
ATOM      3  N   UNL A   1      32.496  24.899  26.504  1.00  0.00    -0.352 N 
ATOM      4  C   UNL A   1      31.760  23.748  26.467  1.00  0.00     0.251 C 
ATOM      5  O   UNL A   1      30.886  23.546  27.309  1.00  0.00    -0.269 OA
ATOM      6  H   UNL A   1      32.208  25.531  27.201  1.00  0.00     0.163 HD
BRANCH   4   7
ATOM      7  C   UNL A   1      32.076  22.670  25.513  1.00  0.00     0.043 A 
ATOM      8  C   UNL A   1      31.599  22.576  24.193  1.00  0.00    -0.026 A 
ATOM      9  C   UNL A   1      32.109  21.523  23.399  1.00  0.00     0.005 A 
ATOM     10  C   UNL A   1      32.942  20.533  23.927  1.00  0.00     0.000 A 
ATOM     11  C   UNL A   1      32.871  21.640  26.055  1.00  0.00     0.014 A 
ATOM     12  C   UNL A   1      33.291  20.569  25.269  1.00  0.00     0.001 A 
BRANCH   8  13
ATOM     13  C   UNL A   1      30.614  23.498  23.508  1.00  0.00     0.136 C 
BRANCH  13  14
ATOM     14  C   UNL A   1      30.970  24.967  23.346  1.00  0.00     0.228 C 
ATOM     15  O   UNL A   1      31.885  25.316  22.609  1.00  0.00    -0.274 OA
ATOM     16  N   UNL A   1      30.171  25.840  24.053  1.00  0.00    -0.326 N 
ATOM     17  H   UNL A   1      29.498  25.451  24.658  1.00  0.00     0.169 HD
BRANCH  16  18
ATOM     18  C   UNL A   1      30.237  27.254  23.979  1.00  0.00     0.044 A 
ATOM     19  C   UNL A   1      29.438  27.875  23.018  1.00  0.00     0.026 A 
ATOM     20  C   UNL A   1      31.047  28.047  24.812  1.00  0.00     0.072 A 
ATOM     21  C   UNL A   1      29.393  29.266  22.935  1.00  0.00     0.006 A 
ATOM     22  C   UNL A   1      31.027  29.442  24.719  1.00  0.00     0.121 A 
ATOM     23  C   UNL A   1      30.181  30.041  23.786  1.00  0.00     0.046 A 
BRANCH  22  24
ATOM     24  O   UNL A   1      31.776  30.332  25.445  1.00  0.00    -0.491 OA
BRANCH  24  25
ATOM     25  C   UNL A   1      32.421  29.877  26.636  1.00  0.00     0.261 C 
BRANCH  25  26
ATOM     26  C   UNL A   1      33.939  30.146  26.645  1.00  0.00     0.156 C 
ATOM     27  C   UNL A   1      34.743  28.929  27.091  1.00  0.00     0.038 C 
ATOM     28  O   UNL A   1      34.319  31.233  27.510  1.00  0.00    -0.375 OA
ATOM     29  C   UNL A   1      35.910  29.545  27.823  1.00  0.00     0.031 C 
ATOM     30  C   UNL A   1      35.266  30.751  28.465  1.00  0.00     0.161 C 
ENDBRANCH  25  26
ENDBRANCH  24  25
ENDBRANCH  22  24
ENDBRANCH  16  18
ENDBRANCH  13  14
ENDBRANCH   8  13
ENDBRANCH   4   7
ENDBRANCH   2   3
ENDBRANCH   1   2
BRANCH   1  31
ATOM     31  C   UNL A   1      34.891  24.152  23.801  1.00  0.00     0.002 C 
BRANCH  31  32
ATOM     32  C   UNL A   1      35.751  22.961  23.389  1.00  0.00     0.002 C 
BRANCH  32  33
ATOM     33  C   UNL A   1      36.293  22.155  24.568  1.00  0.00     0.021 C 
BRANCH  33  34
ATOM     34  C   UNL A   1      37.708  22.525  25.012  1.00  0.00     0.116 C 
BRANCH  34  35
ATOM     35  N   UNL A   1      38.429  21.409  25.616  1.00  0.00    -0.352 N 
ATOM     36  C   UNL A   1      39.478  21.448  26.507  1.00  0.00     0.251 C 
ATOM     37  H   UNL A   1      38.125  20.511  25.352  1.00  0.00     0.163 HD
ATOM     38  O   UNL A   1      40.054  20.418  26.843  1.00  0.00    -0.269 OA
BRANCH  36  39
ATOM     39  C   UNL A   1      39.922  22.763  27.010  1.00  0.00     0.039 A 
ATOM     40  C   UNL A   1      40.942  22.818  27.961  1.00  0.00     0.014 A 
ATOM     41  C   UNL A   1      39.410  23.934  26.443  1.00  0.00     0.014 A 
ATOM     42  C   UNL A   1      41.519  24.050  28.273  1.00  0.00     0.010 A 
ATOM     43  C   UNL A   1      40.041  25.147  26.699  1.00  0.00     0.010 A 
ATOM     44  C   UNL A   1      41.110  25.216  27.606  1.00  0.00    -0.014 A 
BRANCH  44  45
ATOM     45  C   UNL A   1      41.799  26.516  27.832  1.00  0.00     0.031 A 
ATOM     46  C   UNL A   1      43.211  26.708  27.350  1.00  0.00     0.074 A 
ATOM     47  C   UNL A   1      41.181  27.489  28.530  1.00  0.00     0.049 A 
ATOM     48  N   UNL A   1      44.008  27.732  27.510  1.00  0.00    -0.248 NA
ATOM     49  C   UNL A   1      43.816  25.580  26.627  1.00  0.00     0.031 C 
ATOM     50  C   UNL A   1      39.833  27.400  29.098  1.00  0.00     0.029 A 
ATOM     51  N   UNL A   1      41.606  28.745  28.889  1.00  0.00    -0.354 N 
ATOM     52  C   UNL A   1      45.214  27.368  26.918  1.00  0.00     0.074 A 
ATOM     53  C   UNL A   1      45.060  26.002  26.464  1.00  0.00     0.031 C 
ATOM     54  C   UNL A   1      39.532  28.559  29.705  1.00  0.00     0.029 A 
ATOM     55  C   UNL A   1      40.676  29.461  29.610  1.00  0.00     0.049 A 
ATOM     56  H   UNL A   1      42.492  29.100  28.654  1.00  0.00     0.167 HD
ATOM     57  C   UNL A   1      46.334  28.113  26.743  1.00  0.00     0.034 A 
ATOM     58  C   UNL A   1      40.740  30.700  30.137  1.00  0.00     0.034 A 
ATOM     59  C   UNL A   1      46.462  29.478  27.190  1.00  0.00     0.049 A 
ATOM     60  C   UNL A   1      41.998  31.508  29.939  1.00  0.00     0.074 A 
ATOM     61  C   UNL A   1      47.526  30.347  27.017  1.00  0.00     0.029 A 
ATOM     62  N   UNL A   1      45.495  30.176  27.905  1.00  0.00    -0.354 N 
ATOM     63  N   UNL A   1      43.109  31.170  29.324  1.00  0.00    -0.248 NA
ATOM     64  C   UNL A   1      42.006  32.868  30.493  1.00  0.00     0.031 C 
ATOM     65  C   UNL A   1      47.228  31.543  27.680  1.00  0.00     0.029 A 
ATOM     66  C   UNL A   1      45.949  31.450  28.205  1.00  0.00     0.049 A 
ATOM     67  H   UNL A   1      44.615  29.815  28.161  1.00  0.00     0.167 HD
ATOM     68  C   UNL A   1      43.936  32.288  29.394  1.00  0.00     0.074 A 
ATOM     69  C   UNL A   1      43.189  33.313  30.096  1.00  0.00     0.031 C 
ATOM     70  C   UNL A   1      45.196  32.456  28.917  1.00  0.00     0.034 A 
BRANCH  57  71
ATOM     71  C   UNL A   1      47.505  27.448  26.061  1.00  0.00     0.023 A 
ATOM     72  C   UNL A   1      48.455  26.704  26.785  1.00  0.00     0.031 A 
ATOM     73  C   UNL A   1      47.706  27.597  24.677  1.00  0.00     0.131 A 
ATOM     74  C   UNL A   1      49.603  26.218  26.144  1.00  0.00     0.055 A 
ATOM     75  C   UNL A   1      48.807  27.033  24.029  1.00  0.00     0.041 A 
ATOM     76  F   UNL A   1      46.847  28.311  23.934  1.00  0.00    -0.206 F 
ATOM     77  C   UNL A   1      49.774  26.355  24.766  1.00  0.00     0.022 A 
BRANCH  74  78
ATOM     78  S   UNL A   1      50.944  25.550  27.166  1.00  0.00     0.124 S 
ATOM     79  O   UNL A   1      51.710  24.787  26.183  1.00  0.00    -0.237 OA
ATOM     80  O   UNL A   1      51.584  26.757  27.675  1.00  0.00    -0.237 OA
ATOM     81  O   UNL A   1      50.246  24.743  28.164  1.00  0.00    -0.744 OA
ENDBRANCH  74  78
ENDBRANCH  57  71
BRANCH  58  82
ATOM     82  C   UNL A   1      39.589  31.259  30.904  1.00  0.00     0.023 A 
ATOM     83  C   UNL A   1      39.573  31.232  32.307  1.00  0.00     0.031 A 
ATOM     84  C   UNL A   1      38.468  31.794  30.243  1.00  0.00     0.131 A 
ATOM     85  C   UNL A   1      38.443  31.688  33.005  1.00  0.00     0.055 A 
ATOM     86  C   UNL A   1      37.367  32.292  30.942  1.00  0.00     0.041 A 
ATOM     87  F   UNL A   1      38.434  31.850  28.902  1.00  0.00    -0.206 F 
ATOM     88  C   UNL A   1      37.345  32.229  32.332  1.00  0.00     0.022 A 
BRANCH  85  89
ATOM     89  S   UNL A   1      38.394  31.490  34.808  1.00  0.00     0.124 S 
ATOM     90  O   UNL A   1      39.616  32.175  35.214  1.00  0.00    -0.237 OA
ATOM     91  O   UNL A   1      37.141  32.153  35.150  1.00  0.00    -0.237 OA
ATOM     92  O   UNL A   1      38.400  30.040  34.991  1.00  0.00    -0.744 OA
ENDBRANCH  85  89
ENDBRANCH  58  82
BRANCH  70  93
ATOM     93  C   UNL A   1      45.824  33.814  29.109  1.00  0.00     0.023 A 
ATOM     94  C   UNL A   1      45.663  34.844  28.166  1.00  0.00     0.031 A 
ATOM     95  C   UNL A   1      46.605  34.076  30.249  1.00  0.00     0.131 A 
ATOM     96  C   UNL A   1      46.317  36.071  28.354  1.00  0.00     0.055 A 
ATOM     97  C   UNL A   1      47.204  35.318  30.460  1.00  0.00     0.041 A 
ATOM     98  F   UNL A   1      46.794  33.127  31.180  1.00  0.00    -0.206 F 
ATOM     99  C   UNL A   1      47.073  36.320  29.503  1.00  0.00     0.022 A 
BRANCH  96 100
ATOM    100  S   UNL A   1      46.240  37.310  27.031  1.00  0.00     0.124 S 
ATOM    101  O   UNL A   1      44.811  37.604  26.975  1.00  0.00    -0.237 OA
ATOM    102  O   UNL A   1      47.089  38.377  27.552  1.00  0.00    -0.237 OA
ATOM    103  O   UNL A   1      46.774  36.605  25.868  1.00  0.00    -0.744 OA
ENDBRANCH  96 100
ENDBRANCH  70  93
ENDBRANCH  44  45
ENDBRANCH  36  39
ENDBRANCH  34  35
ENDBRANCH  33  34
ENDBRANCH  32  33
ENDBRANCH  31  32
ENDBRANCH   1  31
TORSDOF 22
ENDMDL
MODEL 2
REMARK VINA RESULT:     -11.4      2.520      8.009
REMARK SMILES O=C(Cc1ccccc1C(=O)NCCCCCCNC(=O)c1ccc(-c2c3nc(c(-c4cc(S(=O)(=O)[O-])ccc4F)c4ccc([nH]4)c(-c4cc(S(=O)(=O)[O-])ccc4F)c4nc(c(-c5cc(S(=O)(=O)[O-])ccc5F)c5ccc2[nH]5)C=C4)C=C3)cc1)Nc1cccc(OC[C@@H]2CCCO2)c1
REMARK SMILES IDX 14 1 13 2 12 3 10 4 11 5 9 7 4 8 5 9 6 10 8 11 7 12 3 13
REMARK SMILES IDX 2 14 1 15 85 16 86 18 87 19 98 20 88 21 90 22 89 23 91 24
REMARK SMILES IDX 92 25 93 26 94 27 97 28 95 29 96 30 15 31 16 32 17 33 18 34
REMARK SMILES IDX 19 35 20 36 21 38 22 39 23 40 84 41 24 42 83 43 25 44 26 45
REMARK SMILES IDX 27 46 77 47 28 48 82 49 76 50 78 51 29 52 81 53 75 54 74 55
REMARK SMILES IDX 30 57 62 58 42 59 61 60 43 61 46 62 60 63 79 64 44 65 45 66
REMARK SMILES IDX 59 68 80 69 47 70 31 71 32 72 40 73 33 74 39 75 41 76 38 77
REMARK SMILES IDX 34 78 35 79 36 80 37 81 63 82 64 83 72 84 65 85 71 86 73 87
REMARK SMILES IDX 70 88 66 89 67 90 68 91 69 92 48 93 49 94 57 95 50 96 56 97
REMARK SMILES IDX 58 98 55 99 51 100 52 101 53 102 54 103
REMARK H PARENT 12 6 85 17 19 37 78 56 46 67
REMARK Flexibility Score: inf
ROOT
ATOM      1  C   UNL A   1      34.448  19.558  24.703  1.00  0.00     0.021 C 
ENDROOT
BRANCH   1   2
ATOM      2  C   UNL A   1      33.045  20.046  25.106  1.00  0.00     0.116 C 
BRANCH   2   3
ATOM      3  N   UNL A   1      32.415  20.937  24.141  1.00  0.00    -0.352 N 
ATOM      4  C   UNL A   1      32.739  22.184  23.686  1.00  0.00     0.251 C 
ATOM      5  O   UNL A   1      32.074  22.708  22.794  1.00  0.00    -0.269 OA
ATOM      6  H   UNL A   1      31.595  20.568  23.739  1.00  0.00     0.163 HD
BRANCH   4   7
ATOM      7  C   UNL A   1      33.957  22.872  24.149  1.00  0.00     0.043 A 
ATOM      8  C   UNL A   1      34.091  23.579  25.357  1.00  0.00    -0.026 A 
ATOM      9  C   UNL A   1      35.377  24.075  25.673  1.00  0.00     0.005 A 
ATOM     10  C   UNL A   1      36.444  23.993  24.774  1.00  0.00     0.000 A 
ATOM     11  C   UNL A   1      35.020  22.841  23.224  1.00  0.00     0.014 A 
ATOM     12  C   UNL A   1      36.254  23.411  23.530  1.00  0.00     0.001 A 
BRANCH   8  13
ATOM     13  C   UNL A   1      33.012  23.851  26.384  1.00  0.00     0.136 C 
BRANCH  13  14
ATOM     14  C   UNL A   1      32.170  25.109  26.251  1.00  0.00     0.228 C 
ATOM     15  O   UNL A   1      30.981  25.105  26.546  1.00  0.00    -0.274 OA
ATOM     16  N   UNL A   1      32.855  26.225  25.818  1.00  0.00    -0.326 N 
ATOM     17  H   UNL A   1      33.797  26.105  25.555  1.00  0.00     0.169 HD
BRANCH  16  18
ATOM     18  C   UNL A   1      32.315  27.531  25.719  1.00  0.00     0.044 A 
ATOM     19  C   UNL A   1      32.542  28.391  26.795  1.00  0.00     0.026 A 
ATOM     20  C   UNL A   1      31.581  27.996  24.613  1.00  0.00     0.072 A 
ATOM     21  C   UNL A   1      32.106  29.715  26.740  1.00  0.00     0.006 A 
ATOM     22  C   UNL A   1      31.119  29.315  24.560  1.00  0.00     0.121 A 
ATOM     23  C   UNL A   1      31.403  30.171  25.624  1.00  0.00     0.046 A 
BRANCH  22  24
ATOM     24  O   UNL A   1      30.376  29.893  23.563  1.00  0.00    -0.491 OA
BRANCH  24  25
ATOM     25  C   UNL A   1      29.408  30.885  23.912  1.00  0.00     0.261 C 
BRANCH  25  26
ATOM     26  C   UNL A   1      28.282  31.028  22.870  1.00  0.00     0.156 C 
ATOM     27  C   UNL A   1      28.676  30.473  21.505  1.00  0.00     0.038 C 
ATOM     28  O   UNL A   1      27.871  32.393  22.660  1.00  0.00    -0.375 OA
ATOM     29  C   UNL A   1      27.953  31.388  20.547  1.00  0.00     0.031 C 
ATOM     30  C   UNL A   1      28.023  32.710  21.275  1.00  0.00     0.161 C 
ENDBRANCH  25  26
ENDBRANCH  24  25
ENDBRANCH  22  24
ENDBRANCH  16  18
ENDBRANCH  13  14
ENDBRANCH   8  13
ENDBRANCH   4   7
ENDBRANCH   2   3
ENDBRANCH   1   2
BRANCH   1  31
ATOM     31  C   UNL A   1      35.617  20.284  25.383  1.00  0.00     0.002 C 
BRANCH  31  32
ATOM     32  C   UNL A   1      37.005  19.784  24.997  1.00  0.00     0.002 C 
BRANCH  32  33
ATOM     33  C   UNL A   1      38.071  20.879  24.979  1.00  0.00     0.021 C 
BRANCH  33  34
ATOM     34  C   UNL A   1      39.081  20.823  26.125  1.00  0.00     0.116 C 
BRANCH  34  35
ATOM     35  N   UNL A   1      39.939  19.644  26.075  1.00  0.00    -0.352 N 
ATOM     36  C   UNL A   1      41.311  19.577  26.168  1.00  0.00     0.251 C 
ATOM     37  H   UNL A   1      39.476  18.783  25.961  1.00  0.00     0.163 HD
ATOM     38  O   UNL A   1      41.900  18.515  25.998  1.00  0.00    -0.269 OA
BRANCH  36  39
ATOM     39  C   UNL A   1      42.057  20.825  26.428  1.00  0.00     0.039 A 
ATOM     40  C   UNL A   1      42.409  21.642  25.353  1.00  0.00     0.014 A 
ATOM     41  C   UNL A   1      42.290  21.234  27.744  1.00  0.00     0.014 A 
ATOM     42  C   UNL A   1      42.911  22.921  25.603  1.00  0.00     0.010 A 
ATOM     43  C   UNL A   1      42.716  22.536  27.987  1.00  0.00     0.010 A 
ATOM     44  C   UNL A   1      43.018  23.398  26.920  1.00  0.00    -0.014 A 
BRANCH  44  45
ATOM     45  C   UNL A   1      43.428  24.800  27.202  1.00  0.00     0.031 A 
ATOM     46  C   UNL A   1      42.450  25.754  27.828  1.00  0.00     0.074 A 
ATOM     47  C   UNL A   1      44.651  25.228  26.828  1.00  0.00     0.049 A 
ATOM     48  N   UNL A   1      42.587  27.029  28.088  1.00  0.00    -0.248 NA
ATOM     49  C   UNL A   1      41.129  25.208  28.173  1.00  0.00     0.031 C 
ATOM     50  C   UNL A   1      45.668  24.410  26.160  1.00  0.00     0.029 A 
ATOM     51  N   UNL A   1      45.248  26.459  26.949  1.00  0.00    -0.354 N 
ATOM     52  C   UNL A   1      41.366  27.441  28.614  1.00  0.00     0.074 A 
ATOM     53  C   UNL A   1      40.483  26.295  28.565  1.00  0.00     0.031 C 
ATOM     54  C   UNL A   1      46.769  25.153  25.960  1.00  0.00     0.029 A 
ATOM     55  C   UNL A   1      46.528  26.508  26.444  1.00  0.00     0.049 A 
ATOM     56  H   UNL A   1      44.802  27.234  27.360  1.00  0.00     0.167 HD
ATOM     57  C   UNL A   1      41.023  28.653  29.117  1.00  0.00     0.034 A 
ATOM     58  C   UNL A   1      47.404  27.530  26.373  1.00  0.00     0.034 A 
ATOM     59  C   UNL A   1      41.922  29.779  29.170  1.00  0.00     0.049 A 
ATOM     60  C   UNL A   1      46.999  28.872  26.930  1.00  0.00     0.074 A 
ATOM     61  C   UNL A   1      41.703  31.035  29.709  1.00  0.00     0.029 A 
ATOM     62  N   UNL A   1      43.216  29.788  28.660  1.00  0.00    -0.354 N 
ATOM     63  N   UNL A   1      45.860  29.229  27.479  1.00  0.00    -0.248 NA
ATOM     64  C   UNL A   1      48.001  29.943  26.871  1.00  0.00     0.031 C 
ATOM     65  C   UNL A   1      42.836  31.820  29.468  1.00  0.00     0.029 A 
ATOM     66  C   UNL A   1      43.793  31.035  28.845  1.00  0.00     0.049 A 
ATOM     67  H   UNL A   1      43.657  29.021  28.229  1.00  0.00     0.167 HD
ATOM     68  C   UNL A   1      46.021  30.559  27.857  1.00  0.00     0.074 A 
ATOM     69  C   UNL A   1      47.372  30.934  27.486  1.00  0.00     0.031 C 
ATOM     70  C   UNL A   1      45.137  31.396  28.459  1.00  0.00     0.034 A 
BRANCH  57  71
ATOM     71  C   UNL A   1      39.610  28.815  29.624  1.00  0.00     0.023 A 
ATOM     72  C   UNL A   1      38.612  29.423  28.841  1.00  0.00     0.031 A 
ATOM     73  C   UNL A   1      39.263  28.401  30.922  1.00  0.00     0.131 A 
ATOM     74  C   UNL A   1      37.349  29.684  29.391  1.00  0.00     0.055 A 
ATOM     75  C   UNL A   1      37.976  28.582  31.432  1.00  0.00     0.041 A 
ATOM     76  F   UNL A   1      40.175  27.832  31.725  1.00  0.00    -0.206 F 
ATOM     77  C   UNL A   1      37.014  29.245  30.673  1.00  0.00     0.022 A 
BRANCH  74  78
ATOM     78  S   UNL A   1      36.207  30.747  28.467  1.00  0.00     0.124 S 
ATOM     79  O   UNL A   1      35.113  30.905  29.424  1.00  0.00    -0.237 OA
ATOM     80  O   UNL A   1      37.013  31.936  28.218  1.00  0.00    -0.237 OA
ATOM     81  O   UNL A   1      35.880  29.953  27.284  1.00  0.00    -0.744 OA
ENDBRANCH  74  78
ENDBRANCH  57  71
BRANCH  58  82
ATOM     82  C   UNL A   1      48.747  27.337  25.754  1.00  0.00     0.023 A 
ATOM     83  C   UNL A   1      48.984  27.690  24.416  1.00  0.00     0.031 A 
ATOM     84  C   UNL A   1      49.805  26.759  26.479  1.00  0.00     0.131 A 
ATOM     85  C   UNL A   1      50.231  27.422  23.830  1.00  0.00     0.055 A 
ATOM     86  C   UNL A   1      51.060  26.540  25.908  1.00  0.00     0.041 A 
ATOM     87  F   UNL A   1      49.634  26.409  27.764  1.00  0.00    -0.206 F 
ATOM     88  C   UNL A   1      51.275  26.861  24.571  1.00  0.00     0.022 A 
BRANCH  85  89
ATOM     89  S   UNL A   1      50.449  27.745  22.058  1.00  0.00     0.124 S 
ATOM     90  O   UNL A   1      50.442  26.395  21.507  1.00  0.00    -0.237 OA
ATOM     91  O   UNL A   1      49.283  28.569  21.756  1.00  0.00    -0.237 OA
ATOM     92  O   UNL A   1      51.733  28.440  21.994  1.00  0.00    -0.744 OA
ENDBRANCH  85  89
ENDBRANCH  58  82
BRANCH  70  93
ATOM     93  C   UNL A   1      45.624  32.785  28.787  1.00  0.00     0.023 A 
ATOM     94  C   UNL A   1      45.462  33.857  27.893  1.00  0.00     0.031 A 
ATOM     95  C   UNL A   1      46.270  33.035  30.012  1.00  0.00     0.131 A 
ATOM     96  C   UNL A   1      45.987  35.119  28.213  1.00  0.00     0.055 A 
ATOM     97  C   UNL A   1      46.737  34.305  30.350  1.00  0.00     0.041 A 
ATOM     98  F   UNL A   1      46.454  32.046  30.902  1.00  0.00    -0.206 F 
ATOM     99  C   UNL A   1      46.608  35.353  29.443  1.00  0.00     0.022 A 
BRANCH  96 100
ATOM    100  S   UNL A   1      45.925  36.431  26.962  1.00  0.00     0.124 S 
ATOM    101  O   UNL A   1      46.761  37.464  27.565  1.00  0.00    -0.237 OA
ATOM    102  O   UNL A   1      46.481  35.768  25.787  1.00  0.00    -0.237 OA
ATOM    103  O   UNL A   1      44.502  36.755  26.876  1.00  0.00    -0.744 OA
ENDBRANCH  96 100
ENDBRANCH  70  93
ENDBRANCH  44  45
ENDBRANCH  36  39
ENDBRANCH  34  35
ENDBRANCH  33  34
ENDBRANCH  32  33
ENDBRANCH  31  32
ENDBRANCH   1  31
TORSDOF 22
ENDMDL
MODEL 3
REMARK VINA RESULT:     -11.4      2.394      3.838
REMARK SMILES O=C(Cc1ccccc1C(=O)NCCCCCCNC(=O)c1ccc(-c2c3nc(c(-c4cc(S(=O)(=O)[O-])ccc4F)c4ccc([nH]4)c(-c4cc(S(=O)(=O)[O-])ccc4F)c4nc(c(-c5cc(S(=O)(=O)[O-])ccc5F)c5ccc2[nH]5)C=C4)C=C3)cc1)Nc1cccc(OC[C@@H]2CCCO2)c1
REMARK SMILES IDX 14 1 13 2 12 3 10 4 11 5 9 7 4 8 5 9 6 10 8 11 7 12 3 13
REMARK SMILES IDX 2 14 1 15 85 16 86 18 87 19 98 20 88 21 90 22 89 23 91 24
REMARK SMILES IDX 92 25 93 26 94 27 97 28 95 29 96 30 15 31 16 32 17 33 18 34
REMARK SMILES IDX 19 35 20 36 21 38 22 39 23 40 84 41 24 42 83 43 25 44 26 45
REMARK SMILES IDX 27 46 77 47 28 48 82 49 76 50 78 51 29 52 81 53 75 54 74 55
REMARK SMILES IDX 30 57 62 58 42 59 61 60 43 61 46 62 60 63 79 64 44 65 45 66
REMARK SMILES IDX 59 68 80 69 47 70 31 71 32 72 40 73 33 74 39 75 41 76 38 77
REMARK SMILES IDX 34 78 35 79 36 80 37 81 63 82 64 83 72 84 65 85 71 86 73 87
REMARK SMILES IDX 70 88 66 89 67 90 68 91 69 92 48 93 49 94 57 95 50 96 56 97
REMARK SMILES IDX 58 98 55 99 51 100 52 101 53 102 54 103
REMARK H PARENT 12 6 85 17 19 37 78 56 46 67
REMARK Flexibility Score: inf
ROOT
ATOM      1  C   UNL A   1      34.678  19.305  24.626  1.00  0.00     0.021 C 
ENDROOT
BRANCH   1   2
ATOM      2  C   UNL A   1      33.238  19.765  24.907  1.00  0.00     0.116 C 
BRANCH   2   3
ATOM      3  N   UNL A   1      32.654  20.598  23.865  1.00  0.00    -0.352 N 
ATOM      4  C   UNL A   1      32.913  21.874  23.448  1.00  0.00     0.251 C 
ATOM      5  O   UNL A   1      32.321  22.338  22.475  1.00  0.00    -0.269 OA
ATOM      6  H   UNL A   1      31.933  20.155  23.361  1.00  0.00     0.163 HD
BRANCH   4   7
ATOM      7  C   UNL A   1      33.988  22.674  24.062  1.00  0.00     0.043 A 
ATOM      8  C   UNL A   1      33.902  23.365  25.283  1.00  0.00    -0.026 A 
ATOM      9  C   UNL A   1      35.082  23.983  25.756  1.00  0.00     0.005 A 
ATOM     10  C   UNL A   1      36.252  24.030  24.992  1.00  0.00     0.000 A 
ATOM     11  C   UNL A   1      35.151  22.771  23.271  1.00  0.00     0.014 A 
ATOM     12  C   UNL A   1      36.273  23.458  23.729  1.00  0.00     0.001 A 
BRANCH   8  13
ATOM     13  C   UNL A   1      32.686  23.502  26.174  1.00  0.00     0.136 C 
BRANCH  13  14
ATOM     14  C   UNL A   1      31.941  24.826  26.203  1.00  0.00     0.228 C 
ATOM     15  O   UNL A   1      30.908  24.953  26.849  1.00  0.00    -0.274 OA
ATOM     16  N   UNL A   1      32.536  25.844  25.488  1.00  0.00    -0.326 N 
ATOM     17  H   UNL A   1      33.335  25.620  24.959  1.00  0.00     0.169 HD
BRANCH  16  18
ATOM     18  C   UNL A   1      32.090  27.189  25.453  1.00  0.00     0.044 A 
ATOM     19  C   UNL A   1      32.372  27.978  26.569  1.00  0.00     0.026 A 
ATOM     20  C   UNL A   1      31.397  27.759  24.369  1.00  0.00     0.072 A 
ATOM     21  C   UNL A   1      32.031  29.330  26.577  1.00  0.00     0.006 A 
ATOM     22  C   UNL A   1      31.030  29.108  24.379  1.00  0.00     0.121 A 
ATOM     23  C   UNL A   1      31.369  29.889  25.484  1.00  0.00     0.046 A 
BRANCH  22  24
ATOM     24  O   UNL A   1      30.336  29.785  23.410  1.00  0.00    -0.491 OA
BRANCH  24  25
ATOM     25  C   UNL A   1      29.373  30.762  23.808  1.00  0.00     0.261 C 
BRANCH  25  26
ATOM     26  C   UNL A   1      28.235  30.946  22.786  1.00  0.00     0.156 C 
ATOM     27  C   UNL A   1      28.604  30.423  21.402  1.00  0.00     0.038 C 
ATOM     28  O   UNL A   1      27.839  32.321  22.617  1.00  0.00    -0.375 OA
ATOM     29  C   UNL A   1      27.881  31.371  20.477  1.00  0.00     0.031 C 
ATOM     30  C   UNL A   1      27.977  32.672  21.238  1.00  0.00     0.161 C 
ENDBRANCH  25  26
ENDBRANCH  24  25
ENDBRANCH  22  24
ENDBRANCH  16  18
ENDBRANCH  13  14
ENDBRANCH   8  13
ENDBRANCH   4   7
ENDBRANCH   2   3
ENDBRANCH   1   2
BRANCH   1  31
ATOM     31  C   UNL A   1      35.775  20.087  25.362  1.00  0.00     0.002 C 
BRANCH  31  32
ATOM     32  C   UNL A   1      37.202  19.779  24.920  1.00  0.00     0.002 C 
BRANCH  32  33
ATOM     33  C   UNL A   1      38.139  20.983  24.981  1.00  0.00     0.021 C 
BRANCH  33  34
ATOM     34  C   UNL A   1      39.152  20.962  26.126  1.00  0.00     0.116 C 
BRANCH  34  35
ATOM     35  N   UNL A   1      40.120  19.876  26.014  1.00  0.00    -0.352 N 
ATOM     36  C   UNL A   1      41.492  19.937  26.108  1.00  0.00     0.251 C 
ATOM     37  H   UNL A   1      39.742  18.982  25.849  1.00  0.00     0.163 HD
ATOM     38  O   UNL A   1      42.182  18.948  25.881  1.00  0.00    -0.269 OA
BRANCH  36  39
ATOM     39  C   UNL A   1      42.114  21.235  26.440  1.00  0.00     0.039 A 
ATOM     40  C   UNL A   1      42.308  22.175  25.427  1.00  0.00     0.014 A 
ATOM     41  C   UNL A   1      42.386  21.555  27.774  1.00  0.00     0.014 A 
ATOM     42  C   UNL A   1      42.683  23.476  25.765  1.00  0.00     0.010 A 
ATOM     43  C   UNL A   1      42.683  22.871  28.111  1.00  0.00     0.010 A 
ATOM     44  C   UNL A   1      42.822  23.849  27.112  1.00  0.00    -0.014 A 
BRANCH  44  45
ATOM     45  C   UNL A   1      43.096  25.259  27.498  1.00  0.00     0.031 A 
ATOM     46  C   UNL A   1      44.484  25.818  27.354  1.00  0.00     0.074 A 
ATOM     47  C   UNL A   1      42.115  26.008  28.041  1.00  0.00     0.049 A 
ATOM     48  N   UNL A   1      44.944  26.994  27.698  1.00  0.00    -0.248 NA
ATOM     49  C   UNL A   1      45.498  24.919  26.782  1.00  0.00     0.031 C 
ATOM     50  C   UNL A   1      40.741  25.558  28.284  1.00  0.00     0.029 A 
ATOM     51  N   UNL A   1      42.121  27.304  28.495  1.00  0.00    -0.354 N 
ATOM     52  C   UNL A   1      46.302  26.971  27.396  1.00  0.00     0.074 A 
ATOM     53  C   UNL A   1      46.600  25.640  26.911  1.00  0.00     0.031 C 
ATOM     54  C   UNL A   1      40.033  26.570  28.813  1.00  0.00     0.029 A 
ATOM     55  C   UNL A   1      40.906  27.726  28.987  1.00  0.00     0.049 A 
ATOM     56  H   UNL A   1      42.919  27.878  28.472  1.00  0.00     0.167 HD
ATOM     57  C   UNL A   1      47.209  27.976  27.487  1.00  0.00     0.034 A 
ATOM     58  C   UNL A   1      40.539  28.908  29.523  1.00  0.00     0.034 A 
ATOM     59  C   UNL A   1      46.890  29.300  27.960  1.00  0.00     0.049 A 
ATOM     60  C   UNL A   1      41.566  30.008  29.623  1.00  0.00     0.074 A 
ATOM     61  C   UNL A   1      47.713  30.410  28.040  1.00  0.00     0.029 A 
ATOM     62  N   UNL A   1      45.645  29.695  28.437  1.00  0.00    -0.354 N 
ATOM     63  N   UNL A   1      42.834  29.989  29.277  1.00  0.00    -0.248 NA
ATOM     64  C   UNL A   1      41.110  31.291  30.172  1.00  0.00     0.031 C 
ATOM     65  C   UNL A   1      46.986  31.453  28.625  1.00  0.00     0.029 A 
ATOM     66  C   UNL A   1      45.687  31.020  28.842  1.00  0.00     0.049 A 
ATOM     67  H   UNL A   1      44.850  29.116  28.483  1.00  0.00     0.167 HD
ATOM     68  C   UNL A   1      43.317  31.268  29.541  1.00  0.00     0.074 A 
ATOM     69  C   UNL A   1      42.202  32.034  30.060  1.00  0.00     0.031 C 
ATOM     70  C   UNL A   1      44.568  31.766  29.368  1.00  0.00     0.034 A 
BRANCH  57  71
ATOM     71  C   UNL A   1      48.631  27.659  27.088  1.00  0.00     0.023 A 
ATOM     72  C   UNL A   1      49.151  28.053  25.841  1.00  0.00     0.031 A 
ATOM     73  C   UNL A   1      49.465  26.913  27.939  1.00  0.00     0.131 A 
ATOM     74  C   UNL A   1      50.425  27.624  25.444  1.00  0.00     0.055 A 
ATOM     75  C   UNL A   1      50.767  26.566  27.574  1.00  0.00     0.041 A 
ATOM     76  F   UNL A   1      49.021  26.491  29.134  1.00  0.00    -0.206 F 
ATOM     77  C   UNL A   1      51.248  26.904  26.312  1.00  0.00     0.022 A 
BRANCH  74  78
ATOM     78  S   UNL A   1      50.924  27.880  23.720  1.00  0.00     0.124 S 
ATOM     79  O   UNL A   1      49.643  27.775  23.025  1.00  0.00    -0.237 OA
ATOM     80  O   UNL A   1      51.522  29.209  23.758  1.00  0.00    -0.237 OA
ATOM     81  O   UNL A   1      51.854  26.782  23.465  1.00  0.00    -0.744 OA
ENDBRANCH  74  78
ENDBRANCH  57  71
BRANCH  58  82
ATOM     82  C   UNL A   1      39.145  29.121  30.008  1.00  0.00     0.023 A 
ATOM     83  C   UNL A   1      38.212  29.831  29.235  1.00  0.00     0.031 A 
ATOM     84  C   UNL A   1      38.735  28.653  31.269  1.00  0.00     0.131 A 
ATOM     85  C   UNL A   1      36.931  30.093  29.748  1.00  0.00     0.055 A 
ATOM     86  C   UNL A   1      37.444  28.871  31.754  1.00  0.00     0.041 A 
ATOM     87  F   UNL A   1      39.585  27.962  32.045  1.00  0.00    -0.206 F 
ATOM     88  C   UNL A   1      36.537  29.606  30.997  1.00  0.00     0.022 A 
BRANCH  85  89
ATOM     89  S   UNL A   1      35.808  31.148  28.790  1.00  0.00     0.124 S 
ATOM     90  O   UNL A   1      35.169  30.178  27.908  1.00  0.00    -0.237 OA
ATOM     91  O   UNL A   1      34.966  31.719  29.835  1.00  0.00    -0.237 OA
ATOM     92  O   UNL A   1      36.708  32.093  28.132  1.00  0.00    -0.744 OA
ENDBRANCH  85  89
ENDBRANCH  58  82
BRANCH  70  93
ATOM     93  C   UNL A   1      44.778  33.221  29.706  1.00  0.00     0.023 A 
ATOM     94  C   UNL A   1      44.497  34.244  28.783  1.00  0.00     0.031 A 
ATOM     95  C   UNL A   1      45.276  33.587  30.970  1.00  0.00     0.131 A 
ATOM     96  C   UNL A   1      44.767  35.580  29.118  1.00  0.00     0.055 A 
ATOM     97  C   UNL A   1      45.485  34.922  31.318  1.00  0.00     0.041 A 
ATOM     98  F   UNL A   1      45.563  32.651  31.888  1.00  0.00    -0.206 F 
ATOM     99  C   UNL A   1      45.243  35.926  30.386  1.00  0.00     0.022 A 
BRANCH  96 100
ATOM    100  S   UNL A   1      44.569  36.854  27.843  1.00  0.00     0.124 S 
ATOM    101  O   UNL A   1      43.343  37.522  28.269  1.00  0.00    -0.237 OA
ATOM    102  O   UNL A   1      45.797  37.629  27.982  1.00  0.00    -0.237 OA
ATOM    103  O   UNL A   1      44.459  36.085  26.604  1.00  0.00    -0.744 OA
ENDBRANCH  96 100
ENDBRANCH  70  93
ENDBRANCH  44  45
ENDBRANCH  36  39
ENDBRANCH  34  35
ENDBRANCH  33  34
ENDBRANCH  32  33
ENDBRANCH  31  32
ENDBRANCH   1  31
TORSDOF 22
ENDMDL
