MODEL 1
REMARK VINA RESULT:     -11.8      0.000      0.000
REMARK SMILES CCCC[C@H](C(=O)NCCCCCCNC(=O)c1ccc(-c2c3nc(c(-c4cc(S(=O)(=O)[O-])ccc4F)c4ccc([nH]4)c(-c4cc(S(=O)(=O)[O-])ccc4F)c4nc(c(-c5cc(S(=O)(=O)[O-])ccc5F)c5ccc2[nH]5)C=C4)C=C3)cc1)N1C(=O)/C(=C/c2ccc(C)cc2)SC1=S
REMARK SMILES IDX 11 1 10 2 9 3 8 4 6 5 7 6 5 8 4 9 3 10 2 11 1 12 81 13 82 14
REMARK SMILES IDX 94 15 83 16 84 17 93 18 95 19 85 20 86 21 87 22 92 23 88 24
REMARK SMILES IDX 91 25 89 26 90 27 12 28 13 29 14 30 15 31 16 32 17 34 18 35
REMARK SMILES IDX 19 36 80 37 20 38 79 39 21 40 22 41 23 42 73 43 24 44 78 45
REMARK SMILES IDX 72 46 74 47 25 48 77 49 71 50 70 51 26 53 58 54 38 55 57 56
REMARK SMILES IDX 39 57 42 58 56 59 75 60 40 61 41 62 55 64 76 65 43 66 27 67
REMARK SMILES IDX 28 68 36 69 29 70 35 71 37 72 34 73 30 74 31 75 32 76 33 77
REMARK SMILES IDX 59 78 60 79 68 80 61 81 67 82 69 83 66 84 62 85 63 86 64 87
REMARK SMILES IDX 65 88 44 89 45 90 53 91 46 92 52 93 54 94 51 95 47 96 48 97
REMARK SMILES IDX 49 98 50 99
REMARK H PARENT 8 7 15 33 74 52 42 63
REMARK Flexibility Score: inf
ROOT
ATOM      1  C   UNL A   1      32.675  30.335  26.091  1.00  0.00     0.002 C 
ENDROOT
BRANCH   1   2
ATOM      2  C   UNL A   1      32.888  29.011  26.828  1.00  0.00     0.021 C 
BRANCH   2   3
ATOM      3  C   UNL A   1      33.943  28.094  26.205  1.00  0.00     0.116 C 
BRANCH   3   4
ATOM      4  N   UNL A   1      34.115  28.395  24.799  1.00  0.00    -0.354 N 
ATOM      5  C   UNL A   1      33.632  27.837  23.655  1.00  0.00     0.243 C 
ATOM      6  O   UNL A   1      34.066  28.356  22.617  1.00  0.00    -0.273 OA
ATOM      7  H   UNL A   1      34.707  29.165  24.636  1.00  0.00     0.163 HD
BRANCH   5   8
ATOM      8  C   UNL A   1      32.431  26.832  23.598  1.00  0.00     0.181 C 
BRANCH   8   9
ATOM      9  C   UNL A   1      31.202  27.442  22.852  1.00  0.00     0.036 C 
BRANCH   9  10
ATOM     10  C   UNL A   1      30.859  28.933  22.960  1.00  0.00     0.002 C 
BRANCH  10  11
ATOM     11  C   UNL A   1      29.440  29.293  23.407  1.00  0.00    -0.003 C 
ATOM     12  C   UNL A   1      28.547  29.789  22.280  1.00  0.00     0.004 C 
ENDBRANCH  10  11
ENDBRANCH   9  10
ENDBRANCH   8   9
BRANCH   8  13
ATOM     13  N   UNL A   1      32.729  25.426  23.302  1.00  0.00    -0.280 N 
ATOM     14  C   UNL A   1      32.954  24.557  24.355  1.00  0.00     0.266 C 
ATOM     15  C   UNL A   1      32.856  24.886  22.034  1.00  0.00     0.149 C 
ATOM     16  O   UNL A   1      33.008  24.859  25.532  1.00  0.00    -0.268 OA
ATOM     17  C   UNL A   1      33.077  23.161  23.852  1.00  0.00     0.081 C 
ATOM     18  S   UNL A   1      33.195  23.159  22.146  1.00  0.00    -0.054 SA
ATOM     19  S   UNL A   1      32.728  25.656  20.558  1.00  0.00    -0.052 S 
ATOM     20  C   UNL A   1      33.051  22.124  24.696  1.00  0.00     0.029 C 
BRANCH  20  21
ATOM     21  C   UNL A   1      33.247  20.709  24.369  1.00  0.00    -0.024 A 
ATOM     22  C   UNL A   1      32.311  19.935  23.677  1.00  0.00     0.008 A 
ATOM     23  C   UNL A   1      34.424  20.111  24.829  1.00  0.00     0.008 A 
ATOM     24  C   UNL A   1      32.562  18.576  23.443  1.00  0.00     0.004 A 
ATOM     25  C   UNL A   1      34.675  18.760  24.594  1.00  0.00     0.004 A 
ATOM     26  C   UNL A   1      33.747  17.980  23.897  1.00  0.00    -0.051 A 
ATOM     27  C   UNL A   1      34.012  16.524  23.650  1.00  0.00     0.044 C 
ENDBRANCH  20  21
ENDBRANCH   8  13
ENDBRANCH   5   8
ENDBRANCH   3   4
ENDBRANCH   2   3
ENDBRANCH   1   2
BRANCH   1  28
ATOM     28  C   UNL A   1      31.338  31.024  26.375  1.00  0.00     0.002 C 
BRANCH  28  29
ATOM     29  C   UNL A   1      31.415  32.537  26.608  1.00  0.00     0.021 C 
BRANCH  29  30
ATOM     30  C   UNL A   1      32.699  33.026  27.274  1.00  0.00     0.116 C 
BRANCH  30  31
ATOM     31  N   UNL A   1      32.569  34.388  27.758  1.00  0.00    -0.352 N 
ATOM     32  C   UNL A   1      33.147  34.984  28.852  1.00  0.00     0.251 C 
ATOM     33  H   UNL A   1      31.980  34.970  27.225  1.00  0.00     0.163 HD
ATOM     34  O   UNL A   1      32.717  36.063  29.249  1.00  0.00    -0.269 OA
BRANCH  32  35
ATOM     35  C   UNL A   1      34.269  34.324  29.554  1.00  0.00     0.039 A 
ATOM     36  C   UNL A   1      35.566  34.494  29.061  1.00  0.00     0.014 A 
ATOM     37  C   UNL A   1      34.047  33.508  30.669  1.00  0.00     0.014 A 
ATOM     38  C   UNL A   1      36.641  33.881  29.709  1.00  0.00     0.010 A 
ATOM     39  C   UNL A   1      35.126  32.953  31.353  1.00  0.00     0.010 A 
ATOM     40  C   UNL A   1      36.434  33.124  30.874  1.00  0.00    -0.014 A 
BRANCH  40  41
ATOM     41  C   UNL A   1      37.574  32.481  31.580  1.00  0.00     0.031 A 
ATOM     42  C   UNL A   1      38.317  31.341  30.935  1.00  0.00     0.074 A 
ATOM     43  C   UNL A   1      37.915  32.896  32.817  1.00  0.00     0.049 A 
ATOM     44  N   UNL A   1      39.298  30.618  31.409  1.00  0.00    -0.248 NA
ATOM     45  C   UNL A   1      37.875  30.947  29.589  1.00  0.00     0.031 C 
ATOM     46  C   UNL A   1      37.251  33.969  33.560  1.00  0.00     0.029 A 
ATOM     47  N   UNL A   1      38.900  32.464  33.670  1.00  0.00    -0.354 N 
ATOM     48  C   UNL A   1      39.587  29.677  30.425  1.00  0.00     0.074 A 
ATOM     49  C   UNL A   1      38.632  29.885  29.357  1.00  0.00     0.031 C 
ATOM     50  C   UNL A   1      37.861  34.126  34.746  1.00  0.00     0.029 A 
ATOM     51  C   UNL A   1      38.932  33.142  34.867  1.00  0.00     0.049 A 
ATOM     52  H   UNL A   1      39.525  31.738  33.445  1.00  0.00     0.167 HD
ATOM     53  C   UNL A   1      40.571  28.743  30.402  1.00  0.00     0.034 A 
ATOM     54  C   UNL A   1      39.727  32.982  35.943  1.00  0.00     0.034 A 
ATOM     55  C   UNL A   1      41.524  28.556  31.471  1.00  0.00     0.049 A 
ATOM     56  C   UNL A   1      40.803  31.926  35.904  1.00  0.00     0.074 A 
ATOM     57  C   UNL A   1      42.586  27.671  31.536  1.00  0.00     0.029 A 
ATOM     58  N   UNL A   1      41.528  29.265  32.668  1.00  0.00    -0.354 N 
ATOM     59  N   UNL A   1      41.089  31.072  34.948  1.00  0.00    -0.248 NA
ATOM     60  C   UNL A   1      41.672  31.824  37.083  1.00  0.00     0.031 C 
ATOM     61  C   UNL A   1      43.190  27.797  32.792  1.00  0.00     0.029 A 
ATOM     62  C   UNL A   1      42.556  28.817  33.484  1.00  0.00     0.049 A 
ATOM     63  H   UNL A   1      40.894  29.982  32.900  1.00  0.00     0.167 HD
ATOM     64  C   UNL A   1      42.194  30.355  35.398  1.00  0.00     0.074 A 
ATOM     65  C   UNL A   1      42.529  30.888  36.704  1.00  0.00     0.031 C 
ATOM     66  C   UNL A   1      42.875  29.351  34.788  1.00  0.00     0.034 A 
BRANCH  53  67
ATOM     67  C   UNL A   1      40.642  27.838  29.195  1.00  0.00     0.023 A 
ATOM     68  C   UNL A   1      41.580  28.048  28.168  1.00  0.00     0.031 A 
ATOM     69  C   UNL A   1      39.742  26.767  29.052  1.00  0.00     0.131 A 
ATOM     70  C   UNL A   1      41.545  27.253  27.011  1.00  0.00     0.055 A 
ATOM     71  C   UNL A   1      39.768  25.925  27.937  1.00  0.00     0.041 A 
ATOM     72  F   UNL A   1      38.810  26.528  29.988  1.00  0.00    -0.206 F 
ATOM     73  C   UNL A   1      40.662  26.177  26.901  1.00  0.00     0.022 A 
BRANCH  70  74
ATOM     74  S   UNL A   1      42.565  27.741  25.594  1.00  0.00     0.124 S 
ATOM     75  O   UNL A   1      43.850  28.010  26.235  1.00  0.00    -0.237 OA
ATOM     76  O   UNL A   1      42.510  26.556  24.744  1.00  0.00    -0.237 OA
ATOM     77  O   UNL A   1      41.879  28.918  25.067  1.00  0.00    -0.744 OA
ENDBRANCH  70  74
ENDBRANCH  53  67
BRANCH  54  78
ATOM     78  C   UNL A   1      39.542  33.834  37.153  1.00  0.00     0.023 A 
ATOM     79  C   UNL A   1      38.869  33.349  38.285  1.00  0.00     0.031 A 
ATOM     80  C   UNL A   1      39.996  35.165  37.177  1.00  0.00     0.131 A 
ATOM     81  C   UNL A   1      38.625  34.200  39.374  1.00  0.00     0.055 A 
ATOM     82  C   UNL A   1      39.799  35.992  38.284  1.00  0.00     0.041 A 
ATOM     83  F   UNL A   1      40.652  35.678  36.124  1.00  0.00    -0.206 F 
ATOM     84  C   UNL A   1      39.097  35.514  39.386  1.00  0.00     0.022 A 
BRANCH  81  85
ATOM     85  S   UNL A   1      37.603  33.589  40.742  1.00  0.00     0.124 S 
ATOM     86  O   UNL A   1      38.547  32.740  41.461  1.00  0.00    -0.237 OA
ATOM     87  O   UNL A   1      37.219  34.829  41.408  1.00  0.00    -0.237 OA
ATOM     88  O   UNL A   1      36.517  32.884  40.067  1.00  0.00    -0.744 OA
ENDBRANCH  81  85
ENDBRANCH  54  78
BRANCH  66  89
ATOM     89  C   UNL A   1      44.082  28.803  35.511  1.00  0.00     0.023 A 
ATOM     90  C   UNL A   1      43.984  27.725  36.408  1.00  0.00     0.031 A 
ATOM     91  C   UNL A   1      45.345  29.388  35.316  1.00  0.00     0.131 A 
ATOM     92  C   UNL A   1      45.117  27.305  37.122  1.00  0.00     0.055 A 
ATOM     93  C   UNL A   1      46.481  28.925  35.982  1.00  0.00     0.041 A 
ATOM     94  F   UNL A   1      45.498  30.422  34.473  1.00  0.00    -0.206 F 
ATOM     95  C   UNL A   1      46.368  27.888  36.903  1.00  0.00     0.022 A 
BRANCH  92  96
ATOM     96  S   UNL A   1      44.912  26.056  38.421  1.00  0.00     0.124 S 
ATOM     97  O   UNL A   1      46.295  25.689  38.711  1.00  0.00    -0.237 OA
ATOM     98  O   UNL A   1      44.219  26.802  39.465  1.00  0.00    -0.237 OA
ATOM     99  O   UNL A   1      44.118  25.014  37.772  1.00  0.00    -0.744 OA
ENDBRANCH  92  96
ENDBRANCH  66  89
ENDBRANCH  40  41
ENDBRANCH  32  35
ENDBRANCH  30  31
ENDBRANCH  29  30
ENDBRANCH  28  29
ENDBRANCH   1  28
TORSDOF 21
ENDMDL
MODEL 2
REMARK VINA RESULT:     -11.7      1.885      7.711
REMARK SMILES CCCC[C@H](C(=O)NCCCCCCNC(=O)c1ccc(-c2c3nc(c(-c4cc(S(=O)(=O)[O-])ccc4F)c4ccc([nH]4)c(-c4cc(S(=O)(=O)[O-])ccc4F)c4nc(c(-c5cc(S(=O)(=O)[O-])ccc5F)c5ccc2[nH]5)C=C4)C=C3)cc1)N1C(=O)/C(=C/c2ccc(C)cc2)SC1=S
REMARK SMILES IDX 11 1 10 2 9 3 8 4 6 5 7 6 5 8 4 9 3 10 2 11 1 12 81 13 82 14
REMARK SMILES IDX 94 15 83 16 84 17 93 18 95 19 85 20 86 21 87 22 92 23 88 24
REMARK SMILES IDX 91 25 89 26 90 27 12 28 13 29 14 30 15 31 16 32 17 34 18 35
REMARK SMILES IDX 19 36 80 37 20 38 79 39 21 40 22 41 23 42 73 43 24 44 78 45
REMARK SMILES IDX 72 46 74 47 25 48 77 49 71 50 70 51 26 53 58 54 38 55 57 56
REMARK SMILES IDX 39 57 42 58 56 59 75 60 40 61 41 62 55 64 76 65 43 66 27 67
REMARK SMILES IDX 28 68 36 69 29 70 35 71 37 72 34 73 30 74 31 75 32 76 33 77
REMARK SMILES IDX 59 78 60 79 68 80 61 81 67 82 69 83 66 84 62 85 63 86 64 87
REMARK SMILES IDX 65 88 44 89 45 90 53 91 46 92 52 93 54 94 51 95 47 96 48 97
REMARK SMILES IDX 49 98 50 99
REMARK H PARENT 8 7 15 33 74 52 42 63
REMARK Flexibility Score: inf
ROOT
ATOM      1  C   UNL A   1      30.369  30.085  24.161  1.00  0.00     0.002 C 
ENDROOT
BRANCH   1   2
ATOM      2  C   UNL A   1      30.893  29.142  23.078  1.00  0.00     0.021 C 
BRANCH   2   3
ATOM      3  C   UNL A   1      29.967  27.970  22.746  1.00  0.00     0.116 C 
BRANCH   3   4
ATOM      4  N   UNL A   1      29.583  27.264  23.952  1.00  0.00    -0.354 N 
ATOM      5  C   UNL A   1      30.231  26.400  24.779  1.00  0.00     0.243 C 
ATOM      6  O   UNL A   1      29.528  25.956  25.698  1.00  0.00    -0.273 OA
ATOM      7  H   UNL A   1      28.657  27.450  24.231  1.00  0.00     0.163 HD
BRANCH   5   8
ATOM      8  C   UNL A   1      31.782  26.176  24.787  1.00  0.00     0.181 C 
BRANCH   8   9
ATOM      9  C   UNL A   1      32.436  26.709  26.102  1.00  0.00     0.036 C 
BRANCH   9  10
ATOM     10  C   UNL A   1      33.600  27.709  26.069  1.00  0.00     0.002 C 
BRANCH  10  11
ATOM     11  C   UNL A   1      33.786  28.604  27.296  1.00  0.00    -0.003 C 
ATOM     12  C   UNL A   1      35.114  29.346  27.320  1.00  0.00     0.004 C 
ENDBRANCH  10  11
ENDBRANCH   9  10
ENDBRANCH   8   9
BRANCH   8  13
ATOM     13  N   UNL A   1      32.291  24.892  24.292  1.00  0.00    -0.280 N 
ATOM     14  C   UNL A   1      32.278  23.799  25.141  1.00  0.00     0.266 C 
ATOM     15  C   UNL A   1      32.840  24.679  23.040  1.00  0.00     0.149 C 
ATOM     16  O   UNL A   1      31.951  23.808  26.313  1.00  0.00    -0.268 OA
ATOM     17  C   UNL A   1      32.681  22.571  24.404  1.00  0.00     0.081 C 
ATOM     18  S   UNL A   1      33.299  22.985  22.863  1.00  0.00    -0.054 SA
ATOM     19  S   UNL A   1      33.080  25.780  21.808  1.00  0.00    -0.052 S 
ATOM     20  C   UNL A   1      32.508  21.359  24.944  1.00  0.00     0.029 C 
BRANCH  20  21
ATOM     21  C   UNL A   1      32.929  20.072  24.387  1.00  0.00    -0.024 A 
ATOM     22  C   UNL A   1      32.194  19.358  23.436  1.00  0.00     0.008 A 
ATOM     23  C   UNL A   1      34.115  19.524  24.888  1.00  0.00     0.008 A 
ATOM     24  C   UNL A   1      32.651  18.111  22.988  1.00  0.00     0.004 A 
ATOM     25  C   UNL A   1      34.571  18.285  24.440  1.00  0.00     0.004 A 
ATOM     26  C   UNL A   1      33.844  17.568  23.485  1.00  0.00    -0.051 A 
ATOM     27  C   UNL A   1      34.330  16.230  23.008  1.00  0.00     0.044 C 
ENDBRANCH  20  21
ENDBRANCH   8  13
ENDBRANCH   5   8
ENDBRANCH   3   4
ENDBRANCH   2   3
ENDBRANCH   1   2
BRANCH   1  28
ATOM     28  C   UNL A   1      31.257  30.203  25.401  1.00  0.00     0.002 C 
BRANCH  28  29
ATOM     29  C   UNL A   1      31.222  31.561  26.109  1.00  0.00     0.021 C 
BRANCH  29  30
ATOM     30  C   UNL A   1      32.467  31.899  26.926  1.00  0.00     0.116 C 
BRANCH  30  31
ATOM     31  N   UNL A   1      32.562  33.322  27.199  1.00  0.00    -0.352 N 
ATOM     32  C   UNL A   1      33.374  33.989  28.082  1.00  0.00     0.251 C 
ATOM     33  H   UNL A   1      31.954  33.893  26.674  1.00  0.00     0.163 HD
ATOM     34  O   UNL A   1      33.131  35.159  28.362  1.00  0.00    -0.269 OA
BRANCH  32  35
ATOM     35  C   UNL A   1      34.526  33.298  28.704  1.00  0.00     0.039 A 
ATOM     36  C   UNL A   1      35.818  33.654  28.310  1.00  0.00     0.014 A 
ATOM     37  C   UNL A   1      34.337  32.275  29.640  1.00  0.00     0.014 A 
ATOM     38  C   UNL A   1      36.920  33.016  28.884  1.00  0.00     0.010 A 
ATOM     39  C   UNL A   1      35.438  31.686  30.260  1.00  0.00     0.010 A 
ATOM     40  C   UNL A   1      36.741  32.042  29.881  1.00  0.00    -0.014 A 
BRANCH  40  41
ATOM     41  C   UNL A   1      37.908  31.369  30.510  1.00  0.00     0.031 A 
ATOM     42  C   UNL A   1      38.290  31.690  31.930  1.00  0.00     0.074 A 
ATOM     43  C   UNL A   1      38.646  30.499  29.791  1.00  0.00     0.049 A 
ATOM     44  N   UNL A   1      39.301  31.252  32.636  1.00  0.00    -0.248 NA
ATOM     45  C   UNL A   1      37.437  32.655  32.639  1.00  0.00     0.031 C 
ATOM     46  C   UNL A   1      38.394  30.129  28.397  1.00  0.00     0.029 A 
ATOM     47  N   UNL A   1      39.759  29.770  30.131  1.00  0.00    -0.354 N 
ATOM     48  C   UNL A   1      39.212  31.893  33.868  1.00  0.00     0.074 A 
ATOM     49  C   UNL A   1      38.083  32.797  33.785  1.00  0.00     0.031 C 
ATOM     50  C   UNL A   1      39.311  29.228  28.008  1.00  0.00     0.029 A 
ATOM     51  C   UNL A   1      40.239  28.985  29.109  1.00  0.00     0.049 A 
ATOM     52  H   UNL A   1      40.174  29.807  31.022  1.00  0.00     0.167 HD
ATOM     53  C   UNL A   1      39.982  31.726  34.972  1.00  0.00     0.034 A 
ATOM     54  C   UNL A   1      41.311  28.168  29.060  1.00  0.00     0.034 A 
ATOM     55  C   UNL A   1      41.097  30.811  35.041  1.00  0.00     0.049 A 
ATOM     56  C   UNL A   1      42.164  28.012  30.293  1.00  0.00     0.074 A 
ATOM     57  C   UNL A   1      41.918  30.532  36.120  1.00  0.00     0.029 A 
ATOM     58  N   UNL A   1      41.552  30.028  33.986  1.00  0.00    -0.354 N 
ATOM     59  N   UNL A   1      42.040  28.595  31.464  1.00  0.00    -0.248 NA
ATOM     60  C   UNL A   1      43.291  27.076  30.202  1.00  0.00     0.031 C 
ATOM     61  C   UNL A   1      42.906  29.634  35.701  1.00  0.00     0.029 A 
ATOM     62  C   UNL A   1      42.657  29.289  34.382  1.00  0.00     0.049 A 
ATOM     63  H   UNL A   1      41.147  30.002  33.089  1.00  0.00     0.167 HD
ATOM     64  C   UNL A   1      43.055  28.067  32.258  1.00  0.00     0.074 A 
ATOM     65  C   UNL A   1      43.769  27.111  31.437  1.00  0.00     0.031 C 
ATOM     66  C   UNL A   1      43.365  28.344  33.551  1.00  0.00     0.034 A 
BRANCH  53  67
ATOM     67  C   UNL A   1      39.658  32.574  36.179  1.00  0.00     0.023 A 
ATOM     68  C   UNL A   1      38.784  32.125  37.185  1.00  0.00     0.031 A 
ATOM     69  C   UNL A   1      40.206  33.863  36.315  1.00  0.00     0.131 A 
ATOM     70  C   UNL A   1      38.421  32.983  38.236  1.00  0.00     0.055 A 
ATOM     71  C   UNL A   1      39.909  34.680  37.408  1.00  0.00     0.041 A 
ATOM     72  F   UNL A   1      41.031  34.356  35.377  1.00  0.00    -0.206 F 
ATOM     73  C   UNL A   1      38.999  34.248  38.368  1.00  0.00     0.022 A 
BRANCH  70  74
ATOM     74  S   UNL A   1      37.074  32.480  39.340  1.00  0.00     0.124 S 
ATOM     75  O   UNL A   1      37.363  31.060  39.528  1.00  0.00    -0.237 OA
ATOM     76  O   UNL A   1      37.284  33.334  40.504  1.00  0.00    -0.237 OA
ATOM     77  O   UNL A   1      35.870  32.767  38.564  1.00  0.00    -0.744 OA
ENDBRANCH  70  74
ENDBRANCH  53  67
BRANCH  54  78
ATOM     78  C   UNL A   1      41.646  27.437  27.805  1.00  0.00     0.023 A 
ATOM     79  C   UNL A   1      41.524  26.041  27.724  1.00  0.00     0.031 A 
ATOM     80  C   UNL A   1      42.139  28.120  26.678  1.00  0.00     0.131 A 
ATOM     81  C   UNL A   1      41.934  25.367  26.564  1.00  0.00     0.055 A 
ATOM     82  C   UNL A   1      42.496  27.451  25.506  1.00  0.00     0.041 A 
ATOM     83  F   UNL A   1      42.270  29.456  26.699  1.00  0.00    -0.206 F 
ATOM     84  C   UNL A   1      42.407  26.064  25.450  1.00  0.00     0.022 A 
BRANCH  81  85
ATOM     85  S   UNL A   1      41.922  23.553  26.563  1.00  0.00     0.124 S 
ATOM     86  O   UNL A   1      42.858  23.249  27.640  1.00  0.00    -0.237 OA
ATOM     87  O   UNL A   1      40.518  23.260  26.831  1.00  0.00    -0.237 OA
ATOM     88  O   UNL A   1      42.383  23.211  25.219  1.00  0.00    -0.744 OA
ENDBRANCH  81  85
ENDBRANCH  54  78
BRANCH  66  89
ATOM     89  C   UNL A   1      44.499  27.558  34.166  1.00  0.00     0.023 A 
ATOM     90  C   UNL A   1      44.270  26.435  34.978  1.00  0.00     0.031 A 
ATOM     91  C   UNL A   1      45.830  27.959  33.952  1.00  0.00     0.131 A 
ATOM     92  C   UNL A   1      45.351  25.787  35.597  1.00  0.00     0.055 A 
ATOM     93  C   UNL A   1      46.905  27.273  34.519  1.00  0.00     0.041 A 
ATOM     94  F   UNL A   1      46.109  29.026  33.186  1.00  0.00    -0.206 F 
ATOM     95  C   UNL A   1      46.667  26.189  35.360  1.00  0.00     0.022 A 
BRANCH  92  96
ATOM     96  S   UNL A   1      45.004  24.476  36.802  1.00  0.00     0.124 S 
ATOM     97  O   UNL A   1      45.014  23.282  35.963  1.00  0.00    -0.237 OA
ATOM     98  O   UNL A   1      46.117  24.608  37.735  1.00  0.00    -0.237 OA
ATOM     99  O   UNL A   1      43.696  24.844  37.341  1.00  0.00    -0.744 OA
ENDBRANCH  92  96
ENDBRANCH  66  89
ENDBRANCH  40  41
ENDBRANCH  32  35
ENDBRANCH  30  31
ENDBRANCH  29  30
ENDBRANCH  28  29
ENDBRANCH   1  28
TORSDOF 21
ENDMDL
MODEL 3
REMARK VINA RESULT:     -11.7      1.684      2.428
REMARK SMILES CCCC[C@H](C(=O)NCCCCCCNC(=O)c1ccc(-c2c3nc(c(-c4cc(S(=O)(=O)[O-])ccc4F)c4ccc([nH]4)c(-c4cc(S(=O)(=O)[O-])ccc4F)c4nc(c(-c5cc(S(=O)(=O)[O-])ccc5F)c5ccc2[nH]5)C=C4)C=C3)cc1)N1C(=O)/C(=C/c2ccc(C)cc2)SC1=S
REMARK SMILES IDX 11 1 10 2 9 3 8 4 6 5 7 6 5 8 4 9 3 10 2 11 1 12 81 13 82 14
REMARK SMILES IDX 94 15 83 16 84 17 93 18 95 19 85 20 86 21 87 22 92 23 88 24
REMARK SMILES IDX 91 25 89 26 90 27 12 28 13 29 14 30 15 31 16 32 17 34 18 35
REMARK SMILES IDX 19 36 80 37 20 38 79 39 21 40 22 41 23 42 73 43 24 44 78 45
REMARK SMILES IDX 72 46 74 47 25 48 77 49 71 50 70 51 26 53 58 54 38 55 57 56
REMARK SMILES IDX 39 57 42 58 56 59 75 60 40 61 41 62 55 64 76 65 43 66 27 67
REMARK SMILES IDX 28 68 36 69 29 70 35 71 37 72 34 73 30 74 31 75 32 76 33 77
REMARK SMILES IDX 59 78 60 79 68 80 61 81 67 82 69 83 66 84 62 85 63 86 64 87
REMARK SMILES IDX 65 88 44 89 45 90 53 91 46 92 52 93 54 94 51 95 47 96 48 97
REMARK SMILES IDX 49 98 50 99
REMARK H PARENT 8 7 15 33 74 52 42 63
REMARK Flexibility Score: inf
ROOT
ATOM      1  C   UNL A   1      30.387  30.204  24.347  1.00  0.00     0.002 C 
ENDROOT
BRANCH   1   2
ATOM      2  C   UNL A   1      30.900  29.311  23.215  1.00  0.00     0.021 C 
BRANCH   2   3
ATOM      3  C   UNL A   1      29.894  28.276  22.709  1.00  0.00     0.116 C 
BRANCH   3   4
ATOM      4  N   UNL A   1      29.426  27.443  23.799  1.00  0.00    -0.354 N 
ATOM      5  C   UNL A   1      30.015  26.489  24.570  1.00  0.00     0.243 C 
ATOM      6  O   UNL A   1      29.249  25.950  25.381  1.00  0.00    -0.273 OA
ATOM      7  H   UNL A   1      28.482  27.601  24.030  1.00  0.00     0.163 HD
BRANCH   5   8
ATOM      8  C   UNL A   1      31.563  26.257  24.663  1.00  0.00     0.181 C 
BRANCH   8   9
ATOM      9  C   UNL A   1      32.143  26.775  26.019  1.00  0.00     0.036 C 
BRANCH   9  10
ATOM     10  C   UNL A   1      33.425  27.615  26.072  1.00  0.00     0.002 C 
BRANCH  10  11
ATOM     11  C   UNL A   1      33.575  28.587  27.243  1.00  0.00    -0.003 C 
ATOM     12  C   UNL A   1      34.985  29.132  27.414  1.00  0.00     0.004 C 
ENDBRANCH  10  11
ENDBRANCH   9  10
ENDBRANCH   8   9
BRANCH   8  13
ATOM     13  N   UNL A   1      32.093  24.975  24.186  1.00  0.00    -0.280 N 
ATOM     14  C   UNL A   1      32.107  23.896  25.053  1.00  0.00     0.266 C 
ATOM     15  C   UNL A   1      32.638  24.752  22.934  1.00  0.00     0.149 C 
ATOM     16  O   UNL A   1      31.788  23.918  26.227  1.00  0.00    -0.268 OA
ATOM     17  C   UNL A   1      32.529  22.664  24.333  1.00  0.00     0.081 C 
ATOM     18  S   UNL A   1      33.128  23.064  22.782  1.00  0.00    -0.054 SA
ATOM     19  S   UNL A   1      32.848  25.837  21.683  1.00  0.00    -0.052 S 
ATOM     20  C   UNL A   1      32.383  21.458  24.895  1.00  0.00     0.029 C 
BRANCH  20  21
ATOM     21  C   UNL A   1      32.826  20.170  24.356  1.00  0.00    -0.024 A 
ATOM     22  C   UNL A   1      32.200  19.517  23.290  1.00  0.00     0.008 A 
ATOM     23  C   UNL A   1      33.909  19.557  24.995  1.00  0.00     0.008 A 
ATOM     24  C   UNL A   1      32.665  18.265  22.866  1.00  0.00     0.004 A 
ATOM     25  C   UNL A   1      34.373  18.312  24.570  1.00  0.00     0.004 A 
ATOM     26  C   UNL A   1      33.756  17.656  23.501  1.00  0.00    -0.051 A 
ATOM     27  C   UNL A   1      34.250  16.313  23.049  1.00  0.00     0.044 C 
ENDBRANCH  20  21
ENDBRANCH   8  13
ENDBRANCH   5   8
ENDBRANCH   3   4
ENDBRANCH   2   3
ENDBRANCH   1   2
BRANCH   1  28
ATOM     28  C   UNL A   1      31.358  30.389  25.515  1.00  0.00     0.002 C 
BRANCH  28  29
ATOM     29  C   UNL A   1      31.205  31.698  26.296  1.00  0.00     0.021 C 
BRANCH  29  30
ATOM     30  C   UNL A   1      32.470  32.186  26.998  1.00  0.00     0.116 C 
BRANCH  30  31
ATOM     31  N   UNL A   1      32.390  33.596  27.333  1.00  0.00    -0.352 N 
ATOM     32  C   UNL A   1      33.073  34.306  28.290  1.00  0.00     0.251 C 
ATOM     33  H   UNL A   1      31.752  34.121  26.796  1.00  0.00     0.163 HD
ATOM     34  O   UNL A   1      32.685  35.429  28.600  1.00  0.00    -0.269 OA
BRANCH  32  35
ATOM     35  C   UNL A   1      34.258  33.717  28.951  1.00  0.00     0.039 A 
ATOM     36  C   UNL A   1      34.072  32.671  29.860  1.00  0.00     0.014 A 
ATOM     37  C   UNL A   1      35.543  34.216  28.713  1.00  0.00     0.014 A 
ATOM     38  C   UNL A   1      35.177  32.100  30.496  1.00  0.00     0.010 A 
ATOM     39  C   UNL A   1      36.649  33.601  29.296  1.00  0.00     0.010 A 
ATOM     40  C   UNL A   1      36.478  32.544  30.203  1.00  0.00    -0.014 A 
BRANCH  40  41
ATOM     41  C   UNL A   1      37.661  31.931  30.862  1.00  0.00     0.031 A 
ATOM     42  C   UNL A   1      38.485  30.905  30.131  1.00  0.00     0.074 A 
ATOM     43  C   UNL A   1      37.969  32.267  32.131  1.00  0.00     0.049 A 
ATOM     44  N   UNL A   1      39.517  30.219  30.551  1.00  0.00    -0.248 NA
ATOM     45  C   UNL A   1      38.075  30.591  28.755  1.00  0.00     0.031 C 
ATOM     46  C   UNL A   1      37.228  33.225  32.954  1.00  0.00     0.029 A 
ATOM     47  N   UNL A   1      38.983  31.840  32.952  1.00  0.00    -0.354 N 
ATOM     48  C   UNL A   1      39.875  29.385  29.496  1.00  0.00     0.074 A 
ATOM     49  C   UNL A   1      38.907  29.609  28.442  1.00  0.00     0.031 C 
ATOM     50  C   UNL A   1      37.825  33.329  34.153  1.00  0.00     0.029 A 
ATOM     51  C   UNL A   1      38.965  32.419  34.200  1.00  0.00     0.049 A 
ATOM     52  H   UNL A   1      39.660  31.182  32.674  1.00  0.00     0.167 HD
ATOM     53  C   UNL A   1      40.925  28.530  29.404  1.00  0.00     0.034 A 
ATOM     54  C   UNL A   1      39.769  32.230  35.265  1.00  0.00     0.034 A 
ATOM     55  C   UNL A   1      41.888  28.327  30.461  1.00  0.00     0.049 A 
ATOM     56  C   UNL A   1      40.919  31.262  35.147  1.00  0.00     0.074 A 
ATOM     57  C   UNL A   1      43.012  27.519  30.461  1.00  0.00     0.029 A 
ATOM     58  N   UNL A   1      41.839  28.934  31.711  1.00  0.00    -0.354 N 
ATOM     59  N   UNL A   1      41.268  30.513  34.127  1.00  0.00    -0.248 NA
ATOM     60  C   UNL A   1      41.793  31.128  36.320  1.00  0.00     0.031 C 
ATOM     61  C   UNL A   1      43.604  27.587  31.726  1.00  0.00     0.029 A 
ATOM     62  C   UNL A   1      42.897  28.497  32.495  1.00  0.00     0.049 A 
ATOM     63  H   UNL A   1      41.154  29.581  31.997  1.00  0.00     0.167 HD
ATOM     64  C   UNL A   1      42.422  29.844  34.525  1.00  0.00     0.074 A 
ATOM     65  C   UNL A   1      42.717  30.292  35.872  1.00  0.00     0.031 C 
ATOM     66  C   UNL A   1      43.175  28.945  33.840  1.00  0.00     0.034 A 
BRANCH  53  67
ATOM     67  C   UNL A   1      41.063  27.734  28.128  1.00  0.00     0.023 A 
ATOM     68  C   UNL A   1      40.724  26.370  28.067  1.00  0.00     0.031 A 
ATOM     69  C   UNL A   1      41.568  28.337  26.961  1.00  0.00     0.131 A 
ATOM     70  C   UNL A   1      40.969  25.638  26.895  1.00  0.00     0.055 A 
ATOM     71  C   UNL A   1      41.728  27.623  25.772  1.00  0.00     0.041 A 
ATOM     72  F   UNL A   1      41.928  29.630  26.962  1.00  0.00    -0.206 F 
ATOM     73  C   UNL A   1      41.444  26.261  25.739  1.00  0.00     0.022 A 
BRANCH  70  74
ATOM     74  S   UNL A   1      40.800  23.833  26.950  1.00  0.00     0.124 S 
ATOM     75  O   UNL A   1      41.695  23.421  25.871  1.00  0.00    -0.237 OA
ATOM     76  O   UNL A   1      41.242  23.516  28.304  1.00  0.00    -0.237 OA
ATOM     77  O   UNL A   1      39.379  23.614  26.690  1.00  0.00    -0.744 OA
ENDBRANCH  70  74
ENDBRANCH  53  67
BRANCH  54  78
ATOM     78  C   UNL A   1      39.521  32.965  36.539  1.00  0.00     0.023 A 
ATOM     79  C   UNL A   1      38.664  32.444  37.521  1.00  0.00     0.031 A 
ATOM     80  C   UNL A   1      40.103  34.224  36.774  1.00  0.00     0.131 A 
ATOM     81  C   UNL A   1      38.373  33.197  38.669  1.00  0.00     0.055 A 
ATOM     82  C   UNL A   1      39.853  34.947  37.942  1.00  0.00     0.041 A 
ATOM     83  F   UNL A   1      40.936  34.766  35.870  1.00  0.00    -0.206 F 
ATOM     84  C   UNL A   1      38.973  34.440  38.892  1.00  0.00     0.022 A 
BRANCH  81  85
ATOM     85  S   UNL A   1      37.130  32.568  39.830  1.00  0.00     0.124 S 
ATOM     86  O   UNL A   1      37.684  31.266  40.181  1.00  0.00    -0.237 OA
ATOM     87  O   UNL A   1      37.156  33.582  40.879  1.00  0.00    -0.237 OA
ATOM     88  O   UNL A   1      35.907  32.532  39.031  1.00  0.00    -0.744 OA
ENDBRANCH  81  85
ENDBRANCH  54  78
BRANCH  66  89
ATOM     89  C   UNL A   1      44.418  28.430  34.524  1.00  0.00     0.023 A 
ATOM     90  C   UNL A   1      44.403  27.268  35.314  1.00  0.00     0.031 A 
ATOM     91  C   UNL A   1      45.632  29.130  34.401  1.00  0.00     0.131 A 
ATOM     92  C   UNL A   1      45.563  26.875  36.001  1.00  0.00     0.055 A 
ATOM     93  C   UNL A   1      46.797  28.699  35.035  1.00  0.00     0.041 A 
ATOM     94  F   UNL A   1      45.705  30.248  33.660  1.00  0.00    -0.206 F 
ATOM     95  C   UNL A   1      46.764  27.573  35.853  1.00  0.00     0.022 A 
BRANCH  92  96
ATOM     96  S   UNL A   1      45.453  25.496  37.174  1.00  0.00     0.124 S 
ATOM     97  O   UNL A   1      44.011  25.287  37.264  1.00  0.00    -0.237 OA
ATOM     98  O   UNL A   1      46.207  24.448  36.496  1.00  0.00    -0.237 OA
ATOM     99  O   UNL A   1      46.080  26.025  38.384  1.00  0.00    -0.744 OA
ENDBRANCH  92  96
ENDBRANCH  66  89
ENDBRANCH  40  41
ENDBRANCH  32  35
ENDBRANCH  30  31
ENDBRANCH  29  30
ENDBRANCH  28  29
ENDBRANCH   1  28
TORSDOF 21
ENDMDL
