MODEL 1
REMARK VINA RESULT:     -11.0      0.000      0.000
REMARK SMILES C[NH+]1CCC(NC(=O)N[C@@H]2C=C[C@H](C(=O)NCCCCCCNC(=O)c3ccc(-c4c5nc(c(-c6cc(S(=O)(=O)[O-])ccc6F)c6ccc([nH]6)c(-c6cc(S(=O)(=O)[O-])ccc6F)c6nc(c(-c7cc(S(=O)(=O)[O-])ccc7F)c7ccc4[nH]7)C=C6)C=C5)cc3)C2)CC1
REMARK SMILES IDX 20 1 19 2 18 3 17 4 16 5 14 6 15 7 13 9 10 10 11 11 89 12
REMARK SMILES IDX 12 13 9 14 6 15 7 16 8 18 5 20 1 21 2 22 3 23 91 24 4 26
REMARK SMILES IDX 90 27 21 28 22 29 23 30 24 31 25 33 26 34 27 35 88 36 28 37
REMARK SMILES IDX 87 38 29 39 30 40 31 41 81 42 32 43 86 44 80 45 82 46 33 47
REMARK SMILES IDX 85 48 79 49 78 50 34 52 66 53 46 54 65 55 47 56 50 57 64 58
REMARK SMILES IDX 83 59 48 60 49 61 63 63 84 64 51 65 35 66 36 67 44 68 37 69
REMARK SMILES IDX 43 70 45 71 42 72 38 73 39 74 40 75 41 76 67 77 68 78 76 79
REMARK SMILES IDX 69 80 75 81 77 82 74 83 70 84 71 85 72 86 73 87 52 88 53 89
REMARK SMILES IDX 61 90 54 91 60 92 62 93 59 94 55 95 56 96 57 97 58 98
REMARK H PARENT 16 8 6 17 9 19 2 25 23 32 82 51 50 62
REMARK Flexibility Score: inf
ROOT
ATOM      1  C   UNL A   1      40.362  22.338  26.568  1.00  0.00     0.002 C 
ENDROOT
BRANCH   1   2
ATOM      2  C   UNL A   1      39.009  22.974  26.904  1.00  0.00     0.002 C 
BRANCH   2   3
ATOM      3  C   UNL A   1      38.381  23.780  25.758  1.00  0.00     0.021 C 
BRANCH   3   4
ATOM      4  C   UNL A   1      36.861  23.891  25.861  1.00  0.00     0.116 C 
BRANCH   4   5
ATOM      5  N   UNL A   1      36.291  22.642  26.328  1.00  0.00    -0.356 N 
ATOM      6  C   UNL A   1      35.069  22.106  26.049  1.00  0.00     0.227 C 
ATOM      7  O   UNL A   1      34.717  21.087  26.645  1.00  0.00    -0.274 OA
ATOM      8  H   UNL A   1      36.864  22.110  26.927  1.00  0.00     0.163 HD
BRANCH   6   9
ATOM      9  C   UNL A   1      34.236  22.756  24.955  1.00  0.00     0.103 C 
ATOM     10  C   UNL A   1      31.802  23.080  25.048  1.00  0.00     0.107 C 
ATOM     11  C   UNL A   1      32.176  21.823  24.332  1.00  0.00    -0.006 C 
ATOM     12  C   UNL A   1      33.136  23.658  25.524  1.00  0.00     0.047 C 
ATOM     13  C   UNL A   1      33.496  21.661  24.250  1.00  0.00    -0.016 C 
BRANCH  10  14
ATOM     14  N   UNL A   1      30.880  22.754  26.107  1.00  0.00    -0.332 N 
ATOM     15  N   UNL A   1      29.710  24.772  26.537  1.00  0.00    -0.335 N 
ATOM     16  C   UNL A   1      29.973  23.474  26.790  1.00  0.00     0.315 C 
ATOM     17  H   UNL A   1      29.024  25.164  27.125  1.00  0.00     0.165 HD
ATOM     18  O   UNL A   1      29.341  22.921  27.692  1.00  0.00    -0.249 OA
ATOM     19  H   UNL A   1      30.924  21.811  26.387  1.00  0.00     0.165 HD
BRANCH  15  20
ATOM     20  C   UNL A   1      30.251  25.696  25.561  1.00  0.00     0.095 C 
ATOM     21  C   UNL A   1      31.641  28.709  22.989  1.00  0.00     0.332 C 
ATOM     22  N   UNL A   1      30.841  28.083  24.048  1.00  0.00    -0.337 N 
ATOM     23  C   UNL A   1      31.735  27.637  25.131  1.00  0.00     0.264 C 
ATOM     24  C   UNL A   1      30.021  26.998  23.484  1.00  0.00     0.264 C 
ATOM     25  H   UNL A   1      30.191  28.756  24.455  1.00  0.00     0.347 HD
ATOM     26  C   UNL A   1      30.993  26.856  26.213  1.00  0.00     0.086 C 
ATOM     27  C   UNL A   1      29.236  26.242  24.566  1.00  0.00     0.086 C 
ENDBRANCH  15  20
ENDBRANCH  10  14
ENDBRANCH   6   9
ENDBRANCH   4   5
ENDBRANCH   3   4
ENDBRANCH   2   3
ENDBRANCH   1   2
BRANCH   1  28
ATOM     28  C   UNL A   1      40.296  20.854  26.207  1.00  0.00     0.021 C 
BRANCH  28  29
ATOM     29  C   UNL A   1      41.318  19.989  26.935  1.00  0.00     0.116 C 
BRANCH  29  30
ATOM     30  N   UNL A   1      42.290  19.420  26.016  1.00  0.00    -0.352 N 
ATOM     31  C   UNL A   1      43.295  20.047  25.321  1.00  0.00     0.251 C 
ATOM     32  H   UNL A   1      42.217  18.450  25.871  1.00  0.00     0.163 HD
ATOM     33  O   UNL A   1      43.867  19.459  24.411  1.00  0.00    -0.269 OA
BRANCH  31  34
ATOM     34  C   UNL A   1      43.660  21.439  25.665  1.00  0.00     0.039 A 
ATOM     35  C   UNL A   1      43.453  22.445  24.722  1.00  0.00     0.014 A 
ATOM     36  C   UNL A   1      44.195  21.747  26.920  1.00  0.00     0.014 A 
ATOM     37  C   UNL A   1      43.726  23.772  25.059  1.00  0.00     0.010 A 
ATOM     38  C   UNL A   1      44.391  23.077  27.280  1.00  0.00     0.010 A 
ATOM     39  C   UNL A   1      44.160  24.104  26.353  1.00  0.00    -0.014 A 
BRANCH  39  40
ATOM     40  C   UNL A   1      44.366  25.520  26.755  1.00  0.00     0.031 A 
ATOM     41  C   UNL A   1      45.732  26.142  26.663  1.00  0.00     0.074 A 
ATOM     42  C   UNL A   1      43.331  26.227  27.252  1.00  0.00     0.049 A 
ATOM     43  N   UNL A   1      46.122  27.337  27.024  1.00  0.00    -0.248 NA
ATOM     44  C   UNL A   1      46.806  25.298  26.120  1.00  0.00     0.031 C 
ATOM     45  C   UNL A   1      41.966  25.721  27.419  1.00  0.00     0.029 A 
ATOM     46  N   UNL A   1      43.262  27.519  27.709  1.00  0.00    -0.354 N 
ATOM     47  C   UNL A   1      47.487  27.389  26.757  1.00  0.00     0.074 A 
ATOM     48  C   UNL A   1      47.866  26.079  26.268  1.00  0.00     0.031 C 
ATOM     49  C   UNL A   1      41.191  26.700  27.911  1.00  0.00     0.029 A 
ATOM     50  C   UNL A   1      42.009  27.884  28.148  1.00  0.00     0.049 A 
ATOM     51  H   UNL A   1      44.035  28.127  27.723  1.00  0.00     0.167 HD
ATOM     52  C   UNL A   1      48.338  28.437  26.883  1.00  0.00     0.034 A 
ATOM     53  C   UNL A   1      41.572  29.037  28.693  1.00  0.00     0.034 A 
ATOM     54  C   UNL A   1      47.941  29.737  27.371  1.00  0.00     0.049 A 
ATOM     55  C   UNL A   1      42.549  30.172  28.872  1.00  0.00     0.074 A 
ATOM     56  C   UNL A   1      48.709  30.881  27.495  1.00  0.00     0.029 A 
ATOM     57  N   UNL A   1      46.669  30.063  27.826  1.00  0.00    -0.354 N 
ATOM     58  N   UNL A   1      43.825  30.219  28.568  1.00  0.00    -0.248 NA
ATOM     59  C   UNL A   1      42.024  31.412  29.459  1.00  0.00     0.031 C 
ATOM     60  C   UNL A   1      47.928  31.871  28.099  1.00  0.00     0.029 A 
ATOM     61  C   UNL A   1      46.644  31.377  28.268  1.00  0.00     0.049 A 
ATOM     62  H   UNL A   1      45.897  29.451  27.832  1.00  0.00     0.167 HD
ATOM     63  C   UNL A   1      44.247  31.505  28.898  1.00  0.00     0.074 A 
ATOM     64  C   UNL A   1      43.084  32.203  29.406  1.00  0.00     0.031 C 
ATOM     65  C   UNL A   1      45.481  32.060  28.787  1.00  0.00     0.034 A 
BRANCH  52  66
ATOM     66  C   UNL A   1      49.786  28.209  26.515  1.00  0.00     0.023 A 
ATOM     67  C   UNL A   1      50.262  28.438  25.212  1.00  0.00     0.031 A 
ATOM     68  C   UNL A   1      50.700  27.736  27.474  1.00  0.00     0.131 A 
ATOM     69  C   UNL A   1      51.589  28.124  24.885  1.00  0.00     0.055 A 
ATOM     70  C   UNL A   1      52.042  27.510  27.163  1.00  0.00     0.041 A 
ATOM     71  F   UNL A   1      50.302  27.476  28.729  1.00  0.00    -0.206 F 
ATOM     72  C   UNL A   1      52.491  27.688  25.859  1.00  0.00     0.022 A 
BRANCH  69  73
ATOM     73  S   UNL A   1      52.078  28.146  23.139  1.00  0.00     0.124 S 
ATOM     74  O   UNL A   1      51.177  29.161  22.595  1.00  0.00    -0.237 OA
ATOM     75  O   UNL A   1      53.486  28.514  23.209  1.00  0.00    -0.237 OA
ATOM     76  O   UNL A   1      51.808  26.781  22.690  1.00  0.00    -0.744 OA
ENDBRANCH  69  73
ENDBRANCH  52  66
BRANCH  53  77
ATOM     77  C   UNL A   1      40.151  29.179  29.125  1.00  0.00     0.023 A 
ATOM     78  C   UNL A   1      39.798  29.117  30.483  1.00  0.00     0.031 A 
ATOM     79  C   UNL A   1      39.117  29.331  28.183  1.00  0.00     0.131 A 
ATOM     80  C   UNL A   1      38.445  29.153  30.857  1.00  0.00     0.055 A 
ATOM     81  C   UNL A   1      37.778  29.428  28.565  1.00  0.00     0.041 A 
ATOM     82  F   UNL A   1      39.397  29.397  26.871  1.00  0.00    -0.206 F 
ATOM     83  C   UNL A   1      37.434  29.324  29.909  1.00  0.00     0.022 A 
BRANCH  80  84
ATOM     84  S   UNL A   1      38.019  28.869  32.597  1.00  0.00     0.124 S 
ATOM     85  O   UNL A   1      39.045  29.646  33.283  1.00  0.00    -0.237 OA
ATOM     86  O   UNL A   1      36.661  29.395  32.666  1.00  0.00    -0.237 OA
ATOM     87  O   UNL A   1      38.133  27.419  32.741  1.00  0.00    -0.744 OA
ENDBRANCH  80  84
ENDBRANCH  53  77
BRANCH  65  88
ATOM     88  C   UNL A   1      45.622  33.510  29.187  1.00  0.00     0.023 A 
ATOM     89  C   UNL A   1      45.475  34.553  28.256  1.00  0.00     0.031 A 
ATOM     90  C   UNL A   1      45.918  33.851  30.520  1.00  0.00     0.131 A 
ATOM     91  C   UNL A   1      45.684  35.882  28.657  1.00  0.00     0.055 A 
ATOM     92  C   UNL A   1      46.055  35.178  30.926  1.00  0.00     0.041 A 
ATOM     93  F   UNL A   1      46.073  32.896  31.451  1.00  0.00    -0.206 F 
ATOM     94  C   UNL A   1      45.953  36.203  29.990  1.00  0.00     0.022 A 
BRANCH  91  95
ATOM     95  S   UNL A   1      45.700  37.180  27.390  1.00  0.00     0.124 S 
ATOM     96  O   UNL A   1      46.409  36.524  26.295  1.00  0.00    -0.237 OA
ATOM     97  O   UNL A   1      44.278  37.424  27.173  1.00  0.00    -0.237 OA
ATOM     98  O   UNL A   1      46.427  38.275  28.030  1.00  0.00    -0.744 OA
ENDBRANCH  91  95
ENDBRANCH  65  88
ENDBRANCH  39  40
ENDBRANCH  31  34
ENDBRANCH  29  30
ENDBRANCH  28  29
ENDBRANCH   1  28
TORSDOF 18
ENDMDL
MODEL 2
REMARK VINA RESULT:     -10.9      6.081     11.755
REMARK SMILES C[NH+]1CCC(NC(=O)N[C@@H]2C=C[C@H](C(=O)NCCCCCCNC(=O)c3ccc(-c4c5nc(c(-c6cc(S(=O)(=O)[O-])ccc6F)c6ccc([nH]6)c(-c6cc(S(=O)(=O)[O-])ccc6F)c6nc(c(-c7cc(S(=O)(=O)[O-])ccc7F)c7ccc4[nH]7)C=C6)C=C5)cc3)C2)CC1
REMARK SMILES IDX 20 1 19 2 18 3 17 4 16 5 14 6 15 7 13 9 10 10 11 11 89 12
REMARK SMILES IDX 12 13 9 14 6 15 7 16 8 18 5 20 1 21 2 22 3 23 91 24 4 26
REMARK SMILES IDX 90 27 21 28 22 29 23 30 24 31 25 33 26 34 27 35 88 36 28 37
REMARK SMILES IDX 87 38 29 39 30 40 31 41 81 42 32 43 86 44 80 45 82 46 33 47
REMARK SMILES IDX 85 48 79 49 78 50 34 52 66 53 46 54 65 55 47 56 50 57 64 58
REMARK SMILES IDX 83 59 48 60 49 61 63 63 84 64 51 65 35 66 36 67 44 68 37 69
REMARK SMILES IDX 43 70 45 71 42 72 38 73 39 74 40 75 41 76 67 77 68 78 76 79
REMARK SMILES IDX 69 80 75 81 77 82 74 83 70 84 71 85 72 86 73 87 52 88 53 89
REMARK SMILES IDX 61 90 54 91 60 92 62 93 59 94 55 95 56 96 57 97 58 98
REMARK H PARENT 16 8 6 17 9 19 2 25 23 32 82 51 50 62
REMARK Flexibility Score: inf
ROOT
ATOM      1  C   UNL A   1      35.838  32.685  28.003  1.00  0.00     0.002 C 
ENDROOT
BRANCH   1   2
ATOM      2  C   UNL A   1      35.093  31.369  28.248  1.00  0.00     0.002 C 
BRANCH   2   3
ATOM      3  C   UNL A   1      35.812  30.120  27.720  1.00  0.00     0.021 C 
BRANCH   3   4
ATOM      4  C   UNL A   1      34.861  29.074  27.142  1.00  0.00     0.116 C 
BRANCH   4   5
ATOM      5  N   UNL A   1      34.025  29.662  26.113  1.00  0.00    -0.356 N 
ATOM      6  C   UNL A   1      33.147  29.045  25.273  1.00  0.00     0.227 C 
ATOM      7  O   UNL A   1      32.618  29.704  24.378  1.00  0.00    -0.274 OA
ATOM      8  H   UNL A   1      34.102  30.638  26.009  1.00  0.00     0.163 HD
BRANCH   6   9
ATOM      9  C   UNL A   1      32.810  27.585  25.538  1.00  0.00     0.103 C 
ATOM     10  C   UNL A   1      32.453  25.888  23.797  1.00  0.00     0.107 C 
ATOM     11  C   UNL A   1      31.171  26.503  24.255  1.00  0.00    -0.006 C 
ATOM     12  C   UNL A   1      33.535  26.639  24.574  1.00  0.00     0.047 C 
ATOM     13  C   UNL A   1      31.357  27.401  25.222  1.00  0.00    -0.016 C 
BRANCH  10  14
ATOM     14  N   UNL A   1      32.546  26.019  22.364  1.00  0.00    -0.332 N 
ATOM     15  N   UNL A   1      33.154  23.860  21.594  1.00  0.00    -0.335 N 
ATOM     16  C   UNL A   1      32.869  25.161  21.382  1.00  0.00     0.315 C 
ATOM     17  H   UNL A   1      33.378  23.359  20.776  1.00  0.00     0.165 HD
ATOM     18  O   UNL A   1      32.903  25.578  20.223  1.00  0.00    -0.249 OA
ATOM     19  H   UNL A   1      32.327  26.923  22.040  1.00  0.00     0.165 HD
BRANCH  15  20
ATOM     20  C   UNL A   1      33.191  23.062  22.804  1.00  0.00     0.095 C 
ATOM     21  C   UNL A   1      33.615  20.496  26.099  1.00  0.00     0.332 C 
ATOM     22  N   UNL A   1      33.717  20.959  24.710  1.00  0.00    -0.337 N 
ATOM     23  C   UNL A   1      34.567  22.161  24.661  1.00  0.00     0.264 C 
ATOM     24  C   UNL A   1      32.371  21.173  24.152  1.00  0.00     0.264 C 
ATOM     25  H   UNL A   1      34.163  20.252  24.125  1.00  0.00     0.347 HD
ATOM     26  C   UNL A   1      34.616  22.783  23.267  1.00  0.00     0.086 C 
ATOM     27  C   UNL A   1      32.417  21.753  22.731  1.00  0.00     0.086 C 
ENDBRANCH  15  20
ENDBRANCH  10  14
ENDBRANCH   6   9
ENDBRANCH   4   5
ENDBRANCH   3   4
ENDBRANCH   2   3
ENDBRANCH   1   2
BRANCH   1  28
ATOM     28  C   UNL A   1      34.945  33.927  27.971  1.00  0.00     0.021 C 
BRANCH  28  29
ATOM     29  C   UNL A   1      33.516  33.677  28.439  1.00  0.00     0.116 C 
BRANCH  29  30
ATOM     30  N   UNL A   1      33.047  34.737  29.316  1.00  0.00    -0.352 N 
ATOM     31  C   UNL A   1      33.393  35.000  30.618  1.00  0.00     0.251 C 
ATOM     32  H   UNL A   1      32.389  35.353  28.920  1.00  0.00     0.163 HD
ATOM     33  O   UNL A   1      32.727  35.787  31.280  1.00  0.00    -0.269 OA
BRANCH  31  34
ATOM     34  C   UNL A   1      34.557  34.310  31.216  1.00  0.00     0.039 A 
ATOM     35  C   UNL A   1      34.376  33.051  31.789  1.00  0.00     0.014 A 
ATOM     36  C   UNL A   1      35.824  34.902  31.201  1.00  0.00     0.014 A 
ATOM     37  C   UNL A   1      35.478  32.357  32.292  1.00  0.00     0.010 A 
ATOM     38  C   UNL A   1      36.932  34.177  31.631  1.00  0.00     0.010 A 
ATOM     39  C   UNL A   1      36.770  32.897  32.182  1.00  0.00    -0.014 A 
BRANCH  39  40
ATOM     40  C   UNL A   1      37.964  32.132  32.630  1.00  0.00     0.031 A 
ATOM     41  C   UNL A   1      38.593  32.423  33.963  1.00  0.00     0.074 A 
ATOM     42  C   UNL A   1      38.508  31.211  31.809  1.00  0.00     0.049 A 
ATOM     43  N   UNL A   1      39.670  31.909  34.499  1.00  0.00    -0.248 NA
ATOM     44  C   UNL A   1      37.942  33.449  34.791  1.00  0.00     0.031 C 
ATOM     45  C   UNL A   1      38.005  30.864  30.477  1.00  0.00     0.029 A 
ATOM     46  N   UNL A   1      39.603  30.400  31.969  1.00  0.00    -0.354 N 
ATOM     47  C   UNL A   1      39.829  32.550  35.724  1.00  0.00     0.074 A 
ATOM     48  C   UNL A   1      38.775  33.539  35.816  1.00  0.00     0.031 C 
ATOM     49  C   UNL A   1      38.769  29.892  29.957  1.00  0.00     0.029 A 
ATOM     50  C   UNL A   1      39.849  29.583  30.889  1.00  0.00     0.049 A 
ATOM     51  H   UNL A   1      40.161  30.403  32.779  1.00  0.00     0.167 HD
ATOM     52  C   UNL A   1      40.752  32.317  36.690  1.00  0.00     0.034 A 
ATOM     53  C   UNL A   1      40.839  28.696  30.667  1.00  0.00     0.034 A 
ATOM     54  C   UNL A   1      41.794  31.325  36.580  1.00  0.00     0.049 A 
ATOM     55  C   UNL A   1      41.884  28.492  31.735  1.00  0.00     0.074 A 
ATOM     56  C   UNL A   1      42.751  30.975  37.516  1.00  0.00     0.029 A 
ATOM     57  N   UNL A   1      42.025  30.531  35.464  1.00  0.00    -0.354 N 
ATOM     58  N   UNL A   1      41.991  29.072  32.908  1.00  0.00    -0.248 NA
ATOM     59  C   UNL A   1      42.937  27.508  31.453  1.00  0.00     0.031 C 
ATOM     60  C   UNL A   1      43.608  30.032  36.938  1.00  0.00     0.029 A 
ATOM     61  C   UNL A   1      43.132  29.723  35.673  1.00  0.00     0.049 A 
ATOM     62  H   UNL A   1      41.481  30.540  34.642  1.00  0.00     0.167 HD
ATOM     63  C   UNL A   1      43.105  28.498  33.516  1.00  0.00     0.074 A 
ATOM     64  C   UNL A   1      43.622  27.515  32.586  1.00  0.00     0.031 C 
ATOM     65  C   UNL A   1      43.648  28.756  34.732  1.00  0.00     0.034 A 
BRANCH  52  66
ATOM     66  C   UNL A   1      40.689  33.173  37.935  1.00  0.00     0.023 A 
ATOM     67  C   UNL A   1      39.961  32.774  39.069  1.00  0.00     0.031 A 
ATOM     68  C   UNL A   1      41.349  34.414  37.982  1.00  0.00     0.131 A 
ATOM     69  C   UNL A   1      39.847  33.638  40.169  1.00  0.00     0.055 A 
ATOM     70  C   UNL A   1      41.306  35.229  39.114  1.00  0.00     0.041 A 
ATOM     71  F   UNL A   1      42.042  34.861  36.922  1.00  0.00    -0.206 F 
ATOM     72  C   UNL A   1      40.538  34.851  40.211  1.00  0.00     0.022 A 
BRANCH  69  73
ATOM     73  S   UNL A   1      38.661  33.221  41.476  1.00  0.00     0.124 S 
ATOM     74  O   UNL A   1      39.482  33.370  42.676  1.00  0.00    -0.237 OA
ATOM     75  O   UNL A   1      37.618  34.221  41.287  1.00  0.00    -0.237 OA
ATOM     76  O   UNL A   1      38.275  31.846  41.163  1.00  0.00    -0.744 OA
ENDBRANCH  69  73
ENDBRANCH  52  66
BRANCH  53  77
ATOM     77  C   UNL A   1      40.908  27.943  29.380  1.00  0.00     0.023 A 
ATOM     78  C   UNL A   1      41.863  28.265  28.403  1.00  0.00     0.031 A 
ATOM     79  C   UNL A   1      39.986  26.921  29.087  1.00  0.00     0.131 A 
ATOM     80  C   UNL A   1      41.843  27.610  27.162  1.00  0.00     0.055 A 
ATOM     81  C   UNL A   1      40.009  26.231  27.874  1.00  0.00     0.041 A 
ATOM     82  F   UNL A   1      39.051  26.571  29.985  1.00  0.00    -0.206 F 
ATOM     83  C   UNL A   1      40.933  26.584  26.897  1.00  0.00     0.022 A 
BRANCH  80  84
ATOM     84  S   UNL A   1      42.962  28.191  25.857  1.00  0.00     0.124 S 
ATOM     85  O   UNL A   1      43.003  29.624  26.120  1.00  0.00    -0.237 OA
ATOM     86  O   UNL A   1      44.182  27.448  26.152  1.00  0.00    -0.237 OA
ATOM     87  O   UNL A   1      42.278  27.800  24.626  1.00  0.00    -0.744 OA
ENDBRANCH  80  84
ENDBRANCH  53  77
BRANCH  65  88
ATOM     88  C   UNL A   1      44.844  27.927  35.142  1.00  0.00     0.023 A 
ATOM     89  C   UNL A   1      44.700  26.668  35.750  1.00  0.00     0.031 A 
ATOM     90  C   UNL A   1      46.147  28.412  34.927  1.00  0.00     0.131 A 
ATOM     91  C   UNL A   1      45.837  25.965  36.177  1.00  0.00     0.055 A 
ATOM     92  C   UNL A   1      47.275  27.676  35.291  1.00  0.00     0.041 A 
ATOM     93  F   UNL A   1      46.345  29.610  34.354  1.00  0.00    -0.206 F 
ATOM     94  C   UNL A   1      47.124  26.451  35.934  1.00  0.00     0.022 A 
BRANCH  91  95
ATOM     95  S   UNL A   1      45.607  24.451  37.150  1.00  0.00     0.124 S 
ATOM     96  O   UNL A   1      46.972  24.158  37.578  1.00  0.00    -0.237 OA
ATOM     97  O   UNL A   1      44.690  24.888  38.198  1.00  0.00    -0.237 OA
ATOM     98  O   UNL A   1      45.044  23.506  36.187  1.00  0.00    -0.744 OA
ENDBRANCH  91  95
ENDBRANCH  65  88
ENDBRANCH  39  40
ENDBRANCH  31  34
ENDBRANCH  29  30
ENDBRANCH  28  29
ENDBRANCH   1  28
TORSDOF 18
ENDMDL
MODEL 3
REMARK VINA RESULT:     -10.8      0.713      7.711
REMARK SMILES C[NH+]1CCC(NC(=O)N[C@@H]2C=C[C@H](C(=O)NCCCCCCNC(=O)c3ccc(-c4c5nc(c(-c6cc(S(=O)(=O)[O-])ccc6F)c6ccc([nH]6)c(-c6cc(S(=O)(=O)[O-])ccc6F)c6nc(c(-c7cc(S(=O)(=O)[O-])ccc7F)c7ccc4[nH]7)C=C6)C=C5)cc3)C2)CC1
REMARK SMILES IDX 20 1 19 2 18 3 17 4 16 5 14 6 15 7 13 9 10 10 11 11 89 12
REMARK SMILES IDX 12 13 9 14 6 15 7 16 8 18 5 20 1 21 2 22 3 23 91 24 4 26
REMARK SMILES IDX 90 27 21 28 22 29 23 30 24 31 25 33 26 34 27 35 88 36 28 37
REMARK SMILES IDX 87 38 29 39 30 40 31 41 81 42 32 43 86 44 80 45 82 46 33 47
REMARK SMILES IDX 85 48 79 49 78 50 34 52 66 53 46 54 65 55 47 56 50 57 64 58
REMARK SMILES IDX 83 59 48 60 49 61 63 63 84 64 51 65 35 66 36 67 44 68 37 69
REMARK SMILES IDX 43 70 45 71 42 72 38 73 39 74 40 75 41 76 67 77 68 78 76 79
REMARK SMILES IDX 69 80 75 81 77 82 74 83 70 84 71 85 72 86 73 87 52 88 53 89
REMARK SMILES IDX 61 90 54 91 60 92 62 93 59 94 55 95 56 96 57 97 58 98
REMARK H PARENT 16 8 6 17 9 19 2 25 23 32 82 51 50 62
REMARK Flexibility Score: inf
ROOT
ATOM      1  C   UNL A   1      40.042  22.108  26.689  1.00  0.00     0.002 C 
ENDROOT
BRANCH   1   2
ATOM      2  C   UNL A   1      38.776  22.936  26.442  1.00  0.00     0.002 C 
BRANCH   2   3
ATOM      3  C   UNL A   1      37.761  22.283  25.494  1.00  0.00     0.021 C 
BRANCH   3   4
ATOM      4  C   UNL A   1      36.366  22.151  26.103  1.00  0.00     0.116 C 
BRANCH   4   5
ATOM      5  N   UNL A   1      35.728  20.931  25.647  1.00  0.00    -0.356 N 
ATOM      6  C   UNL A   1      34.597  20.789  24.899  1.00  0.00     0.227 C 
ATOM      7  O   UNL A   1      34.142  19.660  24.718  1.00  0.00    -0.274 OA
ATOM      8  H   UNL A   1      36.171  20.093  25.915  1.00  0.00     0.163 HD
BRANCH   6   9
ATOM      9  C   UNL A   1      34.001  22.035  24.261  1.00  0.00     0.103 C 
ATOM     10  C   UNL A   1      31.912  23.115  24.973  1.00  0.00     0.107 C 
ATOM     11  C   UNL A   1      31.695  22.157  23.847  1.00  0.00    -0.006 C 
ATOM     12  C   UNL A   1      33.400  22.987  25.301  1.00  0.00     0.047 C 
ATOM     13  C   UNL A   1      32.831  21.594  23.436  1.00  0.00    -0.016 C 
BRANCH  10  14
ATOM     14  N   UNL A   1      31.029  22.764  26.057  1.00  0.00    -0.332 N 
ATOM     15  N   UNL A   1      29.780  24.734  26.486  1.00  0.00    -0.335 N 
ATOM     16  C   UNL A   1      30.106  23.453  26.751  1.00  0.00     0.315 C 
ATOM     17  H   UNL A   1      29.090  25.104  27.084  1.00  0.00     0.165 HD
ATOM     18  O   UNL A   1      29.519  22.886  27.674  1.00  0.00    -0.249 OA
ATOM     19  H   UNL A   1      31.121  21.828  26.349  1.00  0.00     0.165 HD
BRANCH  15  20
ATOM     20  C   UNL A   1      30.257  25.667  25.485  1.00  0.00     0.095 C 
ATOM     21  C   UNL A   1      31.474  28.702  22.852  1.00  0.00     0.332 C 
ATOM     22  N   UNL A   1      30.739  28.065  23.951  1.00  0.00    -0.337 N 
ATOM     23  C   UNL A   1      31.693  27.626  24.983  1.00  0.00     0.264 C 
ATOM     24  C   UNL A   1      29.902  26.971  23.428  1.00  0.00     0.264 C 
ATOM     25  H   UNL A   1      30.102  28.728  24.393  1.00  0.00     0.347 HD
ATOM     26  C   UNL A   1      31.019  26.834  26.101  1.00  0.00     0.086 C 
ATOM     27  C   UNL A   1      29.184  26.203  24.547  1.00  0.00     0.086 C 
ENDBRANCH  15  20
ENDBRANCH  10  14
ENDBRANCH   6   9
ENDBRANCH   4   5
ENDBRANCH   3   4
ENDBRANCH   2   3
ENDBRANCH   1   2
BRANCH   1  28
ATOM     28  C   UNL A   1      40.004  20.697  26.100  1.00  0.00     0.021 C 
BRANCH  28  29
ATOM     29  C   UNL A   1      40.864  19.686  26.850  1.00  0.00     0.116 C 
BRANCH  29  30
ATOM     30  N   UNL A   1      41.971  19.215  26.034  1.00  0.00    -0.352 N 
ATOM     31  C   UNL A   1      42.997  19.931  25.471  1.00  0.00     0.251 C 
ATOM     32  H   UNL A   1      41.986  18.246  25.862  1.00  0.00     0.163 HD
ATOM     33  O   UNL A   1      43.708  19.412  24.618  1.00  0.00    -0.269 OA
BRANCH  31  34
ATOM     34  C   UNL A   1      43.218  21.335  25.883  1.00  0.00     0.039 A 
ATOM     35  C   UNL A   1      43.532  21.607  27.214  1.00  0.00     0.014 A 
ATOM     36  C   UNL A   1      43.122  22.376  24.953  1.00  0.00     0.014 A 
ATOM     37  C   UNL A   1      43.813  22.919  27.601  1.00  0.00     0.010 A 
ATOM     38  C   UNL A   1      43.479  23.669  25.324  1.00  0.00     0.010 A 
ATOM     39  C   UNL A   1      43.827  23.954  26.652  1.00  0.00    -0.014 A 
BRANCH  39  40
ATOM     40  C   UNL A   1      44.214  25.339  27.031  1.00  0.00     0.031 A 
ATOM     41  C   UNL A   1      43.194  26.277  27.615  1.00  0.00     0.074 A 
ATOM     42  C   UNL A   1      45.473  25.764  26.799  1.00  0.00     0.049 A 
ATOM     43  N   UNL A   1      43.323  27.535  27.948  1.00  0.00    -0.248 NA
ATOM     44  C   UNL A   1      41.843  25.735  27.825  1.00  0.00     0.031 C 
ATOM     45  C   UNL A   1      46.541  24.955  26.207  1.00  0.00     0.029 A 
ATOM     46  N   UNL A   1      46.067  26.979  27.029  1.00  0.00    -0.354 N 
ATOM     47  C   UNL A   1      42.071  27.938  28.403  1.00  0.00     0.074 A 
ATOM     48  C   UNL A   1      41.183  26.807  28.236  1.00  0.00     0.031 C 
ATOM     49  C   UNL A   1      47.665  25.686  26.150  1.00  0.00     0.029 A 
ATOM     50  C   UNL A   1      47.389  27.029  26.648  1.00  0.00     0.049 A 
ATOM     51  H   UNL A   1      45.594  27.744  27.428  1.00  0.00     0.167 HD
ATOM     52  C   UNL A   1      41.705  29.132  28.933  1.00  0.00     0.034 A 
ATOM     53  C   UNL A   1      48.274  28.045  26.680  1.00  0.00     0.034 A 
ATOM     54  C   UNL A   1      42.606  30.248  29.092  1.00  0.00     0.049 A 
ATOM     55  C   UNL A   1      47.829  29.379  27.226  1.00  0.00     0.074 A 
ATOM     56  C   UNL A   1      42.352  31.485  29.659  1.00  0.00     0.029 A 
ATOM     57  N   UNL A   1      43.931  30.269  28.675  1.00  0.00    -0.354 N 
ATOM     58  N   UNL A   1      46.654  29.728  27.698  1.00  0.00    -0.248 NA
ATOM     59  C   UNL A   1      48.830  30.452  27.252  1.00  0.00     0.031 C 
ATOM     60  C   UNL A   1      43.494  32.279  29.511  1.00  0.00     0.029 A 
ATOM     61  C   UNL A   1      44.493  31.510  28.935  1.00  0.00     0.049 A 
ATOM     62  H   UNL A   1      44.403  29.513  28.256  1.00  0.00     0.167 HD
ATOM     63  C   UNL A   1      46.787  31.053  28.105  1.00  0.00     0.074 A 
ATOM     64  C   UNL A   1      48.160  31.431  27.841  1.00  0.00     0.031 C 
ATOM     65  C   UNL A   1      45.861  31.881  28.653  1.00  0.00     0.034 A 
BRANCH  52  66
ATOM     66  C   UNL A   1      40.261  29.296  29.349  1.00  0.00     0.023 A 
ATOM     67  C   UNL A   1      39.866  29.210  30.696  1.00  0.00     0.031 A 
ATOM     68  C   UNL A   1      39.262  29.522  28.386  1.00  0.00     0.131 A 
ATOM     69  C   UNL A   1      38.506  29.272  31.033  1.00  0.00     0.055 A 
ATOM     70  C   UNL A   1      37.919  29.672  28.738  1.00  0.00     0.041 A 
ATOM     71  F   UNL A   1      39.571  29.591  27.081  1.00  0.00    -0.206 F 
ATOM     72  C   UNL A   1      37.532  29.531  30.067  1.00  0.00     0.022 A 
BRANCH  69  73
ATOM     73  S   UNL A   1      38.016  28.856  32.729  1.00  0.00     0.124 S 
ATOM     74  O   UNL A   1      36.659  29.396  32.784  1.00  0.00    -0.237 OA
ATOM     75  O   UNL A   1      38.128  27.404  32.744  1.00  0.00    -0.237 OA
ATOM     76  O   UNL A   1      38.993  29.568  33.552  1.00  0.00    -0.744 OA
ENDBRANCH  69  73
ENDBRANCH  52  66
BRANCH  53  77
ATOM     77  C   UNL A   1      49.663  27.856  26.170  1.00  0.00     0.023 A 
ATOM     78  C   UNL A   1      49.986  28.127  24.831  1.00  0.00     0.031 A 
ATOM     79  C   UNL A   1      50.680  27.355  27.003  1.00  0.00     0.131 A 
ATOM     80  C   UNL A   1      51.274  27.846  24.350  1.00  0.00     0.055 A 
ATOM     81  C   UNL A   1      51.977  27.135  26.535  1.00  0.00     0.041 A 
ATOM     82  F   UNL A   1      50.428  27.080  28.293  1.00  0.00    -0.206 F 
ATOM     83  C   UNL A   1      52.277  27.368  25.197  1.00  0.00     0.022 A 
BRANCH  80  84
ATOM     84  S   UNL A   1      51.594  28.020  22.573  1.00  0.00     0.124 S 
ATOM     85  O   UNL A   1      53.000  27.644  22.488  1.00  0.00    -0.237 OA
ATOM     86  O   UNL A   1      50.640  27.076  22.001  1.00  0.00    -0.237 OA
ATOM     87  O   UNL A   1      51.306  29.429  22.314  1.00  0.00    -0.744 OA
ENDBRANCH  80  84
ENDBRANCH  53  77
BRANCH  65  88
ATOM     88  C   UNL A   1      46.321  33.267  29.041  1.00  0.00     0.023 A 
ATOM     89  C   UNL A   1      46.168  34.367  28.180  1.00  0.00     0.031 A 
ATOM     90  C   UNL A   1      46.930  33.485  30.291  1.00  0.00     0.131 A 
ATOM     91  C   UNL A   1      46.673  35.622  28.553  1.00  0.00     0.055 A 
ATOM     92  C   UNL A   1      47.367  34.751  30.684  1.00  0.00     0.041 A 
ATOM     93  F   UNL A   1      47.106  32.471  31.152  1.00  0.00    -0.206 F 
ATOM     94  C   UNL A   1      47.253  35.826  29.808  1.00  0.00     0.022 A 
BRANCH  91  95
ATOM     95  S   UNL A   1      46.654  36.965  27.333  1.00  0.00     0.124 S 
ATOM     96  O   UNL A   1      45.232  37.064  27.016  1.00  0.00    -0.237 OA
ATOM     97  O   UNL A   1      47.219  38.080  28.086  1.00  0.00    -0.237 OA
ATOM     98  O   UNL A   1      47.496  36.457  26.251  1.00  0.00    -0.744 OA
ENDBRANCH  91  95
ENDBRANCH  65  88
ENDBRANCH  39  40
ENDBRANCH  31  34
ENDBRANCH  29  30
ENDBRANCH  28  29
ENDBRANCH   1  28
TORSDOF 18
ENDMDL
