MODEL 1
REMARK VINA RESULT:     -12.0      0.000      0.000
REMARK SMILES O=C(NCCCCCCNC(=O)c1ccc2c(=O)n3cc(C(=O)c4cc(F)ccc4O)cc(Cl)c3nc2c1)c1ccc(-c2c3nc(c(-c4cc(S(=O)(=O)[O-])ccc4F)c4ccc([nH]4)c(-c4cc(S(=O)(=O)[O-])ccc4F)c4nc(c(-c5cc(S(=O)(=O)[O-])ccc5F)c5ccc2[nH]5)C=C4)C=C3)cc1
REMARK SMILES IDX 6 1 5 2 4 3 3 4 1 5 2 6 39 8 40 9 101 10 41 11 100 12 42 13
REMARK SMILES IDX 43 14 44 15 94 16 45 17 99 18 93 19 95 20 46 21 98 22 92 23
REMARK SMILES IDX 91 24 47 26 79 27 59 28 78 29 60 30 63 31 77 32 96 33 61 34
REMARK SMILES IDX 62 35 76 37 97 38 64 39 48 40 49 41 57 42 50 43 56 44 58 45
REMARK SMILES IDX 55 46 51 47 52 48 53 49 54 50 80 51 81 52 89 53 82 54 88 55
REMARK SMILES IDX 90 56 87 57 83 58 84 59 85 60 86 61 65 62 66 63 74 64 67 65
REMARK SMILES IDX 73 66 75 67 72 68 68 69 69 70 70 71 71 72 7 73 8 74 9 75
REMARK SMILES IDX 10 76 11 77 12 79 13 80 14 81 38 82 15 83 37 84 16 85 36 86
REMARK SMILES IDX 17 87 35 88 18 89 19 90 33 91 20 92 32 93 34 94 21 95 22 96
REMARK SMILES IDX 23 97 24 98 25 99 30 100 26 101 29 102 27 103 28 104 31 105
REMARK H PARENT 3 7 95 25 63 36 10 78 31 106
REMARK Flexibility Score: inf
ROOT
ATOM      1  C   UNL A   1      32.095  27.581  26.841  1.00  0.00     0.002 C 
ENDROOT
BRANCH   1   2
ATOM      2  C   UNL A   1      32.976  28.064  25.685  1.00  0.00     0.021 C 
BRANCH   2   3
ATOM      3  C   UNL A   1      34.148  28.949  26.098  1.00  0.00     0.116 C 
BRANCH   3   4
ATOM      4  N   UNL A   1      33.720  30.300  26.415  1.00  0.00    -0.352 N 
ATOM      5  O   UNL A   1      33.542  32.171  27.646  1.00  0.00    -0.269 OA
ATOM      6  C   UNL A   1      34.172  31.148  27.394  1.00  0.00     0.251 C 
ATOM      7  H   UNL A   1      33.002  30.659  25.845  1.00  0.00     0.163 HD
BRANCH   6   8
ATOM      8  C   UNL A   1      35.410  30.836  28.140  1.00  0.00     0.039 A 
ATOM      9  C   UNL A   1      35.460  29.665  28.901  1.00  0.00     0.014 A 
ATOM     10  C   UNL A   1      36.494  31.721  28.145  1.00  0.00     0.014 A 
ATOM     11  C   UNL A   1      36.595  29.379  29.661  1.00  0.00     0.010 A 
ATOM     12  C   UNL A   1      37.653  31.398  28.844  1.00  0.00     0.010 A 
ATOM     13  C   UNL A   1      37.702  30.243  29.638  1.00  0.00    -0.014 A 
BRANCH  13  14
ATOM     14  C   UNL A   1      38.894  29.987  30.485  1.00  0.00     0.031 A 
ATOM     15  C   UNL A   1      38.991  30.612  31.849  1.00  0.00     0.074 A 
ATOM     16  C   UNL A   1      39.905  29.231  30.016  1.00  0.00     0.049 A 
ATOM     17  N   UNL A   1      39.963  30.544  32.721  1.00  0.00    -0.248 NA
ATOM     18  C   UNL A   1      37.855  31.443  32.282  1.00  0.00     0.031 C 
ATOM     19  C   UNL A   1      39.934  28.603  28.697  1.00  0.00     0.029 A 
ATOM     20  N   UNL A   1      41.099  28.870  30.587  1.00  0.00    -0.354 N 
ATOM     21  C   UNL A   1      39.565  31.337  33.792  1.00  0.00     0.074 A 
ATOM     22  C   UNL A   1      38.294  31.924  33.436  1.00  0.00     0.031 C 
ATOM     23  C   UNL A   1      41.076  27.912  28.568  1.00  0.00     0.029 A 
ATOM     24  C   UNL A   1      41.884  28.086  29.775  1.00  0.00     0.049 A 
ATOM     25  H   UNL A   1      41.368  29.146  31.494  1.00  0.00     0.167 HD
ATOM     26  C   UNL A   1      40.191  31.531  34.977  1.00  0.00     0.034 A 
ATOM     27  C   UNL A   1      43.116  27.572  29.972  1.00  0.00     0.034 A 
ATOM     28  C   UNL A   1      41.442  30.908  35.326  1.00  0.00     0.049 A 
ATOM     29  C   UNL A   1      43.803  27.803  31.294  1.00  0.00     0.074 A 
ATOM     30  C   UNL A   1      42.116  30.974  36.532  1.00  0.00     0.029 A 
ATOM     31  N   UNL A   1      42.207  30.117  34.482  1.00  0.00    -0.354 N 
ATOM     32  N   UNL A   1      43.372  28.473  32.339  1.00  0.00    -0.248 NA
ATOM     33  C   UNL A   1      45.135  27.209  31.475  1.00  0.00     0.031 C 
ATOM     34  C   UNL A   1      43.325  30.293  36.391  1.00  0.00     0.029 A 
ATOM     35  C   UNL A   1      43.370  29.725  35.125  1.00  0.00     0.049 A 
ATOM     36  H   UNL A   1      41.961  29.870  33.562  1.00  0.00     0.167 HD
ATOM     37  C   UNL A   1      44.369  28.366  33.305  1.00  0.00     0.074 A 
ATOM     38  C   UNL A   1      45.415  27.546  32.729  1.00  0.00     0.031 C 
ATOM     39  C   UNL A   1      44.411  28.904  34.551  1.00  0.00     0.034 A 
BRANCH  26  40
ATOM     40  C   UNL A   1      39.543  32.434  36.000  1.00  0.00     0.023 A 
ATOM     41  C   UNL A   1      39.988  33.762  36.143  1.00  0.00     0.031 A 
ATOM     42  C   UNL A   1      38.576  31.958  36.904  1.00  0.00     0.131 A 
ATOM     43  C   UNL A   1      39.488  34.556  37.183  1.00  0.00     0.055 A 
ATOM     44  C   UNL A   1      38.044  32.769  37.906  1.00  0.00     0.041 A 
ATOM     45  F   UNL A   1      38.123  30.697  36.817  1.00  0.00    -0.206 F 
ATOM     46  C   UNL A   1      38.511  34.071  38.058  1.00  0.00     0.022 A 
BRANCH  43  47
ATOM     47  S   UNL A   1      40.141  36.221  37.489  1.00  0.00     0.124 S 
ATOM     48  O   UNL A   1      40.188  36.775  36.137  1.00  0.00    -0.237 OA
ATOM     49  O   UNL A   1      39.119  36.792  38.363  1.00  0.00    -0.237 OA
ATOM     50  O   UNL A   1      41.440  35.980  38.108  1.00  0.00    -0.744 OA
ENDBRANCH  43  47
ENDBRANCH  26  40
BRANCH  27  51
ATOM     51  C   UNL A   1      43.718  26.731  28.896  1.00  0.00     0.023 A 
ATOM     52  C   UNL A   1      44.662  27.272  28.003  1.00  0.00     0.031 A 
ATOM     53  C   UNL A   1      43.239  25.434  28.646  1.00  0.00     0.131 A 
ATOM     54  C   UNL A   1      45.023  26.558  26.853  1.00  0.00     0.055 A 
ATOM     55  C   UNL A   1      43.663  24.695  27.541  1.00  0.00     0.041 A 
ATOM     56  F   UNL A   1      42.330  24.881  29.462  1.00  0.00    -0.206 F 
ATOM     57  C   UNL A   1      44.541  25.265  26.625  1.00  0.00     0.022 A 
BRANCH  54  58
ATOM     58  S   UNL A   1      46.000  27.345  25.542  1.00  0.00     0.124 S 
ATOM     59  O   UNL A   1      46.029  26.307  24.515  1.00  0.00    -0.237 OA
ATOM     60  O   UNL A   1      45.186  28.518  25.231  1.00  0.00    -0.237 OA
ATOM     61  O   UNL A   1      47.278  27.629  26.186  1.00  0.00    -0.744 OA
ENDBRANCH  54  58
ENDBRANCH  27  51
BRANCH  39  62
ATOM     62  C   UNL A   1      45.627  28.654  35.414  1.00  0.00     0.023 A 
ATOM     63  C   UNL A   1      46.757  29.488  35.296  1.00  0.00     0.031 A 
ATOM     64  C   UNL A   1      45.738  27.494  36.200  1.00  0.00     0.131 A 
ATOM     65  C   UNL A   1      47.964  29.119  35.903  1.00  0.00     0.055 A 
ATOM     66  C   UNL A   1      46.927  27.160  36.849  1.00  0.00     0.041 A 
ATOM     67  F   UNL A   1      44.694  26.660  36.335  1.00  0.00    -0.206 F 
ATOM     68  C   UNL A   1      48.053  27.963  36.687  1.00  0.00     0.022 A 
BRANCH  65  69
ATOM     69  S   UNL A   1      49.487  30.059  35.609  1.00  0.00     0.124 S 
ATOM     70  O   UNL A   1      49.051  31.037  34.614  1.00  0.00    -0.237 OA
ATOM     71  O   UNL A   1      49.773  30.603  36.933  1.00  0.00    -0.237 OA
ATOM     72  O   UNL A   1      50.431  29.059  35.122  1.00  0.00    -0.744 OA
ENDBRANCH  65  69
ENDBRANCH  39  62
ENDBRANCH  13  14
ENDBRANCH   6   8
ENDBRANCH   3   4
ENDBRANCH   2   3
ENDBRANCH   1   2
BRANCH   1  73
ATOM     73  C   UNL A   1      31.044  26.531  26.468  1.00  0.00     0.002 C 
BRANCH  73  74
ATOM     74  C   UNL A   1      31.426  25.085  26.791  1.00  0.00     0.021 C 
BRANCH  74  75
ATOM     75  C   UNL A   1      31.601  24.184  25.573  1.00  0.00     0.116 C 
BRANCH  75  76
ATOM     76  N   UNL A   1      31.821  24.947  24.353  1.00  0.00    -0.352 N 
ATOM     77  C   UNL A   1      32.941  24.994  23.561  1.00  0.00     0.251 C 
ATOM     78  H   UNL A   1      31.066  25.505  24.056  1.00  0.00     0.163 HD
ATOM     79  O   UNL A   1      33.039  25.806  22.648  1.00  0.00    -0.269 OA
BRANCH  77  80
ATOM     80  C   UNL A   1      34.041  24.051  23.830  1.00  0.00     0.041 A 
ATOM     81  C   UNL A   1      33.951  22.730  23.378  1.00  0.00     0.015 A 
ATOM     82  C   UNL A   1      35.160  24.494  24.546  1.00  0.00     0.043 A 
ATOM     83  C   UNL A   1      34.936  21.820  23.736  1.00  0.00     0.017 A 
ATOM     84  C   UNL A   1      36.168  23.592  24.882  1.00  0.00     0.079 A 
ATOM     85  C   UNL A   1      36.023  22.259  24.501  1.00  0.00     0.066 A 
ATOM     86  N   UNL A   1      37.294  24.054  25.576  1.00  0.00    -0.228 NA
ATOM     87  C   UNL A   1      37.052  21.308  24.926  1.00  0.00     0.265 A 
ATOM     88  C   UNL A   1      38.217  23.204  25.913  1.00  0.00     0.159 A 
ATOM     89  O   UNL A   1      36.931  20.122  24.624  1.00  0.00    -0.268 OA
ATOM     90  N   UNL A   1      38.128  21.836  25.641  1.00  0.00    -0.266 N 
ATOM     91  C   UNL A   1      39.472  23.642  26.621  1.00  0.00     0.085 A 
ATOM     92  C   UNL A   1      39.114  20.948  26.050  1.00  0.00     0.109 A 
ATOM     93  C   UNL A   1      40.421  22.749  26.935  1.00  0.00     0.038 A 
ATOM     94  Cl  UNL A   1      39.668  25.311  26.997  1.00  0.00    -0.080 Cl
ATOM     95  C   UNL A   1      40.251  21.340  26.642  1.00  0.00     0.041 A 
BRANCH  95  96
ATOM     96  C   UNL A   1      41.298  20.350  27.068  1.00  0.00     0.198 C 
ATOM     97  O   UNL A   1      41.086  19.528  27.956  1.00  0.00    -0.288 OA
BRANCH  96  98
ATOM     98  C   UNL A   1      42.568  20.251  26.317  1.00  0.00     0.067 A 
ATOM     99  C   UNL A   1      43.363  21.378  26.079  1.00  0.00     0.055 A 
ATOM    100  C   UNL A   1      42.925  19.013  25.769  1.00  0.00     0.126 A 
ATOM    101  C   UNL A   1      44.448  21.265  25.217  1.00  0.00     0.124 A 
ATOM    102  C   UNL A   1      44.008  18.917  24.898  1.00  0.00     0.050 A 
ATOM    103  F   UNL A   1      45.185  22.351  24.949  1.00  0.00    -0.207 F 
ATOM    104  C   UNL A   1      44.765  20.054  24.610  1.00  0.00     0.043 A 
BRANCH 100 105
ATOM    105  O   UNL A   1      42.234  17.864  26.033  1.00  0.00    -0.507 OA
ATOM    106  H   UNL A   1      41.665  17.821  26.777  1.00  0.00     0.293 HD
ENDBRANCH 100 105
ENDBRANCH  96  98
ENDBRANCH  95  96
ENDBRANCH  77  80
ENDBRANCH  75  76
ENDBRANCH  74  75
ENDBRANCH  73  74
ENDBRANCH   1  73
TORSDOF 19
ENDMDL
MODEL 2
REMARK VINA RESULT:     -12.0      1.758      7.271
REMARK SMILES O=C(NCCCCCCNC(=O)c1ccc2c(=O)n3cc(C(=O)c4cc(F)ccc4O)cc(Cl)c3nc2c1)c1ccc(-c2c3nc(c(-c4cc(S(=O)(=O)[O-])ccc4F)c4ccc([nH]4)c(-c4cc(S(=O)(=O)[O-])ccc4F)c4nc(c(-c5cc(S(=O)(=O)[O-])ccc5F)c5ccc2[nH]5)C=C4)C=C3)cc1
REMARK SMILES IDX 6 1 5 2 4 3 3 4 1 5 2 6 39 8 40 9 101 10 41 11 100 12 42 13
REMARK SMILES IDX 43 14 44 15 94 16 45 17 99 18 93 19 95 20 46 21 98 22 92 23
REMARK SMILES IDX 91 24 47 26 79 27 59 28 78 29 60 30 63 31 77 32 96 33 61 34
REMARK SMILES IDX 62 35 76 37 97 38 64 39 48 40 49 41 57 42 50 43 56 44 58 45
REMARK SMILES IDX 55 46 51 47 52 48 53 49 54 50 80 51 81 52 89 53 82 54 88 55
REMARK SMILES IDX 90 56 87 57 83 58 84 59 85 60 86 61 65 62 66 63 74 64 67 65
REMARK SMILES IDX 73 66 75 67 72 68 68 69 69 70 70 71 71 72 7 73 8 74 9 75
REMARK SMILES IDX 10 76 11 77 12 79 13 80 14 81 38 82 15 83 37 84 16 85 36 86
REMARK SMILES IDX 17 87 35 88 18 89 19 90 33 91 20 92 32 93 34 94 21 95 22 96
REMARK SMILES IDX 23 97 24 98 25 99 30 100 26 101 29 102 27 103 28 104 31 105
REMARK H PARENT 3 7 95 25 63 36 10 78 31 106
REMARK Flexibility Score: inf
ROOT
ATOM      1  C   UNL A   1      32.280  27.539  26.811  1.00  0.00     0.002 C 
ENDROOT
BRANCH   1   2
ATOM      2  C   UNL A   1      33.289  27.837  25.699  1.00  0.00     0.021 C 
BRANCH   2   3
ATOM      3  C   UNL A   1      34.411  28.795  26.091  1.00  0.00     0.116 C 
BRANCH   3   4
ATOM      4  N   UNL A   1      33.906  30.121  26.403  1.00  0.00    -0.352 N 
ATOM      5  O   UNL A   1      33.621  31.984  27.626  1.00  0.00    -0.269 OA
ATOM      6  C   UNL A   1      34.308  30.997  27.378  1.00  0.00     0.251 C 
ATOM      7  H   UNL A   1      33.169  30.436  25.831  1.00  0.00     0.163 HD
BRANCH   6   8
ATOM      8  C   UNL A   1      35.563  30.759  28.125  1.00  0.00     0.039 A 
ATOM      9  C   UNL A   1      35.745  29.526  28.757  1.00  0.00     0.014 A 
ATOM     10  C   UNL A   1      36.526  31.764  28.260  1.00  0.00     0.014 A 
ATOM     11  C   UNL A   1      36.893  29.300  29.518  1.00  0.00     0.010 A 
ATOM     12  C   UNL A   1      37.704  31.512  28.956  1.00  0.00     0.010 A 
ATOM     13  C   UNL A   1      37.883  30.291  29.623  1.00  0.00    -0.014 A 
BRANCH  13  14
ATOM     14  C   UNL A   1      39.082  30.092  30.475  1.00  0.00     0.031 A 
ATOM     15  C   UNL A   1      40.212  29.226  29.988  1.00  0.00     0.074 A 
ATOM     16  C   UNL A   1      39.140  30.651  31.699  1.00  0.00     0.049 A 
ATOM     17  N   UNL A   1      41.321  28.897  30.597  1.00  0.00    -0.248 NA
ATOM     18  C   UNL A   1      40.064  28.632  28.649  1.00  0.00     0.031 C 
ATOM     19  C   UNL A   1      38.090  31.480  32.287  1.00  0.00     0.029 A 
ATOM     20  N   UNL A   1      40.112  30.602  32.666  1.00  0.00    -0.354 N 
ATOM     21  C   UNL A   1      41.991  28.046  29.726  1.00  0.00     0.074 A 
ATOM     22  C   UNL A   1      41.138  27.859  28.575  1.00  0.00     0.031 C 
ATOM     23  C   UNL A   1      38.485  31.884  33.503  1.00  0.00     0.029 A 
ATOM     24  C   UNL A   1      39.793  31.304  33.804  1.00  0.00     0.049 A 
ATOM     25  H   UNL A   1      40.959  30.110  32.556  1.00  0.00     0.167 HD
ATOM     26  C   UNL A   1      43.220  27.495  29.863  1.00  0.00     0.034 A 
ATOM     27  C   UNL A   1      40.471  31.460  34.961  1.00  0.00     0.034 A 
ATOM     28  C   UNL A   1      44.070  27.721  31.004  1.00  0.00     0.049 A 
ATOM     29  C   UNL A   1      41.835  30.834  35.101  1.00  0.00     0.074 A 
ATOM     30  C   UNL A   1      45.365  27.277  31.200  1.00  0.00     0.029 A 
ATOM     31  N   UNL A   1      43.718  28.441  32.136  1.00  0.00    -0.354 N 
ATOM     32  N   UNL A   1      42.501  30.112  34.229  1.00  0.00    -0.248 NA
ATOM     33  C   UNL A   1      42.547  31.044  36.369  1.00  0.00     0.031 C 
ATOM     34  C   UNL A   1      45.765  27.658  32.481  1.00  0.00     0.029 A 
ATOM     35  C   UNL A   1      44.755  28.417  33.054  1.00  0.00     0.049 A 
ATOM     36  H   UNL A   1      42.859  28.902  32.268  1.00  0.00     0.167 HD
ATOM     37  C   UNL A   1      43.715  29.797  34.835  1.00  0.00     0.074 A 
ATOM     38  C   UNL A   1      43.701  30.428  36.138  1.00  0.00     0.031 C 
ATOM     39  C   UNL A   1      44.741  29.050  34.353  1.00  0.00     0.034 A 
BRANCH  26  40
ATOM     40  C   UNL A   1      43.744  26.607  28.759  1.00  0.00     0.023 A 
ATOM     41  C   UNL A   1      44.624  27.133  27.795  1.00  0.00     0.031 A 
ATOM     42  C   UNL A   1      43.290  25.286  28.591  1.00  0.00     0.131 A 
ATOM     43  C   UNL A   1      44.999  26.354  26.694  1.00  0.00     0.055 A 
ATOM     44  C   UNL A   1      43.706  24.497  27.518  1.00  0.00     0.041 A 
ATOM     45  F   UNL A   1      42.443  24.737  29.477  1.00  0.00    -0.206 F 
ATOM     46  C   UNL A   1      44.554  25.035  26.556  1.00  0.00     0.022 A 
BRANCH  43  47
ATOM     47  S   UNL A   1      46.014  27.044  25.357  1.00  0.00     0.124 S 
ATOM     48  O   UNL A   1      45.030  27.822  24.607  1.00  0.00    -0.237 OA
ATOM     49  O   UNL A   1      46.998  27.829  26.098  1.00  0.00    -0.237 OA
ATOM     50  O   UNL A   1      46.532  25.868  24.667  1.00  0.00    -0.744 OA
ENDBRANCH  43  47
ENDBRANCH  26  40
BRANCH  27  51
ATOM     51  C   UNL A   1      39.868  32.309  36.030  1.00  0.00     0.023 A 
ATOM     52  C   UNL A   1      39.059  31.739  37.032  1.00  0.00     0.031 A 
ATOM     53  C   UNL A   1      39.959  33.710  35.971  1.00  0.00     0.131 A 
ATOM     54  C   UNL A   1      38.300  32.568  37.868  1.00  0.00     0.055 A 
ATOM     55  C   UNL A   1      39.261  34.530  36.859  1.00  0.00     0.041 A 
ATOM     56  F   UNL A   1      40.708  34.299  35.027  1.00  0.00    -0.206 F 
ATOM     57  C   UNL A   1      38.408  33.960  37.799  1.00  0.00     0.022 A 
BRANCH  54  58
ATOM     58  S   UNL A   1      37.031  31.867  38.961  1.00  0.00     0.124 S 
ATOM     59  O   UNL A   1      35.885  32.732  38.696  1.00  0.00    -0.237 OA
ATOM     60  O   UNL A   1      36.923  30.502  38.451  1.00  0.00    -0.237 OA
ATOM     61  O   UNL A   1      37.615  31.987  40.292  1.00  0.00    -0.744 OA
ENDBRANCH  54  58
ENDBRANCH  27  51
BRANCH  39  62
ATOM     62  C   UNL A   1      45.960  28.837  35.221  1.00  0.00     0.023 A 
ATOM     63  C   UNL A   1      45.981  27.786  36.160  1.00  0.00     0.031 A 
ATOM     64  C   UNL A   1      47.006  29.775  35.253  1.00  0.00     0.131 A 
ATOM     65  C   UNL A   1      46.991  27.735  37.129  1.00  0.00     0.055 A 
ATOM     66  C   UNL A   1      48.042  29.686  36.184  1.00  0.00     0.041 A 
ATOM     67  F   UNL A   1      47.027  30.801  34.387  1.00  0.00    -0.206 F 
ATOM     68  C   UNL A   1      48.027  28.675  37.140  1.00  0.00     0.022 A 
BRANCH  65  69
ATOM     69  S   UNL A   1      46.939  26.518  38.473  1.00  0.00     0.124 S 
ATOM     70  O   UNL A   1      47.724  25.418  37.916  1.00  0.00    -0.237 OA
ATOM     71  O   UNL A   1      47.573  27.243  39.569  1.00  0.00    -0.237 OA
ATOM     72  O   UNL A   1      45.516  26.240  38.643  1.00  0.00    -0.744 OA
ENDBRANCH  65  69
ENDBRANCH  39  62
ENDBRANCH  13  14
ENDBRANCH   6   8
ENDBRANCH   3   4
ENDBRANCH   2   3
ENDBRANCH   1   2
BRANCH   1  73
ATOM     73  C   UNL A   1      31.158  26.567  26.433  1.00  0.00     0.002 C 
BRANCH  73  74
ATOM     74  C   UNL A   1      31.393  25.111  26.843  1.00  0.00     0.021 C 
BRANCH  74  75
ATOM     75  C   UNL A   1      31.693  24.163  25.687  1.00  0.00     0.116 C 
BRANCH  75  76
ATOM     76  N   UNL A   1      31.866  24.871  24.427  1.00  0.00    -0.352 N 
ATOM     77  C   UNL A   1      32.955  24.884  23.593  1.00  0.00     0.251 C 
ATOM     78  H   UNL A   1      31.098  25.414  24.134  1.00  0.00     0.163 HD
ATOM     79  O   UNL A   1      33.017  25.655  22.641  1.00  0.00    -0.269 OA
BRANCH  77  80
ATOM     80  C   UNL A   1      34.068  23.956  23.862  1.00  0.00     0.041 A 
ATOM     81  C   UNL A   1      33.987  22.629  23.428  1.00  0.00     0.015 A 
ATOM     82  C   UNL A   1      35.188  24.419  24.562  1.00  0.00     0.043 A 
ATOM     83  C   UNL A   1      34.984  21.733  23.787  1.00  0.00     0.017 A 
ATOM     84  C   UNL A   1      36.209  23.532  24.899  1.00  0.00     0.079 A 
ATOM     85  C   UNL A   1      36.074  22.192  24.535  1.00  0.00     0.066 A 
ATOM     86  N   UNL A   1      37.336  24.013  25.577  1.00  0.00    -0.228 NA
ATOM     87  C   UNL A   1      37.117  21.258  24.962  1.00  0.00     0.265 A 
ATOM     88  C   UNL A   1      38.271  23.177  25.915  1.00  0.00     0.159 A 
ATOM     89  O   UNL A   1      37.006  20.067  24.676  1.00  0.00    -0.268 OA
ATOM     90  N   UNL A   1      38.194  21.806  25.660  1.00  0.00    -0.266 N 
ATOM     91  C   UNL A   1      39.528  23.637  26.606  1.00  0.00     0.085 A 
ATOM     92  C   UNL A   1      39.193  20.933  26.070  1.00  0.00     0.109 A 
ATOM     93  C   UNL A   1      40.490  22.757  26.921  1.00  0.00     0.038 A 
ATOM     94  Cl  UNL A   1      39.711  25.313  26.958  1.00  0.00    -0.080 Cl
ATOM     95  C   UNL A   1      40.332  21.343  26.646  1.00  0.00     0.041 A 
BRANCH  95  96
ATOM     96  C   UNL A   1      41.393  20.369  27.074  1.00  0.00     0.198 C 
ATOM     97  O   UNL A   1      41.216  19.590  28.007  1.00  0.00    -0.288 OA
BRANCH  96  98
ATOM     98  C   UNL A   1      42.630  20.231  26.277  1.00  0.00     0.067 A 
ATOM     99  C   UNL A   1      43.417  21.342  25.953  1.00  0.00     0.055 A 
ATOM    100  C   UNL A   1      42.963  18.967  25.774  1.00  0.00     0.126 A 
ATOM    101  C   UNL A   1      44.465  21.185  25.054  1.00  0.00     0.124 A 
ATOM    102  C   UNL A   1      44.009  18.826  24.865  1.00  0.00     0.050 A 
ATOM    103  F   UNL A   1      45.192  22.254  24.705  1.00  0.00    -0.207 F 
ATOM    104  C   UNL A   1      44.755  19.945  24.492  1.00  0.00     0.043 A 
BRANCH 100 105
ATOM    105  O   UNL A   1      42.281  17.834  26.121  1.00  0.00    -0.507 OA
ATOM    106  H   UNL A   1      42.277  17.096  25.544  1.00  0.00     0.293 HD
ENDBRANCH 100 105
ENDBRANCH  96  98
ENDBRANCH  95  96
ENDBRANCH  77  80
ENDBRANCH  75  76
ENDBRANCH  74  75
ENDBRANCH  73  74
ENDBRANCH   1  73
TORSDOF 19
ENDMDL
MODEL 3
REMARK VINA RESULT:     -12.0      1.806      2.073
REMARK SMILES O=C(NCCCCCCNC(=O)c1ccc2c(=O)n3cc(C(=O)c4cc(F)ccc4O)cc(Cl)c3nc2c1)c1ccc(-c2c3nc(c(-c4cc(S(=O)(=O)[O-])ccc4F)c4ccc([nH]4)c(-c4cc(S(=O)(=O)[O-])ccc4F)c4nc(c(-c5cc(S(=O)(=O)[O-])ccc5F)c5ccc2[nH]5)C=C4)C=C3)cc1
REMARK SMILES IDX 6 1 5 2 4 3 3 4 1 5 2 6 39 8 40 9 101 10 41 11 100 12 42 13
REMARK SMILES IDX 43 14 44 15 94 16 45 17 99 18 93 19 95 20 46 21 98 22 92 23
REMARK SMILES IDX 91 24 47 26 79 27 59 28 78 29 60 30 63 31 77 32 96 33 61 34
REMARK SMILES IDX 62 35 76 37 97 38 64 39 48 40 49 41 57 42 50 43 56 44 58 45
REMARK SMILES IDX 55 46 51 47 52 48 53 49 54 50 80 51 81 52 89 53 82 54 88 55
REMARK SMILES IDX 90 56 87 57 83 58 84 59 85 60 86 61 65 62 66 63 74 64 67 65
REMARK SMILES IDX 73 66 75 67 72 68 68 69 69 70 70 71 71 72 7 73 8 74 9 75
REMARK SMILES IDX 10 76 11 77 12 79 13 80 14 81 38 82 15 83 37 84 16 85 36 86
REMARK SMILES IDX 17 87 35 88 18 89 19 90 33 91 20 92 32 93 34 94 21 95 22 96
REMARK SMILES IDX 23 97 24 98 25 99 30 100 26 101 29 102 27 103 28 104 31 105
REMARK H PARENT 3 7 95 25 63 36 10 78 31 106
REMARK Flexibility Score: inf
ROOT
ATOM      1  C   UNL A   1      31.921  27.560  26.969  1.00  0.00     0.002 C 
ENDROOT
BRANCH   1   2
ATOM      2  C   UNL A   1      32.905  28.203  25.988  1.00  0.00     0.021 C 
BRANCH   2   3
ATOM      3  C   UNL A   1      34.078  28.930  26.639  1.00  0.00     0.116 C 
BRANCH   3   4
ATOM      4  N   UNL A   1      33.837  30.358  26.748  1.00  0.00    -0.352 N 
ATOM      5  O   UNL A   1      33.965  32.407  27.660  1.00  0.00    -0.269 OA
ATOM      6  C   UNL A   1      34.449  31.284  27.552  1.00  0.00     0.251 C 
ATOM      7  H   UNL A   1      33.131  30.712  26.159  1.00  0.00     0.163 HD
BRANCH   6   8
ATOM      8  C   UNL A   1      35.688  30.937  28.283  1.00  0.00     0.039 A 
ATOM      9  C   UNL A   1      35.726  29.745  29.013  1.00  0.00     0.014 A 
ATOM     10  C   UNL A   1      36.783  31.807  28.305  1.00  0.00     0.014 A 
ATOM     11  C   UNL A   1      36.861  29.425  29.760  1.00  0.00     0.010 A 
ATOM     12  C   UNL A   1      37.942  31.451  28.989  1.00  0.00     0.010 A 
ATOM     13  C   UNL A   1      37.979  30.275  29.752  1.00  0.00    -0.014 A 
BRANCH  13  14
ATOM     14  C   UNL A   1      39.172  29.982  30.586  1.00  0.00     0.031 A 
ATOM     15  C   UNL A   1      39.288  30.577  31.962  1.00  0.00     0.074 A 
ATOM     16  C   UNL A   1      40.167  29.220  30.094  1.00  0.00     0.049 A 
ATOM     17  N   UNL A   1      40.264  30.474  32.826  1.00  0.00    -0.248 NA
ATOM     18  C   UNL A   1      38.169  31.417  32.420  1.00  0.00     0.031 C 
ATOM     19  C   UNL A   1      40.178  28.619  28.762  1.00  0.00     0.029 A 
ATOM     20  N   UNL A   1      41.359  28.826  30.650  1.00  0.00    -0.354 N 
ATOM     21  C   UNL A   1      39.886  31.250  33.916  1.00  0.00     0.074 A 
ATOM     22  C   UNL A   1      38.623  31.866  33.581  1.00  0.00     0.031 C 
ATOM     23  C   UNL A   1      41.307  27.912  28.612  1.00  0.00     0.029 A 
ATOM     24  C   UNL A   1      42.126  28.048  29.816  1.00  0.00     0.049 A 
ATOM     25  H   UNL A   1      41.639  29.079  31.561  1.00  0.00     0.167 HD
ATOM     26  C   UNL A   1      40.523  31.409  35.100  1.00  0.00     0.034 A 
ATOM     27  C   UNL A   1      43.350  27.509  29.995  1.00  0.00     0.034 A 
ATOM     28  C   UNL A   1      41.766  30.759  35.428  1.00  0.00     0.049 A 
ATOM     29  C   UNL A   1      44.049  27.701  31.317  1.00  0.00     0.074 A 
ATOM     30  C   UNL A   1      42.449  30.788  36.631  1.00  0.00     0.029 A 
ATOM     31  N   UNL A   1      42.513  29.973  34.562  1.00  0.00    -0.354 N 
ATOM     32  N   UNL A   1      43.636  28.355  32.377  1.00  0.00    -0.248 NA
ATOM     33  C   UNL A   1      45.372  27.081  31.476  1.00  0.00     0.031 C 
ATOM     34  C   UNL A   1      43.645  30.091  36.467  1.00  0.00     0.029 A 
ATOM     35  C   UNL A   1      43.672  29.548  35.190  1.00  0.00     0.049 A 
ATOM     36  H   UNL A   1      42.257  29.750  33.639  1.00  0.00     0.167 HD
ATOM     37  C   UNL A   1      44.638  28.212  33.334  1.00  0.00     0.074 A 
ATOM     38  C   UNL A   1      45.666  27.387  32.735  1.00  0.00     0.031 C 
ATOM     39  C   UNL A   1      44.696  28.723  34.591  1.00  0.00     0.034 A 
BRANCH  26  40
ATOM     40  C   UNL A   1      39.897  32.301  36.146  1.00  0.00     0.023 A 
ATOM     41  C   UNL A   1      38.942  31.774  37.036  1.00  0.00     0.031 A 
ATOM     42  C   UNL A   1      40.153  33.684  36.192  1.00  0.00     0.131 A 
ATOM     43  C   UNL A   1      38.259  32.627  37.910  1.00  0.00     0.055 A 
ATOM     44  C   UNL A   1      39.506  34.522  37.100  1.00  0.00     0.041 A 
ATOM     45  F   UNL A   1      41.049  34.240  35.360  1.00  0.00    -0.206 F 
ATOM     46  C   UNL A   1      38.543  33.996  37.956  1.00  0.00     0.022 A 
BRANCH  43  47
ATOM     47  S   UNL A   1      36.920  32.010  38.968  1.00  0.00     0.124 S 
ATOM     48  O   UNL A   1      36.912  30.586  38.639  1.00  0.00    -0.237 OA
ATOM     49  O   UNL A   1      37.412  32.339  40.304  1.00  0.00    -0.237 OA
ATOM     50  O   UNL A   1      35.749  32.757  38.524  1.00  0.00    -0.744 OA
ENDBRANCH  43  47
ENDBRANCH  26  40
BRANCH  27  51
ATOM     51  C   UNL A   1      43.931  26.681  28.897  1.00  0.00     0.023 A 
ATOM     52  C   UNL A   1      44.858  27.233  27.992  1.00  0.00     0.031 A 
ATOM     53  C   UNL A   1      43.448  25.387  28.641  1.00  0.00     0.131 A 
ATOM     54  C   UNL A   1      45.196  26.532  26.827  1.00  0.00     0.055 A 
ATOM     55  C   UNL A   1      43.850  24.661  27.519  1.00  0.00     0.041 A 
ATOM     56  F   UNL A   1      42.555  24.823  29.468  1.00  0.00    -0.206 F 
ATOM     57  C   UNL A   1      44.710  25.242  26.593  1.00  0.00     0.022 A 
BRANCH  54  58
ATOM     58  S   UNL A   1      46.148  27.335  25.506  1.00  0.00     0.124 S 
ATOM     59  O   UNL A   1      47.400  27.659  26.183  1.00  0.00    -0.237 OA
ATOM     60  O   UNL A   1      46.226  26.269  24.510  1.00  0.00    -0.237 OA
ATOM     61  O   UNL A   1      45.322  28.477  25.130  1.00  0.00    -0.744 OA
ENDBRANCH  54  58
ENDBRANCH  27  51
BRANCH  39  62
ATOM     62  C   UNL A   1      45.913  28.434  35.440  1.00  0.00     0.023 A 
ATOM     63  C   UNL A   1      45.899  27.356  36.347  1.00  0.00     0.031 A 
ATOM     64  C   UNL A   1      46.997  29.328  35.490  1.00  0.00     0.131 A 
ATOM     65  C   UNL A   1      46.914  27.234  37.305  1.00  0.00     0.055 A 
ATOM     66  C   UNL A   1      48.036  29.169  36.409  1.00  0.00     0.041 A 
ATOM     67  F   UNL A   1      47.053  30.378  34.656  1.00  0.00    -0.206 F 
ATOM     68  C   UNL A   1      47.988  28.130  37.334  1.00  0.00     0.022 A 
BRANCH  65  69
ATOM     69  S   UNL A   1      46.824  25.980  38.612  1.00  0.00     0.124 S 
ATOM     70  O   UNL A   1      48.045  25.211  38.379  1.00  0.00    -0.237 OA
ATOM     71  O   UNL A   1      46.823  26.796  39.822  1.00  0.00    -0.237 OA
ATOM     72  O   UNL A   1      45.581  25.268  38.333  1.00  0.00    -0.744 OA
ENDBRANCH  65  69
ENDBRANCH  39  62
ENDBRANCH  13  14
ENDBRANCH   6   8
ENDBRANCH   3   4
ENDBRANCH   2   3
ENDBRANCH   1   2
BRANCH   1  73
ATOM     73  C   UNL A   1      30.876  26.635  26.337  1.00  0.00     0.002 C 
BRANCH  73  74
ATOM     74  C   UNL A   1      31.028  25.152  26.680  1.00  0.00     0.021 C 
BRANCH  74  75
ATOM     75  C   UNL A   1      31.739  24.321  25.616  1.00  0.00     0.116 C 
BRANCH  75  76
ATOM     76  N   UNL A   1      31.928  25.061  24.377  1.00  0.00    -0.352 N 
ATOM     77  C   UNL A   1      33.027  25.092  23.557  1.00  0.00     0.251 C 
ATOM     78  H   UNL A   1      31.166  25.615  24.090  1.00  0.00     0.163 HD
ATOM     79  O   UNL A   1      33.103  25.888  22.626  1.00  0.00    -0.269 OA
BRANCH  77  80
ATOM     80  C   UNL A   1      34.134  24.154  23.814  1.00  0.00     0.041 A 
ATOM     81  C   UNL A   1      34.087  22.861  23.282  1.00  0.00     0.015 A 
ATOM     82  C   UNL A   1      35.214  24.571  24.601  1.00  0.00     0.043 A 
ATOM     83  C   UNL A   1      35.073  21.947  23.626  1.00  0.00     0.017 A 
ATOM     84  C   UNL A   1      36.225  23.667  24.925  1.00  0.00     0.079 A 
ATOM     85  C   UNL A   1      36.120  22.357  24.459  1.00  0.00     0.066 A 
ATOM     86  N   UNL A   1      37.312  24.105  25.691  1.00  0.00    -0.228 NA
ATOM     87  C   UNL A   1      37.149  21.400  24.870  1.00  0.00     0.265 A 
ATOM     88  C   UNL A   1      38.237  23.252  26.015  1.00  0.00     0.159 A 
ATOM     89  O   UNL A   1      37.062  20.232  24.494  1.00  0.00    -0.268 OA
ATOM     90  N   UNL A   1      38.184  21.901  25.659  1.00  0.00    -0.266 N 
ATOM     91  C   UNL A   1      39.454  23.667  26.799  1.00  0.00     0.085 A 
ATOM     92  C   UNL A   1      39.170  21.007  26.055  1.00  0.00     0.109 A 
ATOM     93  C   UNL A   1      40.406  22.772  27.099  1.00  0.00     0.038 A 
ATOM     94  Cl  UNL A   1      39.603  25.314  27.280  1.00  0.00    -0.080 Cl
ATOM     95  C   UNL A   1      40.275  21.380  26.716  1.00  0.00     0.041 A 
BRANCH  95  96
ATOM     96  C   UNL A   1      41.322  20.384  27.125  1.00  0.00     0.198 C 
ATOM     97  O   UNL A   1      41.120  19.565  28.019  1.00  0.00    -0.288 OA
BRANCH  96  98
ATOM     98  C   UNL A   1      42.578  20.275  26.352  1.00  0.00     0.067 A 
ATOM     99  C   UNL A   1      43.389  21.391  26.119  1.00  0.00     0.055 A 
ATOM    100  C   UNL A   1      42.904  19.040  25.779  1.00  0.00     0.126 A 
ATOM    101  C   UNL A   1      44.458  21.273  25.239  1.00  0.00     0.124 A 
ATOM    102  C   UNL A   1      43.971  18.939  24.889  1.00  0.00     0.050 A 
ATOM    103  F   UNL A   1      45.210  22.350  24.976  1.00  0.00    -0.207 F 
ATOM    104  C   UNL A   1      44.743  20.066  24.607  1.00  0.00     0.043 A 
BRANCH 100 105
ATOM    105  O   UNL A   1      42.196  17.899  26.036  1.00  0.00    -0.507 OA
ATOM    106  H   UNL A   1      41.434  17.934  26.580  1.00  0.00     0.293 HD
ENDBRANCH 100 105
ENDBRANCH  96  98
ENDBRANCH  95  96
ENDBRANCH  77  80
ENDBRANCH  75  76
ENDBRANCH  74  75
ENDBRANCH  73  74
ENDBRANCH   1  73
TORSDOF 19
ENDMDL
