MODEL 1
REMARK VINA RESULT:     -12.8      0.000      0.000
REMARK SMILES Cc1cc(-c2cncc(C(=O)NCCCCCCNC(=O)c3ccc(-c4c5nc(c(-c6cc(S(=O)(=O)[O-])ccc6F)c6ccc([nH]6)c(-c6cc(S(=O)(=O)[O-])ccc6F)c6nc(c(-c7cc(S(=O)(=O)[O-])ccc7F)c7ccc4[nH]7)C=C6)C=C5)cc3)c2)ccc1F
REMARK SMILES IDX 16 1 15 2 14 3 13 4 12 5 10 6 11 7 9 9 5 10 6 11 85 12 7 13
REMARK SMILES IDX 8 14 4 15 1 16 2 17 3 18 88 19 87 20 89 21 86 22 17 23 18 24
REMARK SMILES IDX 19 25 20 26 21 28 22 29 23 30 84 31 24 32 83 33 25 34 26 35
REMARK SMILES IDX 27 36 77 37 28 38 82 39 76 40 78 41 29 42 81 43 75 44 74 45
REMARK SMILES IDX 30 47 62 48 42 49 61 50 43 51 46 52 60 53 79 54 44 55 45 56
REMARK SMILES IDX 59 58 80 59 47 60 31 61 32 62 40 63 33 64 39 65 41 66 38 67
REMARK SMILES IDX 34 68 35 69 36 70 37 71 63 72 64 73 72 74 65 75 71 76 73 77
REMARK SMILES IDX 70 78 66 79 67 80 68 81 69 82 48 83 49 84 57 85 50 86 56 87
REMARK SMILES IDX 58 88 55 89 51 90 52 91 53 92 54 93
REMARK H PARENT 12 8 19 27 78 46 46 57
REMARK Flexibility Score: inf
ROOT
ATOM      1  C   UNL A   1      35.642  23.213  24.359  1.00  0.00     0.002 C 
ENDROOT
BRANCH   1   2
ATOM      2  C   UNL A   1      34.984  24.037  25.477  1.00  0.00     0.002 C 
BRANCH   2   3
ATOM      3  C   UNL A   1      34.129  23.220  26.455  1.00  0.00     0.021 C 
BRANCH   3   4
ATOM      4  C   UNL A   1      33.280  22.160  25.751  1.00  0.00     0.116 C 
BRANCH   4   5
ATOM      5  N   UNL A   1      31.946  22.141  26.322  1.00  0.00    -0.352 N 
ATOM      6  C   UNL A   1      30.929  23.057  26.341  1.00  0.00     0.252 C 
ATOM      7  O   UNL A   1      29.890  22.749  26.926  1.00  0.00    -0.269 OA
ATOM      8  H   UNL A   1      31.729  21.301  26.786  1.00  0.00     0.163 HD
BRANCH   6   9
ATOM      9  C   UNL A   1      30.990  24.351  25.624  1.00  0.00     0.058 A 
ATOM     10  C   UNL A   1      31.581  26.689  25.369  1.00  0.00     0.001 A 
ATOM     11  C   UNL A   1      31.291  26.555  24.015  1.00  0.00     0.119 A 
ATOM     12  C   UNL A   1      31.340  25.576  26.185  1.00  0.00     0.025 A 
ATOM     13  N   UNL A   1      30.836  25.415  23.444  1.00  0.00    -0.263 NA
ATOM     14  C   UNL A   1      30.717  24.338  24.260  1.00  0.00     0.124 A 
BRANCH  10  15
ATOM     15  C   UNL A   1      32.220  27.885  25.921  1.00  0.00    -0.016 A 
ATOM     16  C   UNL A   1      31.393  31.603  26.341  1.00  0.00     0.047 C 
ATOM     17  C   UNL A   1      32.114  30.291  26.382  1.00  0.00    -0.015 A 
ATOM     18  C   UNL A   1      31.531  29.116  25.891  1.00  0.00     0.015 A 
ATOM     19  C   UNL A   1      33.401  30.218  26.913  1.00  0.00     0.126 A 
ATOM     20  C   UNL A   1      34.101  29.016  26.953  1.00  0.00     0.040 A 
ATOM     21  F   UNL A   1      33.981  31.323  27.399  1.00  0.00    -0.207 F 
ATOM     22  C   UNL A   1      33.512  27.849  26.461  1.00  0.00     0.012 A 
ENDBRANCH  10  15
ENDBRANCH   6   9
ENDBRANCH   4   5
ENDBRANCH   3   4
ENDBRANCH   2   3
ENDBRANCH   1   2
BRANCH   1  23
ATOM     23  C   UNL A   1      37.066  22.722  24.664  1.00  0.00     0.021 C 
BRANCH  23  24
ATOM     24  C   UNL A   1      37.581  23.257  25.986  1.00  0.00     0.116 C 
BRANCH  24  25
ATOM     25  N   UNL A   1      38.844  22.622  26.333  1.00  0.00    -0.352 N 
ATOM     26  C   UNL A   1      40.011  23.224  26.743  1.00  0.00     0.251 C 
ATOM     27  H   UNL A   1      38.866  21.640  26.264  1.00  0.00     0.163 HD
ATOM     28  O   UNL A   1      41.046  22.576  26.789  1.00  0.00    -0.269 OA
BRANCH  26  29
ATOM     29  C   UNL A   1      39.936  24.628  27.173  1.00  0.00     0.039 A 
ATOM     30  C   UNL A   1      40.498  25.668  26.428  1.00  0.00     0.014 A 
ATOM     31  C   UNL A   1      39.297  24.874  28.385  1.00  0.00     0.014 A 
ATOM     32  C   UNL A   1      40.423  26.976  26.914  1.00  0.00     0.010 A 
ATOM     33  C   UNL A   1      39.101  26.165  28.792  1.00  0.00     0.010 A 
ATOM     34  C   UNL A   1      39.732  27.209  28.102  1.00  0.00    -0.014 A 
BRANCH  34  35
ATOM     35  C   UNL A   1      39.773  28.444  28.870  1.00  0.00     0.031 A 
ATOM     36  C   UNL A   1      38.884  29.585  28.622  1.00  0.00     0.074 A 
ATOM     37  C   UNL A   1      40.543  28.375  29.979  1.00  0.00     0.049 A 
ATOM     38  N   UNL A   1      39.111  30.765  29.086  1.00  0.00    -0.248 NA
ATOM     39  C   UNL A   1      37.661  29.493  27.836  1.00  0.00     0.031 C 
ATOM     40  C   UNL A   1      40.505  29.185  31.182  1.00  0.00     0.029 A 
ATOM     41  N   UNL A   1      41.650  27.537  30.164  1.00  0.00    -0.354 N 
ATOM     42  C   UNL A   1      37.951  31.492  28.938  1.00  0.00     0.074 A 
ATOM     43  C   UNL A   1      37.119  30.698  28.059  1.00  0.00     0.031 C 
ATOM     44  C   UNL A   1      41.662  29.013  31.847  1.00  0.00     0.029 A 
ATOM     45  C   UNL A   1      42.538  28.227  30.987  1.00  0.00     0.049 A 
ATOM     46  H   UNL A   1      41.777  26.637  29.785  1.00  0.00     0.167 HD
ATOM     47  C   UNL A   1      37.758  32.594  29.721  1.00  0.00     0.034 A 
ATOM     48  C   UNL A   1      43.782  28.592  30.564  1.00  0.00     0.034 A 
ATOM     49  C   UNL A   1      38.919  32.824  30.587  1.00  0.00     0.049 A 
ATOM     50  C   UNL A   1      43.945  30.092  30.604  1.00  0.00     0.074 A 
ATOM     51  C   UNL A   1      39.173  32.479  31.906  1.00  0.00     0.029 A 
ATOM     52  N   UNL A   1      40.146  33.175  30.032  1.00  0.00    -0.354 N 
ATOM     53  N   UNL A   1      42.945  30.929  30.567  1.00  0.00    -0.248 NA
ATOM     54  C   UNL A   1      45.233  30.764  30.714  1.00  0.00     0.031 C 
ATOM     55  C   UNL A   1      40.570  32.566  32.125  1.00  0.00     0.029 A 
ATOM     56  C   UNL A   1      41.169  32.981  30.947  1.00  0.00     0.049 A 
ATOM     57  H   UNL A   1      40.271  33.515  29.117  1.00  0.00     0.167 HD
ATOM     58  C   UNL A   1      43.411  32.214  30.646  1.00  0.00     0.074 A 
ATOM     59  C   UNL A   1      44.851  32.054  30.752  1.00  0.00     0.031 C 
ATOM     60  C   UNL A   1      42.562  33.286  30.615  1.00  0.00     0.034 A 
BRANCH  47  61
ATOM     61  C   UNL A   1      36.404  33.251  29.929  1.00  0.00     0.023 A 
ATOM     62  C   UNL A   1      35.813  33.452  31.195  1.00  0.00     0.031 A 
ATOM     63  C   UNL A   1      35.668  33.759  28.835  1.00  0.00     0.131 A 
ATOM     64  C   UNL A   1      34.636  34.215  31.346  1.00  0.00     0.055 A 
ATOM     65  C   UNL A   1      34.470  34.471  28.980  1.00  0.00     0.041 A 
ATOM     66  F   UNL A   1      36.095  33.628  27.571  1.00  0.00    -0.206 F 
ATOM     67  C   UNL A   1      33.960  34.726  30.241  1.00  0.00     0.022 A 
BRANCH  64  68
ATOM     68  S   UNL A   1      34.000  34.659  32.990  1.00  0.00     0.124 S 
ATOM     69  O   UNL A   1      34.339  33.479  33.784  1.00  0.00    -0.237 OA
ATOM     70  O   UNL A   1      34.761  35.862  33.309  1.00  0.00    -0.237 OA
ATOM     71  O   UNL A   1      32.570  34.854  32.768  1.00  0.00    -0.744 OA
ENDBRANCH  64  68
ENDBRANCH  47  61
BRANCH  48  72
ATOM     72  C   UNL A   1      44.370  27.680  29.537  1.00  0.00     0.023 A 
ATOM     73  C   UNL A   1      44.289  27.963  28.162  1.00  0.00     0.031 A 
ATOM     74  C   UNL A   1      44.635  26.345  29.922  1.00  0.00     0.131 A 
ATOM     75  C   UNL A   1      44.376  26.909  27.230  1.00  0.00     0.055 A 
ATOM     76  C   UNL A   1      44.689  25.303  28.994  1.00  0.00     0.041 A 
ATOM     77  F   UNL A   1      44.723  26.025  31.224  1.00  0.00    -0.206 F 
ATOM     78  C   UNL A   1      44.528  25.579  27.642  1.00  0.00     0.022 A 
BRANCH  75  79
ATOM     79  S   UNL A   1      44.162  27.229  25.452  1.00  0.00     0.124 S 
ATOM     80  O   UNL A   1      43.339  28.435  25.473  1.00  0.00    -0.237 OA
ATOM     81  O   UNL A   1      45.530  27.417  24.980  1.00  0.00    -0.237 OA
ATOM     82  O   UNL A   1      43.512  26.016  24.971  1.00  0.00    -0.744 OA
ENDBRANCH  75  79
ENDBRANCH  48  72
BRANCH  60  83
ATOM     83  C   UNL A   1      42.936  34.733  30.369  1.00  0.00     0.023 A 
ATOM     84  C   UNL A   1      42.681  35.283  29.087  1.00  0.00     0.031 A 
ATOM     85  C   UNL A   1      43.670  35.551  31.244  1.00  0.00     0.131 A 
ATOM     86  C   UNL A   1      43.172  36.540  28.711  1.00  0.00     0.055 A 
ATOM     87  C   UNL A   1      44.082  36.845  30.898  1.00  0.00     0.041 A 
ATOM     88  F   UNL A   1      44.086  35.124  32.441  1.00  0.00    -0.206 F 
ATOM     89  C   UNL A   1      43.854  37.337  29.621  1.00  0.00     0.022 A 
BRANCH  86  90
ATOM     90  S   UNL A   1      43.094  37.077  26.978  1.00  0.00     0.124 S 
ATOM     91  O   UNL A   1      44.405  37.694  26.800  1.00  0.00    -0.237 OA
ATOM     92  O   UNL A   1      42.897  35.813  26.270  1.00  0.00    -0.237 OA
ATOM     93  O   UNL A   1      41.954  37.984  26.950  1.00  0.00    -0.744 OA
ENDBRANCH  86  90
ENDBRANCH  60  83
ENDBRANCH  34  35
ENDBRANCH  26  29
ENDBRANCH  24  25
ENDBRANCH  23  24
ENDBRANCH   1  23
TORSDOF 17
ENDMDL
MODEL 2
REMARK VINA RESULT:     -12.7      3.971      9.814
REMARK SMILES Cc1cc(-c2cncc(C(=O)NCCCCCCNC(=O)c3ccc(-c4c5nc(c(-c6cc(S(=O)(=O)[O-])ccc6F)c6ccc([nH]6)c(-c6cc(S(=O)(=O)[O-])ccc6F)c6nc(c(-c7cc(S(=O)(=O)[O-])ccc7F)c7ccc4[nH]7)C=C6)C=C5)cc3)c2)ccc1F
REMARK SMILES IDX 16 1 15 2 14 3 13 4 12 5 10 6 11 7 9 9 5 10 6 11 85 12 7 13
REMARK SMILES IDX 8 14 4 15 1 16 2 17 3 18 88 19 87 20 89 21 86 22 17 23 18 24
REMARK SMILES IDX 19 25 20 26 21 28 22 29 23 30 84 31 24 32 83 33 25 34 26 35
REMARK SMILES IDX 27 36 77 37 28 38 82 39 76 40 78 41 29 42 81 43 75 44 74 45
REMARK SMILES IDX 30 47 62 48 42 49 61 50 43 51 46 52 60 53 79 54 44 55 45 56
REMARK SMILES IDX 59 58 80 59 47 60 31 61 32 62 40 63 33 64 39 65 41 66 38 67
REMARK SMILES IDX 34 68 35 69 36 70 37 71 63 72 64 73 72 74 65 75 71 76 73 77
REMARK SMILES IDX 70 78 66 79 67 80 68 81 69 82 48 83 49 84 57 85 50 86 56 87
REMARK SMILES IDX 58 88 55 89 51 90 52 91 53 92 54 93
REMARK H PARENT 12 8 19 27 78 46 46 57
REMARK Flexibility Score: inf
ROOT
ATOM      1  C   UNL A   1      32.377  29.453  25.326  1.00  0.00     0.002 C 
ENDROOT
BRANCH   1   2
ATOM      2  C   UNL A   1      31.086  29.159  24.545  1.00  0.00     0.002 C 
BRANCH   2   3
ATOM      3  C   UNL A   1      31.205  28.026  23.517  1.00  0.00     0.021 C 
BRANCH   3   4
ATOM      4  C   UNL A   1      32.657  27.692  23.175  1.00  0.00     0.116 C 
BRANCH   4   5
ATOM      5  N   UNL A   1      32.723  27.071  21.864  1.00  0.00    -0.352 N 
ATOM      6  C   UNL A   1      32.956  25.787  21.453  1.00  0.00     0.252 C 
ATOM      7  O   UNL A   1      32.957  25.563  20.242  1.00  0.00    -0.269 OA
ATOM      8  H   UNL A   1      32.567  27.700  21.123  1.00  0.00     0.163 HD
BRANCH   6   9
ATOM      9  C   UNL A   1      33.120  24.653  22.391  1.00  0.00     0.058 A 
ATOM     10  C   UNL A   1      34.374  23.192  23.864  1.00  0.00     0.001 A 
ATOM     11  C   UNL A   1      33.154  22.729  24.349  1.00  0.00     0.119 A 
ATOM     12  C   UNL A   1      34.332  24.111  22.808  1.00  0.00     0.025 A 
ATOM     13  N   UNL A   1      31.948  23.142  23.892  1.00  0.00    -0.263 NA
ATOM     14  C   UNL A   1      31.963  24.108  22.939  1.00  0.00     0.124 A 
BRANCH  10  15
ATOM     15  C   UNL A   1      35.651  22.842  24.489  1.00  0.00    -0.016 A 
ATOM     16  C   UNL A   1      37.824  19.718  24.941  1.00  0.00     0.047 C 
ATOM     17  C   UNL A   1      37.324  21.128  25.014  1.00  0.00    -0.015 A 
ATOM     18  C   UNL A   1      36.122  21.513  24.407  1.00  0.00     0.015 A 
ATOM     19  C   UNL A   1      38.057  22.094  25.702  1.00  0.00     0.126 A 
ATOM     20  C   UNL A   1      37.612  23.409  25.797  1.00  0.00     0.040 A 
ATOM     21  F   UNL A   1      39.216  21.756  26.283  1.00  0.00    -0.207 F 
ATOM     22  C   UNL A   1      36.412  23.785  25.190  1.00  0.00     0.012 A 
ENDBRANCH  10  15
ENDBRANCH   6   9
ENDBRANCH   4   5
ENDBRANCH   3   4
ENDBRANCH   2   3
ENDBRANCH   1   2
BRANCH   1  23
ATOM     23  C   UNL A   1      32.400  28.926  26.770  1.00  0.00     0.021 C 
BRANCH  23  24
ATOM     24  C   UNL A   1      33.756  29.112  27.420  1.00  0.00     0.116 C 
BRANCH  24  25
ATOM     25  N   UNL A   1      33.940  30.499  27.822  1.00  0.00    -0.352 N 
ATOM     26  C   UNL A   1      34.956  31.035  28.578  1.00  0.00     0.251 C 
ATOM     27  H   UNL A   1      33.251  31.131  27.515  1.00  0.00     0.163 HD
ATOM     28  O   UNL A   1      34.858  32.174  29.011  1.00  0.00    -0.269 OA
BRANCH  26  29
ATOM     29  C   UNL A   1      36.160  30.214  28.777  1.00  0.00     0.039 A 
ATOM     30  C   UNL A   1      36.445  29.587  29.993  1.00  0.00     0.014 A 
ATOM     31  C   UNL A   1      37.030  30.112  27.694  1.00  0.00     0.014 A 
ATOM     32  C   UNL A   1      37.625  28.852  30.125  1.00  0.00     0.010 A 
ATOM     33  C   UNL A   1      38.112  29.282  27.777  1.00  0.00     0.010 A 
ATOM     34  C   UNL A   1      38.456  28.717  29.013  1.00  0.00    -0.014 A 
BRANCH  34  35
ATOM     35  C   UNL A   1      39.820  28.213  29.040  1.00  0.00     0.031 A 
ATOM     36  C   UNL A   1      40.185  26.836  28.692  1.00  0.00     0.074 A 
ATOM     37  C   UNL A   1      40.757  29.176  29.194  1.00  0.00     0.049 A 
ATOM     38  N   UNL A   1      41.321  26.312  28.997  1.00  0.00    -0.248 NA
ATOM     39  C   UNL A   1      39.304  25.932  27.965  1.00  0.00     0.031 C 
ATOM     40  C   UNL A   1      42.166  29.157  28.848  1.00  0.00     0.029 A 
ATOM     41  N   UNL A   1      40.578  30.406  29.838  1.00  0.00    -0.354 N 
ATOM     42  C   UNL A   1      41.449  25.155  28.261  1.00  0.00     0.074 A 
ATOM     43  C   UNL A   1      40.129  24.904  27.723  1.00  0.00     0.031 C 
ATOM     44  C   UNL A   1      42.777  30.162  29.501  1.00  0.00     0.029 A 
ATOM     45  C   UNL A   1      41.801  30.732  30.422  1.00  0.00     0.049 A 
ATOM     46  H   UNL A   1      39.749  30.937  29.873  1.00  0.00     0.167 HD
ATOM     47  C   UNL A   1      42.697  24.644  28.045  1.00  0.00     0.034 A 
ATOM     48  C   UNL A   1      41.949  30.854  31.772  1.00  0.00     0.034 A 
ATOM     49  C   UNL A   1      43.713  25.457  28.722  1.00  0.00     0.049 A 
ATOM     50  C   UNL A   1      42.956  29.859  32.294  1.00  0.00     0.074 A 
ATOM     51  C   UNL A   1      44.536  26.475  28.267  1.00  0.00     0.029 A 
ATOM     52  N   UNL A   1      43.750  25.515  30.111  1.00  0.00    -0.354 N 
ATOM     53  N   UNL A   1      43.267  28.753  31.676  1.00  0.00    -0.248 NA
ATOM     54  C   UNL A   1      43.707  30.040  33.529  1.00  0.00     0.031 C 
ATOM     55  C   UNL A   1      45.021  27.188  29.391  1.00  0.00     0.029 A 
ATOM     56  C   UNL A   1      44.511  26.595  30.534  1.00  0.00     0.049 A 
ATOM     57  H   UNL A   1      43.300  24.878  30.711  1.00  0.00     0.167 HD
ATOM     58  C   UNL A   1      44.225  28.079  32.384  1.00  0.00     0.074 A 
ATOM     59  C   UNL A   1      44.477  28.936  33.529  1.00  0.00     0.031 C 
ATOM     60  C   UNL A   1      44.718  26.876  31.956  1.00  0.00     0.034 A 
BRANCH  47  61
ATOM     61  C   UNL A   1      43.011  23.619  26.968  1.00  0.00     0.023 A 
ATOM     62  C   UNL A   1      42.844  22.227  27.133  1.00  0.00     0.031 A 
ATOM     63  C   UNL A   1      43.451  24.025  25.687  1.00  0.00     0.131 A 
ATOM     64  C   UNL A   1      42.989  21.334  26.050  1.00  0.00     0.055 A 
ATOM     65  C   UNL A   1      43.648  23.131  24.626  1.00  0.00     0.041 A 
ATOM     66  F   UNL A   1      43.671  25.312  25.387  1.00  0.00    -0.206 F 
ATOM     67  C   UNL A   1      43.392  21.782  24.795  1.00  0.00     0.022 A 
BRANCH  64  68
ATOM     68  S   UNL A   1      42.558  19.576  26.209  1.00  0.00     0.124 S 
ATOM     69  O   UNL A   1      43.757  18.914  25.695  1.00  0.00    -0.237 OA
ATOM     70  O   UNL A   1      42.338  19.433  27.645  1.00  0.00    -0.237 OA
ATOM     71  O   UNL A   1      41.373  19.432  25.369  1.00  0.00    -0.744 OA
ENDBRANCH  64  68
ENDBRANCH  47  61
BRANCH  48  72
ATOM     72  C   UNL A   1      40.713  31.297  32.484  1.00  0.00     0.023 A 
ATOM     73  C   UNL A   1      40.555  32.616  32.944  1.00  0.00     0.031 A 
ATOM     74  C   UNL A   1      39.894  30.296  33.058  1.00  0.00     0.131 A 
ATOM     75  C   UNL A   1      39.670  32.879  34.009  1.00  0.00     0.055 A 
ATOM     76  C   UNL A   1      39.042  30.560  34.132  1.00  0.00     0.041 A 
ATOM     77  F   UNL A   1      40.006  29.020  32.651  1.00  0.00    -0.206 F 
ATOM     78  C   UNL A   1      38.951  31.853  34.634  1.00  0.00     0.022 A 
BRANCH  75  79
ATOM     79  S   UNL A   1      39.529  34.558  34.698  1.00  0.00     0.124 S 
ATOM     80  O   UNL A   1      39.467  34.277  36.129  1.00  0.00    -0.237 OA
ATOM     81  O   UNL A   1      40.753  35.209  34.243  1.00  0.00    -0.237 OA
ATOM     82  O   UNL A   1      38.305  35.065  34.090  1.00  0.00    -0.744 OA
ENDBRANCH  75  79
ENDBRANCH  48  72
BRANCH  60  83
ATOM     83  C   UNL A   1      45.517  25.880  32.771  1.00  0.00     0.023 A 
ATOM     84  C   UNL A   1      44.820  24.820  33.405  1.00  0.00     0.031 A 
ATOM     85  C   UNL A   1      46.877  25.994  33.102  1.00  0.00     0.131 A 
ATOM     86  C   UNL A   1      45.443  23.977  34.334  1.00  0.00     0.055 A 
ATOM     87  C   UNL A   1      47.522  25.094  33.961  1.00  0.00     0.041 A 
ATOM     88  F   UNL A   1      47.633  27.012  32.674  1.00  0.00    -0.206 F 
ATOM     89  C   UNL A   1      46.802  24.094  34.599  1.00  0.00     0.022 A 
BRANCH  86  90
ATOM     90  S   UNL A   1      44.458  22.840  35.350  1.00  0.00     0.124 S 
ATOM     91  O   UNL A   1      43.114  23.386  35.188  1.00  0.00    -0.237 OA
ATOM     92  O   UNL A   1      44.695  21.555  34.695  1.00  0.00    -0.237 OA
ATOM     93  O   UNL A   1      45.044  22.971  36.678  1.00  0.00    -0.744 OA
ENDBRANCH  86  90
ENDBRANCH  60  83
ENDBRANCH  34  35
ENDBRANCH  26  29
ENDBRANCH  24  25
ENDBRANCH  23  24
ENDBRANCH   1  23
TORSDOF 17
ENDMDL
MODEL 3
REMARK VINA RESULT:     -12.6      3.704      9.822
REMARK SMILES Cc1cc(-c2cncc(C(=O)NCCCCCCNC(=O)c3ccc(-c4c5nc(c(-c6cc(S(=O)(=O)[O-])ccc6F)c6ccc([nH]6)c(-c6cc(S(=O)(=O)[O-])ccc6F)c6nc(c(-c7cc(S(=O)(=O)[O-])ccc7F)c7ccc4[nH]7)C=C6)C=C5)cc3)c2)ccc1F
REMARK SMILES IDX 16 1 15 2 14 3 13 4 12 5 10 6 11 7 9 9 5 10 6 11 85 12 7 13
REMARK SMILES IDX 8 14 4 15 1 16 2 17 3 18 88 19 87 20 89 21 86 22 17 23 18 24
REMARK SMILES IDX 19 25 20 26 21 28 22 29 23 30 84 31 24 32 83 33 25 34 26 35
REMARK SMILES IDX 27 36 77 37 28 38 82 39 76 40 78 41 29 42 81 43 75 44 74 45
REMARK SMILES IDX 30 47 62 48 42 49 61 50 43 51 46 52 60 53 79 54 44 55 45 56
REMARK SMILES IDX 59 58 80 59 47 60 31 61 32 62 40 63 33 64 39 65 41 66 38 67
REMARK SMILES IDX 34 68 35 69 36 70 37 71 63 72 64 73 72 74 65 75 71 76 73 77
REMARK SMILES IDX 70 78 66 79 67 80 68 81 69 82 48 83 49 84 57 85 50 86 56 87
REMARK SMILES IDX 58 88 55 89 51 90 52 91 53 92 54 93
REMARK H PARENT 12 8 19 27 78 46 46 57
REMARK Flexibility Score: inf
ROOT
ATOM      1  C   UNL A   1      32.977  29.559  25.071  1.00  0.00     0.002 C 
ENDROOT
BRANCH   1   2
ATOM      2  C   UNL A   1      31.561  28.972  25.170  1.00  0.00     0.002 C 
BRANCH   2   3
ATOM      3  C   UNL A   1      31.497  27.440  25.110  1.00  0.00     0.021 C 
BRANCH   3   4
ATOM      4  C   UNL A   1      30.404  26.932  24.169  1.00  0.00     0.116 C 
BRANCH   4   5
ATOM      5  N   UNL A   1      30.951  26.741  22.838  1.00  0.00    -0.352 N 
ATOM      6  C   UNL A   1      31.747  25.773  22.289  1.00  0.00     0.252 C 
ATOM      7  O   UNL A   1      32.060  25.891  21.104  1.00  0.00    -0.269 OA
ATOM      8  H   UNL A   1      30.697  27.449  22.204  1.00  0.00     0.163 HD
BRANCH   6   9
ATOM      9  C   UNL A   1      32.173  24.560  23.024  1.00  0.00     0.058 A 
ATOM     10  C   UNL A   1      33.781  23.114  24.119  1.00  0.00     0.001 A 
ATOM     11  C   UNL A   1      32.702  22.419  24.659  1.00  0.00     0.119 A 
ATOM     12  C   UNL A   1      33.488  24.149  23.223  1.00  0.00     0.025 A 
ATOM     13  N   UNL A   1      31.406  22.710  24.401  1.00  0.00    -0.263 NA
ATOM     14  C   UNL A   1      31.175  23.786  23.607  1.00  0.00     0.124 A 
BRANCH  10  15
ATOM     15  C   UNL A   1      35.162  22.873  24.543  1.00  0.00    -0.016 A 
ATOM     16  C   UNL A   1      37.550  19.893  24.862  1.00  0.00     0.047 C 
ATOM     17  C   UNL A   1      36.992  21.282  24.908  1.00  0.00    -0.015 A 
ATOM     18  C   UNL A   1      35.686  21.563  24.486  1.00  0.00     0.015 A 
ATOM     19  C   UNL A   1      37.774  22.333  25.384  1.00  0.00     0.126 A 
ATOM     20  C   UNL A   1      37.278  23.632  25.451  1.00  0.00     0.040 A 
ATOM     21  F   UNL A   1      39.030  22.096  25.785  1.00  0.00    -0.207 F 
ATOM     22  C   UNL A   1      35.975  23.904  25.029  1.00  0.00     0.012 A 
ENDBRANCH  10  15
ENDBRANCH   6   9
ENDBRANCH   4   5
ENDBRANCH   3   4
ENDBRANCH   2   3
ENDBRANCH   1   2
BRANCH   1  23
ATOM     23  C   UNL A   1      34.038  28.851  25.928  1.00  0.00     0.021 C 
BRANCH  23  24
ATOM     24  C   UNL A   1      33.961  29.264  27.384  1.00  0.00     0.116 C 
BRANCH  24  25
ATOM     25  N   UNL A   1      34.346  30.659  27.537  1.00  0.00    -0.352 N 
ATOM     26  C   UNL A   1      35.491  31.165  28.107  1.00  0.00     0.251 C 
ATOM     27  H   UNL A   1      33.708  31.323  27.189  1.00  0.00     0.163 HD
ATOM     28  O   UNL A   1      35.572  32.359  28.354  1.00  0.00    -0.269 OA
BRANCH  26  29
ATOM     29  C   UNL A   1      36.605  30.232  28.336  1.00  0.00     0.039 A 
ATOM     30  C   UNL A   1      36.810  29.601  29.565  1.00  0.00     0.014 A 
ATOM     31  C   UNL A   1      37.474  30.027  27.268  1.00  0.00     0.014 A 
ATOM     32  C   UNL A   1      37.910  28.754  29.726  1.00  0.00     0.010 A 
ATOM     33  C   UNL A   1      38.468  29.095  27.379  1.00  0.00     0.010 A 
ATOM     34  C   UNL A   1      38.738  28.519  28.628  1.00  0.00    -0.014 A 
BRANCH  34  35
ATOM     35  C   UNL A   1      40.044  27.883  28.682  1.00  0.00     0.031 A 
ATOM     36  C   UNL A   1      40.252  26.438  28.544  1.00  0.00     0.074 A 
ATOM     37  C   UNL A   1      41.080  28.753  28.645  1.00  0.00     0.049 A 
ATOM     38  N   UNL A   1      41.345  25.849  28.885  1.00  0.00    -0.248 NA
ATOM     39  C   UNL A   1      39.247  25.531  28.005  1.00  0.00     0.031 C 
ATOM     40  C   UNL A   1      42.458  28.531  28.252  1.00  0.00     0.029 A 
ATOM     41  N   UNL A   1      41.058  30.080  29.091  1.00  0.00    -0.354 N 
ATOM     42  C   UNL A   1      41.318  24.586  28.339  1.00  0.00     0.074 A 
ATOM     43  C   UNL A   1      39.952  24.397  27.899  1.00  0.00     0.031 C 
ATOM     44  C   UNL A   1      43.201  29.555  28.712  1.00  0.00     0.029 A 
ATOM     45  C   UNL A   1      42.338  30.361  29.567  1.00  0.00     0.049 A 
ATOM     46  H   UNL A   1      40.289  30.695  29.072  1.00  0.00     0.167 HD
ATOM     47  C   UNL A   1      42.495  23.918  28.159  1.00  0.00     0.034 A 
ATOM     48  C   UNL A   1      42.571  30.673  30.874  1.00  0.00     0.034 A 
ATOM     49  C   UNL A   1      43.622  24.712  28.658  1.00  0.00     0.049 A 
ATOM     50  C   UNL A   1      43.502  29.669  31.509  1.00  0.00     0.074 A 
ATOM     51  C   UNL A   1      44.516  25.555  28.015  1.00  0.00     0.029 A 
ATOM     52  N   UNL A   1      43.741  24.981  30.018  1.00  0.00    -0.354 N 
ATOM     53  N   UNL A   1      43.667  28.455  31.064  1.00  0.00    -0.248 NA
ATOM     54  C   UNL A   1      44.333  29.958  32.669  1.00  0.00     0.031 C 
ATOM     55  C   UNL A   1      45.130  26.377  28.992  1.00  0.00     0.029 A 
ATOM     56  C   UNL A   1      44.627  26.026  30.234  1.00  0.00     0.049 A 
ATOM     57  H   UNL A   1      43.264  24.496  30.729  1.00  0.00     0.167 HD
ATOM     58  C   UNL A   1      44.591  27.800  31.833  1.00  0.00     0.074 A 
ATOM     59  C   UNL A   1      44.989  28.792  32.816  1.00  0.00     0.031 C 
ATOM     60  C   UNL A   1      44.938  26.500  31.583  1.00  0.00     0.034 A 
BRANCH  47  61
ATOM     61  C   UNL A   1      42.647  22.711  27.248  1.00  0.00     0.023 A 
ATOM     62  C   UNL A   1      43.571  22.640  26.184  1.00  0.00     0.031 A 
ATOM     63  C   UNL A   1      41.883  21.541  27.460  1.00  0.00     0.131 A 
ATOM     64  C   UNL A   1      43.789  21.439  25.476  1.00  0.00     0.055 A 
ATOM     65  C   UNL A   1      42.062  20.364  26.721  1.00  0.00     0.041 A 
ATOM     66  F   UNL A   1      40.953  21.465  28.423  1.00  0.00    -0.206 F 
ATOM     67  C   UNL A   1      43.037  20.299  25.741  1.00  0.00     0.022 A 
BRANCH  64  68
ATOM     68  S   UNL A   1      45.131  21.288  24.260  1.00  0.00     0.124 S 
ATOM     69  O   UNL A   1      46.313  21.165  25.113  1.00  0.00    -0.237 OA
ATOM     70  O   UNL A   1      44.763  20.078  23.532  1.00  0.00    -0.237 OA
ATOM     71  O   UNL A   1      45.053  22.533  23.500  1.00  0.00    -0.744 OA
ENDBRANCH  64  68
ENDBRANCH  47  61
BRANCH  48  72
ATOM     72  C   UNL A   1      41.425  31.350  31.554  1.00  0.00     0.023 A 
ATOM     73  C   UNL A   1      40.523  30.640  32.366  1.00  0.00     0.031 A 
ATOM     74  C   UNL A   1      41.012  32.604  31.049  1.00  0.00     0.131 A 
ATOM     75  C   UNL A   1      39.224  31.148  32.569  1.00  0.00     0.055 A 
ATOM     76  C   UNL A   1      39.714  33.085  31.229  1.00  0.00     0.041 A 
ATOM     77  F   UNL A   1      41.838  33.321  30.268  1.00  0.00    -0.206 F 
ATOM     78  C   UNL A   1      38.802  32.339  31.967  1.00  0.00     0.022 A 
BRANCH  75  79
ATOM     79  S   UNL A   1      38.000  30.197  33.522  1.00  0.00     0.124 S 
ATOM     80  O   UNL A   1      36.757  30.857  33.136  1.00  0.00    -0.237 OA
ATOM     81  O   UNL A   1      38.167  28.838  33.017  1.00  0.00    -0.237 OA
ATOM     82  O   UNL A   1      38.429  30.392  34.902  1.00  0.00    -0.744 OA
ENDBRANCH  75  79
ENDBRANCH  48  72
BRANCH  60  83
ATOM     83  C   UNL A   1      45.678  25.563  32.515  1.00  0.00     0.023 A 
ATOM     84  C   UNL A   1      44.917  24.659  33.300  1.00  0.00     0.031 A 
ATOM     85  C   UNL A   1      47.051  25.609  32.806  1.00  0.00     0.131 A 
ATOM     86  C   UNL A   1      45.497  23.903  34.327  1.00  0.00     0.055 A 
ATOM     87  C   UNL A   1      47.646  24.786  33.771  1.00  0.00     0.041 A 
ATOM     88  F   UNL A   1      47.873  26.495  32.231  1.00  0.00    -0.206 F 
ATOM     89  C   UNL A   1      46.867  23.943  34.552  1.00  0.00     0.022 A 
BRANCH  86  90
ATOM     90  S   UNL A   1      44.453  22.997  35.505  1.00  0.00     0.124 S 
ATOM     91  O   UNL A   1      44.810  23.637  36.768  1.00  0.00    -0.237 OA
ATOM     92  O   UNL A   1      43.108  23.289  35.014  1.00  0.00    -0.237 OA
ATOM     93  O   UNL A   1      44.880  21.613  35.348  1.00  0.00    -0.744 OA
ENDBRANCH  86  90
ENDBRANCH  60  83
ENDBRANCH  34  35
ENDBRANCH  26  29
ENDBRANCH  24  25
ENDBRANCH  23  24
ENDBRANCH   1  23
TORSDOF 17
ENDMDL
