MODEL 1
REMARK VINA RESULT:     -12.2      0.000      0.000
REMARK SMILES Cc1ccnc(C(=O)c2[nH]c3ccc(OC(F)(F)F)cc3c2CC(=O)NCCCCCCNC(=O)c2ccc(-c3c4nc(c(-c5cc(S(=O)(=O)[O-])ccc5F)c5ccc([nH]5)c(-c5cc(S(=O)(=O)[O-])ccc5F)c5nc(c(-c6cc(S(=O)(=O)[O-])ccc6F)c6ccc3[nH]6)C=C5)C=C4)cc2)c1
REMARK SMILES IDX 29 1 28 2 27 3 26 4 24 5 25 6 23 8 22 9 9 10 10 11 11 12
REMARK SMILES IDX 21 14 12 15 20 16 13 17 14 18 7 19 8 20 6 21 1 22 2 23 3 24
REMARK SMILES IDX 99 25 4 26 5 27 15 28 16 29 17 30 18 31 19 32 30 33 31 34
REMARK SMILES IDX 32 35 33 36 34 37 35 39 36 40 37 41 98 42 38 43 97 44 39 45
REMARK SMILES IDX 40 46 41 47 91 48 42 49 96 50 90 51 92 52 43 53 95 54 89 55
REMARK SMILES IDX 88 56 44 58 76 59 56 60 75 61 57 62 60 63 74 64 93 65 58 66
REMARK SMILES IDX 59 67 73 69 94 70 61 71 45 72 46 73 54 74 47 75 53 76 55 77
REMARK SMILES IDX 52 78 48 79 49 80 50 81 51 82 77 83 78 84 86 85 79 86 85 87
REMARK SMILES IDX 87 88 84 89 80 90 81 91 82 92 83 93 62 94 63 95 71 96 64 97
REMARK SMILES IDX 70 98 72 99 69 100 65 101 66 102 67 103 68 104
REMARK H PARENT 26 7 10 13 33 38 92 57 60 68
REMARK Flexibility Score: inf
ROOT
ATOM      1  C   UNL A   1      31.678  28.910  26.094  1.00  0.00     0.002 C 
ENDROOT
BRANCH   1   2
ATOM      2  C   UNL A   1      32.974  28.176  25.724  1.00  0.00     0.021 C 
BRANCH   2   3
ATOM      3  C   UNL A   1      32.993  26.689  26.082  1.00  0.00     0.116 C 
BRANCH   3   4
ATOM      4  N   UNL A   1      34.203  26.028  25.635  1.00  0.00    -0.356 N 
ATOM      5  C   UNL A   1      34.413  24.713  25.333  1.00  0.00     0.224 C 
ATOM      6  O   UNL A   1      35.507  24.393  24.857  1.00  0.00    -0.275 OA
ATOM      7  H   UNL A   1      34.989  26.612  25.534  1.00  0.00     0.163 HD
BRANCH   5   8
ATOM      8  C   UNL A   1      33.292  23.693  25.448  1.00  0.00     0.138 C 
BRANCH   8   9
ATOM      9  C   UNL A   1      32.897  23.015  24.167  1.00  0.00    -0.002 A 
ATOM     10  C   UNL A   1      32.635  23.608  22.935  1.00  0.00     0.093 A 
ATOM     11  N   UNL A   1      32.401  22.595  22.033  1.00  0.00    -0.352 N 
ATOM     12  C   UNL A   1      32.359  21.379  22.668  1.00  0.00     0.046 A 
ATOM     13  H   UNL A   1      32.281  22.726  21.064  1.00  0.00     0.167 HD
ATOM     14  C   UNL A   1      32.653  21.608  24.008  1.00  0.00     0.008 A 
ATOM     15  C   UNL A   1      32.101  20.103  22.158  1.00  0.00     0.030 A 
ATOM     16  C   UNL A   1      32.676  20.500  24.882  1.00  0.00     0.057 A 
ATOM     17  C   UNL A   1      32.138  19.020  23.048  1.00  0.00     0.049 A 
ATOM     18  C   UNL A   1      32.422  19.209  24.399  1.00  0.00     0.130 A 
BRANCH  10  19
ATOM     19  C   UNL A   1      32.673  25.012  22.561  1.00  0.00     0.227 C 
ATOM     20  O   UNL A   1      33.640  25.484  21.974  1.00  0.00    -0.285 OA
BRANCH  19  21
ATOM     21  C   UNL A   1      31.471  25.874  22.882  1.00  0.00     0.113 A 
ATOM     22  C   UNL A   1      30.025  29.331  22.269  1.00  0.00     0.044 C 
ATOM     23  C   UNL A   1      30.207  27.924  22.751  1.00  0.00    -0.047 A 
ATOM     24  C   UNL A   1      29.256  27.340  23.587  1.00  0.00     0.023 A 
ATOM     25  C   UNL A   1      31.325  27.168  22.377  1.00  0.00     0.036 A 
ATOM     26  C   UNL A   1      29.467  26.044  24.028  1.00  0.00     0.112 A 
ATOM     27  N   UNL A   1      30.550  25.311  23.707  1.00  0.00    -0.253 NA
ENDBRANCH  19  21
ENDBRANCH  10  19
BRANCH  18  28
ATOM     28  O   UNL A   1      32.489  18.237  25.359  1.00  0.00    -0.406 OA
BRANCH  28  29
ATOM     29  C   UNL A   1      33.281  17.091  25.092  1.00  0.00     0.573 C 
ATOM     30  F   UNL A   1      33.326  16.280  26.170  1.00  0.00    -0.132 F 
ATOM     31  F   UNL A   1      32.806  16.411  24.030  1.00  0.00    -0.132 F 
ATOM     32  F   UNL A   1      34.539  17.495  24.816  1.00  0.00    -0.132 F 
ENDBRANCH  28  29
ENDBRANCH  18  28
ENDBRANCH   8   9
ENDBRANCH   5   8
ENDBRANCH   3   4
ENDBRANCH   2   3
ENDBRANCH   1   2
BRANCH   1  33
ATOM     33  C   UNL A   1      31.516  30.317  25.509  1.00  0.00     0.002 C 
BRANCH  33  34
ATOM     34  C   UNL A   1      31.369  31.454  26.527  1.00  0.00     0.021 C 
BRANCH  34  35
ATOM     35  C   UNL A   1      32.671  32.132  26.953  1.00  0.00     0.116 C 
BRANCH  35  36
ATOM     36  N   UNL A   1      32.463  33.501  27.394  1.00  0.00    -0.352 N 
ATOM     37  C   UNL A   1      33.113  34.216  28.369  1.00  0.00     0.251 C 
ATOM     38  H   UNL A   1      31.749  33.987  26.924  1.00  0.00     0.163 HD
ATOM     39  O   UNL A   1      32.670  35.311  28.706  1.00  0.00    -0.269 OA
BRANCH  37  40
ATOM     40  C   UNL A   1      34.325  33.677  29.030  1.00  0.00     0.039 A 
ATOM     41  C   UNL A   1      34.175  32.663  29.983  1.00  0.00     0.014 A 
ATOM     42  C   UNL A   1      35.596  34.193  28.761  1.00  0.00     0.014 A 
ATOM     43  C   UNL A   1      35.298  32.131  30.625  1.00  0.00     0.010 A 
ATOM     44  C   UNL A   1      36.721  33.638  29.376  1.00  0.00     0.010 A 
ATOM     45  C   UNL A   1      36.581  32.601  30.312  1.00  0.00    -0.014 A 
BRANCH  45  46
ATOM     46  C   UNL A   1      37.790  32.032  30.962  1.00  0.00     0.031 A 
ATOM     47  C   UNL A   1      38.606  30.987  30.253  1.00  0.00     0.074 A 
ATOM     48  C   UNL A   1      38.114  32.406  32.214  1.00  0.00     0.049 A 
ATOM     49  N   UNL A   1      39.612  30.280  30.697  1.00  0.00    -0.248 NA
ATOM     50  C   UNL A   1      38.219  30.685  28.867  1.00  0.00     0.031 C 
ATOM     51  C   UNL A   1      37.389  33.391  33.018  1.00  0.00     0.029 A 
ATOM     52  N   UNL A   1      39.127  31.983  33.039  1.00  0.00    -0.354 N 
ATOM     53  C   UNL A   1      39.969  29.431  29.654  1.00  0.00     0.074 A 
ATOM     54  C   UNL A   1      39.051  29.699  28.566  1.00  0.00     0.031 C 
ATOM     55  C   UNL A   1      37.974  33.492  34.222  1.00  0.00     0.029 A 
ATOM     56  C   UNL A   1      39.097  32.561  34.287  1.00  0.00     0.049 A 
ATOM     57  H   UNL A   1      39.809  31.331  32.763  1.00  0.00     0.167 HD
ATOM     58  C   UNL A   1      40.969  28.516  29.608  1.00  0.00     0.034 A 
ATOM     59  C   UNL A   1      39.873  32.348  35.367  1.00  0.00     0.034 A 
ATOM     60  C   UNL A   1      41.889  28.265  30.690  1.00  0.00     0.049 A 
ATOM     61  C   UNL A   1      40.994  31.347  35.284  1.00  0.00     0.074 A 
ATOM     62  C   UNL A   1      42.951  27.376  30.737  1.00  0.00     0.029 A 
ATOM     63  N   UNL A   1      41.859  28.909  31.920  1.00  0.00    -0.354 N 
ATOM     64  N   UNL A   1      41.318  30.553  34.290  1.00  0.00    -0.248 NA
ATOM     65  C   UNL A   1      41.859  31.222  36.464  1.00  0.00     0.031 C 
ATOM     66  C   UNL A   1      43.542  27.459  32.005  1.00  0.00     0.029 A 
ATOM     67  C   UNL A   1      42.876  28.431  32.733  1.00  0.00     0.049 A 
ATOM     68  H   UNL A   1      41.211  29.602  32.177  1.00  0.00     0.167 HD
ATOM     69  C   UNL A   1      42.435  29.847  34.720  1.00  0.00     0.074 A 
ATOM     70  C   UNL A   1      42.734  30.313  36.060  1.00  0.00     0.031 C 
ATOM     71  C   UNL A   1      43.155  28.902  34.066  1.00  0.00     0.034 A 
BRANCH  58  72
ATOM     72  C   UNL A   1      41.086  27.695  28.351  1.00  0.00     0.023 A 
ATOM     73  C   UNL A   1      40.683  26.349  28.311  1.00  0.00     0.031 A 
ATOM     74  C   UNL A   1      41.647  28.254  27.189  1.00  0.00     0.131 A 
ATOM     75  C   UNL A   1      40.907  25.588  27.154  1.00  0.00     0.055 A 
ATOM     76  C   UNL A   1      41.807  27.509  26.019  1.00  0.00     0.041 A 
ATOM     77  F   UNL A   1      42.068  29.529  27.181  1.00  0.00    -0.206 F 
ATOM     78  C   UNL A   1      41.447  26.165  26.001  1.00  0.00     0.022 A 
BRANCH  75  79
ATOM     79  S   UNL A   1      40.589  23.805  27.212  1.00  0.00     0.124 S 
ATOM     80  O   UNL A   1      41.189  23.441  28.494  1.00  0.00    -0.237 OA
ATOM     81  O   UNL A   1      39.133  23.739  27.146  1.00  0.00    -0.237 OA
ATOM     82  O   UNL A   1      41.288  23.293  26.035  1.00  0.00    -0.744 OA
ENDBRANCH  75  79
ENDBRANCH  58  72
BRANCH  59  83
ATOM     83  C   UNL A   1      39.604  33.073  36.636  1.00  0.00     0.023 A 
ATOM     84  C   UNL A   1      38.791  32.512  37.631  1.00  0.00     0.031 A 
ATOM     85  C   UNL A   1      40.132  34.357  36.852  1.00  0.00     0.131 A 
ATOM     86  C   UNL A   1      38.499  33.249  38.788  1.00  0.00     0.055 A 
ATOM     87  C   UNL A   1      39.865  35.074  38.018  1.00  0.00     0.041 A 
ATOM     88  F   UNL A   1      40.923  34.929  35.929  1.00  0.00    -0.206 F 
ATOM     89  C   UNL A   1      39.036  34.523  38.992  1.00  0.00     0.022 A 
BRANCH  86  90
ATOM     90  S   UNL A   1      37.354  32.541  40.003  1.00  0.00     0.124 S 
ATOM     91  O   UNL A   1      38.130  31.428  40.536  1.00  0.00    -0.237 OA
ATOM     92  O   UNL A   1      37.142  33.667  40.907  1.00  0.00    -0.237 OA
ATOM     93  O   UNL A   1      36.194  32.164  39.197  1.00  0.00    -0.744 OA
ENDBRANCH  86  90
ENDBRANCH  59  83
BRANCH  71  94
ATOM     94  C   UNL A   1      44.356  28.351  34.783  1.00  0.00     0.023 A 
ATOM     95  C   UNL A   1      44.249  27.264  35.667  1.00  0.00     0.031 A 
ATOM     96  C   UNL A   1      45.617  28.940  34.594  1.00  0.00     0.131 A 
ATOM     97  C   UNL A   1      45.384  26.822  36.364  1.00  0.00     0.055 A 
ATOM     98  C   UNL A   1      46.749  28.475  35.264  1.00  0.00     0.041 A 
ATOM     99  F   UNL A   1      45.765  29.983  33.761  1.00  0.00    -0.206 F 
ATOM    100  C   UNL A   1      46.634  27.414  36.161  1.00  0.00     0.022 A 
BRANCH  97 101
ATOM    101  S   UNL A   1      45.196  25.493  37.584  1.00  0.00     0.124 S 
ATOM    102  O   UNL A   1      46.581  25.101  37.825  1.00  0.00    -0.237 OA
ATOM    103  O   UNL A   1      44.525  26.173  38.687  1.00  0.00    -0.237 OA
ATOM    104  O   UNL A   1      44.383  24.498  36.886  1.00  0.00    -0.744 OA
ENDBRANCH  97 101
ENDBRANCH  71  94
ENDBRANCH  45  46
ENDBRANCH  37  40
ENDBRANCH  35  36
ENDBRANCH  34  35
ENDBRANCH  33  34
ENDBRANCH   1  33
TORSDOF 21
ENDMDL
MODEL 2
REMARK VINA RESULT:     -12.2      2.935      7.847
REMARK SMILES Cc1ccnc(C(=O)c2[nH]c3ccc(OC(F)(F)F)cc3c2CC(=O)NCCCCCCNC(=O)c2ccc(-c3c4nc(c(-c5cc(S(=O)(=O)[O-])ccc5F)c5ccc([nH]5)c(-c5cc(S(=O)(=O)[O-])ccc5F)c5nc(c(-c6cc(S(=O)(=O)[O-])ccc6F)c6ccc3[nH]6)C=C5)C=C4)cc2)c1
REMARK SMILES IDX 29 1 28 2 27 3 26 4 24 5 25 6 23 8 22 9 9 10 10 11 11 12
REMARK SMILES IDX 21 14 12 15 20 16 13 17 14 18 7 19 8 20 6 21 1 22 2 23 3 24
REMARK SMILES IDX 99 25 4 26 5 27 15 28 16 29 17 30 18 31 19 32 30 33 31 34
REMARK SMILES IDX 32 35 33 36 34 37 35 39 36 40 37 41 98 42 38 43 97 44 39 45
REMARK SMILES IDX 40 46 41 47 91 48 42 49 96 50 90 51 92 52 43 53 95 54 89 55
REMARK SMILES IDX 88 56 44 58 76 59 56 60 75 61 57 62 60 63 74 64 93 65 58 66
REMARK SMILES IDX 59 67 73 69 94 70 61 71 45 72 46 73 54 74 47 75 53 76 55 77
REMARK SMILES IDX 52 78 48 79 49 80 50 81 51 82 77 83 78 84 86 85 79 86 85 87
REMARK SMILES IDX 87 88 84 89 80 90 81 91 82 92 83 93 62 94 63 95 71 96 64 97
REMARK SMILES IDX 70 98 72 99 69 100 65 101 66 102 67 103 68 104
REMARK H PARENT 26 7 10 13 33 38 92 57 60 68
REMARK Flexibility Score: inf
ROOT
ATOM      1  C   UNL A   1      32.508  26.304  26.253  1.00  0.00     0.002 C 
ENDROOT
BRANCH   1   2
ATOM      2  C   UNL A   1      31.642  25.160  26.798  1.00  0.00     0.021 C 
BRANCH   2   3
ATOM      3  C   UNL A   1      32.011  23.772  26.274  1.00  0.00     0.116 C 
BRANCH   3   4
ATOM      4  N   UNL A   1      33.303  23.324  26.755  1.00  0.00    -0.356 N 
ATOM      5  C   UNL A   1      34.506  23.288  26.109  1.00  0.00     0.224 C 
ATOM      6  O   UNL A   1      35.506  22.971  26.761  1.00  0.00    -0.275 OA
ATOM      7  H   UNL A   1      33.316  22.997  27.684  1.00  0.00     0.163 HD
BRANCH   5   8
ATOM      8  C   UNL A   1      34.637  23.756  24.669  1.00  0.00     0.138 C 
BRANCH   8   9
ATOM      9  C   UNL A   1      33.683  23.127  23.693  1.00  0.00    -0.002 A 
ATOM     10  C   UNL A   1      32.929  23.761  22.709  1.00  0.00     0.093 A 
ATOM     11  N   UNL A   1      32.272  22.781  22.001  1.00  0.00    -0.352 N 
ATOM     12  C   UNL A   1      32.460  21.552  22.582  1.00  0.00     0.046 A 
ATOM     13  H   UNL A   1      31.741  22.941  21.187  1.00  0.00     0.167 HD
ATOM     14  C   UNL A   1      33.328  21.735  23.653  1.00  0.00     0.008 A 
ATOM     15  C   UNL A   1      31.943  20.300  22.234  1.00  0.00     0.030 A 
ATOM     16  C   UNL A   1      33.686  20.606  24.419  1.00  0.00     0.057 A 
ATOM     17  C   UNL A   1      32.320  19.195  23.010  1.00  0.00     0.049 A 
ATOM     18  C   UNL A   1      33.183  19.338  24.094  1.00  0.00     0.130 A 
BRANCH  10  19
ATOM     19  C   UNL A   1      32.862  25.171  22.364  1.00  0.00     0.227 C 
ATOM     20  O   UNL A   1      33.776  25.718  21.758  1.00  0.00    -0.285 OA
BRANCH  19  21
ATOM     21  C   UNL A   1      31.617  25.946  22.740  1.00  0.00     0.113 A 
ATOM     22  C   UNL A   1      30.121  29.433  22.632  1.00  0.00     0.044 C 
ATOM     23  C   UNL A   1      30.309  27.966  22.874  1.00  0.00    -0.047 A 
ATOM     24  C   UNL A   1      29.318  27.230  23.524  1.00  0.00     0.023 A 
ATOM     25  C   UNL A   1      31.470  27.305  22.458  1.00  0.00     0.036 A 
ATOM     26  C   UNL A   1      29.534  25.881  23.748  1.00  0.00     0.112 A 
ATOM     27  N   UNL A   1      30.658  25.232  23.386  1.00  0.00    -0.253 NA
ENDBRANCH  19  21
ENDBRANCH  10  19
BRANCH  18  28
ATOM     28  O   UNL A   1      33.624  18.341  24.919  1.00  0.00    -0.406 OA
BRANCH  28  29
ATOM     29  C   UNL A   1      34.708  17.540  24.476  1.00  0.00     0.573 C 
ATOM     30  F   UNL A   1      35.875  18.210  24.589  1.00  0.00    -0.132 F 
ATOM     31  F   UNL A   1      34.775  16.388  25.173  1.00  0.00    -0.132 F 
ATOM     32  F   UNL A   1      34.517  17.243  23.173  1.00  0.00    -0.132 F 
ENDBRANCH  28  29
ENDBRANCH  18  28
ENDBRANCH   8   9
ENDBRANCH   5   8
ENDBRANCH   3   4
ENDBRANCH   2   3
ENDBRANCH   1   2
BRANCH   1  33
ATOM     33  C   UNL A   1      31.883  27.703  26.313  1.00  0.00     0.002 C 
BRANCH  33  34
ATOM     34  C   UNL A   1      32.662  28.817  25.604  1.00  0.00     0.021 C 
BRANCH  34  35
ATOM     35  C   UNL A   1      33.957  29.255  26.288  1.00  0.00     0.116 C 
BRANCH  35  36
ATOM     36  N   UNL A   1      33.878  30.612  26.801  1.00  0.00    -0.352 N 
ATOM     37  C   UNL A   1      34.645  31.235  27.756  1.00  0.00     0.251 C 
ATOM     38  H   UNL A   1      33.168  31.168  26.407  1.00  0.00     0.163 HD
ATOM     39  O   UNL A   1      34.306  32.340  28.171  1.00  0.00    -0.269 OA
BRANCH  37  40
ATOM     40  C   UNL A   1      35.860  30.584  28.300  1.00  0.00     0.039 A 
ATOM     41  C   UNL A   1      37.072  30.749  27.620  1.00  0.00     0.014 A 
ATOM     42  C   UNL A   1      35.808  29.774  29.438  1.00  0.00     0.014 A 
ATOM     43  C   UNL A   1      38.237  30.149  28.106  1.00  0.00     0.010 A 
ATOM     44  C   UNL A   1      36.978  29.204  29.945  1.00  0.00     0.010 A 
ATOM     45  C   UNL A   1      38.204  29.388  29.284  1.00  0.00    -0.014 A 
BRANCH  45  46
ATOM     46  C   UNL A   1      39.435  28.764  29.834  1.00  0.00     0.031 A 
ATOM     47  C   UNL A   1      40.089  29.340  31.058  1.00  0.00     0.074 A 
ATOM     48  C   UNL A   1      39.999  27.723  29.193  1.00  0.00     0.049 A 
ATOM     49  N   UNL A   1      41.229  29.022  31.615  1.00  0.00    -0.248 NA
ATOM     50  C   UNL A   1      39.371  30.434  31.730  1.00  0.00     0.031 C 
ATOM     51  C   UNL A   1      39.476  27.089  27.982  1.00  0.00     0.029 A 
ATOM     52  N   UNL A   1      41.152  27.027  29.461  1.00  0.00    -0.354 N 
ATOM     53  C   UNL A   1      41.381  29.891  32.691  1.00  0.00     0.074 A 
ATOM     54  C   UNL A   1      40.224  30.763  32.690  1.00  0.00     0.031 C 
ATOM     55  C   UNL A   1      40.309  26.104  27.607  1.00  0.00     0.029 A 
ATOM     56  C   UNL A   1      41.437  26.054  28.532  1.00  0.00     0.049 A 
ATOM     57  H   UNL A   1      41.720  27.208  30.244  1.00  0.00     0.167 HD
ATOM     58  C   UNL A   1      42.388  29.953  33.596  1.00  0.00     0.034 A 
ATOM     59  C   UNL A   1      42.497  25.230  28.427  1.00  0.00     0.034 A 
ATOM     60  C   UNL A   1      43.531  29.072  33.602  1.00  0.00     0.049 A 
ATOM     61  C   UNL A   1      43.590  25.299  29.459  1.00  0.00     0.074 A 
ATOM     62  C   UNL A   1      44.595  29.037  34.488  1.00  0.00     0.029 A 
ATOM     63  N   UNL A   1      43.756  28.063  32.675  1.00  0.00    -0.354 N 
ATOM     64  N   UNL A   1      43.718  26.125  30.470  1.00  0.00    -0.248 NA
ATOM     65  C   UNL A   1      44.676  24.317  29.340  1.00  0.00     0.031 C 
ATOM     66  C   UNL A   1      45.479  28.030  34.078  1.00  0.00     0.029 A 
ATOM     67  C   UNL A   1      44.944  27.408  32.962  1.00  0.00     0.049 A 
ATOM     68  H   UNL A   1      43.159  27.846  31.923  1.00  0.00     0.167 HD
ATOM     69  C   UNL A   1      44.890  25.751  31.118  1.00  0.00     0.074 A 
ATOM     70  C   UNL A   1      45.428  24.621  30.387  1.00  0.00     0.031 C 
ATOM     71  C   UNL A   1      45.467  26.289  32.220  1.00  0.00     0.034 A 
BRANCH  58  72
ATOM     72  C   UNL A   1      42.309  31.043  34.633  1.00  0.00     0.023 A 
ATOM     73  C   UNL A   1      42.862  32.315  34.407  1.00  0.00     0.031 A 
ATOM     74  C   UNL A   1      41.709  30.793  35.880  1.00  0.00     0.131 A 
ATOM     75  C   UNL A   1      42.863  33.268  35.436  1.00  0.00     0.055 A 
ATOM     76  C   UNL A   1      41.653  31.769  36.877  1.00  0.00     0.041 A 
ATOM     77  F   UNL A   1      41.184  29.588  36.155  1.00  0.00    -0.206 F 
ATOM     78  C   UNL A   1      42.243  33.011  36.662  1.00  0.00     0.022 A 
BRANCH  75  79
ATOM     79  S   UNL A   1      43.783  34.810  35.191  1.00  0.00     0.124 S 
ATOM     80  O   UNL A   1      43.234  35.282  33.922  1.00  0.00    -0.237 OA
ATOM     81  O   UNL A   1      43.423  35.587  36.372  1.00  0.00    -0.237 OA
ATOM     82  O   UNL A   1      45.177  34.372  35.135  1.00  0.00    -0.744 OA
ENDBRANCH  75  79
ENDBRANCH  58  72
BRANCH  59  83
ATOM     83  C   UNL A   1      42.598  24.284  27.284  1.00  0.00     0.023 A 
ATOM     84  C   UNL A   1      42.012  23.012  27.346  1.00  0.00     0.031 A 
ATOM     85  C   UNL A   1      43.314  24.634  26.127  1.00  0.00     0.131 A 
ATOM     86  C   UNL A   1      42.181  22.116  26.280  1.00  0.00     0.055 A 
ATOM     87  C   UNL A   1      43.453  23.752  25.056  1.00  0.00     0.041 A 
ATOM     88  F   UNL A   1      43.883  25.846  26.022  1.00  0.00    -0.206 F 
ATOM     89  C   UNL A   1      42.892  22.479  25.133  1.00  0.00     0.022 A 
BRANCH  86  90
ATOM     90  S   UNL A   1      41.509  20.440  26.439  1.00  0.00     0.124 S 
ATOM     91  O   UNL A   1      41.936  20.071  27.783  1.00  0.00    -0.237 OA
ATOM     92  O   UNL A   1      40.079  20.672  26.260  1.00  0.00    -0.237 OA
ATOM     93  O   UNL A   1      42.160  19.708  25.354  1.00  0.00    -0.744 OA
ENDBRANCH  86  90
ENDBRANCH  59  83
BRANCH  71  94
ATOM     94  C   UNL A   1      46.720  25.624  32.718  1.00  0.00     0.023 A 
ATOM     95  C   UNL A   1      46.679  24.617  33.697  1.00  0.00     0.031 A 
ATOM     96  C   UNL A   1      47.972  26.024  32.220  1.00  0.00     0.131 A 
ATOM     97  C   UNL A   1      47.878  24.068  34.179  1.00  0.00     0.055 A 
ATOM     98  C   UNL A   1      49.158  25.451  32.678  1.00  0.00     0.041 A 
ATOM     99  F   UNL A   1      48.059  26.984  31.285  1.00  0.00    -0.206 F 
ATOM    100  C   UNL A   1      49.115  24.472  33.669  1.00  0.00     0.022 A 
BRANCH  97 101
ATOM    101  S   UNL A   1      47.802  22.854  35.524  1.00  0.00     0.124 S 
ATOM    102  O   UNL A   1      49.211  22.680  35.860  1.00  0.00    -0.237 OA
ATOM    103  O   UNL A   1      46.989  23.542  36.522  1.00  0.00    -0.237 OA
ATOM    104  O   UNL A   1      47.165  21.693  34.903  1.00  0.00    -0.744 OA
ENDBRANCH  97 101
ENDBRANCH  71  94
ENDBRANCH  45  46
ENDBRANCH  37  40
ENDBRANCH  35  36
ENDBRANCH  34  35
ENDBRANCH  33  34
ENDBRANCH   1  33
TORSDOF 21
ENDMDL
MODEL 3
REMARK VINA RESULT:     -12.1      2.698      7.785
REMARK SMILES Cc1ccnc(C(=O)c2[nH]c3ccc(OC(F)(F)F)cc3c2CC(=O)NCCCCCCNC(=O)c2ccc(-c3c4nc(c(-c5cc(S(=O)(=O)[O-])ccc5F)c5ccc([nH]5)c(-c5cc(S(=O)(=O)[O-])ccc5F)c5nc(c(-c6cc(S(=O)(=O)[O-])ccc6F)c6ccc3[nH]6)C=C5)C=C4)cc2)c1
REMARK SMILES IDX 29 1 28 2 27 3 26 4 24 5 25 6 23 8 22 9 9 10 10 11 11 12
REMARK SMILES IDX 21 14 12 15 20 16 13 17 14 18 7 19 8 20 6 21 1 22 2 23 3 24
REMARK SMILES IDX 99 25 4 26 5 27 15 28 16 29 17 30 18 31 19 32 30 33 31 34
REMARK SMILES IDX 32 35 33 36 34 37 35 39 36 40 37 41 98 42 38 43 97 44 39 45
REMARK SMILES IDX 40 46 41 47 91 48 42 49 96 50 90 51 92 52 43 53 95 54 89 55
REMARK SMILES IDX 88 56 44 58 76 59 56 60 75 61 57 62 60 63 74 64 93 65 58 66
REMARK SMILES IDX 59 67 73 69 94 70 61 71 45 72 46 73 54 74 47 75 53 76 55 77
REMARK SMILES IDX 52 78 48 79 49 80 50 81 51 82 77 83 78 84 86 85 79 86 85 87
REMARK SMILES IDX 87 88 84 89 80 90 81 91 82 92 83 93 62 94 63 95 71 96 64 97
REMARK SMILES IDX 70 98 72 99 69 100 65 101 66 102 67 103 68 104
REMARK H PARENT 26 7 10 13 33 38 92 57 60 68
REMARK Flexibility Score: inf
ROOT
ATOM      1  C   UNL A   1      32.324  26.554  26.484  1.00  0.00     0.002 C 
ENDROOT
BRANCH   1   2
ATOM      2  C   UNL A   1      31.435  25.359  26.851  1.00  0.00     0.021 C 
BRANCH   2   3
ATOM      3  C   UNL A   1      31.842  24.034  26.204  1.00  0.00     0.116 C 
BRANCH   3   4
ATOM      4  N   UNL A   1      33.069  23.501  26.760  1.00  0.00    -0.356 N 
ATOM      5  C   UNL A   1      34.296  23.358  26.178  1.00  0.00     0.224 C 
ATOM      6  O   UNL A   1      35.235  22.981  26.886  1.00  0.00    -0.275 OA
ATOM      7  H   UNL A   1      33.010  23.196  27.694  1.00  0.00     0.163 HD
BRANCH   5   8
ATOM      8  C   UNL A   1      34.536  23.781  24.737  1.00  0.00     0.138 C 
BRANCH   8   9
ATOM      9  C   UNL A   1      33.634  23.145  23.717  1.00  0.00    -0.002 A 
ATOM     10  C   UNL A   1      32.923  23.774  22.699  1.00  0.00     0.093 A 
ATOM     11  N   UNL A   1      32.307  22.790  21.959  1.00  0.00    -0.352 N 
ATOM     12  C   UNL A   1      32.477  21.562  22.548  1.00  0.00     0.046 A 
ATOM     13  H   UNL A   1      31.814  22.946  21.121  1.00  0.00     0.167 HD
ATOM     14  C   UNL A   1      33.292  21.751  23.659  1.00  0.00     0.008 A 
ATOM     15  C   UNL A   1      31.986  20.307  22.175  1.00  0.00     0.030 A 
ATOM     16  C   UNL A   1      33.621  20.624  24.441  1.00  0.00     0.057 A 
ATOM     17  C   UNL A   1      32.335  19.204  22.967  1.00  0.00     0.049 A 
ATOM     18  C   UNL A   1      33.145  19.352  24.091  1.00  0.00     0.130 A 
BRANCH  10  19
ATOM     19  C   UNL A   1      32.862  25.184  22.352  1.00  0.00     0.227 C 
ATOM     20  O   UNL A   1      33.763  25.719  21.718  1.00  0.00    -0.285 OA
BRANCH  19  21
ATOM     21  C   UNL A   1      31.637  25.974  22.763  1.00  0.00     0.113 A 
ATOM     22  C   UNL A   1      30.290  29.518  22.945  1.00  0.00     0.044 C 
ATOM     23  C   UNL A   1      30.408  28.028  23.050  1.00  0.00    -0.047 A 
ATOM     24  C   UNL A   1      29.366  27.278  23.595  1.00  0.00     0.023 A 
ATOM     25  C   UNL A   1      31.556  27.359  22.609  1.00  0.00     0.036 A 
ATOM     26  C   UNL A   1      29.518  25.906  23.694  1.00  0.00     0.112 A 
ATOM     27  N   UNL A   1      30.627  25.245  23.306  1.00  0.00    -0.253 NA
ENDBRANCH  19  21
ENDBRANCH  10  19
BRANCH  18  28
ATOM     28  O   UNL A   1      33.554  18.357  24.936  1.00  0.00    -0.406 OA
BRANCH  28  29
ATOM     29  C   UNL A   1      34.627  17.530  24.519  1.00  0.00     0.573 C 
ATOM     30  F   UNL A   1      35.794  18.208  24.550  1.00  0.00    -0.132 F 
ATOM     31  F   UNL A   1      34.719  16.430  25.293  1.00  0.00    -0.132 F 
ATOM     32  F   UNL A   1      34.399  17.141  23.247  1.00  0.00    -0.132 F 
ENDBRANCH  28  29
ENDBRANCH  18  28
ENDBRANCH   8   9
ENDBRANCH   5   8
ENDBRANCH   3   4
ENDBRANCH   2   3
ENDBRANCH   1   2
BRANCH   1  33
ATOM     33  C   UNL A   1      31.769  27.937  26.845  1.00  0.00     0.002 C 
BRANCH  33  34
ATOM     34  C   UNL A   1      32.309  29.112  26.022  1.00  0.00     0.021 C 
BRANCH  34  35
ATOM     35  C   UNL A   1      33.678  29.642  26.447  1.00  0.00     0.116 C 
BRANCH  35  36
ATOM     36  N   UNL A   1      33.612  31.004  26.949  1.00  0.00    -0.352 N 
ATOM     37  C   UNL A   1      34.399  31.635  27.881  1.00  0.00     0.251 C 
ATOM     38  H   UNL A   1      32.894  31.557  26.564  1.00  0.00     0.163 HD
ATOM     39  O   UNL A   1      34.070  32.744  28.293  1.00  0.00    -0.269 OA
BRANCH  37  40
ATOM     40  C   UNL A   1      35.625  30.987  28.407  1.00  0.00     0.039 A 
ATOM     41  C   UNL A   1      36.869  31.433  27.946  1.00  0.00     0.014 A 
ATOM     42  C   UNL A   1      35.560  29.916  29.303  1.00  0.00     0.014 A 
ATOM     43  C   UNL A   1      38.045  30.844  28.421  1.00  0.00     0.010 A 
ATOM     44  C   UNL A   1      36.735  29.352  29.805  1.00  0.00     0.010 A 
ATOM     45  C   UNL A   1      37.988  29.813  29.369  1.00  0.00    -0.014 A 
BRANCH  45  46
ATOM     46  C   UNL A   1      39.226  29.192  29.907  1.00  0.00     0.031 A 
ATOM     47  C   UNL A   1      39.914  29.795  31.100  1.00  0.00     0.074 A 
ATOM     48  C   UNL A   1      39.765  28.128  29.284  1.00  0.00     0.049 A 
ATOM     49  N   UNL A   1      41.064  29.481  31.639  1.00  0.00    -0.248 NA
ATOM     50  C   UNL A   1      39.223  30.914  31.757  1.00  0.00     0.031 C 
ATOM     51  C   UNL A   1      39.207  27.466  28.103  1.00  0.00     0.029 A 
ATOM     52  N   UNL A   1      40.917  27.428  29.545  1.00  0.00    -0.354 N 
ATOM     53  C   UNL A   1      41.249  30.378  32.686  1.00  0.00     0.074 A 
ATOM     54  C   UNL A   1      40.101  31.262  32.687  1.00  0.00     0.031 C 
ATOM     55  C   UNL A   1      40.021  26.462  27.737  1.00  0.00     0.029 A 
ATOM     56  C   UNL A   1      41.170  26.426  28.637  1.00  0.00     0.049 A 
ATOM     57  H   UNL A   1      41.505  27.624  30.308  1.00  0.00     0.167 HD
ATOM     58  C   UNL A   1      42.278  30.455  33.566  1.00  0.00     0.034 A 
ATOM     59  C   UNL A   1      42.220  25.589  28.530  1.00  0.00     0.034 A 
ATOM     60  C   UNL A   1      43.412  29.562  33.569  1.00  0.00     0.049 A 
ATOM     61  C   UNL A   1      43.337  25.675  29.534  1.00  0.00     0.074 A 
ATOM     62  C   UNL A   1      44.496  29.542  34.431  1.00  0.00     0.029 A 
ATOM     63  N   UNL A   1      43.605  28.526  32.666  1.00  0.00    -0.354 N 
ATOM     64  N   UNL A   1      43.497  26.528  30.518  1.00  0.00    -0.248 NA
ATOM     65  C   UNL A   1      44.411  24.679  29.418  1.00  0.00     0.031 C 
ATOM     66  C   UNL A   1      45.360  28.515  34.029  1.00  0.00     0.029 A 
ATOM     67  C   UNL A   1      44.793  27.867  32.944  1.00  0.00     0.049 A 
ATOM     68  H   UNL A   1      42.989  28.294  31.935  1.00  0.00     0.167 HD
ATOM     69  C   UNL A   1      44.680  26.160  31.149  1.00  0.00     0.074 A 
ATOM     70  C   UNL A   1      45.190  25.004  30.438  1.00  0.00     0.031 C 
ATOM     71  C   UNL A   1      45.288  26.722  32.222  1.00  0.00     0.034 A 
BRANCH  58  72
ATOM     72  C   UNL A   1      42.234  31.574  34.573  1.00  0.00     0.023 A 
ATOM     73  C   UNL A   1      41.315  31.572  35.636  1.00  0.00     0.031 A 
ATOM     74  C   UNL A   1      43.097  32.678  34.444  1.00  0.00     0.131 A 
ATOM     75  C   UNL A   1      41.233  32.682  36.489  1.00  0.00     0.055 A 
ATOM     76  C   UNL A   1      43.056  33.750  35.337  1.00  0.00     0.041 A 
ATOM     77  F   UNL A   1      43.979  32.739  33.435  1.00  0.00    -0.206 F 
ATOM     78  C   UNL A   1      42.112  33.762  36.360  1.00  0.00     0.022 A 
BRANCH  75  79
ATOM     79  S   UNL A   1      39.888  32.749  37.702  1.00  0.00     0.124 S 
ATOM     80  O   UNL A   1      39.010  31.682  37.225  1.00  0.00    -0.237 OA
ATOM     81  O   UNL A   1      40.580  32.493  38.960  1.00  0.00    -0.237 OA
ATOM     82  O   UNL A   1      39.355  34.101  37.549  1.00  0.00    -0.744 OA
ENDBRANCH  75  79
ENDBRANCH  58  72
BRANCH  59  83
ATOM     83  C   UNL A   1      42.284  24.610  27.413  1.00  0.00     0.023 A 
ATOM     84  C   UNL A   1      41.559  23.412  27.459  1.00  0.00     0.031 A 
ATOM     85  C   UNL A   1      43.104  24.852  26.297  1.00  0.00     0.131 A 
ATOM     86  C   UNL A   1      41.692  22.477  26.421  1.00  0.00     0.055 A 
ATOM     87  C   UNL A   1      43.210  23.934  25.252  1.00  0.00     0.041 A 
ATOM     88  F   UNL A   1      43.809  25.991  26.207  1.00  0.00    -0.206 F 
ATOM     89  C   UNL A   1      42.508  22.733  25.315  1.00  0.00     0.022 A 
BRANCH  86  90
ATOM     90  S   UNL A   1      40.830  20.889  26.567  1.00  0.00     0.124 S 
ATOM     91  O   UNL A   1      41.695  20.005  25.793  1.00  0.00    -0.237 OA
ATOM     92  O   UNL A   1      40.827  20.681  28.011  1.00  0.00    -0.237 OA
ATOM     93  O   UNL A   1      39.521  21.157  25.974  1.00  0.00    -0.744 OA
ENDBRANCH  86  90
ENDBRANCH  59  83
BRANCH  71  94
ATOM     94  C   UNL A   1      46.546  26.059  32.709  1.00  0.00     0.023 A 
ATOM     95  C   UNL A   1      47.802  26.373  32.161  1.00  0.00     0.031 A 
ATOM     96  C   UNL A   1      46.481  25.084  33.718  1.00  0.00     0.131 A 
ATOM     97  C   UNL A   1      48.943  25.685  32.600  1.00  0.00     0.055 A 
ATOM     98  C   UNL A   1      47.623  24.427  34.175  1.00  0.00     0.041 A 
ATOM     99  F   UNL A   1      45.302  24.751  34.268  1.00  0.00    -0.206 F 
ATOM    100  C   UNL A   1      48.862  24.721  33.610  1.00  0.00     0.022 A 
BRANCH  97 101
ATOM    101  S   UNL A   1      50.532  26.027  31.796  1.00  0.00     0.124 S 
ATOM    102  O   UNL A   1      50.906  24.712  31.285  1.00  0.00    -0.237 OA
ATOM    103  O   UNL A   1      50.167  27.021  30.791  1.00  0.00    -0.237 OA
ATOM    104  O   UNL A   1      51.368  26.529  32.886  1.00  0.00    -0.744 OA
ENDBRANCH  97 101
ENDBRANCH  71  94
ENDBRANCH  45  46
ENDBRANCH  37  40
ENDBRANCH  35  36
ENDBRANCH  34  35
ENDBRANCH  33  34
ENDBRANCH   1  33
TORSDOF 21
ENDMDL
