MODEL 1
REMARK VINA RESULT:     -11.2      0.000      0.000
REMARK SMILES CC1CCN(S(=O)(=O)N2CCC[C@H](c3cccc(C(=O)NCCCCCCNC(=O)c4ccc(-c5c6nc(c(-c7cc(S(=O)(=O)[O-])ccc7F)c7ccc([nH]7)c(-c7cc(S(=O)(=O)[O-])ccc7F)c7nc(c(-c8cc(S(=O)(=O)[O-])ccc8F)c8ccc5[nH]8)C=C7)C=C6)cc4)c3)C2)CC1
REMARK SMILES IDX 24 1 23 2 22 3 21 4 19 5 20 6 18 8 14 9 15 10 94 11 16 12
REMARK SMILES IDX 17 13 13 14 9 15 10 16 95 17 11 18 12 19 6 20 7 21 8 22 5 23
REMARK SMILES IDX 1 24 2 25 3 26 97 27 4 28 96 29 25 30 26 31 27 32 28 33
REMARK SMILES IDX 29 34 30 36 31 37 32 38 93 39 33 40 92 41 34 42 35 43 36 44
REMARK SMILES IDX 86 45 37 46 91 47 85 48 87 49 38 50 90 51 84 52 83 53 39 55
REMARK SMILES IDX 71 56 51 57 70 58 52 59 55 60 69 61 88 62 53 63 54 64 68 66
REMARK SMILES IDX 89 67 56 68 40 69 41 70 49 71 42 72 48 73 50 74 47 75 43 76
REMARK SMILES IDX 44 77 45 78 46 79 72 80 73 81 81 82 74 83 80 84 82 85 79 86
REMARK SMILES IDX 75 87 76 88 77 89 78 90 57 91 58 92 66 93 59 94 65 95 67 96
REMARK SMILES IDX 64 97 60 98 61 99 62 100 63 101
REMARK H PARENT 21 7 28 35 87 54 55 65
REMARK Flexibility Score: inf
ROOT
ATOM      1  C   UNL A   1      33.707  28.346  25.159  1.00  0.00     0.002 C 
ENDROOT
BRANCH   1   2
ATOM      2  C   UNL A   1      32.985  29.180  24.106  1.00  0.00     0.021 C 
BRANCH   2   3
ATOM      3  C   UNL A   1      31.636  29.750  24.516  1.00  0.00     0.116 C 
BRANCH   3   4
ATOM      4  N   UNL A   1      30.607  29.697  23.484  1.00  0.00    -0.352 N 
ATOM      5  C   UNL A   1      30.041  28.627  22.814  1.00  0.00     0.251 C 
ATOM      6  O   UNL A   1      29.201  28.849  21.944  1.00  0.00    -0.269 OA
ATOM      7  H   UNL A   1      30.254  30.576  23.216  1.00  0.00     0.163 HD
BRANCH   5   8
ATOM      8  C   UNL A   1      30.470  27.225  23.075  1.00  0.00     0.040 A 
ATOM      9  C   UNL A   1      30.879  25.459  24.699  1.00  0.00    -0.043 A 
ATOM     10  C   UNL A   1      31.665  24.796  23.748  1.00  0.00     0.004 A 
ATOM     11  C   UNL A   1      30.175  26.592  24.278  1.00  0.00     0.017 A 
ATOM     12  C   UNL A   1      31.812  25.318  22.458  1.00  0.00     0.001 A 
ATOM     13  C   UNL A   1      31.254  26.556  22.135  1.00  0.00     0.014 A 
BRANCH   9  14
ATOM     14  C   UNL A   1      30.947  25.186  26.200  1.00  0.00     0.034 C 
ATOM     15  N   UNL A   1      32.378  23.169  26.393  1.00  0.00    -0.188 NA
ATOM     16  C   UNL A   1      31.265  22.315  26.850  1.00  0.00     0.103 C 
ATOM     17  C   UNL A   1      32.259  24.604  26.730  1.00  0.00     0.111 C 
ATOM     18  C   UNL A   1      29.926  22.893  26.390  1.00  0.00     0.017 C 
ATOM     19  C   UNL A   1      29.793  24.356  26.793  1.00  0.00     0.011 C 
BRANCH  15  20
ATOM     20  S   UNL A   1      33.905  22.492  26.320  1.00  0.00     0.281 S 
ATOM     21  O   UNL A   1      33.902  21.313  27.160  1.00  0.00    -0.195 OA
ATOM     22  O   UNL A   1      34.871  23.539  26.556  1.00  0.00    -0.195 OA
BRANCH  20  23
ATOM     23  N   UNL A   1      34.081  22.018  24.699  1.00  0.00    -0.189 NA
ATOM     24  C   UNL A   1      33.042  17.905  25.094  1.00  0.00     0.008 C 
ATOM     25  C   UNL A   1      33.505  19.159  24.350  1.00  0.00    -0.012 C 
ATOM     26  C   UNL A   1      34.849  19.658  24.918  1.00  0.00     0.020 C 
ATOM     27  C   UNL A   1      32.402  20.229  24.386  1.00  0.00     0.020 C 
ATOM     28  C   UNL A   1      35.218  21.077  24.476  1.00  0.00     0.104 C 
ATOM     29  C   UNL A   1      32.932  21.563  23.888  1.00  0.00     0.104 C 
ENDBRANCH  20  23
ENDBRANCH  15  20
ENDBRANCH   9  14
ENDBRANCH   5   8
ENDBRANCH   3   4
ENDBRANCH   2   3
ENDBRANCH   1   2
BRANCH   1  30
ATOM     30  C   UNL A   1      32.989  28.204  26.504  1.00  0.00     0.002 C 
BRANCH  30  31
ATOM     31  C   UNL A   1      33.537  29.054  27.653  1.00  0.00     0.021 C 
BRANCH  31  32
ATOM     32  C   UNL A   1      34.251  30.338  27.241  1.00  0.00     0.116 C 
BRANCH  32  33
ATOM     33  N   UNL A   1      34.043  31.414  28.192  1.00  0.00    -0.352 N 
ATOM     34  C   UNL A   1      34.764  31.750  29.312  1.00  0.00     0.251 C 
ATOM     35  H   UNL A   1      33.269  31.992  28.006  1.00  0.00     0.163 HD
ATOM     36  O   UNL A   1      34.303  32.573  30.099  1.00  0.00    -0.269 OA
BRANCH  34  37
ATOM     37  C   UNL A   1      36.073  31.113  29.582  1.00  0.00     0.039 A 
ATOM     38  C   UNL A   1      37.217  31.659  28.993  1.00  0.00     0.014 A 
ATOM     39  C   UNL A   1      36.178  29.971  30.380  1.00  0.00     0.014 A 
ATOM     40  C   UNL A   1      38.466  31.088  29.244  1.00  0.00     0.010 A 
ATOM     41  C   UNL A   1      37.434  29.452  30.694  1.00  0.00     0.010 A 
ATOM     42  C   UNL A   1      38.592  29.998  30.122  1.00  0.00    -0.014 A 
BRANCH  42  43
ATOM     43  C   UNL A   1      39.926  29.419  30.433  1.00  0.00     0.031 A 
ATOM     44  C   UNL A   1      40.768  29.998  31.538  1.00  0.00     0.074 A 
ATOM     45  C   UNL A   1      40.392  28.389  29.697  1.00  0.00     0.049 A 
ATOM     46  N   UNL A   1      41.963  29.646  31.940  1.00  0.00    -0.248 NA
ATOM     47  C   UNL A   1      40.204  31.142  32.271  1.00  0.00     0.031 C 
ATOM     48  C   UNL A   1      39.684  27.767  28.575  1.00  0.00     0.029 A 
ATOM     49  N   UNL A   1      41.564  27.681  29.779  1.00  0.00    -0.354 N 
ATOM     50  C   UNL A   1      42.295  30.525  32.966  1.00  0.00     0.074 A 
ATOM     51  C   UNL A   1      41.204  31.470  33.074  1.00  0.00     0.031 C 
ATOM     52  C   UNL A   1      40.419  26.750  28.101  1.00  0.00     0.029 A 
ATOM     53  C   UNL A   1      41.673  26.677  28.845  1.00  0.00     0.049 A 
ATOM     54  H   UNL A   1      42.264  27.874  30.445  1.00  0.00     0.167 HD
ATOM     55  C   UNL A   1      43.396  30.529  33.759  1.00  0.00     0.034 A 
ATOM     56  C   UNL A   1      42.670  25.801  28.608  1.00  0.00     0.034 A 
ATOM     57  C   UNL A   1      44.472  29.575  33.639  1.00  0.00     0.049 A 
ATOM     58  C   UNL A   1      43.898  25.847  29.481  1.00  0.00     0.074 A 
ATOM     59  C   UNL A   1      45.610  29.457  34.420  1.00  0.00     0.029 A 
ATOM     60  N   UNL A   1      44.554  28.582  32.671  1.00  0.00    -0.354 N 
ATOM     61  N   UNL A   1      44.173  26.653  30.481  1.00  0.00    -0.248 NA
ATOM     62  C   UNL A   1      44.945  24.856  29.202  1.00  0.00     0.031 C 
ATOM     63  C   UNL A   1      46.415  28.452  33.875  1.00  0.00     0.029 A 
ATOM     64  C   UNL A   1      45.740  27.875  32.811  1.00  0.00     0.049 A 
ATOM     65  H   UNL A   1      43.870  28.406  31.985  1.00  0.00     0.167 HD
ATOM     66  C   UNL A   1      45.409  26.241  30.972  1.00  0.00     0.074 A 
ATOM     67  C   UNL A   1      45.814  25.105  30.170  1.00  0.00     0.031 C 
ATOM     68  C   UNL A   1      46.142  26.752  31.995  1.00  0.00     0.034 A 
BRANCH  55  69
ATOM     69  C   UNL A   1      43.500  31.618  34.803  1.00  0.00     0.023 A 
ATOM     70  C   UNL A   1      42.853  31.517  36.048  1.00  0.00     0.031 A 
ATOM     71  C   UNL A   1      44.241  32.785  34.545  1.00  0.00     0.131 A 
ATOM     72  C   UNL A   1      42.892  32.592  36.949  1.00  0.00     0.055 A 
ATOM     73  C   UNL A   1      44.351  33.813  35.484  1.00  0.00     0.041 A 
ATOM     74  F   UNL A   1      44.862  32.954  33.367  1.00  0.00    -0.206 F 
ATOM     75  C   UNL A   1      43.661  33.727  36.688  1.00  0.00     0.022 A 
BRANCH  72  76
ATOM     76  S   UNL A   1      41.797  32.549  38.395  1.00  0.00     0.124 S 
ATOM     77  O   UNL A   1      41.822  33.946  38.824  1.00  0.00    -0.237 OA
ATOM     78  O   UNL A   1      40.540  32.077  37.826  1.00  0.00    -0.237 OA
ATOM     79  O   UNL A   1      42.463  31.616  39.301  1.00  0.00    -0.744 OA
ENDBRANCH  72  76
ENDBRANCH  55  69
BRANCH  56  80
ATOM     80  C   UNL A   1      42.563  24.816  27.491  1.00  0.00     0.023 A 
ATOM     81  C   UNL A   1      41.804  23.643  27.627  1.00  0.00     0.031 A 
ATOM     82  C   UNL A   1      43.259  25.012  26.284  1.00  0.00     0.131 A 
ATOM     83  C   UNL A   1      41.802  22.686  26.600  1.00  0.00     0.055 A 
ATOM     84  C   UNL A   1      43.203  24.087  25.241  1.00  0.00     0.041 A 
ATOM     85  F   UNL A   1      44.000  26.116  26.099  1.00  0.00    -0.206 F 
ATOM     86  C   UNL A   1      42.483  22.908  25.401  1.00  0.00     0.022 A 
BRANCH  83  87
ATOM     87  S   UNL A   1      40.979  21.097  26.895  1.00  0.00     0.124 S 
ATOM     88  O   UNL A   1      40.771  21.134  28.337  1.00  0.00    -0.237 OA
ATOM     89  O   UNL A   1      39.782  21.219  26.069  1.00  0.00    -0.237 OA
ATOM     90  O   UNL A   1      41.958  20.117  26.428  1.00  0.00    -0.744 OA
ENDBRANCH  83  87
ENDBRANCH  56  80
BRANCH  68  91
ATOM     91  C   UNL A   1      47.438  26.049  32.330  1.00  0.00     0.023 A 
ATOM     92  C   UNL A   1      47.509  25.055  33.321  1.00  0.00     0.031 A 
ATOM     93  C   UNL A   1      48.626  26.399  31.662  1.00  0.00     0.131 A 
ATOM     94  C   UNL A   1      48.750  24.499  33.667  1.00  0.00     0.055 A 
ATOM     95  C   UNL A   1      49.844  25.788  31.957  1.00  0.00     0.041 A 
ATOM     96  F   UNL A   1      48.621  27.345  30.708  1.00  0.00    -0.206 F 
ATOM     97  C   UNL A   1      49.915  24.845  32.978  1.00  0.00     0.022 A 
BRANCH  94  98
ATOM     98  S   UNL A   1      48.840  23.413  35.117  1.00  0.00     0.124 S 
ATOM     99  O   UNL A   1      48.661  24.358  36.215  1.00  0.00    -0.237 OA
ATOM    100  O   UNL A   1      47.735  22.489  34.884  1.00  0.00    -0.237 OA
ATOM    101  O   UNL A   1      50.174  22.821  35.019  1.00  0.00    -0.744 OA
ENDBRANCH  94  98
ENDBRANCH  68  91
ENDBRANCH  42  43
ENDBRANCH  34  37
ENDBRANCH  32  33
ENDBRANCH  31  32
ENDBRANCH  30  31
ENDBRANCH   1  30
TORSDOF 19
ENDMDL
MODEL 2
REMARK VINA RESULT:     -11.2      1.530      2.347
REMARK SMILES CC1CCN(S(=O)(=O)N2CCC[C@H](c3cccc(C(=O)NCCCCCCNC(=O)c4ccc(-c5c6nc(c(-c7cc(S(=O)(=O)[O-])ccc7F)c7ccc([nH]7)c(-c7cc(S(=O)(=O)[O-])ccc7F)c7nc(c(-c8cc(S(=O)(=O)[O-])ccc8F)c8ccc5[nH]8)C=C7)C=C6)cc4)c3)C2)CC1
REMARK SMILES IDX 24 1 23 2 22 3 21 4 19 5 20 6 18 8 14 9 15 10 94 11 16 12
REMARK SMILES IDX 17 13 13 14 9 15 10 16 95 17 11 18 12 19 6 20 7 21 8 22 5 23
REMARK SMILES IDX 1 24 2 25 3 26 97 27 4 28 96 29 25 30 26 31 27 32 28 33
REMARK SMILES IDX 29 34 30 36 31 37 32 38 93 39 33 40 92 41 34 42 35 43 36 44
REMARK SMILES IDX 86 45 37 46 91 47 85 48 87 49 38 50 90 51 84 52 83 53 39 55
REMARK SMILES IDX 71 56 51 57 70 58 52 59 55 60 69 61 88 62 53 63 54 64 68 66
REMARK SMILES IDX 89 67 56 68 40 69 41 70 49 71 42 72 48 73 50 74 47 75 43 76
REMARK SMILES IDX 44 77 45 78 46 79 72 80 73 81 81 82 74 83 80 84 82 85 79 86
REMARK SMILES IDX 75 87 76 88 77 89 78 90 57 91 58 92 66 93 59 94 65 95 67 96
REMARK SMILES IDX 64 97 60 98 61 99 62 100 63 101
REMARK H PARENT 21 7 28 35 87 54 55 65
REMARK Flexibility Score: inf
ROOT
ATOM      1  C   UNL A   1      33.767  28.123  24.635  1.00  0.00     0.002 C 
ENDROOT
BRANCH   1   2
ATOM      2  C   UNL A   1      32.596  28.772  23.904  1.00  0.00     0.021 C 
BRANCH   2   3
ATOM      3  C   UNL A   1      31.329  28.974  24.721  1.00  0.00     0.116 C 
BRANCH   3   4
ATOM      4  N   UNL A   1      30.107  28.495  24.086  1.00  0.00    -0.352 N 
ATOM      5  C   UNL A   1      29.575  27.223  23.973  1.00  0.00     0.251 C 
ATOM      6  O   UNL A   1      28.528  27.071  23.346  1.00  0.00    -0.269 OA
ATOM      7  H   UNL A   1      29.564  29.201  23.664  1.00  0.00     0.163 HD
BRANCH   5   8
ATOM      8  C   UNL A   1      30.272  26.032  24.532  1.00  0.00     0.040 A 
ATOM      9  C   UNL A   1      31.639  24.059  24.125  1.00  0.00    -0.043 A 
ATOM     10  C   UNL A   1      31.233  23.549  25.364  1.00  0.00     0.004 A 
ATOM     11  C   UNL A   1      31.259  25.369  23.810  1.00  0.00     0.017 A 
ATOM     12  C   UNL A   1      30.394  24.294  26.201  1.00  0.00     0.001 A 
ATOM     13  C   UNL A   1      29.875  25.515  25.765  1.00  0.00     0.014 A 
BRANCH   9  14
ATOM     14  C   UNL A   1      32.232  23.208  23.005  1.00  0.00     0.034 C 
ATOM     15  N   UNL A   1      33.729  21.613  24.174  1.00  0.00    -0.188 NA
ATOM     16  C   UNL A   1      34.954  22.213  23.613  1.00  0.00     0.103 C 
ATOM     17  C   UNL A   1      32.516  21.742  23.339  1.00  0.00     0.111 C 
ATOM     18  C   UNL A   1      34.699  23.667  23.211  1.00  0.00     0.017 C 
ATOM     19  C   UNL A   1      33.480  23.779  22.305  1.00  0.00     0.011 C 
BRANCH  15  20
ATOM     20  S   UNL A   1      33.893  20.254  25.136  1.00  0.00     0.281 S 
ATOM     21  O   UNL A   1      33.454  20.606  26.470  1.00  0.00    -0.195 OA
ATOM     22  O   UNL A   1      35.221  19.721  24.935  1.00  0.00    -0.195 OA
BRANCH  20  23
ATOM     23  N   UNL A   1      32.808  19.130  24.472  1.00  0.00    -0.189 NA
ATOM     24  C   UNL A   1      35.035  15.566  25.169  1.00  0.00     0.008 C 
ATOM     25  C   UNL A   1      33.861  16.394  24.645  1.00  0.00    -0.012 C 
ATOM     26  C   UNL A   1      34.339  17.386  23.567  1.00  0.00     0.020 C 
ATOM     27  C   UNL A   1      33.136  17.079  25.815  1.00  0.00     0.020 C 
ATOM     28  C   UNL A   1      33.316  18.475  23.231  1.00  0.00     0.104 C 
ATOM     29  C   UNL A   1      32.140  18.105  25.301  1.00  0.00     0.104 C 
ENDBRANCH  20  23
ENDBRANCH  15  20
ENDBRANCH   9  14
ENDBRANCH   5   8
ENDBRANCH   3   4
ENDBRANCH   2   3
ENDBRANCH   1   2
BRANCH   1  30
ATOM     30  C   UNL A   1      33.469  27.606  26.045  1.00  0.00     0.002 C 
BRANCH  30  31
ATOM     31  C   UNL A   1      33.829  28.546  27.198  1.00  0.00     0.021 C 
BRANCH  31  32
ATOM     32  C   UNL A   1      34.612  29.796  26.809  1.00  0.00     0.116 C 
BRANCH  32  33
ATOM     33  N   UNL A   1      34.276  30.938  27.640  1.00  0.00    -0.352 N 
ATOM     34  C   UNL A   1      34.885  31.407  28.778  1.00  0.00     0.251 C 
ATOM     35  H   UNL A   1      33.494  31.455  27.342  1.00  0.00     0.163 HD
ATOM     36  O   UNL A   1      34.322  32.269  29.448  1.00  0.00    -0.269 OA
BRANCH  34  37
ATOM     37  C   UNL A   1      36.196  30.867  29.206  1.00  0.00     0.039 A 
ATOM     38  C   UNL A   1      36.219  29.804  30.113  1.00  0.00     0.014 A 
ATOM     39  C   UNL A   1      37.395  31.419  28.749  1.00  0.00     0.014 A 
ATOM     40  C   UNL A   1      37.442  29.267  30.520  1.00  0.00     0.010 A 
ATOM     41  C   UNL A   1      38.611  30.829  29.094  1.00  0.00     0.010 A 
ATOM     42  C   UNL A   1      38.649  29.752  29.992  1.00  0.00    -0.014 A 
BRANCH  42  43
ATOM     43  C   UNL A   1      39.951  29.149  30.383  1.00  0.00     0.031 A 
ATOM     44  C   UNL A   1      40.687  29.648  31.597  1.00  0.00     0.074 A 
ATOM     45  C   UNL A   1      40.484  28.170  29.625  1.00  0.00     0.049 A 
ATOM     46  N   UNL A   1      41.841  29.266  32.082  1.00  0.00    -0.248 NA
ATOM     47  C   UNL A   1      40.055  30.742  32.351  1.00  0.00     0.031 C 
ATOM     48  C   UNL A   1      39.884  27.627  28.404  1.00  0.00     0.029 A 
ATOM     49  N   UNL A   1      41.647  27.454  29.765  1.00  0.00    -0.354 N 
ATOM     50  C   UNL A   1      42.076  30.073  33.191  1.00  0.00     0.074 A 
ATOM     51  C   UNL A   1      40.976  31.011  33.263  1.00  0.00     0.031 C 
ATOM     52  C   UNL A   1      40.661  26.642  27.930  1.00  0.00     0.029 A 
ATOM     53  C   UNL A   1      41.842  26.514  28.779  1.00  0.00     0.049 A 
ATOM     54  H   UNL A   1      42.282  27.599  30.504  1.00  0.00     0.167 HD
ATOM     55  C   UNL A   1      43.099  30.019  34.080  1.00  0.00     0.034 A 
ATOM     56  C   UNL A   1      42.860  25.654  28.575  1.00  0.00     0.034 A 
ATOM     57  C   UNL A   1      44.185  29.072  33.994  1.00  0.00     0.049 A 
ATOM     58  C   UNL A   1      44.002  25.636  29.558  1.00  0.00     0.074 A 
ATOM     59  C   UNL A   1      45.247  28.897  34.866  1.00  0.00     0.029 A 
ATOM     60  N   UNL A   1      44.358  28.146  32.972  1.00  0.00    -0.354 N 
ATOM     61  N   UNL A   1      44.183  26.372  30.631  1.00  0.00    -0.248 NA
ATOM     62  C   UNL A   1      45.073  24.663  29.309  1.00  0.00     0.031 C 
ATOM     63  C   UNL A   1      46.101  27.929  34.329  1.00  0.00     0.029 A 
ATOM     64  C   UNL A   1      45.527  27.427  33.172  1.00  0.00     0.049 A 
ATOM     65  H   UNL A   1      43.740  28.019  32.216  1.00  0.00     0.167 HD
ATOM     66  C   UNL A   1      45.371  25.922  31.204  1.00  0.00     0.074 A 
ATOM     67  C   UNL A   1      45.850  24.842  30.367  1.00  0.00     0.031 C 
ATOM     68  C   UNL A   1      46.005  26.361  32.321  1.00  0.00     0.034 A 
BRANCH  55  69
ATOM     69  C   UNL A   1      43.105  31.034  35.200  1.00  0.00     0.023 A 
ATOM     70  C   UNL A   1      43.713  32.294  35.057  1.00  0.00     0.031 A 
ATOM     71  C   UNL A   1      42.510  30.733  36.439  1.00  0.00     0.131 A 
ATOM     72  C   UNL A   1      43.784  33.169  36.153  1.00  0.00     0.055 A 
ATOM     73  C   UNL A   1      42.504  31.644  37.497  1.00  0.00     0.041 A 
ATOM     74  F   UNL A   1      41.934  29.538  36.648  1.00  0.00    -0.206 F 
ATOM     75  C   UNL A   1      43.157  32.864  37.363  1.00  0.00     0.022 A 
BRANCH  72  76
ATOM     76  S   UNL A   1      44.840  34.637  36.021  1.00  0.00     0.124 S 
ATOM     77  O   UNL A   1      45.696  34.284  34.890  1.00  0.00    -0.237 OA
ATOM     78  O   UNL A   1      43.873  35.702  35.782  1.00  0.00    -0.237 OA
ATOM     79  O   UNL A   1      45.520  34.687  37.314  1.00  0.00    -0.744 OA
ENDBRANCH  72  76
ENDBRANCH  55  69
BRANCH  56  80
ATOM     80  C   UNL A   1      42.857  24.746  27.389  1.00  0.00     0.023 A 
ATOM     81  C   UNL A   1      42.248  23.483  27.441  1.00  0.00     0.031 A 
ATOM     82  C   UNL A   1      43.508  25.114  26.197  1.00  0.00     0.131 A 
ATOM     83  C   UNL A   1      42.348  22.611  26.346  1.00  0.00     0.055 A 
ATOM     84  C   UNL A   1      43.550  24.267  25.088  1.00  0.00     0.041 A 
ATOM     85  F   UNL A   1      44.107  26.310  26.090  1.00  0.00    -0.206 F 
ATOM     86  C   UNL A   1      42.981  23.001  25.163  1.00  0.00     0.022 A 
BRANCH  83  87
ATOM     87  S   UNL A   1      41.727  20.916  26.526  1.00  0.00     0.124 S 
ATOM     88  O   UNL A   1      40.285  21.122  26.478  1.00  0.00    -0.237 OA
ATOM     89  O   UNL A   1      42.321  20.252  25.371  1.00  0.00    -0.237 OA
ATOM     90  O   UNL A   1      42.256  20.498  27.823  1.00  0.00    -0.744 OA
ENDBRANCH  83  87
ENDBRANCH  56  80
BRANCH  68  91
ATOM     91  C   UNL A   1      47.267  25.632  32.724  1.00  0.00     0.023 A 
ATOM     92  C   UNL A   1      47.251  24.574  33.650  1.00  0.00     0.031 A 
ATOM     93  C   UNL A   1      48.510  26.020  32.191  1.00  0.00     0.131 A 
ATOM     94  C   UNL A   1      48.457  23.992  34.070  1.00  0.00     0.055 A 
ATOM     95  C   UNL A   1      49.698  25.386  32.554  1.00  0.00     0.041 A 
ATOM     96  F   UNL A   1      48.589  27.027  31.305  1.00  0.00    -0.206 F 
ATOM     97  C   UNL A   1      49.678  24.378  33.512  1.00  0.00     0.022 A 
BRANCH  94  98
ATOM     98  S   UNL A   1      48.418  22.812  35.447  1.00  0.00     0.124 S 
ATOM     99  O   UNL A   1      48.339  21.534  34.748  1.00  0.00    -0.237 OA
ATOM    100  O   UNL A   1      49.677  23.089  36.131  1.00  0.00    -0.237 OA
ATOM    101  O   UNL A   1      47.214  23.190  36.187  1.00  0.00    -0.744 OA
ENDBRANCH  94  98
ENDBRANCH  68  91
ENDBRANCH  42  43
ENDBRANCH  34  37
ENDBRANCH  32  33
ENDBRANCH  31  32
ENDBRANCH  30  31
ENDBRANCH   1  30
TORSDOF 19
ENDMDL
MODEL 3
REMARK VINA RESULT:     -11.0      1.550      2.317
REMARK SMILES CC1CCN(S(=O)(=O)N2CCC[C@H](c3cccc(C(=O)NCCCCCCNC(=O)c4ccc(-c5c6nc(c(-c7cc(S(=O)(=O)[O-])ccc7F)c7ccc([nH]7)c(-c7cc(S(=O)(=O)[O-])ccc7F)c7nc(c(-c8cc(S(=O)(=O)[O-])ccc8F)c8ccc5[nH]8)C=C7)C=C6)cc4)c3)C2)CC1
REMARK SMILES IDX 24 1 23 2 22 3 21 4 19 5 20 6 18 8 14 9 15 10 94 11 16 12
REMARK SMILES IDX 17 13 13 14 9 15 10 16 95 17 11 18 12 19 6 20 7 21 8 22 5 23
REMARK SMILES IDX 1 24 2 25 3 26 97 27 4 28 96 29 25 30 26 31 27 32 28 33
REMARK SMILES IDX 29 34 30 36 31 37 32 38 93 39 33 40 92 41 34 42 35 43 36 44
REMARK SMILES IDX 86 45 37 46 91 47 85 48 87 49 38 50 90 51 84 52 83 53 39 55
REMARK SMILES IDX 71 56 51 57 70 58 52 59 55 60 69 61 88 62 53 63 54 64 68 66
REMARK SMILES IDX 89 67 56 68 40 69 41 70 49 71 42 72 48 73 50 74 47 75 43 76
REMARK SMILES IDX 44 77 45 78 46 79 72 80 73 81 81 82 74 83 80 84 82 85 79 86
REMARK SMILES IDX 75 87 76 88 77 89 78 90 57 91 58 92 66 93 59 94 65 95 67 96
REMARK SMILES IDX 64 97 60 98 61 99 62 100 63 101
REMARK H PARENT 21 7 28 35 87 54 55 65
REMARK Flexibility Score: inf
ROOT
ATOM      1  C   UNL A   1      33.597  28.306  24.235  1.00  0.00     0.002 C 
ENDROOT
BRANCH   1   2
ATOM      2  C   UNL A   1      32.336  28.619  23.436  1.00  0.00     0.021 C 
BRANCH   2   3
ATOM      3  C   UNL A   1      31.137  29.095  24.242  1.00  0.00     0.116 C 
BRANCH   3   4
ATOM      4  N   UNL A   1      29.860  28.517  23.840  1.00  0.00    -0.352 N 
ATOM      5  C   UNL A   1      29.376  27.224  23.929  1.00  0.00     0.251 C 
ATOM      6  O   UNL A   1      28.258  26.977  23.479  1.00  0.00    -0.269 OA
ATOM      7  H   UNL A   1      29.233  29.159  23.435  1.00  0.00     0.163 HD
BRANCH   5   8
ATOM      8  C   UNL A   1      30.196  26.118  24.494  1.00  0.00     0.040 A 
ATOM      9  C   UNL A   1      31.717  24.260  24.090  1.00  0.00    -0.043 A 
ATOM     10  C   UNL A   1      31.406  23.758  25.360  1.00  0.00     0.004 A 
ATOM     11  C   UNL A   1      31.209  25.519  23.752  1.00  0.00     0.017 A 
ATOM     12  C   UNL A   1      30.538  24.455  26.209  1.00  0.00     0.001 A 
ATOM     13  C   UNL A   1      29.897  25.610  25.759  1.00  0.00     0.014 A 
BRANCH   9  14
ATOM     14  C   UNL A   1      32.337  23.426  22.972  1.00  0.00     0.034 C 
ATOM     15  N   UNL A   1      33.399  21.518  24.149  1.00  0.00    -0.188 NA
ATOM     16  C   UNL A   1      34.768  21.963  23.823  1.00  0.00     0.103 C 
ATOM     17  C   UNL A   1      32.354  21.910  23.180  1.00  0.00     0.111 C 
ATOM     18  C   UNL A   1      34.787  23.468  23.550  1.00  0.00     0.017 C 
ATOM     19  C   UNL A   1      33.744  23.850  22.508  1.00  0.00     0.011 C 
BRANCH  15  20
ATOM     20  S   UNL A   1      33.222  20.072  24.971  1.00  0.00     0.281 S 
ATOM     21  O   UNL A   1      31.808  19.870  25.202  1.00  0.00    -0.195 OA
ATOM     22  O   UNL A   1      34.138  20.077  26.088  1.00  0.00    -0.195 OA
BRANCH  20  23
ATOM     23  N   UNL A   1      33.782  18.894  23.884  1.00  0.00    -0.189 NA
ATOM     24  C   UNL A   1      32.346  15.414  25.879  1.00  0.00     0.008 C 
ATOM     25  C   UNL A   1      33.088  16.187  24.788  1.00  0.00    -0.012 C 
ATOM     26  C   UNL A   1      34.270  16.972  25.391  1.00  0.00     0.020 C 
ATOM     27  C   UNL A   1      32.106  17.080  24.013  1.00  0.00     0.020 C 
ATOM     28  C   UNL A   1      34.857  18.027  24.449  1.00  0.00     0.104 C 
ATOM     29  C   UNL A   1      32.855  18.043  23.109  1.00  0.00     0.104 C 
ENDBRANCH  20  23
ENDBRANCH  15  20
ENDBRANCH   9  14
ENDBRANCH   5   8
ENDBRANCH   3   4
ENDBRANCH   2   3
ENDBRANCH   1   2
BRANCH   1  30
ATOM     30  C   UNL A   1      33.374  27.761  25.649  1.00  0.00     0.002 C 
BRANCH  30  31
ATOM     31  C   UNL A   1      33.618  28.744  26.796  1.00  0.00     0.021 C 
BRANCH  31  32
ATOM     32  C   UNL A   1      34.501  29.943  26.461  1.00  0.00     0.116 C 
BRANCH  32  33
ATOM     33  N   UNL A   1      34.160  31.115  27.246  1.00  0.00    -0.352 N 
ATOM     34  C   UNL A   1      34.746  31.612  28.384  1.00  0.00     0.251 C 
ATOM     35  H   UNL A   1      33.394  31.633  26.911  1.00  0.00     0.163 HD
ATOM     36  O   UNL A   1      34.179  32.503  29.012  1.00  0.00    -0.269 OA
BRANCH  34  37
ATOM     37  C   UNL A   1      36.038  31.069  28.864  1.00  0.00     0.039 A 
ATOM     38  C   UNL A   1      36.027  29.918  29.656  1.00  0.00     0.014 A 
ATOM     39  C   UNL A   1      37.249  31.699  28.566  1.00  0.00     0.014 A 
ATOM     40  C   UNL A   1      37.233  29.376  30.108  1.00  0.00     0.010 A 
ATOM     41  C   UNL A   1      38.454  31.112  28.950  1.00  0.00     0.010 A 
ATOM     42  C   UNL A   1      38.460  29.949  29.734  1.00  0.00    -0.014 A 
BRANCH  42  43
ATOM     43  C   UNL A   1      39.747  29.345  30.170  1.00  0.00     0.031 A 
ATOM     44  C   UNL A   1      40.500  29.920  31.340  1.00  0.00     0.074 A 
ATOM     45  C   UNL A   1      40.254  28.297  29.490  1.00  0.00     0.049 A 
ATOM     46  N   UNL A   1      41.646  29.547  31.851  1.00  0.00    -0.248 NA
ATOM     47  C   UNL A   1      39.898  31.085  32.007  1.00  0.00     0.031 C 
ATOM     48  C   UNL A   1      39.636  27.676  28.316  1.00  0.00     0.029 A 
ATOM     49  N   UNL A   1      41.398  27.565  29.684  1.00  0.00    -0.354 N 
ATOM     50  C   UNL A   1      41.904  30.432  32.893  1.00  0.00     0.074 A 
ATOM     51  C   UNL A   1      40.829  31.401  32.894  1.00  0.00     0.031 C 
ATOM     52  C   UNL A   1      40.387  26.637  27.920  1.00  0.00     0.029 A 
ATOM     53  C   UNL A   1      41.567  26.547  28.774  1.00  0.00     0.049 A 
ATOM     54  H   UNL A   1      42.040  27.751  30.409  1.00  0.00     0.167 HD
ATOM     55  C   UNL A   1      42.929  30.423  33.783  1.00  0.00     0.034 A 
ATOM     56  C   UNL A   1      42.562  25.647  28.637  1.00  0.00     0.034 A 
ATOM     57  C   UNL A   1      43.990  29.445  33.769  1.00  0.00     0.049 A 
ATOM     58  C   UNL A   1      43.707  25.678  29.616  1.00  0.00     0.074 A 
ATOM     59  C   UNL A   1      45.050  29.312  34.651  1.00  0.00     0.029 A 
ATOM     60  N   UNL A   1      44.137  28.438  32.823  1.00  0.00    -0.354 N 
ATOM     61  N   UNL A   1      43.909  26.491  30.629  1.00  0.00    -0.248 NA
ATOM     62  C   UNL A   1      44.753  24.661  29.443  1.00  0.00     0.031 C 
ATOM     63  C   UNL A   1      45.879  28.284  34.190  1.00  0.00     0.029 A 
ATOM     64  C   UNL A   1      45.289  27.708  33.077  1.00  0.00     0.049 A 
ATOM     65  H   UNL A   1      43.513  28.268  32.080  1.00  0.00     0.167 HD
ATOM     66  C   UNL A   1      45.088  26.058  31.233  1.00  0.00     0.074 A 
ATOM     67  C   UNL A   1      45.537  24.903  30.483  1.00  0.00     0.031 C 
ATOM     68  C   UNL A   1      45.737  26.566  32.312  1.00  0.00     0.034 A 
BRANCH  55  69
ATOM     69  C   UNL A   1      42.964  31.522  34.820  1.00  0.00     0.023 A 
ATOM     70  C   UNL A   1      42.137  31.495  35.957  1.00  0.00     0.031 A 
ATOM     71  C   UNL A   1      43.822  32.625  34.662  1.00  0.00     0.131 A 
ATOM     72  C   UNL A   1      42.127  32.582  36.845  1.00  0.00     0.055 A 
ATOM     73  C   UNL A   1      43.873  33.661  35.597  1.00  0.00     0.041 A 
ATOM     74  F   UNL A   1      44.618  32.723  33.586  1.00  0.00    -0.206 F 
ATOM     75  C   UNL A   1      43.011  33.652  36.688  1.00  0.00     0.022 A 
BRANCH  72  76
ATOM     76  S   UNL A   1      40.834  32.651  38.115  1.00  0.00     0.124 S 
ATOM     77  O   UNL A   1      40.625  34.092  38.245  1.00  0.00    -0.237 OA
ATOM     78  O   UNL A   1      39.746  31.901  37.500  1.00  0.00    -0.237 OA
ATOM     79  O   UNL A   1      41.457  32.013  39.273  1.00  0.00    -0.744 OA
ENDBRANCH  72  76
ENDBRANCH  55  69
BRANCH  56  80
ATOM     80  C   UNL A   1      42.533  24.650  27.526  1.00  0.00     0.023 A 
ATOM     81  C   UNL A   1      41.712  23.514  27.589  1.00  0.00     0.031 A 
ATOM     82  C   UNL A   1      43.365  24.797  26.401  1.00  0.00     0.131 A 
ATOM     83  C   UNL A   1      41.779  22.543  26.578  1.00  0.00     0.055 A 
ATOM     84  C   UNL A   1      43.382  23.860  25.367  1.00  0.00     0.041 A 
ATOM     85  F   UNL A   1      44.172  25.865  26.286  1.00  0.00    -0.206 F 
ATOM     86  C   UNL A   1      42.597  22.716  25.459  1.00  0.00     0.022 A 
BRANCH  83  87
ATOM     87  S   UNL A   1      40.857  20.996  26.797  1.00  0.00     0.124 S 
ATOM     88  O   UNL A   1      41.721  20.037  26.120  1.00  0.00    -0.237 OA
ATOM     89  O   UNL A   1      40.789  20.887  28.250  1.00  0.00    -0.237 OA
ATOM     90  O   UNL A   1      39.582  21.265  26.134  1.00  0.00    -0.744 OA
ENDBRANCH  83  87
ENDBRANCH  56  80
BRANCH  68  91
ATOM     91  C   UNL A   1      46.982  25.840  32.769  1.00  0.00     0.023 A 
ATOM     92  C   UNL A   1      48.246  26.116  32.220  1.00  0.00     0.031 A 
ATOM     93  C   UNL A   1      46.896  24.838  33.752  1.00  0.00     0.131 A 
ATOM     94  C   UNL A   1      49.358  25.350  32.602  1.00  0.00     0.055 A 
ATOM     95  C   UNL A   1      48.019  24.132  34.185  1.00  0.00     0.041 A 
ATOM     96  F   UNL A   1      45.715  24.527  34.311  1.00  0.00    -0.206 F 
ATOM     97  C   UNL A   1      49.256  24.373  33.596  1.00  0.00     0.022 A 
BRANCH  94  98
ATOM     98  S   UNL A   1      50.912  25.561  31.691  1.00  0.00     0.124 S 
ATOM     99  O   UNL A   1      51.516  24.238  31.813  1.00  0.00    -0.237 OA
ATOM    100  O   UNL A   1      50.445  25.929  30.359  1.00  0.00    -0.237 OA
ATOM    101  O   UNL A   1      51.597  26.625  32.424  1.00  0.00    -0.744 OA
ENDBRANCH  94  98
ENDBRANCH  68  91
ENDBRANCH  42  43
ENDBRANCH  34  37
ENDBRANCH  32  33
ENDBRANCH  31  32
ENDBRANCH  30  31
ENDBRANCH   1  30
TORSDOF 19
ENDMDL
