MODEL 1
REMARK VINA RESULT:     -11.2      0.000      0.000
REMARK SMILES CC(C)C[C@H](NC(=O)c1cc(Cl)nnc1Cl)C(=O)NCCCCCCNC(=O)c1ccc(-c2c3nc(c(-c4cc(S(=O)(=O)[O-])ccc4F)c4ccc([nH]4)c(-c4cc(S(=O)(=O)[O-])ccc4F)c4nc(c(-c5cc(S(=O)(=O)[O-])ccc5F)c5ccc2[nH]5)C=C4)C=C3)cc1
REMARK SMILES IDX 23 1 22 2 21 3 20 4 19 5 17 6 18 7 5 9 4 10 2 11 1 12 3 13
REMARK SMILES IDX 6 14 7 15 8 17 9 18 10 19 15 20 11 21 14 22 16 23 12 24
REMARK SMILES IDX 13 25 24 26 25 27 26 28 27 29 28 31 29 32 30 33 91 34 31 35
REMARK SMILES IDX 90 36 32 37 33 38 34 39 84 40 35 41 89 42 83 43 85 44 36 45
REMARK SMILES IDX 88 46 82 47 81 48 37 50 69 51 49 52 68 53 50 54 53 55 67 56
REMARK SMILES IDX 86 57 51 58 52 59 66 61 87 62 54 63 38 64 39 65 47 66 40 67
REMARK SMILES IDX 46 68 48 69 45 70 41 71 42 72 43 73 44 74 70 75 71 76 79 77
REMARK SMILES IDX 72 78 78 79 80 80 77 81 73 82 74 83 75 84 76 85 55 86 56 87
REMARK SMILES IDX 64 88 57 89 63 90 65 91 62 92 58 93 59 94 60 95 61 96
REMARK H PARENT 19 8 6 16 26 30 85 49 53 60
REMARK Flexibility Score: inf
ROOT
ATOM      1  C   UNL A   1      31.410  30.577  25.748  1.00  0.00     0.002 C 
ENDROOT
BRANCH   1   2
ATOM      2  C   UNL A   1      32.362  29.537  26.346  1.00  0.00     0.002 C 
BRANCH   2   3
ATOM      3  C   UNL A   1      31.687  28.364  27.070  1.00  0.00     0.021 C 
BRANCH   3   4
ATOM      4  C   UNL A   1      31.953  26.992  26.454  1.00  0.00     0.116 C 
BRANCH   4   5
ATOM      5  N   UNL A   1      30.967  26.017  26.885  1.00  0.00    -0.354 N 
ATOM      6  C   UNL A   1      30.641  24.795  26.382  1.00  0.00     0.242 C 
ATOM      7  O   UNL A   1      29.874  24.092  27.046  1.00  0.00    -0.273 OA
ATOM      8  H   UNL A   1      30.445  26.285  27.675  1.00  0.00     0.163 HD
BRANCH   6   9
ATOM      9  C   UNL A   1      31.262  24.260  25.079  1.00  0.00     0.171 C 
BRANCH   9  10
ATOM     10  C   UNL A   1      30.729  25.011  23.847  1.00  0.00     0.038 C 
BRANCH  10  11
ATOM     11  C   UNL A   1      31.810  25.762  23.043  1.00  0.00    -0.015 C 
ATOM     12  C   UNL A   1      32.485  24.874  21.995  1.00  0.00     0.007 C 
ATOM     13  C   UNL A   1      31.183  26.978  22.355  1.00  0.00     0.007 C 
ENDBRANCH  10  11
ENDBRANCH   9  10
BRANCH   9  14
ATOM     14  N   UNL A   1      31.099  22.803  24.977  1.00  0.00    -0.340 N 
ATOM     15  C   UNL A   1      32.054  21.825  25.090  1.00  0.00     0.255 C 
ATOM     16  H   UNL A   1      30.183  22.488  24.804  1.00  0.00     0.164 HD
ATOM     17  O   UNL A   1      31.772  20.638  25.005  1.00  0.00    -0.269 OA
BRANCH  15  18
ATOM     18  C   UNL A   1      33.453  22.207  25.278  1.00  0.00     0.082 A 
ATOM     19  C   UNL A   1      34.278  22.297  24.158  1.00  0.00     0.060 A 
ATOM     20  C   UNL A   1      33.969  22.473  26.531  1.00  0.00     0.164 A 
ATOM     21  C   UNL A   1      35.567  22.727  24.362  1.00  0.00     0.152 A 
ATOM     22  N   UNL A   1      35.241  22.891  26.690  1.00  0.00    -0.136 NA
ATOM     23  Cl  UNL A   1      33.085  22.341  27.994  1.00  0.00    -0.059 Cl
ATOM     24  Cl  UNL A   1      36.657  22.957  23.067  1.00  0.00    -0.060 Cl
ATOM     25  N   UNL A   1      36.048  23.033  25.586  1.00  0.00    -0.137 NA
ENDBRANCH  15  18
ENDBRANCH   9  14
ENDBRANCH   6   9
ENDBRANCH   4   5
ENDBRANCH   3   4
ENDBRANCH   2   3
ENDBRANCH   1   2
BRANCH   1  26
ATOM     26  C   UNL A   1      31.339  31.908  26.499  1.00  0.00     0.021 C 
BRANCH  26  27
ATOM     27  C   UNL A   1      32.619  32.303  27.227  1.00  0.00     0.116 C 
BRANCH  27  28
ATOM     28  N   UNL A   1      32.655  33.719  27.553  1.00  0.00    -0.352 N 
ATOM     29  C   UNL A   1      33.511  34.372  28.405  1.00  0.00     0.251 C 
ATOM     30  H   UNL A   1      31.981  34.281  27.107  1.00  0.00     0.163 HD
ATOM     31  O   UNL A   1      33.333  35.549  28.694  1.00  0.00    -0.269 OA
BRANCH  29  32
ATOM     32  C   UNL A   1      34.641  33.620  28.987  1.00  0.00     0.039 A 
ATOM     33  C   UNL A   1      35.944  33.997  28.660  1.00  0.00     0.014 A 
ATOM     34  C   UNL A   1      34.400  32.571  29.882  1.00  0.00     0.014 A 
ATOM     35  C   UNL A   1      37.018  33.346  29.270  1.00  0.00     0.010 A 
ATOM     36  C   UNL A   1      35.471  31.956  30.522  1.00  0.00     0.010 A 
ATOM     37  C   UNL A   1      36.787  32.333  30.215  1.00  0.00    -0.014 A 
BRANCH  37  38
ATOM     38  C   UNL A   1      37.918  31.638  30.874  1.00  0.00     0.031 A 
ATOM     39  C   UNL A   1      38.655  30.556  30.139  1.00  0.00     0.074 A 
ATOM     40  C   UNL A   1      38.241  31.942  32.144  1.00  0.00     0.049 A 
ATOM     41  N   UNL A   1      39.663  29.829  30.542  1.00  0.00    -0.248 NA
ATOM     42  C   UNL A   1      38.187  30.237  28.780  1.00  0.00     0.031 C 
ATOM     43  C   UNL A   1      37.556  32.935  32.973  1.00  0.00     0.029 A 
ATOM     44  N   UNL A   1      39.216  31.436  32.967  1.00  0.00    -0.354 N 
ATOM     45  C   UNL A   1      39.947  28.966  29.493  1.00  0.00     0.074 A 
ATOM     46  C   UNL A   1      38.974  29.221  28.455  1.00  0.00     0.031 C 
ATOM     47  C   UNL A   1      38.135  32.969  34.182  1.00  0.00     0.029 A 
ATOM     48  C   UNL A   1      39.221  31.991  34.225  1.00  0.00     0.049 A 
ATOM     49  H   UNL A   1      39.854  30.742  32.682  1.00  0.00     0.167 HD
ATOM     50  C   UNL A   1      40.947  28.059  29.395  1.00  0.00     0.034 A 
ATOM     51  C   UNL A   1      40.011  31.743  35.290  1.00  0.00     0.034 A 
ATOM     52  C   UNL A   1      41.923  27.829  30.425  1.00  0.00     0.049 A 
ATOM     53  C   UNL A   1      41.134  30.747  35.149  1.00  0.00     0.074 A 
ATOM     54  C   UNL A   1      43.016  26.982  30.393  1.00  0.00     0.029 A 
ATOM     55  N   UNL A   1      41.927  28.443  31.668  1.00  0.00    -0.354 N 
ATOM     56  N   UNL A   1      41.463  30.019  34.108  1.00  0.00    -0.248 NA
ATOM     57  C   UNL A   1      42.006  30.548  36.316  1.00  0.00     0.031 C 
ATOM     58  C   UNL A   1      43.659  27.055  31.629  1.00  0.00     0.029 A 
ATOM     59  C   UNL A   1      42.994  27.982  32.418  1.00  0.00     0.049 A 
ATOM     60  H   UNL A   1      41.268  29.109  31.972  1.00  0.00     0.167 HD
ATOM     61  C   UNL A   1      42.593  29.300  34.482  1.00  0.00     0.074 A 
ATOM     62  C   UNL A   1      42.902  29.689  35.843  1.00  0.00     0.031 C 
ATOM     63  C   UNL A   1      43.307  28.398  33.764  1.00  0.00     0.034 A 
BRANCH  50  64
ATOM     64  C   UNL A   1      41.066  27.268  28.121  1.00  0.00     0.023 A 
ATOM     65  C   UNL A   1      40.771  25.894  28.112  1.00  0.00     0.031 A 
ATOM     66  C   UNL A   1      41.566  27.855  26.946  1.00  0.00     0.131 A 
ATOM     67  C   UNL A   1      40.998  25.145  26.951  1.00  0.00     0.055 A 
ATOM     68  C   UNL A   1      41.760  27.112  25.782  1.00  0.00     0.041 A 
ATOM     69  F   UNL A   1      41.856  29.166  26.909  1.00  0.00    -0.206 F 
ATOM     70  C   UNL A   1      41.483  25.748  25.784  1.00  0.00     0.022 A 
BRANCH  67  71
ATOM     71  S   UNL A   1      40.694  23.358  26.914  1.00  0.00     0.124 S 
ATOM     72  O   UNL A   1      39.294  23.298  26.500  1.00  0.00    -0.237 OA
ATOM     73  O   UNL A   1      41.660  22.907  25.917  1.00  0.00    -0.237 OA
ATOM     74  O   UNL A   1      40.952  22.931  28.285  1.00  0.00    -0.744 OA
ENDBRANCH  67  71
ENDBRANCH  50  64
BRANCH  51  75
ATOM     75  C   UNL A   1      39.800  32.515  36.546  1.00  0.00     0.023 A 
ATOM     76  C   UNL A   1      38.838  32.112  37.491  1.00  0.00     0.031 A 
ATOM     77  C   UNL A   1      40.486  33.720  36.769  1.00  0.00     0.131 A 
ATOM     78  C   UNL A   1      38.557  32.935  38.590  1.00  0.00     0.055 A 
ATOM     79  C   UNL A   1      40.244  34.507  37.896  1.00  0.00     0.041 A 
ATOM     80  F   UNL A   1      41.400  34.151  35.886  1.00  0.00    -0.206 F 
ATOM     81  C   UNL A   1      39.267  34.121  38.808  1.00  0.00     0.022 A 
BRANCH  78  82
ATOM     82  S   UNL A   1      37.198  32.540  39.725  1.00  0.00     0.124 S 
ATOM     83  O   UNL A   1      36.032  32.630  38.852  1.00  0.00    -0.237 OA
ATOM     84  O   UNL A   1      37.558  31.193  40.161  1.00  0.00    -0.237 OA
ATOM     85  O   UNL A   1      37.295  33.572  40.753  1.00  0.00    -0.744 OA
ENDBRANCH  78  82
ENDBRANCH  51  75
BRANCH  63  86
ATOM     86  C   UNL A   1      44.514  27.759  34.401  1.00  0.00     0.023 A 
ATOM     87  C   UNL A   1      44.359  26.605  35.193  1.00  0.00     0.031 A 
ATOM     88  C   UNL A   1      45.774  28.379  34.361  1.00  0.00     0.131 A 
ATOM     89  C   UNL A   1      45.439  26.130  35.947  1.00  0.00     0.055 A 
ATOM     90  C   UNL A   1      46.857  27.878  35.083  1.00  0.00     0.041 A 
ATOM     91  F   UNL A   1      45.964  29.487  33.627  1.00  0.00    -0.206 F 
ATOM     92  C   UNL A   1      46.688  26.756  35.892  1.00  0.00     0.022 A 
BRANCH  89  93
ATOM     93  S   UNL A   1      45.244  24.727  37.079  1.00  0.00     0.124 S 
ATOM     94  O   UNL A   1      44.747  23.683  36.185  1.00  0.00    -0.237 OA
ATOM     95  O   UNL A   1      46.607  24.535  37.566  1.00  0.00    -0.237 OA
ATOM     96  O   UNL A   1      44.283  25.203  38.069  1.00  0.00    -0.744 OA
ENDBRANCH  89  93
ENDBRANCH  63  86
ENDBRANCH  37  38
ENDBRANCH  29  32
ENDBRANCH  27  28
ENDBRANCH  26  27
ENDBRANCH   1  26
TORSDOF 20
ENDMDL
MODEL 2
REMARK VINA RESULT:     -11.1      2.338      3.044
REMARK SMILES CC(C)C[C@H](NC(=O)c1cc(Cl)nnc1Cl)C(=O)NCCCCCCNC(=O)c1ccc(-c2c3nc(c(-c4cc(S(=O)(=O)[O-])ccc4F)c4ccc([nH]4)c(-c4cc(S(=O)(=O)[O-])ccc4F)c4nc(c(-c5cc(S(=O)(=O)[O-])ccc5F)c5ccc2[nH]5)C=C4)C=C3)cc1
REMARK SMILES IDX 23 1 22 2 21 3 20 4 19 5 17 6 18 7 5 9 4 10 2 11 1 12 3 13
REMARK SMILES IDX 6 14 7 15 8 17 9 18 10 19 15 20 11 21 14 22 16 23 12 24
REMARK SMILES IDX 13 25 24 26 25 27 26 28 27 29 28 31 29 32 30 33 91 34 31 35
REMARK SMILES IDX 90 36 32 37 33 38 34 39 84 40 35 41 89 42 83 43 85 44 36 45
REMARK SMILES IDX 88 46 82 47 81 48 37 50 69 51 49 52 68 53 50 54 53 55 67 56
REMARK SMILES IDX 86 57 51 58 52 59 66 61 87 62 54 63 38 64 39 65 47 66 40 67
REMARK SMILES IDX 46 68 48 69 45 70 41 71 42 72 43 73 44 74 70 75 71 76 79 77
REMARK SMILES IDX 72 78 78 79 80 80 77 81 73 82 74 83 75 84 76 85 55 86 56 87
REMARK SMILES IDX 64 88 57 89 63 90 65 91 62 92 58 93 59 94 60 95 61 96
REMARK H PARENT 19 8 6 16 26 30 85 49 53 60
REMARK Flexibility Score: inf
ROOT
ATOM      1  C   UNL A   1      31.894  30.044  26.433  1.00  0.00     0.002 C 
ENDROOT
BRANCH   1   2
ATOM      2  C   UNL A   1      33.205  29.433  26.938  1.00  0.00     0.002 C 
BRANCH   2   3
ATOM      3  C   UNL A   1      33.987  28.606  25.909  1.00  0.00     0.021 C 
BRANCH   3   4
ATOM      4  C   UNL A   1      33.135  27.658  25.068  1.00  0.00     0.116 C 
BRANCH   4   5
ATOM      5  N   UNL A   1      33.591  27.616  23.690  1.00  0.00    -0.354 N 
ATOM      6  C   UNL A   1      33.699  26.577  22.818  1.00  0.00     0.242 C 
ATOM      7  O   UNL A   1      33.959  26.846  21.641  1.00  0.00    -0.273 OA
ATOM      8  H   UNL A   1      33.868  28.486  23.324  1.00  0.00     0.163 HD
BRANCH   6   9
ATOM      9  C   UNL A   1      33.429  25.123  23.246  1.00  0.00     0.171 C 
BRANCH   9  10
ATOM     10  C   UNL A   1      34.551  24.178  22.782  1.00  0.00     0.038 C 
BRANCH  10  11
ATOM     11  C   UNL A   1      35.258  23.421  23.925  1.00  0.00    -0.015 C 
ATOM     12  C   UNL A   1      36.655  22.936  23.531  1.00  0.00     0.007 C 
ATOM     13  C   UNL A   1      35.360  24.328  25.153  1.00  0.00     0.007 C 
ENDBRANCH  10  11
ENDBRANCH   9  10
BRANCH   9  14
ATOM     14  N   UNL A   1      32.095  24.685  22.812  1.00  0.00    -0.340 N 
ATOM     15  C   UNL A   1      31.121  24.053  23.543  1.00  0.00     0.255 C 
ATOM     16  H   UNL A   1      31.871  24.869  21.871  1.00  0.00     0.164 HD
ATOM     17  O   UNL A   1      30.038  23.764  23.056  1.00  0.00    -0.269 OA
BRANCH  15  18
ATOM     18  C   UNL A   1      31.395  23.680  24.930  1.00  0.00     0.082 A 
ATOM     19  C   UNL A   1      32.139  22.527  25.177  1.00  0.00     0.060 A 
ATOM     20  C   UNL A   1      30.933  24.437  25.988  1.00  0.00     0.164 A 
ATOM     21  C   UNL A   1      32.439  22.244  26.488  1.00  0.00     0.152 A 
ATOM     22  N   UNL A   1      31.248  24.124  27.262  1.00  0.00    -0.136 NA
ATOM     23  Cl  UNL A   1      29.959  25.838  25.830  1.00  0.00    -0.059 Cl
ATOM     24  Cl  UNL A   1      33.408  20.906  26.924  1.00  0.00    -0.060 Cl
ATOM     25  N   UNL A   1      32.024  23.018  27.514  1.00  0.00    -0.137 NA
ENDBRANCH  15  18
ENDBRANCH   9  14
ENDBRANCH   6   9
ENDBRANCH   4   5
ENDBRANCH   3   4
ENDBRANCH   2   3
ENDBRANCH   1   2
BRANCH   1  26
ATOM     26  C   UNL A   1      31.694  31.525  26.759  1.00  0.00     0.021 C 
BRANCH  26  27
ATOM     27  C   UNL A   1      32.936  32.244  27.274  1.00  0.00     0.116 C 
BRANCH  27  28
ATOM     28  N   UNL A   1      32.680  33.641  27.578  1.00  0.00    -0.352 N 
ATOM     29  C   UNL A   1      33.271  34.422  28.541  1.00  0.00     0.251 C 
ATOM     30  H   UNL A   1      31.997  34.085  27.024  1.00  0.00     0.163 HD
ATOM     31  O   UNL A   1      32.853  35.550  28.778  1.00  0.00    -0.269 OA
BRANCH  29  32
ATOM     32  C   UNL A   1      34.408  33.868  29.302  1.00  0.00     0.039 A 
ATOM     33  C   UNL A   1      34.156  32.958  30.329  1.00  0.00     0.014 A 
ATOM     34  C   UNL A   1      35.719  34.225  28.965  1.00  0.00     0.014 A 
ATOM     35  C   UNL A   1      35.228  32.367  30.998  1.00  0.00     0.010 A 
ATOM     36  C   UNL A   1      36.786  33.599  29.602  1.00  0.00     0.010 A 
ATOM     37  C   UNL A   1      36.548  32.672  30.628  1.00  0.00    -0.014 A 
BRANCH  37  38
ATOM     38  C   UNL A   1      37.696  32.047  31.326  1.00  0.00     0.031 A 
ATOM     39  C   UNL A   1      38.431  30.910  30.677  1.00  0.00     0.074 A 
ATOM     40  C   UNL A   1      38.039  32.465  32.559  1.00  0.00     0.049 A 
ATOM     41  N   UNL A   1      39.452  30.229  31.125  1.00  0.00    -0.248 NA
ATOM     42  C   UNL A   1      37.942  30.468  29.361  1.00  0.00     0.031 C 
ATOM     43  C   UNL A   1      37.359  33.522  33.308  1.00  0.00     0.029 A 
ATOM     44  N   UNL A   1      39.032  32.041  33.406  1.00  0.00    -0.354 N 
ATOM     45  C   UNL A   1      39.726  29.278  30.152  1.00  0.00     0.074 A 
ATOM     46  C   UNL A   1      38.733  29.433  29.113  1.00  0.00     0.031 C 
ATOM     47  C   UNL A   1      37.958  33.669  34.499  1.00  0.00     0.029 A 
ATOM     48  C   UNL A   1      39.053  32.706  34.610  1.00  0.00     0.049 A 
ATOM     49  H   UNL A   1      39.671  31.329  33.172  1.00  0.00     0.167 HD
ATOM     50  C   UNL A   1      40.732  28.373  30.117  1.00  0.00     0.034 A 
ATOM     51  C   UNL A   1      39.863  32.559  35.677  1.00  0.00     0.034 A 
ATOM     52  C   UNL A   1      41.727  28.243  31.146  1.00  0.00     0.049 A 
ATOM     53  C   UNL A   1      40.992  31.563  35.606  1.00  0.00     0.074 A 
ATOM     54  C   UNL A   1      42.827  27.405  31.170  1.00  0.00     0.029 A 
ATOM     55  N   UNL A   1      41.747  28.965  32.329  1.00  0.00    -0.354 N 
ATOM     56  N   UNL A   1      41.310  30.748  34.628  1.00  0.00    -0.248 NA
ATOM     57  C   UNL A   1      41.886  31.474  36.770  1.00  0.00     0.031 C 
ATOM     58  C   UNL A   1      43.490  27.592  32.383  1.00  0.00     0.029 A 
ATOM     59  C   UNL A   1      42.830  28.581  33.099  1.00  0.00     0.049 A 
ATOM     60  H   UNL A   1      41.088  29.651  32.584  1.00  0.00     0.167 HD
ATOM     61  C   UNL A   1      42.453  30.073  35.045  1.00  0.00     0.074 A 
ATOM     62  C   UNL A   1      42.781  30.584  36.360  1.00  0.00     0.031 C 
ATOM     63  C   UNL A   1      43.163  29.116  34.396  1.00  0.00     0.034 A 
BRANCH  50  64
ATOM     64  C   UNL A   1      40.837  27.474  28.916  1.00  0.00     0.023 A 
ATOM     65  C   UNL A   1      41.808  27.722  27.931  1.00  0.00     0.031 A 
ATOM     66  C   UNL A   1      39.913  26.436  28.702  1.00  0.00     0.131 A 
ATOM     67  C   UNL A   1      41.820  26.950  26.762  1.00  0.00     0.055 A 
ATOM     68  C   UNL A   1      39.950  25.649  27.552  1.00  0.00     0.041 A 
ATOM     69  F   UNL A   1      38.973  26.162  29.621  1.00  0.00    -0.206 F 
ATOM     70  C   UNL A   1      40.902  25.910  26.571  1.00  0.00     0.022 A 
BRANCH  67  71
ATOM     71  S   UNL A   1      43.013  27.277  25.436  1.00  0.00     0.124 S 
ATOM     72  O   UNL A   1      44.136  27.852  26.174  1.00  0.00    -0.237 OA
ATOM     73  O   UNL A   1      43.239  25.940  24.896  1.00  0.00    -0.237 OA
ATOM     74  O   UNL A   1      42.311  28.205  24.556  1.00  0.00    -0.744 OA
ENDBRANCH  67  71
ENDBRANCH  50  64
BRANCH  51  75
ATOM     75  C   UNL A   1      39.666  33.438  36.864  1.00  0.00     0.023 A 
ATOM     76  C   UNL A   1      39.008  32.966  38.014  1.00  0.00     0.031 A 
ATOM     77  C   UNL A   1      40.044  34.790  36.823  1.00  0.00     0.131 A 
ATOM     78  C   UNL A   1      38.707  33.853  39.056  1.00  0.00     0.055 A 
ATOM     79  C   UNL A   1      39.794  35.657  37.888  1.00  0.00     0.041 A 
ATOM     80  F   UNL A   1      40.660  35.287  35.740  1.00  0.00    -0.206 F 
ATOM     81  C   UNL A   1      39.111  35.192  39.008  1.00  0.00     0.022 A 
BRANCH  78  82
ATOM     82  S   UNL A   1      37.698  33.323  40.468  1.00  0.00     0.124 S 
ATOM     83  O   UNL A   1      37.552  34.561  41.225  1.00  0.00    -0.237 OA
ATOM     84  O   UNL A   1      36.489  32.843  39.804  1.00  0.00    -0.237 OA
ATOM     85  O   UNL A   1      38.509  32.289  41.103  1.00  0.00    -0.744 OA
ENDBRANCH  78  82
ENDBRANCH  51  75
BRANCH  63  86
ATOM     86  C   UNL A   1      44.386  28.545  35.066  1.00  0.00     0.023 A 
ATOM     87  C   UNL A   1      45.657  29.079  34.778  1.00  0.00     0.031 A 
ATOM     88  C   UNL A   1      44.311  27.382  35.851  1.00  0.00     0.131 A 
ATOM     89  C   UNL A   1      46.805  28.425  35.238  1.00  0.00     0.055 A 
ATOM     90  C   UNL A   1      45.458  26.757  36.340  1.00  0.00     0.041 A 
ATOM     91  F   UNL A   1      43.122  26.834  36.142  1.00  0.00    -0.206 F 
ATOM     92  C   UNL A   1      46.713  27.271  36.022  1.00  0.00     0.022 A 
BRANCH  89  93
ATOM     93  S   UNL A   1      48.460  29.007  34.777  1.00  0.00     0.124 S 
ATOM     94  O   UNL A   1      48.155  30.037  33.787  1.00  0.00    -0.237 OA
ATOM     95  O   UNL A   1      48.977  29.500  36.051  1.00  0.00    -0.237 OA
ATOM     96  O   UNL A   1      49.119  27.816  34.250  1.00  0.00    -0.744 OA
ENDBRANCH  89  93
ENDBRANCH  63  86
ENDBRANCH  37  38
ENDBRANCH  29  32
ENDBRANCH  27  28
ENDBRANCH  26  27
ENDBRANCH   1  26
TORSDOF 20
ENDMDL
MODEL 3
REMARK VINA RESULT:     -11.1      1.684      7.678
REMARK SMILES CC(C)C[C@H](NC(=O)c1cc(Cl)nnc1Cl)C(=O)NCCCCCCNC(=O)c1ccc(-c2c3nc(c(-c4cc(S(=O)(=O)[O-])ccc4F)c4ccc([nH]4)c(-c4cc(S(=O)(=O)[O-])ccc4F)c4nc(c(-c5cc(S(=O)(=O)[O-])ccc5F)c5ccc2[nH]5)C=C4)C=C3)cc1
REMARK SMILES IDX 23 1 22 2 21 3 20 4 19 5 17 6 18 7 5 9 4 10 2 11 1 12 3 13
REMARK SMILES IDX 6 14 7 15 8 17 9 18 10 19 15 20 11 21 14 22 16 23 12 24
REMARK SMILES IDX 13 25 24 26 25 27 26 28 27 29 28 31 29 32 30 33 91 34 31 35
REMARK SMILES IDX 90 36 32 37 33 38 34 39 84 40 35 41 89 42 83 43 85 44 36 45
REMARK SMILES IDX 88 46 82 47 81 48 37 50 69 51 49 52 68 53 50 54 53 55 67 56
REMARK SMILES IDX 86 57 51 58 52 59 66 61 87 62 54 63 38 64 39 65 47 66 40 67
REMARK SMILES IDX 46 68 48 69 45 70 41 71 42 72 43 73 44 74 70 75 71 76 79 77
REMARK SMILES IDX 72 78 78 79 80 80 77 81 73 82 74 83 75 84 76 85 55 86 56 87
REMARK SMILES IDX 64 88 57 89 63 90 65 91 62 92 58 93 59 94 60 95 61 96
REMARK H PARENT 19 8 6 16 26 30 85 49 53 60
REMARK Flexibility Score: inf
ROOT
ATOM      1  C   UNL A   1      31.599  30.704  26.118  1.00  0.00     0.002 C 
ENDROOT
BRANCH   1   2
ATOM      2  C   UNL A   1      32.575  29.760  26.830  1.00  0.00     0.002 C 
BRANCH   2   3
ATOM      3  C   UNL A   1      31.938  28.533  27.496  1.00  0.00     0.021 C 
BRANCH   3   4
ATOM      4  C   UNL A   1      32.056  27.237  26.698  1.00  0.00     0.116 C 
BRANCH   4   5
ATOM      5  N   UNL A   1      30.861  26.423  26.829  1.00  0.00    -0.354 N 
ATOM      6  C   UNL A   1      30.523  25.234  26.258  1.00  0.00     0.242 C 
ATOM      7  O   UNL A   1      29.507  24.670  26.674  1.00  0.00    -0.273 OA
ATOM      8  H   UNL A   1      30.178  26.793  27.434  1.00  0.00     0.163 HD
BRANCH   6   9
ATOM      9  C   UNL A   1      31.409  24.564  25.192  1.00  0.00     0.171 C 
BRANCH   9  10
ATOM     10  C   UNL A   1      31.016  25.004  23.771  1.00  0.00     0.038 C 
BRANCH  10  11
ATOM     11  C   UNL A   1      31.759  26.258  23.266  1.00  0.00    -0.015 C 
ATOM     12  C   UNL A   1      33.249  26.238  23.616  1.00  0.00     0.007 C 
ATOM     13  C   UNL A   1      31.592  26.375  21.749  1.00  0.00     0.007 C 
ENDBRANCH  10  11
ENDBRANCH   9  10
BRANCH   9  14
ATOM     14  N   UNL A   1      31.418  23.104  25.357  1.00  0.00    -0.340 N 
ATOM     15  C   UNL A   1      32.452  22.226  25.153  1.00  0.00     0.255 C 
ATOM     16  H   UNL A   1      30.569  22.703  25.652  1.00  0.00     0.164 HD
ATOM     17  O   UNL A   1      32.326  21.026  25.353  1.00  0.00    -0.269 OA
BRANCH  15  18
ATOM     18  C   UNL A   1      33.729  22.727  24.647  1.00  0.00     0.082 A 
ATOM     19  C   UNL A   1      34.713  23.094  25.564  1.00  0.00     0.060 A 
ATOM     20  C   UNL A   1      33.975  22.849  23.294  1.00  0.00     0.164 A 
ATOM     21  C   UNL A   1      35.926  23.494  25.054  1.00  0.00     0.152 A 
ATOM     22  N   UNL A   1      35.178  23.247  22.834  1.00  0.00    -0.136 NA
ATOM     23  Cl  UNL A   1      32.835  22.494  22.063  1.00  0.00    -0.059 Cl
ATOM     24  Cl  UNL A   1      37.242  23.894  26.068  1.00  0.00    -0.060 Cl
ATOM     25  N   UNL A   1      36.173  23.562  23.729  1.00  0.00    -0.137 NA
ENDBRANCH  15  18
ENDBRANCH   9  14
ENDBRANCH   6   9
ENDBRANCH   4   5
ENDBRANCH   3   4
ENDBRANCH   2   3
ENDBRANCH   1   2
BRANCH   1  26
ATOM     26  C   UNL A   1      31.468  32.097  26.736  1.00  0.00     0.021 C 
BRANCH  26  27
ATOM     27  C   UNL A   1      32.764  32.682  27.284  1.00  0.00     0.116 C 
BRANCH  27  28
ATOM     28  N   UNL A   1      32.581  34.013  27.837  1.00  0.00    -0.352 N 
ATOM     29  C   UNL A   1      33.263  34.603  28.872  1.00  0.00     0.251 C 
ATOM     30  H   UNL A   1      31.879  34.561  27.417  1.00  0.00     0.163 HD
ATOM     31  O   UNL A   1      32.904  35.683  29.326  1.00  0.00    -0.269 OA
BRANCH  29  32
ATOM     32  C   UNL A   1      34.429  33.900  29.444  1.00  0.00     0.039 A 
ATOM     33  C   UNL A   1      35.709  34.248  29.010  1.00  0.00     0.014 A 
ATOM     34  C   UNL A   1      34.245  32.928  30.434  1.00  0.00     0.014 A 
ATOM     35  C   UNL A   1      36.819  33.647  29.605  1.00  0.00     0.010 A 
ATOM     36  C   UNL A   1      35.355  32.367  31.058  1.00  0.00     0.010 A 
ATOM     37  C   UNL A   1      36.649  32.715  30.642  1.00  0.00    -0.014 A 
BRANCH  37  38
ATOM     38  C   UNL A   1      37.820  32.074  31.287  1.00  0.00     0.031 A 
ATOM     39  C   UNL A   1      38.303  32.577  32.616  1.00  0.00     0.074 A 
ATOM     40  C   UNL A   1      38.474  31.084  30.652  1.00  0.00     0.049 A 
ATOM     41  N   UNL A   1      39.308  32.156  33.337  1.00  0.00    -0.248 NA
ATOM     42  C   UNL A   1      37.573  33.712  33.204  1.00  0.00     0.031 C 
ATOM     43  C   UNL A   1      38.127  30.556  29.332  1.00  0.00     0.029 A 
ATOM     44  N   UNL A   1      39.577  30.357  31.023  1.00  0.00    -0.354 N 
ATOM     45  C   UNL A   1      39.335  32.974  34.458  1.00  0.00     0.074 A 
ATOM     46  C   UNL A   1      38.281  33.949  34.299  1.00  0.00     0.031 C 
ATOM     47  C   UNL A   1      38.995  29.587  29.007  1.00  0.00     0.029 A 
ATOM     48  C   UNL A   1      39.972  29.433  30.084  1.00  0.00     0.049 A 
ATOM     49  H   UNL A   1      40.041  30.483  31.883  1.00  0.00     0.167 HD
ATOM     50  C   UNL A   1      40.151  32.901  35.535  1.00  0.00     0.034 A 
ATOM     51  C   UNL A   1      41.000  28.560  30.091  1.00  0.00     0.034 A 
ATOM     52  C   UNL A   1      41.183  31.912  35.692  1.00  0.00     0.049 A 
ATOM     53  C   UNL A   1      41.881  28.480  31.312  1.00  0.00     0.074 A 
ATOM     54  C   UNL A   1      42.016  31.711  36.778  1.00  0.00     0.029 A 
ATOM     55  N   UNL A   1      41.524  30.961  34.743  1.00  0.00    -0.354 N 
ATOM     56  N   UNL A   1      41.822  29.185  32.418  1.00  0.00    -0.248 NA
ATOM     57  C   UNL A   1      42.955  27.477  31.301  1.00  0.00     0.031 C 
ATOM     58  C   UNL A   1      42.886  30.665  36.471  1.00  0.00     0.029 A 
ATOM     59  C   UNL A   1      42.566  30.181  35.211  1.00  0.00     0.049 A 
ATOM     60  H   UNL A   1      41.089  30.856  33.866  1.00  0.00     0.167 HD
ATOM     61  C   UNL A   1      42.828  28.693  33.242  1.00  0.00     0.074 A 
ATOM     62  C   UNL A   1      43.475  27.620  32.515  1.00  0.00     0.031 C 
ATOM     63  C   UNL A   1      43.184  29.096  34.488  1.00  0.00     0.034 A 
BRANCH  50  64
ATOM     64  C   UNL A   1      39.946  33.890  36.650  1.00  0.00     0.023 A 
ATOM     65  C   UNL A   1      39.379  33.475  37.867  1.00  0.00     0.031 A 
ATOM     66  C   UNL A   1      40.221  35.256  36.469  1.00  0.00     0.131 A 
ATOM     67  C   UNL A   1      39.085  34.425  38.853  1.00  0.00     0.055 A 
ATOM     68  C   UNL A   1      39.956  36.195  37.466  1.00  0.00     0.041 A 
ATOM     69  F   UNL A   1      40.769  35.695  35.324  1.00  0.00    -0.206 F 
ATOM     70  C   UNL A   1      39.378  35.781  38.662  1.00  0.00     0.022 A 
BRANCH  67  71
ATOM     71  S   UNL A   1      38.292  33.944  40.411  1.00  0.00     0.124 S 
ATOM     72  O   UNL A   1      38.130  35.234  41.078  1.00  0.00    -0.237 OA
ATOM     73  O   UNL A   1      37.057  33.323  39.943  1.00  0.00    -0.237 OA
ATOM     74  O   UNL A   1      39.258  33.044  41.031  1.00  0.00    -0.744 OA
ENDBRANCH  67  71
ENDBRANCH  50  64
BRANCH  51  75
ATOM     75  C   UNL A   1      41.188  27.651  28.927  1.00  0.00     0.023 A 
ATOM     76  C   UNL A   1      42.187  27.899  27.968  1.00  0.00     0.031 A 
ATOM     77  C   UNL A   1      40.307  26.580  28.706  1.00  0.00     0.131 A 
ATOM     78  C   UNL A   1      42.248  27.115  26.808  1.00  0.00     0.055 A 
ATOM     79  C   UNL A   1      40.408  25.764  27.577  1.00  0.00     0.041 A 
ATOM     80  F   UNL A   1      39.329  26.317  29.586  1.00  0.00    -0.206 F 
ATOM     81  C   UNL A   1      41.376  26.038  26.615  1.00  0.00     0.022 A 
BRANCH  78  82
ATOM     82  S   UNL A   1      43.400  27.523  25.467  1.00  0.00     0.124 S 
ATOM     83  O   UNL A   1      44.119  26.266  25.286  1.00  0.00    -0.237 OA
ATOM     84  O   UNL A   1      42.482  27.886  24.390  1.00  0.00    -0.237 OA
ATOM     85  O   UNL A   1      44.186  28.625  26.011  1.00  0.00    -0.744 OA
ENDBRANCH  78  82
ENDBRANCH  51  75
BRANCH  63  86
ATOM     86  C   UNL A   1      44.316  28.383  35.183  1.00  0.00     0.023 A 
ATOM     87  C   UNL A   1      44.037  27.463  36.211  1.00  0.00     0.031 A 
ATOM     88  C   UNL A   1      45.655  28.734  34.943  1.00  0.00     0.131 A 
ATOM     89  C   UNL A   1      45.083  26.955  36.990  1.00  0.00     0.055 A 
ATOM     90  C   UNL A   1      46.696  28.194  35.697  1.00  0.00     0.041 A 
ATOM     91  F   UNL A   1      45.966  29.614  33.979  1.00  0.00    -0.206 F 
ATOM     92  C   UNL A   1      46.411  27.310  36.735  1.00  0.00     0.022 A 
BRANCH  89  93
ATOM     93  S   UNL A   1      44.752  25.871  38.406  1.00  0.00     0.124 S 
ATOM     94  O   UNL A   1      44.560  24.575  37.759  1.00  0.00    -0.237 OA
ATOM     95  O   UNL A   1      45.980  26.003  39.186  1.00  0.00    -0.237 OA
ATOM     96  O   UNL A   1      43.555  26.441  39.016  1.00  0.00    -0.744 OA
ENDBRANCH  89  93
ENDBRANCH  63  86
ENDBRANCH  37  38
ENDBRANCH  29  32
ENDBRANCH  27  28
ENDBRANCH  26  27
ENDBRANCH   1  26
TORSDOF 20
ENDMDL
