MODEL 1
REMARK VINA RESULT:     -12.5      0.000      0.000
REMARK SMILES Cc1c(C)c2c(c(C)c1O)CC[C@@](C)(C(=O)NCCCCCCNC(=O)c1ccc(-c3c4nc(c(-c5cc(S(=O)(=O)[O-])ccc5F)c5ccc([nH]5)c(-c5cc(S(=O)(=O)[O-])ccc5F)c5nc(c(-c6cc(S(=O)(=O)[O-])ccc6F)c6ccc3[nH]6)C=C5)C=C4)cc1)O2
REMARK SMILES IDX 21 1 20 2 19 3 18 4 17 5 15 6 16 7 13 9 1 10 2 11 3 12 9 13
REMARK SMILES IDX 4 14 5 15 7 16 6 17 90 18 8 19 11 20 12 21 14 22 10 23 22 25
REMARK SMILES IDX 23 26 24 27 25 28 26 30 27 31 28 32 89 33 29 34 88 35 30 36
REMARK SMILES IDX 31 37 32 38 82 39 33 40 87 41 81 42 83 43 34 44 86 45 80 46
REMARK SMILES IDX 79 47 35 49 67 50 47 51 66 52 48 53 51 54 65 55 84 56 49 57
REMARK SMILES IDX 50 58 64 60 85 61 52 62 36 63 37 64 45 65 38 66 44 67 46 68
REMARK SMILES IDX 43 69 39 70 40 71 41 72 42 73 68 74 69 75 77 76 70 77 76 78
REMARK SMILES IDX 78 79 75 80 71 81 72 82 73 83 74 84 53 85 54 86 62 87 55 88
REMARK SMILES IDX 61 89 63 90 60 91 56 92 57 93 58 94 59 95
REMARK H PARENT 17 8 10 24 24 29 83 48 51 59
REMARK Flexibility Score: inf
ROOT
ATOM      1  C   UNL A   1      31.600  30.293  25.912  1.00  0.00     0.002 C 
ENDROOT
BRANCH   1   2
ATOM      2  C   UNL A   1      33.044  29.791  25.797  1.00  0.00     0.002 C 
BRANCH   2   3
ATOM      3  C   UNL A   1      33.405  29.165  24.447  1.00  0.00     0.021 C 
BRANCH   3   4
ATOM      4  C   UNL A   1      32.246  28.433  23.774  1.00  0.00     0.116 C 
BRANCH   4   5
ATOM      5  N   UNL A   1      32.691  27.686  22.609  1.00  0.00    -0.353 N 
ATOM      6  C   UNL A   1      33.036  26.370  22.453  1.00  0.00     0.263 C 
ATOM      7  O   UNL A   1      33.406  26.030  21.326  1.00  0.00    -0.270 OA
ATOM      8  H   UNL A   1      32.757  28.222  21.786  1.00  0.00     0.163 HD
BRANCH   6   9
ATOM      9  C   UNL A   1      32.936  25.366  23.637  1.00  0.00     0.184 C 
ATOM     10  C   UNL A   1      32.355  19.278  24.106  1.00  0.00     0.049 C 
ATOM     11  C   UNL A   1      32.818  20.646  24.543  1.00  0.00    -0.002 A 
ATOM     12  C   UNL A   1      32.764  21.720  23.617  1.00  0.00    -0.002 A 
ATOM     13  C   UNL A   1      33.228  20.910  25.865  1.00  0.00     0.122 A 
ATOM     14  C   UNL A   1      32.293  21.489  22.201  1.00  0.00     0.049 C 
ATOM     15  C   UNL A   1      33.147  23.010  24.030  1.00  0.00     0.127 A 
ATOM     16  C   UNL A   1      33.629  22.194  26.274  1.00  0.00    -0.002 A 
ATOM     17  C   UNL A   1      33.615  23.245  25.336  1.00  0.00     0.001 A 
ATOM     18  O   UNL A   1      33.017  24.023  23.103  1.00  0.00    -0.477 OA
ATOM     19  C   UNL A   1      34.049  22.464  27.699  1.00  0.00     0.049 C 
ATOM     20  C   UNL A   1      34.046  24.627  25.748  1.00  0.00     0.044 C 
ATOM     21  C   UNL A   1      34.152  25.545  24.550  1.00  0.00     0.063 C 
ATOM     22  C   UNL A   1      31.530  25.516  24.258  1.00  0.00     0.067 C 
BRANCH  13  23
ATOM     23  O   UNL A   1      33.261  19.937  26.829  1.00  0.00    -0.507 OA
ATOM     24  H   UNL A   1      33.669  20.109  27.655  1.00  0.00     0.293 HD
ENDBRANCH  13  23
ENDBRANCH   6   9
ENDBRANCH   4   5
ENDBRANCH   3   4
ENDBRANCH   2   3
ENDBRANCH   1   2
BRANCH   1  25
ATOM     25  C   UNL A   1      31.443  31.701  26.494  1.00  0.00     0.021 C 
BRANCH  25  26
ATOM     26  C   UNL A   1      32.694  32.256  27.166  1.00  0.00     0.116 C 
BRANCH  26  27
ATOM     27  N   UNL A   1      32.531  33.649  27.549  1.00  0.00    -0.352 N 
ATOM     28  C   UNL A   1      33.169  34.356  28.535  1.00  0.00     0.251 C 
ATOM     29  H   UNL A   1      31.869  34.156  27.025  1.00  0.00     0.163 HD
ATOM     30  O   UNL A   1      32.752  35.465  28.859  1.00  0.00    -0.269 OA
BRANCH  28  31
ATOM     31  C   UNL A   1      34.342  33.770  29.218  1.00  0.00     0.039 A 
ATOM     32  C   UNL A   1      34.134  32.900  30.290  1.00  0.00     0.014 A 
ATOM     33  C   UNL A   1      35.641  34.083  28.805  1.00  0.00     0.014 A 
ATOM     34  C   UNL A   1      35.231  32.301  30.914  1.00  0.00     0.010 A 
ATOM     35  C   UNL A   1      36.728  33.433  29.384  1.00  0.00     0.010 A 
ATOM     36  C   UNL A   1      36.534  32.541  30.448  1.00  0.00    -0.014 A 
BRANCH  36  37
ATOM     37  C   UNL A   1      37.702  31.883  31.086  1.00  0.00     0.031 A 
ATOM     38  C   UNL A   1      38.130  32.290  32.470  1.00  0.00     0.074 A 
ATOM     39  C   UNL A   1      38.385  30.934  30.415  1.00  0.00     0.049 A 
ATOM     40  N   UNL A   1      39.134  31.853  33.184  1.00  0.00    -0.248 NA
ATOM     41  C   UNL A   1      37.337  33.341  33.129  1.00  0.00     0.031 C 
ATOM     42  C   UNL A   1      38.076  30.472  29.060  1.00  0.00     0.029 A 
ATOM     43  N   UNL A   1      39.470  30.179  30.782  1.00  0.00    -0.354 N 
ATOM     44  C   UNL A   1      39.092  32.569  34.374  1.00  0.00     0.074 A 
ATOM     45  C   UNL A   1      38.004  33.515  34.260  1.00  0.00     0.031 C 
ATOM     46  C   UNL A   1      38.923  29.483  28.729  1.00  0.00     0.029 A 
ATOM     47  C   UNL A   1      39.860  29.269  29.828  1.00  0.00     0.049 A 
ATOM     48  H   UNL A   1      39.927  30.281  31.648  1.00  0.00     0.167 HD
ATOM     49  C   UNL A   1      39.869  32.429  35.474  1.00  0.00     0.034 A 
ATOM     50  C   UNL A   1      40.858  28.363  29.836  1.00  0.00     0.034 A 
ATOM     51  C   UNL A   1      40.936  31.470  35.587  1.00  0.00     0.049 A 
ATOM     52  C   UNL A   1      41.741  28.260  31.052  1.00  0.00     0.074 A 
ATOM     53  C   UNL A   1      41.757  31.220  36.673  1.00  0.00     0.029 A 
ATOM     54  N   UNL A   1      41.331  30.600  34.580  1.00  0.00    -0.354 N 
ATOM     55  N   UNL A   1      41.677  28.939  32.174  1.00  0.00    -0.248 NA
ATOM     56  C   UNL A   1      42.830  27.275  31.005  1.00  0.00     0.031 C 
ATOM     57  C   UNL A   1      42.684  30.241  36.304  1.00  0.00     0.029 A 
ATOM     58  C   UNL A   1      42.402  29.835  35.009  1.00  0.00     0.049 A 
ATOM     59  H   UNL A   1      40.911  30.536  33.692  1.00  0.00     0.167 HD
ATOM     60  C   UNL A   1      42.706  28.449  32.971  1.00  0.00     0.074 A 
ATOM     61  C   UNL A   1      43.373  27.415  32.207  1.00  0.00     0.031 C 
ATOM     62  C   UNL A   1      43.064  28.820  34.225  1.00  0.00     0.034 A 
BRANCH  49  63
ATOM     63  C   UNL A   1      39.593  33.337  36.643  1.00  0.00     0.023 A 
ATOM     64  C   UNL A   1      38.944  32.865  37.797  1.00  0.00     0.031 A 
ATOM     65  C   UNL A   1      39.996  34.683  36.614  1.00  0.00     0.131 A 
ATOM     66  C   UNL A   1      38.674  33.745  38.855  1.00  0.00     0.055 A 
ATOM     67  C   UNL A   1      39.783  35.537  37.696  1.00  0.00     0.041 A 
ATOM     68  F   UNL A   1      40.605  35.189  35.529  1.00  0.00    -0.206 F 
ATOM     69  C   UNL A   1      39.111  35.071  38.823  1.00  0.00     0.022 A 
BRANCH  66  70
ATOM     70  S   UNL A   1      37.668  33.151  40.241  1.00  0.00     0.124 S 
ATOM     71  O   UNL A   1      36.406  32.840  39.574  1.00  0.00    -0.237 OA
ATOM     72  O   UNL A   1      38.434  32.008  40.723  1.00  0.00    -0.237 OA
ATOM     73  O   UNL A   1      37.622  34.297  41.146  1.00  0.00    -0.744 OA
ENDBRANCH  66  70
ENDBRANCH  49  63
BRANCH  50  74
ATOM     74  C   UNL A   1      41.074  27.479  28.658  1.00  0.00     0.023 A 
ATOM     75  C   UNL A   1      42.065  27.774  27.709  1.00  0.00     0.031 A 
ATOM     76  C   UNL A   1      40.293  26.326  28.465  1.00  0.00     0.131 A 
ATOM     77  C   UNL A   1      42.237  26.936  26.596  1.00  0.00     0.055 A 
ATOM     78  C   UNL A   1      40.492  25.476  27.376  1.00  0.00     0.041 A 
ATOM     79  F   UNL A   1      39.338  25.997  29.349  1.00  0.00    -0.206 F 
ATOM     80  C   UNL A   1      41.466  25.783  26.429  1.00  0.00     0.022 A 
BRANCH  77  81
ATOM     81  S   UNL A   1      43.470  27.391  25.346  1.00  0.00     0.124 S 
ATOM     82  O   UNL A   1      44.082  26.100  25.051  1.00  0.00    -0.237 OA
ATOM     83  O   UNL A   1      42.640  27.965  24.293  1.00  0.00    -0.237 OA
ATOM     84  O   UNL A   1      44.328  28.343  26.047  1.00  0.00    -0.744 OA
ENDBRANCH  77  81
ENDBRANCH  50  74
BRANCH  62  85
ATOM     85  C   UNL A   1      44.219  28.097  34.863  1.00  0.00     0.023 A 
ATOM     86  C   UNL A   1      44.044  26.851  35.488  1.00  0.00     0.031 A 
ATOM     87  C   UNL A   1      45.518  28.627  34.780  1.00  0.00     0.131 A 
ATOM     88  C   UNL A   1      45.153  26.181  36.025  1.00  0.00     0.055 A 
ATOM     89  C   UNL A   1      46.623  27.937  35.279  1.00  0.00     0.041 A 
ATOM     90  F   UNL A   1      45.735  29.812  34.187  1.00  0.00    -0.206 F 
ATOM     91  C   UNL A   1      46.443  26.708  35.908  1.00  0.00     0.022 A 
BRANCH  88  92
ATOM     92  S   UNL A   1      44.888  24.612  36.893  1.00  0.00     0.124 S 
ATOM     93  O   UNL A   1      46.211  24.000  36.819  1.00  0.00    -0.237 OA
ATOM     94  O   UNL A   1      44.464  25.049  38.219  1.00  0.00    -0.237 OA
ATOM     95  O   UNL A   1      43.853  23.952  36.100  1.00  0.00    -0.744 OA
ENDBRANCH  88  92
ENDBRANCH  62  85
ENDBRANCH  36  37
ENDBRANCH  28  31
ENDBRANCH  26  27
ENDBRANCH  25  26
ENDBRANCH   1  25
TORSDOF 17
ENDMDL
MODEL 2
REMARK VINA RESULT:     -12.3      2.145      2.625
REMARK SMILES Cc1c(C)c2c(c(C)c1O)CC[C@@](C)(C(=O)NCCCCCCNC(=O)c1ccc(-c3c4nc(c(-c5cc(S(=O)(=O)[O-])ccc5F)c5ccc([nH]5)c(-c5cc(S(=O)(=O)[O-])ccc5F)c5nc(c(-c6cc(S(=O)(=O)[O-])ccc6F)c6ccc3[nH]6)C=C5)C=C4)cc1)O2
REMARK SMILES IDX 21 1 20 2 19 3 18 4 17 5 15 6 16 7 13 9 1 10 2 11 3 12 9 13
REMARK SMILES IDX 4 14 5 15 7 16 6 17 90 18 8 19 11 20 12 21 14 22 10 23 22 25
REMARK SMILES IDX 23 26 24 27 25 28 26 30 27 31 28 32 89 33 29 34 88 35 30 36
REMARK SMILES IDX 31 37 32 38 82 39 33 40 87 41 81 42 83 43 34 44 86 45 80 46
REMARK SMILES IDX 79 47 35 49 67 50 47 51 66 52 48 53 51 54 65 55 84 56 49 57
REMARK SMILES IDX 50 58 64 60 85 61 52 62 36 63 37 64 45 65 38 66 44 67 46 68
REMARK SMILES IDX 43 69 39 70 40 71 41 72 42 73 68 74 69 75 77 76 70 77 76 78
REMARK SMILES IDX 78 79 75 80 71 81 72 82 73 83 74 84 53 85 54 86 62 87 55 88
REMARK SMILES IDX 61 89 63 90 60 91 56 92 57 93 58 94 59 95
REMARK H PARENT 17 8 10 24 24 29 83 48 51 59
REMARK Flexibility Score: inf
ROOT
ATOM      1  C   UNL A   1      32.790  27.875  25.488  1.00  0.00     0.002 C 
ENDROOT
BRANCH   1   2
ATOM      2  C   UNL A   1      33.893  28.598  24.708  1.00  0.00     0.002 C 
BRANCH   2   3
ATOM      3  C   UNL A   1      33.866  28.376  23.193  1.00  0.00     0.021 C 
BRANCH   3   4
ATOM      4  C   UNL A   1      32.548  27.806  22.675  1.00  0.00     0.116 C 
BRANCH   4   5
ATOM      5  N   UNL A   1      32.765  26.862  21.591  1.00  0.00    -0.353 N 
ATOM      6  C   UNL A   1      32.943  25.503  21.593  1.00  0.00     0.263 C 
ATOM      7  O   UNL A   1      33.135  24.974  20.494  1.00  0.00    -0.270 OA
ATOM      8  H   UNL A   1      32.789  27.272  20.696  1.00  0.00     0.163 HD
BRANCH   6   9
ATOM      9  C   UNL A   1      32.878  24.686  22.915  1.00  0.00     0.184 C 
ATOM     10  C   UNL A   1      32.269  18.740  24.294  1.00  0.00     0.049 C 
ATOM     11  C   UNL A   1      32.757  20.152  24.508  1.00  0.00    -0.002 A 
ATOM     12  C   UNL A   1      32.678  21.079  23.437  1.00  0.00    -0.002 A 
ATOM     13  C   UNL A   1      33.217  20.602  25.763  1.00  0.00     0.122 A 
ATOM     14  C   UNL A   1      32.154  20.648  22.087  1.00  0.00     0.049 C 
ATOM     15  C   UNL A   1      33.085  22.411  23.642  1.00  0.00     0.127 A 
ATOM     16  C   UNL A   1      33.642  21.926  25.964  1.00  0.00    -0.002 A 
ATOM     17  C   UNL A   1      33.602  22.829  24.882  1.00  0.00     0.001 A 
ATOM     18  O   UNL A   1      32.930  23.278  22.581  1.00  0.00    -0.477 OA
ATOM     19  C   UNL A   1      34.115  22.397  27.318  1.00  0.00     0.049 C 
ATOM     20  C   UNL A   1      34.058  24.250  25.071  1.00  0.00     0.044 C 
ATOM     21  C   UNL A   1      34.128  24.981  23.749  1.00  0.00     0.063 C 
ATOM     22  C   UNL A   1      31.497  24.943  23.555  1.00  0.00     0.067 C 
BRANCH  13  23
ATOM     23  O   UNL A   1      33.277  19.780  26.857  1.00  0.00    -0.507 OA
ATOM     24  H   UNL A   1      32.622  19.123  26.986  1.00  0.00     0.293 HD
ENDBRANCH  13  23
ENDBRANCH   6   9
ENDBRANCH   4   5
ENDBRANCH   3   4
ENDBRANCH   2   3
ENDBRANCH   1   2
BRANCH   1  25
ATOM     25  C   UNL A   1      31.690  28.778  26.054  1.00  0.00     0.021 C 
BRANCH  25  26
ATOM     26  C   UNL A   1      32.114  29.626  27.248  1.00  0.00     0.116 C 
BRANCH  26  27
ATOM     27  N   UNL A   1      32.217  31.034  26.904  1.00  0.00    -0.352 N 
ATOM     28  C   UNL A   1      33.185  31.942  27.251  1.00  0.00     0.251 C 
ATOM     29  H   UNL A   1      31.490  31.385  26.342  1.00  0.00     0.163 HD
ATOM     30  O   UNL A   1      32.998  33.139  27.050  1.00  0.00    -0.269 OA
BRANCH  28  31
ATOM     31  C   UNL A   1      34.437  31.476  27.885  1.00  0.00     0.039 A 
ATOM     32  C   UNL A   1      35.379  32.420  28.293  1.00  0.00     0.014 A 
ATOM     33  C   UNL A   1      34.680  30.110  28.069  1.00  0.00     0.014 A 
ATOM     34  C   UNL A   1      36.545  31.997  28.936  1.00  0.00     0.010 A 
ATOM     35  C   UNL A   1      35.809  29.696  28.770  1.00  0.00     0.010 A 
ATOM     36  C   UNL A   1      36.756  30.634  29.204  1.00  0.00    -0.014 A 
BRANCH  36  37
ATOM     37  C   UNL A   1      37.977  30.180  29.916  1.00  0.00     0.031 A 
ATOM     38  C   UNL A   1      38.257  30.668  31.311  1.00  0.00     0.074 A 
ATOM     39  C   UNL A   1      38.838  29.344  29.302  1.00  0.00     0.049 A 
ATOM     40  N   UNL A   1      39.278  30.406  32.086  1.00  0.00    -0.248 NA
ATOM     41  C   UNL A   1      37.272  31.586  31.905  1.00  0.00     0.031 C 
ATOM     42  C   UNL A   1      38.681  28.822  27.943  1.00  0.00     0.029 A 
ATOM     43  N   UNL A   1      40.007  28.777  29.741  1.00  0.00    -0.354 N 
ATOM     44  C   UNL A   1      39.057  31.121  33.257  1.00  0.00     0.074 A 
ATOM     45  C   UNL A   1      37.840  31.879  33.066  1.00  0.00     0.031 C 
ATOM     46  C   UNL A   1      39.691  27.977  27.678  1.00  0.00     0.029 A 
ATOM     47  C   UNL A   1      40.589  27.929  28.828  1.00  0.00     0.049 A 
ATOM     48  H   UNL A   1      40.394  28.962  30.628  1.00  0.00     0.167 HD
ATOM     49  C   UNL A   1      39.785  31.121  34.399  1.00  0.00     0.034 A 
ATOM     50  C   UNL A   1      41.717  27.195  28.908  1.00  0.00     0.034 A 
ATOM     51  C   UNL A   1      40.984  30.347  34.587  1.00  0.00     0.049 A 
ATOM     52  C   UNL A   1      42.537  27.250  30.170  1.00  0.00     0.074 A 
ATOM     53  C   UNL A   1      41.773  30.246  35.719  1.00  0.00     0.029 A 
ATOM     54  N   UNL A   1      41.566  29.539  33.621  1.00  0.00    -0.354 N 
ATOM     55  N   UNL A   1      42.304  27.924  31.272  1.00  0.00    -0.248 NA
ATOM     56  C   UNL A   1      43.770  26.452  30.200  1.00  0.00     0.031 C 
ATOM     57  C   UNL A   1      42.863  29.423  35.420  1.00  0.00     0.029 A 
ATOM     58  C   UNL A   1      42.721  28.961  34.121  1.00  0.00     0.049 A 
ATOM     59  H   UNL A   1      41.211  29.397  32.714  1.00  0.00     0.167 HD
ATOM     60  C   UNL A   1      43.353  27.616  32.132  1.00  0.00     0.074 A 
ATOM     61  C   UNL A   1      44.217  26.693  31.426  1.00  0.00     0.031 C 
ATOM     62  C   UNL A   1      43.577  28.055  33.395  1.00  0.00     0.034 A 
BRANCH  49  63
ATOM     63  C   UNL A   1      39.304  31.988  35.532  1.00  0.00     0.023 A 
ATOM     64  C   UNL A   1      39.734  33.320  35.666  1.00  0.00     0.031 A 
ATOM     65  C   UNL A   1      38.393  31.487  36.478  1.00  0.00     0.131 A 
ATOM     66  C   UNL A   1      39.292  34.090  36.751  1.00  0.00     0.055 A 
ATOM     67  C   UNL A   1      37.906  32.280  37.518  1.00  0.00     0.041 A 
ATOM     68  F   UNL A   1      37.964  30.218  36.406  1.00  0.00    -0.206 F 
ATOM     69  C   UNL A   1      38.361  33.587  37.664  1.00  0.00     0.022 A 
BRANCH  66  70
ATOM     70  S   UNL A   1      40.015  35.734  37.000  1.00  0.00     0.124 S 
ATOM     71  O   UNL A   1      39.322  36.178  38.207  1.00  0.00    -0.237 OA
ATOM     72  O   UNL A   1      41.434  35.437  37.150  1.00  0.00    -0.237 OA
ATOM     73  O   UNL A   1      39.654  36.454  35.781  1.00  0.00    -0.744 OA
ENDBRANCH  66  70
ENDBRANCH  49  63
BRANCH  50  74
ATOM     74  C   UNL A   1      42.135  26.342  27.761  1.00  0.00     0.023 A 
ATOM     75  C   UNL A   1      41.735  25.001  27.677  1.00  0.00     0.031 A 
ATOM     76  C   UNL A   1      42.941  26.860  26.731  1.00  0.00     0.131 A 
ATOM     77  C   UNL A   1      42.158  24.212  26.596  1.00  0.00     0.055 A 
ATOM     78  C   UNL A   1      43.330  26.082  25.640  1.00  0.00     0.041 A 
ATOM     79  F   UNL A   1      43.344  28.141  26.762  1.00  0.00    -0.206 F 
ATOM     80  C   UNL A   1      42.942  24.747  25.570  1.00  0.00     0.022 A 
BRANCH  77  81
ATOM     81  S   UNL A   1      41.691  22.460  26.561  1.00  0.00     0.124 S 
ATOM     82  O   UNL A   1      42.403  21.988  25.379  1.00  0.00    -0.237 OA
ATOM     83  O   UNL A   1      42.191  21.984  27.845  1.00  0.00    -0.237 OA
ATOM     84  O   UNL A   1      40.236  22.499  26.439  1.00  0.00    -0.744 OA
ENDBRANCH  77  81
ENDBRANCH  50  74
BRANCH  62  85
ATOM     85  C   UNL A   1      44.796  27.534  34.107  1.00  0.00     0.023 A 
ATOM     86  C   UNL A   1      44.772  26.310  34.794  1.00  0.00     0.031 A 
ATOM     87  C   UNL A   1      46.012  28.237  34.036  1.00  0.00     0.131 A 
ATOM     88  C   UNL A   1      45.941  25.830  35.402  1.00  0.00     0.055 A 
ATOM     89  C   UNL A   1      47.181  27.736  34.606  1.00  0.00     0.041 A 
ATOM     90  F   UNL A   1      46.085  29.409  33.386  1.00  0.00    -0.206 F 
ATOM     91  C   UNL A   1      47.150  26.526  35.297  1.00  0.00     0.022 A 
BRANCH  88  92
ATOM     92  S   UNL A   1      45.863  24.285  36.346  1.00  0.00     0.124 S 
ATOM     93  O   UNL A   1      47.207  24.209  36.911  1.00  0.00    -0.237 OA
ATOM     94  O   UNL A   1      44.788  24.547  37.297  1.00  0.00    -0.237 OA
ATOM     95  O   UNL A   1      45.559  23.278  35.332  1.00  0.00    -0.744 OA
ENDBRANCH  88  92
ENDBRANCH  62  85
ENDBRANCH  36  37
ENDBRANCH  28  31
ENDBRANCH  26  27
ENDBRANCH  25  26
ENDBRANCH   1  25
TORSDOF 17
ENDMDL
MODEL 3
REMARK VINA RESULT:     -12.3      1.517      1.783
REMARK SMILES Cc1c(C)c2c(c(C)c1O)CC[C@@](C)(C(=O)NCCCCCCNC(=O)c1ccc(-c3c4nc(c(-c5cc(S(=O)(=O)[O-])ccc5F)c5ccc([nH]5)c(-c5cc(S(=O)(=O)[O-])ccc5F)c5nc(c(-c6cc(S(=O)(=O)[O-])ccc6F)c6ccc3[nH]6)C=C5)C=C4)cc1)O2
REMARK SMILES IDX 21 1 20 2 19 3 18 4 17 5 15 6 16 7 13 9 1 10 2 11 3 12 9 13
REMARK SMILES IDX 4 14 5 15 7 16 6 17 90 18 8 19 11 20 12 21 14 22 10 23 22 25
REMARK SMILES IDX 23 26 24 27 25 28 26 30 27 31 28 32 89 33 29 34 88 35 30 36
REMARK SMILES IDX 31 37 32 38 82 39 33 40 87 41 81 42 83 43 34 44 86 45 80 46
REMARK SMILES IDX 79 47 35 49 67 50 47 51 66 52 48 53 51 54 65 55 84 56 49 57
REMARK SMILES IDX 50 58 64 60 85 61 52 62 36 63 37 64 45 65 38 66 44 67 46 68
REMARK SMILES IDX 43 69 39 70 40 71 41 72 42 73 68 74 69 75 77 76 70 77 76 78
REMARK SMILES IDX 78 79 75 80 71 81 72 82 73 83 74 84 53 85 54 86 62 87 55 88
REMARK SMILES IDX 61 89 63 90 60 91 56 92 57 93 58 94 59 95
REMARK H PARENT 17 8 10 24 24 29 83 48 51 59
REMARK Flexibility Score: inf
ROOT
ATOM      1  C   UNL A   1      31.772  29.186  25.928  1.00  0.00     0.002 C 
ENDROOT
BRANCH   1   2
ATOM      2  C   UNL A   1      33.096  28.691  25.334  1.00  0.00     0.002 C 
BRANCH   2   3
ATOM      3  C   UNL A   1      33.198  28.791  23.810  1.00  0.00     0.021 C 
BRANCH   3   4
ATOM      4  C   UNL A   1      32.008  28.186  23.069  1.00  0.00     0.116 C 
BRANCH   4   5
ATOM      5  N   UNL A   1      32.438  27.346  21.964  1.00  0.00    -0.353 N 
ATOM      6  C   UNL A   1      32.830  26.034  21.921  1.00  0.00     0.263 C 
ATOM      7  O   UNL A   1      33.171  25.600  20.816  1.00  0.00    -0.270 OA
ATOM      8  H   UNL A   1      32.452  27.801  21.090  1.00  0.00     0.163 HD
BRANCH   6   9
ATOM      9  C   UNL A   1      32.815  25.148  23.198  1.00  0.00     0.184 C 
ATOM     10  C   UNL A   1      32.315  19.130  24.279  1.00  0.00     0.049 C 
ATOM     11  C   UNL A   1      32.794  20.535  24.553  1.00  0.00    -0.002 A 
ATOM     12  C   UNL A   1      32.672  21.516  23.535  1.00  0.00    -0.002 A 
ATOM     13  C   UNL A   1      33.288  20.924  25.815  1.00  0.00     0.122 A 
ATOM     14  C   UNL A   1      32.111  21.150  22.181  1.00  0.00     0.049 C 
ATOM     15  C   UNL A   1      33.070  22.840  23.798  1.00  0.00     0.127 A 
ATOM     16  C   UNL A   1      33.704  22.242  26.072  1.00  0.00    -0.002 A 
ATOM     17  C   UNL A   1      33.621  23.199  25.042  1.00  0.00     0.001 A 
ATOM     18  O   UNL A   1      32.872  23.760  22.790  1.00  0.00    -0.477 OA
ATOM     19  C   UNL A   1      34.214  22.647  27.435  1.00  0.00     0.049 C 
ATOM     20  C   UNL A   1      34.066  24.614  25.292  1.00  0.00     0.044 C 
ATOM     21  C   UNL A   1      34.087  25.414  24.009  1.00  0.00     0.063 C 
ATOM     22  C   UNL A   1      31.452  25.353  23.893  1.00  0.00     0.067 C 
BRANCH  13  23
ATOM     23  O   UNL A   1      33.391  20.047  26.862  1.00  0.00    -0.507 OA
ATOM     24  H   UNL A   1      33.720  19.182  26.717  1.00  0.00     0.293 HD
ENDBRANCH  13  23
ENDBRANCH   6   9
ENDBRANCH   4   5
ENDBRANCH   3   4
ENDBRANCH   2   3
ENDBRANCH   1   2
BRANCH   1  25
ATOM     25  C   UNL A   1      31.706  30.690  26.215  1.00  0.00     0.021 C 
BRANCH  25  26
ATOM     26  C   UNL A   1      32.780  31.205  27.166  1.00  0.00     0.116 C 
BRANCH  26  27
ATOM     27  N   UNL A   1      32.767  32.654  27.266  1.00  0.00    -0.352 N 
ATOM     28  C   UNL A   1      33.556  33.478  28.027  1.00  0.00     0.251 C 
ATOM     29  H   UNL A   1      32.096  33.109  26.707  1.00  0.00     0.163 HD
ATOM     30  O   UNL A   1      33.262  34.664  28.148  1.00  0.00    -0.269 OA
BRANCH  28  31
ATOM     31  C   UNL A   1      34.744  32.927  28.713  1.00  0.00     0.039 A 
ATOM     32  C   UNL A   1      34.566  32.199  29.891  1.00  0.00     0.014 A 
ATOM     33  C   UNL A   1      36.029  33.135  28.199  1.00  0.00     0.014 A 
ATOM     34  C   UNL A   1      35.674  31.633  30.525  1.00  0.00     0.010 A 
ATOM     35  C   UNL A   1      37.123  32.513  28.794  1.00  0.00     0.010 A 
ATOM     36  C   UNL A   1      36.957  31.762  29.967  1.00  0.00    -0.014 A 
BRANCH  36  37
ATOM     37  C   UNL A   1      38.135  31.135  30.618  1.00  0.00     0.031 A 
ATOM     38  C   UNL A   1      38.518  31.531  32.018  1.00  0.00     0.074 A 
ATOM     39  C   UNL A   1      38.867  30.225  29.945  1.00  0.00     0.049 A 
ATOM     40  N   UNL A   1      39.522  31.117  32.746  1.00  0.00    -0.248 NA
ATOM     41  C   UNL A   1      37.673  32.538  32.679  1.00  0.00     0.031 C 
ATOM     42  C   UNL A   1      38.604  29.778  28.575  1.00  0.00     0.029 A 
ATOM     43  N   UNL A   1      39.971  29.503  30.321  1.00  0.00    -0.354 N 
ATOM     44  C   UNL A   1      39.428  31.808  33.948  1.00  0.00     0.074 A 
ATOM     45  C   UNL A   1      38.309  32.715  33.827  1.00  0.00     0.031 C 
ATOM     46  C   UNL A   1      39.493  28.827  28.245  1.00  0.00     0.029 A 
ATOM     47  C   UNL A   1      40.415  28.626  29.359  1.00  0.00     0.049 A 
ATOM     48  H   UNL A   1      40.406  29.604  31.199  1.00  0.00     0.167 HD
ATOM     49  C   UNL A   1      40.187  31.675  35.062  1.00  0.00     0.034 A 
ATOM     50  C   UNL A   1      41.445  27.757  29.373  1.00  0.00     0.034 A 
ATOM     51  C   UNL A   1      41.287  30.754  35.180  1.00  0.00     0.049 A 
ATOM     52  C   UNL A   1      42.305  27.664  30.605  1.00  0.00     0.074 A 
ATOM     53  C   UNL A   1      42.093  30.514  36.279  1.00  0.00     0.029 A 
ATOM     54  N   UNL A   1      41.734  29.919  34.166  1.00  0.00    -0.354 N 
ATOM     55  N   UNL A   1      42.193  28.318  31.738  1.00  0.00    -0.248 NA
ATOM     56  C   UNL A   1      43.431  26.721  30.564  1.00  0.00     0.031 C 
ATOM     57  C   UNL A   1      43.063  29.577  35.912  1.00  0.00     0.029 A 
ATOM     58  C   UNL A   1      42.824  29.186  34.604  1.00  0.00     0.049 A 
ATOM     59  H   UNL A   1      41.336  29.857  33.268  1.00  0.00     0.167 HD
ATOM     60  C   UNL A   1      43.223  27.851  32.548  1.00  0.00     0.074 A 
ATOM     61  C   UNL A   1      43.943  26.858  31.780  1.00  0.00     0.031 C 
ATOM     62  C   UNL A   1      43.539  28.211  33.817  1.00  0.00     0.034 A 
BRANCH  49  63
ATOM     63  C   UNL A   1      39.853  32.550  36.241  1.00  0.00     0.023 A 
ATOM     64  C   UNL A   1      38.919  32.144  37.210  1.00  0.00     0.031 A 
ATOM     65  C   UNL A   1      40.485  33.794  36.410  1.00  0.00     0.131 A 
ATOM     66  C   UNL A   1      38.607  32.996  38.278  1.00  0.00     0.055 A 
ATOM     67  C   UNL A   1      40.218  34.609  37.511  1.00  0.00     0.041 A 
ATOM     68  F   UNL A   1      41.372  34.237  35.505  1.00  0.00    -0.206 F 
ATOM     69  C   UNL A   1      39.268  34.215  38.449  1.00  0.00     0.022 A 
BRANCH  66  70
ATOM     70  S   UNL A   1      37.261  32.525  39.399  1.00  0.00     0.124 S 
ATOM     71  O   UNL A   1      37.499  33.417  40.531  1.00  0.00    -0.237 OA
ATOM     72  O   UNL A   1      36.072  32.806  38.603  1.00  0.00    -0.237 OA
ATOM     73  O   UNL A   1      37.516  31.111  39.663  1.00  0.00    -0.744 OA
ENDBRANCH  66  70
ENDBRANCH  49  63
BRANCH  50  74
ATOM     74  C   UNL A   1      41.719  26.905  28.183  1.00  0.00     0.023 A 
ATOM     75  C   UNL A   1      41.288  25.571  28.139  1.00  0.00     0.031 A 
ATOM     76  C   UNL A   1      42.415  27.415  27.072  1.00  0.00     0.131 A 
ATOM     77  C   UNL A   1      41.575  24.782  27.014  1.00  0.00     0.055 A 
ATOM     78  C   UNL A   1      42.666  26.638  25.941  1.00  0.00     0.041 A 
ATOM     79  F   UNL A   1      42.840  28.689  27.064  1.00  0.00    -0.206 F 
ATOM     80  C   UNL A   1      42.250  25.310  25.910  1.00  0.00     0.022 A 
BRANCH  77  81
ATOM     81  S   UNL A   1      41.077  23.038  27.023  1.00  0.00     0.124 S 
ATOM     82  O   UNL A   1      41.632  22.578  28.291  1.00  0.00    -0.237 OA
ATOM     83  O   UNL A   1      39.624  23.135  26.954  1.00  0.00    -0.237 OA
ATOM     84  O   UNL A   1      41.719  22.496  25.827  1.00  0.00    -0.744 OA
ENDBRANCH  77  81
ENDBRANCH  50  74
BRANCH  62  85
ATOM     85  C   UNL A   1      44.707  27.519  34.466  1.00  0.00     0.023 A 
ATOM     86  C   UNL A   1      44.532  26.347  35.220  1.00  0.00     0.031 A 
ATOM     87  C   UNL A   1      46.014  27.997  34.266  1.00  0.00     0.131 A 
ATOM     88  C   UNL A   1      45.650  25.699  35.767  1.00  0.00     0.055 A 
ATOM     89  C   UNL A   1      47.124  27.326  34.776  1.00  0.00     0.041 A 
ATOM     90  F   UNL A   1      46.230  29.110  33.548  1.00  0.00    -0.206 F 
ATOM     91  C   UNL A   1      46.945  26.171  35.534  1.00  0.00     0.022 A 
BRANCH  88  92
ATOM     92  S   UNL A   1      45.390  24.233  36.800  1.00  0.00     0.124 S 
ATOM     93  O   UNL A   1      44.778  23.303  35.855  1.00  0.00    -0.237 OA
ATOM     94  O   UNL A   1      46.744  23.902  37.230  1.00  0.00    -0.237 OA
ATOM     95  O   UNL A   1      44.504  24.712  37.859  1.00  0.00    -0.744 OA
ENDBRANCH  88  92
ENDBRANCH  62  85
ENDBRANCH  36  37
ENDBRANCH  28  31
ENDBRANCH  26  27
ENDBRANCH  25  26
ENDBRANCH   1  25
TORSDOF 17
ENDMDL
