MODEL 1
REMARK VINA RESULT:     -10.7      0.000      0.000
REMARK SMILES COc1cc(/C=C/C(=O)NCCCCCCNC(=O)c2ccc(-c3c4nc(c(-c5cc(S(=O)(=O)[O-])ccc5F)c5ccc([nH]5)c(-c5cc(S(=O)(=O)[O-])ccc5F)c5nc(c(-c6cc(S(=O)(=O)[O-])ccc6F)c6ccc3[nH]6)C=C5)C=C4)cc2)cc(OC)c1O
REMARK SMILES IDX 14 1 13 2 12 3 11 4 10 5 8 6 9 7 7 9 6 10 5 11 3 12 4 13
REMARK SMILES IDX 87 14 84 15 83 16 2 17 1 18 88 19 85 21 86 22 15 23 16 24
REMARK SMILES IDX 17 25 18 26 19 28 20 29 21 30 82 31 22 32 81 33 23 34 24 35
REMARK SMILES IDX 25 36 75 37 26 38 80 39 74 40 76 41 27 42 79 43 73 44 72 45
REMARK SMILES IDX 28 47 60 48 40 49 59 50 41 51 44 52 58 53 77 54 42 55 43 56
REMARK SMILES IDX 57 58 78 59 45 60 29 61 30 62 38 63 31 64 37 65 39 66 36 67
REMARK SMILES IDX 32 68 33 69 34 70 35 71 61 72 62 73 70 74 63 75 69 76 71 77
REMARK SMILES IDX 68 78 64 79 65 80 66 81 67 82 46 83 47 84 55 85 48 86 54 87
REMARK SMILES IDX 56 88 53 89 49 90 50 91 51 92 52 93
REMARK H PARENT 10 8 88 20 17 27 76 46 44 57
REMARK Flexibility Score: inf
ROOT
ATOM      1  C   UNL A   1      35.833  20.989  24.933  1.00  0.00     0.002 C 
ENDROOT
BRANCH   1   2
ATOM      2  C   UNL A   1      34.524  20.428  25.502  1.00  0.00     0.002 C 
BRANCH   2   3
ATOM      3  C   UNL A   1      33.400  20.247  24.473  1.00  0.00     0.021 C 
BRANCH   3   4
ATOM      4  C   UNL A   1      32.158  21.084  24.780  1.00  0.00     0.116 C 
BRANCH   4   5
ATOM      5  N   UNL A   1      32.158  21.483  26.175  1.00  0.00    -0.353 N 
ATOM      6  C   UNL A   1      32.327  22.694  26.763  1.00  0.00     0.243 C 
ATOM      7  O   UNL A   1      32.246  22.785  27.987  1.00  0.00    -0.270 OA
ATOM      8  H   UNL A   1      32.012  20.743  26.807  1.00  0.00     0.163 HD
BRANCH   6   9
ATOM      9  C   UNL A   1      32.501  23.928  25.963  1.00  0.00     0.072 C 
ATOM     10  C   UNL A   1      33.428  24.876  26.162  1.00  0.00     0.014 C 
BRANCH  10  11
ATOM     11  C   UNL A   1      33.547  26.085  25.333  1.00  0.00    -0.018 A 
ATOM     12  C   UNL A   1      33.627  27.209  23.165  1.00  0.00     0.165 A 
ATOM     13  C   UNL A   1      33.552  26.041  23.937  1.00  0.00     0.058 A 
ATOM     14  C   UNL A   1      33.695  28.455  23.810  1.00  0.00     0.200 A 
ATOM     15  C   UNL A   1      33.685  28.525  25.212  1.00  0.00     0.165 A 
ATOM     16  C   UNL A   1      33.611  27.336  25.955  1.00  0.00     0.058 A 
BRANCH  12  17
ATOM     17  O   UNL A   1      33.655  26.940  21.822  1.00  0.00    -0.493 OA
ATOM     18  C   UNL A   1      32.782  25.955  21.295  1.00  0.00     0.278 C 
ENDBRANCH  12  17
BRANCH  14  19
ATOM     19  O   UNL A   1      33.823  29.601  23.076  1.00  0.00    -0.502 OA
ATOM     20  H   UNL A   1      33.665  30.433  23.475  1.00  0.00     0.293 HD
ENDBRANCH  14  19
BRANCH  15  21
ATOM     21  O   UNL A   1      33.780  29.631  26.014  1.00  0.00    -0.493 OA
ATOM     22  C   UNL A   1      33.001  29.698  27.197  1.00  0.00     0.278 C 
ENDBRANCH  15  21
ENDBRANCH  10  11
ENDBRANCH   6   9
ENDBRANCH   4   5
ENDBRANCH   3   4
ENDBRANCH   2   3
ENDBRANCH   1   2
BRANCH   1  23
ATOM     23  C   UNL A   1      35.884  22.515  24.820  1.00  0.00     0.021 C 
BRANCH  23  24
ATOM     24  C   UNL A   1      36.932  23.171  25.714  1.00  0.00     0.116 C 
BRANCH  24  25
ATOM     25  N   UNL A   1      38.028  22.259  26.002  1.00  0.00    -0.352 N 
ATOM     26  C   UNL A   1      39.315  22.546  26.384  1.00  0.00     0.251 C 
ATOM     27  H   UNL A   1      37.816  21.302  25.911  1.00  0.00     0.163 HD
ATOM     28  O   UNL A   1      40.177  21.676  26.324  1.00  0.00    -0.269 OA
BRANCH  26  29
ATOM     29  C   UNL A   1      39.653  23.907  26.851  1.00  0.00     0.039 A 
ATOM     30  C   UNL A   1      39.503  24.220  28.203  1.00  0.00     0.014 A 
ATOM     31  C   UNL A   1      40.106  24.878  25.951  1.00  0.00     0.014 A 
ATOM     32  C   UNL A   1      39.855  25.490  28.661  1.00  0.00     0.010 A 
ATOM     33  C   UNL A   1      40.529  26.116  26.422  1.00  0.00     0.010 A 
ATOM     34  C   UNL A   1      40.399  26.439  27.781  1.00  0.00    -0.014 A 
BRANCH  34  35
ATOM     35  C   UNL A   1      40.825  27.780  28.260  1.00  0.00     0.031 A 
ATOM     36  C   UNL A   1      42.288  28.111  28.369  1.00  0.00     0.074 A 
ATOM     37  C   UNL A   1      39.895  28.676  28.646  1.00  0.00     0.049 A 
ATOM     38  N   UNL A   1      42.861  29.193  28.829  1.00  0.00    -0.248 NA
ATOM     39  C   UNL A   1      43.233  27.071  27.931  1.00  0.00     0.031 C 
ATOM     40  C   UNL A   1      38.448  28.455  28.618  1.00  0.00     0.029 A 
ATOM     41  N   UNL A   1      40.026  29.949  29.143  1.00  0.00    -0.354 N 
ATOM     42  C   UNL A   1      44.231  28.963  28.744  1.00  0.00     0.074 A 
ATOM     43  C   UNL A   1      44.397  27.611  28.254  1.00  0.00     0.031 C 
ATOM     44  C   UNL A   1      37.826  29.563  29.052  1.00  0.00     0.029 A 
ATOM     45  C   UNL A   1      38.826  30.553  29.436  1.00  0.00     0.049 A 
ATOM     46  H   UNL A   1      40.897  30.388  29.275  1.00  0.00     0.167 HD
ATOM     47  C   UNL A   1      45.252  29.809  29.024  1.00  0.00     0.034 A 
ATOM     48  C   UNL A   1      38.561  31.764  29.970  1.00  0.00     0.034 A 
ATOM     49  C   UNL A   1      45.065  31.156  29.508  1.00  0.00     0.049 A 
ATOM     50  C   UNL A   1      39.715  32.674  30.309  1.00  0.00     0.074 A 
ATOM     51  C   UNL A   1      46.024  32.116  29.780  1.00  0.00     0.029 A 
ATOM     52  N   UNL A   1      43.835  31.732  29.802  1.00  0.00    -0.354 N 
ATOM     53  N   UNL A   1      41.004  32.460  30.179  1.00  0.00    -0.248 NA
ATOM     54  C   UNL A   1      39.376  33.994  30.857  1.00  0.00     0.031 C 
ATOM     55  C   UNL A   1      45.383  33.240  30.311  1.00  0.00     0.029 A 
ATOM     56  C   UNL A   1      44.014  33.020  30.287  1.00  0.00     0.049 A 
ATOM     57  H   UNL A   1      42.963  31.291  29.684  1.00  0.00     0.167 HD
ATOM     58  C   UNL A   1      41.628  33.632  30.599  1.00  0.00     0.074 A 
ATOM     59  C   UNL A   1      40.572  34.551  30.971  1.00  0.00     0.031 C 
ATOM     60  C   UNL A   1      42.952  33.924  30.666  1.00  0.00     0.034 A 
BRANCH  47  61
ATOM     61  C   UNL A   1      46.659  29.286  28.839  1.00  0.00     0.023 A 
ATOM     62  C   UNL A   1      47.216  29.101  27.561  1.00  0.00     0.031 A 
ATOM     63  C   UNL A   1      47.443  28.938  29.953  1.00  0.00     0.131 A 
ATOM     64  C   UNL A   1      48.479  28.505  27.426  1.00  0.00     0.055 A 
ATOM     65  C   UNL A   1      48.738  28.430  29.813  1.00  0.00     0.041 A 
ATOM     66  F   UNL A   1      46.961  29.070  31.198  1.00  0.00    -0.206 F 
ATOM     67  C   UNL A   1      49.256  28.194  28.544  1.00  0.00     0.022 A 
BRANCH  64  68
ATOM     68  S   UNL A   1      49.023  27.997  25.771  1.00  0.00     0.124 S 
ATOM     69  O   UNL A   1      47.842  28.304  24.967  1.00  0.00    -0.237 OA
ATOM     70  O   UNL A   1      50.187  28.845  25.547  1.00  0.00    -0.237 OA
ATOM     71  O   UNL A   1      49.308  26.572  25.926  1.00  0.00    -0.744 OA
ENDBRANCH  64  68
ENDBRANCH  47  61
BRANCH  48  72
ATOM     72  C   UNL A   1      37.154  32.182  30.228  1.00  0.00     0.023 A 
ATOM     73  C   UNL A   1      36.391  32.815  29.234  1.00  0.00     0.031 A 
ATOM     74  C   UNL A   1      36.561  31.988  31.489  1.00  0.00     0.131 A 
ATOM     75  C   UNL A   1      35.097  33.272  29.530  1.00  0.00     0.055 A 
ATOM     76  C   UNL A   1      35.253  32.394  31.761  1.00  0.00     0.041 A 
ATOM     77  F   UNL A   1      37.243  31.385  32.476  1.00  0.00    -0.206 F 
ATOM     78  C   UNL A   1      34.518  33.053  30.781  1.00  0.00     0.022 A 
BRANCH  75  79
ATOM     79  S   UNL A   1      34.213  34.243  28.279  1.00  0.00     0.124 S 
ATOM     80  O   UNL A   1      35.245  34.436  27.267  1.00  0.00    -0.237 OA
ATOM     81  O   UNL A   1      33.119  33.346  27.918  1.00  0.00    -0.237 OA
ATOM     82  O   UNL A   1      33.813  35.448  29.003  1.00  0.00    -0.744 OA
ENDBRANCH  75  79
ENDBRANCH  48  72
BRANCH  60  83
ATOM     83  C   UNL A   1      43.328  35.315  31.116  1.00  0.00     0.023 A 
ATOM     84  C   UNL A   1      43.488  36.374  30.204  1.00  0.00     0.031 A 
ATOM     85  C   UNL A   1      43.538  35.583  32.480  1.00  0.00     0.131 A 
ATOM     86  C   UNL A   1      43.903  37.633  30.661  1.00  0.00     0.055 A 
ATOM     87  C   UNL A   1      43.884  36.855  32.936  1.00  0.00     0.041 A 
ATOM     88  F   UNL A   1      43.405  34.609  33.396  1.00  0.00    -0.206 F 
ATOM     89  C   UNL A   1      44.083  37.886  32.023  1.00  0.00     0.022 A 
BRANCH  86  90
ATOM     90  S   UNL A   1      44.303  38.915  29.441  1.00  0.00     0.124 S 
ATOM     91  O   UNL A   1      45.559  38.421  28.884  1.00  0.00    -0.237 OA
ATOM     92  O   UNL A   1      43.148  38.869  28.550  1.00  0.00    -0.237 OA
ATOM     93  O   UNL A   1      44.417  40.131  30.245  1.00  0.00    -0.744 OA
ENDBRANCH  86  90
ENDBRANCH  60  83
ENDBRANCH  34  35
ENDBRANCH  26  29
ENDBRANCH  24  25
ENDBRANCH  23  24
ENDBRANCH   1  23
TORSDOF 20
ENDMDL
MODEL 2
REMARK VINA RESULT:     -10.5      4.274      9.637
REMARK SMILES COc1cc(/C=C/C(=O)NCCCCCCNC(=O)c2ccc(-c3c4nc(c(-c5cc(S(=O)(=O)[O-])ccc5F)c5ccc([nH]5)c(-c5cc(S(=O)(=O)[O-])ccc5F)c5nc(c(-c6cc(S(=O)(=O)[O-])ccc6F)c6ccc3[nH]6)C=C5)C=C4)cc2)cc(OC)c1O
REMARK SMILES IDX 14 1 13 2 12 3 11 4 10 5 8 6 9 7 7 9 6 10 5 11 3 12 4 13
REMARK SMILES IDX 87 14 84 15 83 16 2 17 1 18 88 19 85 21 86 22 15 23 16 24
REMARK SMILES IDX 17 25 18 26 19 28 20 29 21 30 82 31 22 32 81 33 23 34 24 35
REMARK SMILES IDX 25 36 75 37 26 38 80 39 74 40 76 41 27 42 79 43 73 44 72 45
REMARK SMILES IDX 28 47 60 48 40 49 59 50 41 51 44 52 58 53 77 54 42 55 43 56
REMARK SMILES IDX 57 58 78 59 45 60 29 61 30 62 38 63 31 64 37 65 39 66 36 67
REMARK SMILES IDX 32 68 33 69 34 70 35 71 61 72 62 73 70 74 63 75 69 76 71 77
REMARK SMILES IDX 68 78 64 79 65 80 66 81 67 82 46 83 47 84 55 85 48 86 54 87
REMARK SMILES IDX 56 88 53 89 49 90 50 91 51 92 52 93
REMARK H PARENT 10 8 88 20 17 27 76 46 44 57
REMARK Flexibility Score: inf
ROOT
ATOM      1  C   UNL A   1      33.108  27.545  24.922  1.00  0.00     0.002 C 
ENDROOT
BRANCH   1   2
ATOM      2  C   UNL A   1      33.233  28.337  23.614  1.00  0.00     0.002 C 
BRANCH   2   3
ATOM      3  C   UNL A   1      31.902  28.622  22.905  1.00  0.00     0.021 C 
BRANCH   3   4
ATOM      4  C   UNL A   1      31.158  27.354  22.482  1.00  0.00     0.116 C 
BRANCH   4   5
ATOM      5  N   UNL A   1      31.784  26.779  21.305  1.00  0.00    -0.353 N 
ATOM      6  C   UNL A   1      32.580  25.692  21.153  1.00  0.00     0.243 C 
ATOM      7  O   UNL A   1      32.962  25.379  20.027  1.00  0.00    -0.270 OA
ATOM      8  H   UNL A   1      31.597  27.265  20.470  1.00  0.00     0.163 HD
BRANCH   6   9
ATOM      9  C   UNL A   1      32.916  24.809  22.293  1.00  0.00     0.072 C 
ATOM     10  C   UNL A   1      34.000  24.905  23.077  1.00  0.00     0.014 C 
BRANCH  10  11
ATOM     11  C   UNL A   1      34.281  23.991  24.195  1.00  0.00    -0.018 A 
ATOM     12  C   UNL A   1      35.663  23.237  26.062  1.00  0.00     0.165 A 
ATOM     13  C   UNL A   1      35.434  24.094  24.976  1.00  0.00     0.058 A 
ATOM     14  C   UNL A   1      34.710  22.254  26.375  1.00  0.00     0.200 A 
ATOM     15  C   UNL A   1      33.541  22.137  25.608  1.00  0.00     0.165 A 
ATOM     16  C   UNL A   1      33.342  23.009  24.526  1.00  0.00     0.058 A 
BRANCH  12  17
ATOM     17  O   UNL A   1      36.867  23.483  26.669  1.00  0.00    -0.493 OA
ATOM     18  C   UNL A   1      38.053  23.448  25.893  1.00  0.00     0.278 C 
ENDBRANCH  12  17
BRANCH  14  19
ATOM     19  O   UNL A   1      34.941  21.376  27.396  1.00  0.00    -0.502 OA
ATOM     20  H   UNL A   1      34.650  20.489  27.326  1.00  0.00     0.293 HD
ENDBRANCH  14  19
BRANCH  15  21
ATOM     21  O   UNL A   1      32.523  21.229  25.733  1.00  0.00    -0.493 OA
ATOM     22  C   UNL A   1      32.678  19.932  25.180  1.00  0.00     0.278 C 
ENDBRANCH  15  21
ENDBRANCH  10  11
ENDBRANCH   6   9
ENDBRANCH   4   5
ENDBRANCH   3   4
ENDBRANCH   2   3
ENDBRANCH   1   2
BRANCH   1  23
ATOM     23  C   UNL A   1      34.015  28.030  26.056  1.00  0.00     0.021 C 
BRANCH  23  24
ATOM     24  C   UNL A   1      33.267  28.685  27.213  1.00  0.00     0.116 C 
BRANCH  24  25
ATOM     25  N   UNL A   1      33.399  30.134  27.177  1.00  0.00    -0.352 N 
ATOM     26  C   UNL A   1      34.373  30.928  27.729  1.00  0.00     0.251 C 
ATOM     27  H   UNL A   1      32.691  30.610  26.688  1.00  0.00     0.163 HD
ATOM     28  O   UNL A   1      34.189  32.135  27.834  1.00  0.00    -0.269 OA
BRANCH  26  29
ATOM     29  C   UNL A   1      35.632  30.316  28.206  1.00  0.00     0.039 A 
ATOM     30  C   UNL A   1      36.743  30.299  27.360  1.00  0.00     0.014 A 
ATOM     31  C   UNL A   1      35.710  29.750  29.482  1.00  0.00     0.014 A 
ATOM     32  C   UNL A   1      37.947  29.758  27.814  1.00  0.00     0.010 A 
ATOM     33  C   UNL A   1      36.931  29.282  29.959  1.00  0.00     0.010 A 
ATOM     34  C   UNL A   1      38.060  29.273  29.127  1.00  0.00    -0.014 A 
BRANCH  34  35
ATOM     35  C   UNL A   1      39.347  28.738  29.643  1.00  0.00     0.031 A 
ATOM     36  C   UNL A   1      40.018  29.395  30.818  1.00  0.00     0.074 A 
ATOM     37  C   UNL A   1      39.934  27.697  29.020  1.00  0.00     0.049 A 
ATOM     38  N   UNL A   1      41.172  29.125  31.371  1.00  0.00    -0.248 NA
ATOM     39  C   UNL A   1      39.309  30.528  31.433  1.00  0.00     0.031 C 
ATOM     40  C   UNL A   1      39.395  27.001  27.851  1.00  0.00     0.029 A 
ATOM     41  N   UNL A   1      41.115  27.046  29.278  1.00  0.00    -0.354 N 
ATOM     42  C   UNL A   1      41.332  30.058  32.391  1.00  0.00     0.074 A 
ATOM     43  C   UNL A   1      40.188  30.942  32.331  1.00  0.00     0.031 C 
ATOM     44  C   UNL A   1      40.228  26.006  27.509  1.00  0.00     0.029 A 
ATOM     45  C   UNL A   1      41.383  26.022  28.400  1.00  0.00     0.049 A 
ATOM     46  H   UNL A   1      41.712  27.289  30.022  1.00  0.00     0.167 HD
ATOM     47  C   UNL A   1      42.328  30.151  33.307  1.00  0.00     0.034 A 
ATOM     48  C   UNL A   1      42.449  25.199  28.312  1.00  0.00     0.034 A 
ATOM     49  C   UNL A   1      43.459  29.256  33.352  1.00  0.00     0.049 A 
ATOM     50  C   UNL A   1      43.562  25.346  29.319  1.00  0.00     0.074 A 
ATOM     51  C   UNL A   1      44.501  29.229  34.262  1.00  0.00     0.029 A 
ATOM     52  N   UNL A   1      43.703  28.235  32.442  1.00  0.00    -0.354 N 
ATOM     53  N   UNL A   1      43.677  26.203  30.307  1.00  0.00    -0.248 NA
ATOM     54  C   UNL A   1      44.685  24.406  29.203  1.00  0.00     0.031 C 
ATOM     55  C   UNL A   1      45.411  28.247  33.859  1.00  0.00     0.029 A 
ATOM     56  C   UNL A   1      44.896  27.597  32.747  1.00  0.00     0.049 A 
ATOM     57  H   UNL A   1      43.115  28.000  31.688  1.00  0.00     0.167 HD
ATOM     58  C   UNL A   1      44.869  25.883  30.951  1.00  0.00     0.074 A 
ATOM     59  C   UNL A   1      45.426  24.746  30.247  1.00  0.00     0.031 C 
ATOM     60  C   UNL A   1      45.448  26.471  32.030  1.00  0.00     0.034 A 
BRANCH  47  61
ATOM     61  C   UNL A   1      42.245  31.278  34.311  1.00  0.00     0.023 A 
ATOM     62  C   UNL A   1      41.283  31.284  35.338  1.00  0.00     0.031 A 
ATOM     63  C   UNL A   1      43.117  32.378  34.225  1.00  0.00     0.131 A 
ATOM     64  C   UNL A   1      41.160  32.400  36.179  1.00  0.00     0.055 A 
ATOM     65  C   UNL A   1      43.049  33.446  35.124  1.00  0.00     0.041 A 
ATOM     66  F   UNL A   1      44.042  32.443  33.256  1.00  0.00    -0.206 F 
ATOM     67  C   UNL A   1      42.055  33.469  36.097  1.00  0.00     0.022 A 
BRANCH  64  68
ATOM     68  S   UNL A   1      39.717  32.504  37.274  1.00  0.00     0.124 S 
ATOM     69  O   UNL A   1      39.089  33.741  36.815  1.00  0.00    -0.237 OA
ATOM     70  O   UNL A   1      39.000  31.272  36.968  1.00  0.00    -0.237 OA
ATOM     71  O   UNL A   1      40.304  32.571  38.611  1.00  0.00    -0.744 OA
ENDBRANCH  64  68
ENDBRANCH  47  61
BRANCH  48  72
ATOM     72  C   UNL A   1      42.523  24.175  27.232  1.00  0.00     0.023 A 
ATOM     73  C   UNL A   1      41.910  22.920  27.378  1.00  0.00     0.031 A 
ATOM     74  C   UNL A   1      43.242  24.422  26.048  1.00  0.00     0.131 A 
ATOM     75  C   UNL A   1      42.065  21.945  26.381  1.00  0.00     0.055 A 
ATOM     76  C   UNL A   1      43.345  23.468  25.033  1.00  0.00     0.041 A 
ATOM     77  F   UNL A   1      43.845  25.605  25.854  1.00  0.00    -0.206 F 
ATOM     78  C   UNL A   1      42.766  22.215  25.203  1.00  0.00     0.022 A 
BRANCH  75  79
ATOM     79  S   UNL A   1      41.413  20.280  26.685  1.00  0.00     0.124 S 
ATOM     80  O   UNL A   1      39.994  20.549  26.886  1.00  0.00    -0.237 OA
ATOM     81  O   UNL A   1      41.766  19.586  25.451  1.00  0.00    -0.237 OA
ATOM     82  O   UNL A   1      42.141  19.842  27.874  1.00  0.00    -0.744 OA
ENDBRANCH  75  79
ENDBRANCH  48  72
BRANCH  60  83
ATOM     83  C   UNL A   1      46.731  25.860  32.541  1.00  0.00     0.023 A 
ATOM     84  C   UNL A   1      47.979  26.162  31.968  1.00  0.00     0.031 A 
ATOM     85  C   UNL A   1      46.701  24.952  33.614  1.00  0.00     0.131 A 
ATOM     86  C   UNL A   1      49.136  25.519  32.433  1.00  0.00     0.055 A 
ATOM     87  C   UNL A   1      47.863  24.367  34.117  1.00  0.00     0.041 A 
ATOM     88  F   UNL A   1      45.537  24.622  34.198  1.00  0.00    -0.206 F 
ATOM     89  C   UNL A   1      49.088  24.639  33.517  1.00  0.00     0.022 A 
BRANCH  86  90
ATOM     90  S   UNL A   1      50.693  25.771  31.536  1.00  0.00     0.124 S 
ATOM     91  O   UNL A   1      50.435  25.074  30.280  1.00  0.00    -0.237 OA
ATOM     92  O   UNL A   1      50.774  27.226  31.454  1.00  0.00    -0.237 OA
ATOM     93  O   UNL A   1      51.692  25.144  32.400  1.00  0.00    -0.744 OA
ENDBRANCH  86  90
ENDBRANCH  60  83
ENDBRANCH  34  35
ENDBRANCH  26  29
ENDBRANCH  24  25
ENDBRANCH  23  24
ENDBRANCH   1  23
TORSDOF 20
ENDMDL
MODEL 3
REMARK VINA RESULT:     -10.4      4.804      9.848
REMARK SMILES COc1cc(/C=C/C(=O)NCCCCCCNC(=O)c2ccc(-c3c4nc(c(-c5cc(S(=O)(=O)[O-])ccc5F)c5ccc([nH]5)c(-c5cc(S(=O)(=O)[O-])ccc5F)c5nc(c(-c6cc(S(=O)(=O)[O-])ccc6F)c6ccc3[nH]6)C=C5)C=C4)cc2)cc(OC)c1O
REMARK SMILES IDX 14 1 13 2 12 3 11 4 10 5 8 6 9 7 7 9 6 10 5 11 3 12 4 13
REMARK SMILES IDX 87 14 84 15 83 16 2 17 1 18 88 19 85 21 86 22 15 23 16 24
REMARK SMILES IDX 17 25 18 26 19 28 20 29 21 30 82 31 22 32 81 33 23 34 24 35
REMARK SMILES IDX 25 36 75 37 26 38 80 39 74 40 76 41 27 42 79 43 73 44 72 45
REMARK SMILES IDX 28 47 60 48 40 49 59 50 41 51 44 52 58 53 77 54 42 55 43 56
REMARK SMILES IDX 57 58 78 59 45 60 29 61 30 62 38 63 31 64 37 65 39 66 36 67
REMARK SMILES IDX 32 68 33 69 34 70 35 71 61 72 62 73 70 74 63 75 69 76 71 77
REMARK SMILES IDX 68 78 64 79 65 80 66 81 67 82 46 83 47 84 55 85 48 86 54 87
REMARK SMILES IDX 56 88 53 89 49 90 50 91 51 92 52 93
REMARK H PARENT 10 8 88 20 17 27 76 46 44 57
REMARK Flexibility Score: inf
ROOT
ATOM      1  C   UNL A   1      31.510  28.032  26.008  1.00  0.00     0.002 C 
ENDROOT
BRANCH   1   2
ATOM      2  C   UNL A   1      30.607  27.407  24.937  1.00  0.00     0.002 C 
BRANCH   2   3
ATOM      3  C   UNL A   1      30.467  28.234  23.651  1.00  0.00     0.021 C 
BRANCH   3   4
ATOM      4  C   UNL A   1      30.928  27.487  22.399  1.00  0.00     0.116 C 
BRANCH   4   5
ATOM      5  N   UNL A   1      32.221  27.988  21.968  1.00  0.00    -0.353 N 
ATOM      6  C   UNL A   1      33.476  27.742  22.422  1.00  0.00     0.243 C 
ATOM      7  O   UNL A   1      34.433  28.267  21.858  1.00  0.00    -0.270 OA
ATOM      8  H   UNL A   1      32.180  28.618  21.214  1.00  0.00     0.163 HD
BRANCH   6   9
ATOM      9  C   UNL A   1      33.731  26.774  23.514  1.00  0.00     0.072 C 
ATOM     10  C   UNL A   1      33.578  25.443  23.444  1.00  0.00     0.014 C 
BRANCH  10  11
ATOM     11  C   UNL A   1      33.845  24.532  24.568  1.00  0.00    -0.018 A 
ATOM     12  C   UNL A   1      35.319  23.054  25.836  1.00  0.00     0.165 A 
ATOM     13  C   UNL A   1      35.073  23.888  24.736  1.00  0.00     0.058 A 
ATOM     14  C   UNL A   1      34.310  22.864  26.794  1.00  0.00     0.200 A 
ATOM     15  C   UNL A   1      33.071  23.507  26.649  1.00  0.00     0.165 A 
ATOM     16  C   UNL A   1      32.855  24.333  25.535  1.00  0.00     0.058 A 
BRANCH  12  17
ATOM     17  O   UNL A   1      36.569  22.495  25.790  1.00  0.00    -0.493 OA
ATOM     18  C   UNL A   1      37.231  22.383  24.542  1.00  0.00     0.278 C 
ENDBRANCH  12  17
BRANCH  14  19
ATOM     19  O   UNL A   1      34.512  22.013  27.844  1.00  0.00    -0.502 OA
ATOM     20  H   UNL A   1      33.890  21.339  28.027  1.00  0.00     0.293 HD
ENDBRANCH  14  19
BRANCH  15  21
ATOM     21  O   UNL A   1      31.962  23.419  27.449  1.00  0.00    -0.493 OA
ATOM     22  C   UNL A   1      30.738  22.970  26.891  1.00  0.00     0.278 C 
ENDBRANCH  15  21
ENDBRANCH  10  11
ENDBRANCH   6   9
ENDBRANCH   4   5
ENDBRANCH   3   4
ENDBRANCH   2   3
ENDBRANCH   1   2
BRANCH   1  23
ATOM     23  C   UNL A   1      31.884  29.495  25.759  1.00  0.00     0.021 C 
BRANCH  23  24
ATOM     24  C   UNL A   1      33.148  29.946  26.486  1.00  0.00     0.116 C 
BRANCH  24  25
ATOM     25  N   UNL A   1      33.107  31.370  26.785  1.00  0.00    -0.352 N 
ATOM     26  C   UNL A   1      33.882  32.094  27.657  1.00  0.00     0.251 C 
ATOM     27  H   UNL A   1      32.429  31.885  26.292  1.00  0.00     0.163 HD
ATOM     28  O   UNL A   1      33.539  33.224  27.984  1.00  0.00    -0.269 OA
BRANCH  26  29
ATOM     29  C   UNL A   1      35.118  31.495  28.206  1.00  0.00     0.039 A 
ATOM     30  C   UNL A   1      36.297  32.242  28.196  1.00  0.00     0.014 A 
ATOM     31  C   UNL A   1      35.113  30.194  28.718  1.00  0.00     0.014 A 
ATOM     32  C   UNL A   1      37.461  31.702  28.747  1.00  0.00     0.010 A 
ATOM     33  C   UNL A   1      36.253  29.688  29.335  1.00  0.00     0.010 A 
ATOM     34  C   UNL A   1      37.442  30.433  29.348  1.00  0.00    -0.014 A 
BRANCH  34  35
ATOM     35  C   UNL A   1      38.658  29.861  29.981  1.00  0.00     0.031 A 
ATOM     36  C   UNL A   1      39.101  30.346  31.335  1.00  0.00     0.074 A 
ATOM     37  C   UNL A   1      39.391  28.948  29.314  1.00  0.00     0.049 A 
ATOM     38  N   UNL A   1      40.167  30.027  32.022  1.00  0.00    -0.248 NA
ATOM     39  C   UNL A   1      38.244  31.348  31.987  1.00  0.00     0.031 C 
ATOM     40  C   UNL A   1      39.080  28.428  27.981  1.00  0.00     0.029 A 
ATOM     41  N   UNL A   1      40.550  28.300  29.661  1.00  0.00    -0.354 N 
ATOM     42  C   UNL A   1      40.114  30.793  33.182  1.00  0.00     0.074 A 
ATOM     43  C   UNL A   1      38.947  31.642  33.069  1.00  0.00     0.031 C 
ATOM     44  C   UNL A   1      40.009  27.523  27.635  1.00  0.00     0.029 A 
ATOM     45  C   UNL A   1      41.008  27.433  28.695  1.00  0.00     0.049 A 
ATOM     46  H   UNL A   1      41.009  28.440  30.520  1.00  0.00     0.167 HD
ATOM     47  C   UNL A   1      40.947  30.771  34.252  1.00  0.00     0.034 A 
ATOM     48  C   UNL A   1      42.116  26.665  28.661  1.00  0.00     0.034 A 
ATOM     49  C   UNL A   1      42.104  29.913  34.346  1.00  0.00     0.049 A 
ATOM     50  C   UNL A   1      43.049  26.685  29.846  1.00  0.00     0.074 A 
ATOM     51  C   UNL A   1      42.991  29.774  35.400  1.00  0.00     0.029 A 
ATOM     52  N   UNL A   1      42.542  29.055  33.346  1.00  0.00    -0.354 N 
ATOM     53  N   UNL A   1      42.961  27.380  30.956  1.00  0.00    -0.248 NA
ATOM     54  C   UNL A   1      44.225  25.808  29.776  1.00  0.00     0.031 C 
ATOM     55  C   UNL A   1      44.004  28.894  35.008  1.00  0.00     0.029 A 
ATOM     56  C   UNL A   1      43.706  28.411  33.743  1.00  0.00     0.049 A 
ATOM     57  H   UNL A   1      42.093  28.923  32.480  1.00  0.00     0.167 HD
ATOM     58  C   UNL A   1      44.053  26.999  31.731  1.00  0.00     0.074 A 
ATOM     59  C   UNL A   1      44.774  26.002  30.966  1.00  0.00     0.031 C 
ATOM     60  C   UNL A   1      44.423  27.428  32.965  1.00  0.00     0.034 A 
BRANCH  47  61
ATOM     61  C   UNL A   1      40.647  31.725  35.386  1.00  0.00     0.023 A 
ATOM     62  C   UNL A   1      39.565  31.516  36.260  1.00  0.00     0.031 A 
ATOM     63  C   UNL A   1      41.433  32.875  35.579  1.00  0.00     0.131 A 
ATOM     64  C   UNL A   1      39.248  32.481  37.227  1.00  0.00     0.055 A 
ATOM     65  C   UNL A   1      41.166  33.787  36.604  1.00  0.00     0.041 A 
ATOM     66  F   UNL A   1      42.466  33.142  34.766  1.00  0.00    -0.206 F 
ATOM     67  C   UNL A   1      40.057  33.602  37.424  1.00  0.00     0.022 A 
BRANCH  64  68
ATOM     68  S   UNL A   1      37.673  32.330  38.116  1.00  0.00     0.124 S 
ATOM     69  O   UNL A   1      38.029  32.846  39.435  1.00  0.00    -0.237 OA
ATOM     70  O   UNL A   1      36.781  33.167  37.322  1.00  0.00    -0.237 OA
ATOM     71  O   UNL A   1      37.390  30.897  38.071  1.00  0.00    -0.744 OA
ENDBRANCH  64  68
ENDBRANCH  47  61
BRANCH  48  72
ATOM     72  C   UNL A   1      42.414  25.824  27.466  1.00  0.00     0.023 A 
ATOM     73  C   UNL A   1      41.984  24.490  27.393  1.00  0.00     0.031 A 
ATOM     74  C   UNL A   1      43.168  26.333  26.393  1.00  0.00     0.131 A 
ATOM     75  C   UNL A   1      42.349  23.697  26.293  1.00  0.00     0.055 A 
ATOM     76  C   UNL A   1      43.479  25.557  25.274  1.00  0.00     0.041 A 
ATOM     77  F   UNL A   1      43.602  27.604  26.409  1.00  0.00    -0.206 F 
ATOM     78  C   UNL A   1      43.080  24.225  25.228  1.00  0.00     0.022 A 
BRANCH  75  79
ATOM     79  S   UNL A   1      41.929  21.932  26.319  1.00  0.00     0.124 S 
ATOM     80  O   UNL A   1      40.501  21.962  26.028  1.00  0.00    -0.237 OA
ATOM     81  O   UNL A   1      42.788  21.401  25.265  1.00  0.00    -0.237 OA
ATOM     82  O   UNL A   1      42.283  21.518  27.675  1.00  0.00    -0.744 OA
ENDBRANCH  75  79
ENDBRANCH  48  72
BRANCH  60  83
ATOM     83  C   UNL A   1      45.641  26.782  33.582  1.00  0.00     0.023 A 
ATOM     84  C   UNL A   1      45.563  25.566  34.283  1.00  0.00     0.031 A 
ATOM     85  C   UNL A   1      46.899  27.400  33.471  1.00  0.00     0.131 A 
ATOM     86  C   UNL A   1      46.709  25.037  34.896  1.00  0.00     0.055 A 
ATOM     87  C   UNL A   1      48.048  26.834  34.024  1.00  0.00     0.041 A 
ATOM     88  F   UNL A   1      47.034  28.565  32.816  1.00  0.00    -0.206 F 
ATOM     89  C   UNL A   1      47.955  25.653  34.754  1.00  0.00     0.022 A 
BRANCH  86  90
ATOM     90  S   UNL A   1      46.533  23.584  35.968  1.00  0.00     0.124 S 
ATOM     91  O   UNL A   1      46.676  22.487  35.017  1.00  0.00    -0.237 OA
ATOM     92  O   UNL A   1      47.631  23.758  36.912  1.00  0.00    -0.237 OA
ATOM     93  O   UNL A   1      45.196  23.739  36.539  1.00  0.00    -0.744 OA
ENDBRANCH  86  90
ENDBRANCH  60  83
ENDBRANCH  34  35
ENDBRANCH  26  29
ENDBRANCH  24  25
ENDBRANCH  23  24
ENDBRANCH   1  23
TORSDOF 20
ENDMDL
