MODEL 1
REMARK VINA RESULT:     -10.2      0.000      0.000
REMARK SMILES C[C@@H]1CC[N@@H+]1[C@@H](CO)C(=O)NCCCCCCNC(=O)c1ccc(-c2c3nc(c(-c4cc(S(=O)(=O)[O-])ccc4F)c4ccc([nH]4)c(-c4cc(S(=O)(=O)[O-])ccc4F)c4nc(c(-c5cc(S(=O)(=O)[O-])ccc5F)c5ccc2[nH]5)C=C4)C=C3)cc1
REMARK SMILES IDX 15 1 14 2 13 3 12 4 11 5 9 6 10 7 6 9 5 10 1 11 2 12 3 13
REMARK SMILES IDX 4 14 7 16 8 17 16 19 17 20 18 21 19 22 20 24 21 25 22 26
REMARK SMILES IDX 83 27 23 28 82 29 24 30 25 31 26 32 76 33 27 34 81 35 75 36
REMARK SMILES IDX 77 37 28 38 80 39 74 40 73 41 29 43 61 44 41 45 60 46 42 47
REMARK SMILES IDX 45 48 59 49 78 50 43 51 44 52 58 54 79 55 46 56 30 57 31 58
REMARK SMILES IDX 39 59 32 60 38 61 40 62 37 63 33 64 34 65 35 66 36 67 62 68
REMARK SMILES IDX 63 69 71 70 64 71 70 72 72 73 69 74 65 75 66 76 67 77 68 78
REMARK SMILES IDX 47 79 48 80 56 81 49 82 55 83 57 84 54 85 50 86 51 87 52 88
REMARK SMILES IDX 53 89
REMARK H PARENT 11 8 5 15 8 18 18 23 77 42 45 53
REMARK Flexibility Score: inf
ROOT
ATOM      1  C   UNL A   1      35.790  23.286  23.353  1.00  0.00     0.002 C 
ENDROOT
BRANCH   1   2
ATOM      2  C   UNL A   1      34.310  22.977  23.615  1.00  0.00     0.002 C 
BRANCH   2   3
ATOM      3  C   UNL A   1      33.366  23.297  22.458  1.00  0.00     0.021 C 
BRANCH   3   4
ATOM      4  C   UNL A   1      32.618  24.621  22.614  1.00  0.00     0.116 C 
BRANCH   4   5
ATOM      5  N   UNL A   1      33.358  25.729  22.041  1.00  0.00    -0.351 N 
ATOM      6  C   UNL A   1      33.375  27.060  22.333  1.00  0.00     0.280 C 
ATOM      7  O   UNL A   1      34.148  27.747  21.647  1.00  0.00    -0.268 OA
ATOM      8  H   UNL A   1      33.962  25.471  21.307  1.00  0.00     0.163 HD
BRANCH   6   9
ATOM      9  C   UNL A   1      32.528  27.732  23.455  1.00  0.00     0.300 C 
BRANCH   9  10
ATOM     10  N   UNL A   1      33.409  28.166  24.576  1.00  0.00    -0.320 N 
ATOM     11  C   UNL A   1      33.051  25.969  25.936  1.00  0.00     0.075 C 
ATOM     12  C   UNL A   1      33.319  27.454  25.886  1.00  0.00     0.187 C 
ATOM     13  C   UNL A   1      32.290  28.511  26.339  1.00  0.00     0.126 C 
ATOM     14  C   UNL A   1      32.999  29.393  25.296  1.00  0.00     0.269 C 
ATOM     15  H   UNL A   1      34.259  28.110  24.016  1.00  0.00     0.349 HD
ENDBRANCH   9  10
BRANCH   9  16
ATOM     16  C   UNL A   1      31.274  28.441  22.872  1.00  0.00     0.231 C 
BRANCH  16  17
ATOM     17  O   UNL A   1      31.507  29.522  21.986  1.00  0.00    -0.390 OA
ATOM     18  H   UNL A   1      32.137  29.250  21.302  1.00  0.00     0.210 HD
ENDBRANCH  16  17
ENDBRANCH   9  16
ENDBRANCH   6   9
ENDBRANCH   4   5
ENDBRANCH   3   4
ENDBRANCH   2   3
ENDBRANCH   1   2
BRANCH   1  19
ATOM     19  C   UNL A   1      36.792  22.238  23.850  1.00  0.00     0.021 C 
BRANCH  19  20
ATOM     20  C   UNL A   1      37.047  22.240  25.355  1.00  0.00     0.116 C 
BRANCH  20  21
ATOM     21  N   UNL A   1      38.044  21.256  25.743  1.00  0.00    -0.352 N 
ATOM     22  C   UNL A   1      39.304  21.436  26.254  1.00  0.00     0.251 C 
ATOM     23  H   UNL A   1      37.774  20.318  25.618  1.00  0.00     0.163 HD
ATOM     24  O   UNL A   1      40.071  20.481  26.325  1.00  0.00    -0.269 OA
BRANCH  22  25
ATOM     25  C   UNL A   1      39.742  22.776  26.699  1.00  0.00     0.039 A 
ATOM     26  C   UNL A   1      40.670  22.870  27.740  1.00  0.00     0.014 A 
ATOM     27  C   UNL A   1      39.227  23.936  26.112  1.00  0.00     0.014 A 
ATOM     28  C   UNL A   1      41.131  24.124  28.147  1.00  0.00     0.010 A 
ATOM     29  C   UNL A   1      39.732  25.183  26.479  1.00  0.00     0.010 A 
ATOM     30  C   UNL A   1      40.692  25.289  27.497  1.00  0.00    -0.014 A 
BRANCH  30  31
ATOM     31  C   UNL A   1      41.240  26.622  27.861  1.00  0.00     0.031 A 
ATOM     32  C   UNL A   1      42.672  26.964  27.551  1.00  0.00     0.074 A 
ATOM     33  C   UNL A   1      40.460  27.501  28.520  1.00  0.00     0.049 A 
ATOM     34  N   UNL A   1      43.350  28.042  27.853  1.00  0.00    -0.248 NA
ATOM     35  C   UNL A   1      43.451  25.946  26.828  1.00  0.00     0.031 C 
ATOM     36  C   UNL A   1      39.066  27.269  28.906  1.00  0.00     0.029 A 
ATOM     37  N   UNL A   1      40.727  28.762  28.993  1.00  0.00    -0.354 N 
ATOM     38  C   UNL A   1      44.635  27.833  27.363  1.00  0.00     0.074 A 
ATOM     39  C   UNL A   1      44.655  26.501  26.795  1.00  0.00     0.031 C 
ATOM     40  C   UNL A   1      38.597  28.356  29.539  1.00  0.00     0.029 A 
ATOM     41  C   UNL A   1      39.665  29.345  29.646  1.00  0.00     0.049 A 
ATOM     42  H   UNL A   1      41.596  29.208  28.876  1.00  0.00     0.167 HD
ATOM     43  C   UNL A   1      45.693  28.682  27.368  1.00  0.00     0.034 A 
ATOM     44  C   UNL A   1      39.567  30.534  30.274  1.00  0.00     0.034 A 
ATOM     45  C   UNL A   1      45.654  30.010  27.933  1.00  0.00     0.049 A 
ATOM     46  C   UNL A   1      40.766  31.446  30.292  1.00  0.00     0.074 A 
ATOM     47  C   UNL A   1      46.652  30.970  27.948  1.00  0.00     0.029 A 
ATOM     48  N   UNL A   1      44.562  30.565  28.587  1.00  0.00    -0.354 N 
ATOM     49  N   UNL A   1      41.961  31.251  29.783  1.00  0.00    -0.248 NA
ATOM     50  C   UNL A   1      40.602  32.743  30.961  1.00  0.00     0.031 C 
ATOM     51  C   UNL A   1      46.187  32.077  28.666  1.00  0.00     0.029 A 
ATOM     52  C   UNL A   1      44.873  31.840  29.037  1.00  0.00     0.049 A 
ATOM     53  H   UNL A   1      43.693  30.120  28.714  1.00  0.00     0.167 HD
ATOM     54  C   UNL A   1      42.679  32.414  30.047  1.00  0.00     0.074 A 
ATOM     55  C   UNL A   1      41.779  33.310  30.742  1.00  0.00     0.031 C 
ATOM     56  C   UNL A   1      43.967  32.717  29.741  1.00  0.00     0.034 A 
BRANCH  43  57
ATOM     57  C   UNL A   1      46.986  28.188  26.767  1.00  0.00     0.023 A 
ATOM     58  C   UNL A   1      47.199  28.184  25.377  1.00  0.00     0.031 A 
ATOM     59  C   UNL A   1      48.017  27.704  27.591  1.00  0.00     0.131 A 
ATOM     60  C   UNL A   1      48.384  27.649  24.851  1.00  0.00     0.055 A 
ATOM     61  C   UNL A   1      49.226  27.244  27.065  1.00  0.00     0.041 A 
ATOM     62  F   UNL A   1      47.865  27.664  28.925  1.00  0.00    -0.206 F 
ATOM     63  C   UNL A   1      49.410  27.201  25.686  1.00  0.00     0.022 A 
BRANCH  60  64
ATOM     64  S   UNL A   1      48.515  27.430  23.055  1.00  0.00     0.124 S 
ATOM     65  O   UNL A   1      47.338  28.156  22.584  1.00  0.00    -0.237 OA
ATOM     66  O   UNL A   1      49.805  28.040  22.756  1.00  0.00    -0.237 OA
ATOM     67  O   UNL A   1      48.455  25.980  22.881  1.00  0.00    -0.744 OA
ENDBRANCH  60  64
ENDBRANCH  43  57
BRANCH  44  68
ATOM     68  C   UNL A   1      38.300  30.929  30.954  1.00  0.00     0.023 A 
ATOM     69  C   UNL A   1      37.269  31.570  30.248  1.00  0.00     0.031 A 
ATOM     70  C   UNL A   1      38.123  30.721  32.334  1.00  0.00     0.131 A 
ATOM     71  C   UNL A   1      36.133  32.028  30.931  1.00  0.00     0.055 A 
ATOM     72  C   UNL A   1      36.966  31.130  32.999  1.00  0.00     0.041 A 
ATOM     73  F   UNL A   1      39.075  30.110  33.056  1.00  0.00    -0.206 F 
ATOM     74  C   UNL A   1      35.968  31.801  32.300  1.00  0.00     0.022 A 
BRANCH  71  75
ATOM     75  S   UNL A   1      34.914  33.017  30.022  1.00  0.00     0.124 S 
ATOM     76  O   UNL A   1      34.059  33.501  31.100  1.00  0.00    -0.237 OA
ATOM     77  O   UNL A   1      35.759  34.015  29.375  1.00  0.00    -0.237 OA
ATOM     78  O   UNL A   1      34.295  32.047  29.121  1.00  0.00    -0.744 OA
ENDBRANCH  71  75
ENDBRANCH  44  68
BRANCH  56  79
ATOM     79  C   UNL A   1      44.455  34.090  30.128  1.00  0.00     0.023 A 
ATOM     80  C   UNL A   1      45.077  34.330  31.366  1.00  0.00     0.031 A 
ATOM     81  C   UNL A   1      44.279  35.177  29.254  1.00  0.00     0.131 A 
ATOM     82  C   UNL A   1      45.447  35.637  31.719  1.00  0.00     0.055 A 
ATOM     83  C   UNL A   1      44.703  36.464  29.586  1.00  0.00     0.041 A 
ATOM     84  F   UNL A   1      43.689  35.004  28.060  1.00  0.00    -0.206 F 
ATOM     85  C   UNL A   1      45.280  36.703  30.830  1.00  0.00     0.022 A 
BRANCH  82  86
ATOM     86  S   UNL A   1      46.071  35.942  33.395  1.00  0.00     0.124 S 
ATOM     87  O   UNL A   1      47.126  36.921  33.152  1.00  0.00    -0.237 OA
ATOM     88  O   UNL A   1      44.885  36.441  34.084  1.00  0.00    -0.237 OA
ATOM     89  O   UNL A   1      46.534  34.627  33.834  1.00  0.00    -0.744 OA
ENDBRANCH  82  86
ENDBRANCH  56  79
ENDBRANCH  30  31
ENDBRANCH  22  25
ENDBRANCH  20  21
ENDBRANCH  19  20
ENDBRANCH   1  19
TORSDOF 19
ENDMDL
MODEL 2
REMARK VINA RESULT:     -10.0      1.940      2.362
REMARK SMILES C[C@@H]1CC[N@@H+]1[C@@H](CO)C(=O)NCCCCCCNC(=O)c1ccc(-c2c3nc(c(-c4cc(S(=O)(=O)[O-])ccc4F)c4ccc([nH]4)c(-c4cc(S(=O)(=O)[O-])ccc4F)c4nc(c(-c5cc(S(=O)(=O)[O-])ccc5F)c5ccc2[nH]5)C=C4)C=C3)cc1
REMARK SMILES IDX 15 1 14 2 13 3 12 4 11 5 9 6 10 7 6 9 5 10 1 11 2 12 3 13
REMARK SMILES IDX 4 14 7 16 8 17 16 19 17 20 18 21 19 22 20 24 21 25 22 26
REMARK SMILES IDX 83 27 23 28 82 29 24 30 25 31 26 32 76 33 27 34 81 35 75 36
REMARK SMILES IDX 77 37 28 38 80 39 74 40 73 41 29 43 61 44 41 45 60 46 42 47
REMARK SMILES IDX 45 48 59 49 78 50 43 51 44 52 58 54 79 55 46 56 30 57 31 58
REMARK SMILES IDX 39 59 32 60 38 61 40 62 37 63 33 64 34 65 35 66 36 67 62 68
REMARK SMILES IDX 63 69 71 70 64 71 70 72 72 73 69 74 65 75 66 76 67 77 68 78
REMARK SMILES IDX 47 79 48 80 56 81 49 82 55 83 57 84 54 85 50 86 51 87 52 88
REMARK SMILES IDX 53 89
REMARK H PARENT 11 8 5 15 8 18 18 23 77 42 45 53
REMARK Flexibility Score: inf
ROOT
ATOM      1  C   UNL A   1      34.526  20.754  24.810  1.00  0.00     0.002 C 
ENDROOT
BRANCH   1   2
ATOM      2  C   UNL A   1      33.266  21.595  25.056  1.00  0.00     0.002 C 
BRANCH   2   3
ATOM      3  C   UNL A   1      32.290  21.659  23.884  1.00  0.00     0.021 C 
BRANCH   3   4
ATOM      4  C   UNL A   1      32.310  22.988  23.129  1.00  0.00     0.116 C 
BRANCH   4   5
ATOM      5  N   UNL A   1      33.113  23.984  23.813  1.00  0.00    -0.351 N 
ATOM      6  C   UNL A   1      33.135  25.344  23.737  1.00  0.00     0.280 C 
ATOM      7  O   UNL A   1      33.950  25.907  24.483  1.00  0.00    -0.268 OA
ATOM      8  H   UNL A   1      33.761  23.607  24.452  1.00  0.00     0.163 HD
BRANCH   6   9
ATOM      9  C   UNL A   1      32.208  26.195  22.817  1.00  0.00     0.300 C 
BRANCH   9  10
ATOM     10  N   UNL A   1      31.703  27.387  23.556  1.00  0.00    -0.320 N 
ATOM     11  C   UNL A   1      29.504  26.203  24.309  1.00  0.00     0.075 C 
ATOM     12  C   UNL A   1      30.256  27.453  23.922  1.00  0.00     0.187 C 
ATOM     13  C   UNL A   1      30.003  28.213  22.603  1.00  0.00     0.126 C 
ATOM     14  C   UNL A   1      31.483  28.612  22.753  1.00  0.00     0.269 C 
ATOM     15  H   UNL A   1      32.417  27.321  24.281  1.00  0.00     0.349 HD
ENDBRANCH   9  10
BRANCH   9  16
ATOM     16  C   UNL A   1      32.629  26.080  21.326  1.00  0.00     0.231 C 
BRANCH  16  17
ATOM     17  O   UNL A   1      31.587  25.914  20.380  1.00  0.00    -0.390 OA
ATOM     18  H   UNL A   1      30.732  26.072  20.809  1.00  0.00     0.210 HD
ENDBRANCH  16  17
ENDBRANCH   9  16
ENDBRANCH   6   9
ENDBRANCH   4   5
ENDBRANCH   3   4
ENDBRANCH   2   3
ENDBRANCH   1   2
BRANCH   1  19
ATOM     19  C   UNL A   1      35.814  21.538  24.539  1.00  0.00     0.021 C 
BRANCH  19  20
ATOM     20  C   UNL A   1      36.679  21.819  25.766  1.00  0.00     0.116 C 
BRANCH  20  21
ATOM     21  N   UNL A   1      37.742  20.840  25.922  1.00  0.00    -0.352 N 
ATOM     22  C   UNL A   1      39.078  21.026  26.175  1.00  0.00     0.251 C 
ATOM     23  H   UNL A   1      37.460  19.902  25.831  1.00  0.00     0.163 HD
ATOM     24  O   UNL A   1      39.851  20.081  26.068  1.00  0.00    -0.269 OA
BRANCH  22  25
ATOM     25  C   UNL A   1      39.583  22.362  26.556  1.00  0.00     0.039 A 
ATOM     26  C   UNL A   1      40.610  22.449  27.500  1.00  0.00     0.014 A 
ATOM     27  C   UNL A   1      39.037  23.526  26.004  1.00  0.00     0.014 A 
ATOM     28  C   UNL A   1      41.133  23.698  27.843  1.00  0.00     0.010 A 
ATOM     29  C   UNL A   1      39.601  24.766  26.302  1.00  0.00     0.010 A 
ATOM     30  C   UNL A   1      40.657  24.864  27.221  1.00  0.00    -0.014 A 
BRANCH  30  31
ATOM     31  C   UNL A   1      41.265  26.189  27.510  1.00  0.00     0.031 A 
ATOM     32  C   UNL A   1      42.645  26.516  27.010  1.00  0.00     0.074 A 
ATOM     33  C   UNL A   1      40.591  27.074  28.271  1.00  0.00     0.049 A 
ATOM     34  N   UNL A   1      43.370  27.585  27.219  1.00  0.00    -0.248 NA
ATOM     35  C   UNL A   1      43.307  25.493  26.185  1.00  0.00     0.031 C 
ATOM     36  C   UNL A   1      39.260  26.856  28.842  1.00  0.00     0.029 A 
ATOM     37  N   UNL A   1      40.934  28.331  28.707  1.00  0.00    -0.354 N 
ATOM     38  C   UNL A   1      44.574  27.365  26.560  1.00  0.00     0.074 A 
ATOM     39  C   UNL A   1      44.501  26.035  25.991  1.00  0.00     0.031 C 
ATOM     40  C   UNL A   1      38.893  27.946  29.535  1.00  0.00     0.029 A 
ATOM     41  C   UNL A   1      39.977  28.922  29.499  1.00  0.00     0.049 A 
ATOM     42  H   UNL A   1      41.785  28.767  28.473  1.00  0.00     0.167 HD
ATOM     43  C   UNL A   1      45.633  28.201  26.423  1.00  0.00     0.034 A 
ATOM     44  C   UNL A   1      39.979  30.110  30.137  1.00  0.00     0.034 A 
ATOM     45  C   UNL A   1      45.687  29.527  26.991  1.00  0.00     0.049 A 
ATOM     46  C   UNL A   1      41.180  31.009  29.995  1.00  0.00     0.074 A 
ATOM     47  C   UNL A   1      46.688  30.476  26.873  1.00  0.00     0.029 A 
ATOM     48  N   UNL A   1      44.699  30.093  27.789  1.00  0.00    -0.354 N 
ATOM     49  N   UNL A   1      42.293  30.802  29.327  1.00  0.00    -0.248 NA
ATOM     50  C   UNL A   1      41.123  32.305  30.683  1.00  0.00     0.031 C 
ATOM     51  C   UNL A   1      46.338  31.586  27.650  1.00  0.00     0.029 A 
ATOM     52  C   UNL A   1      45.083  31.362  28.195  1.00  0.00     0.049 A 
ATOM     53  H   UNL A   1      43.851  29.656  28.031  1.00  0.00     0.167 HD
ATOM     54  C   UNL A   1      43.053  31.956  29.495  1.00  0.00     0.074 A 
ATOM     55  C   UNL A   1      42.266  32.859  30.307  1.00  0.00     0.031 C 
ATOM     56  C   UNL A   1      44.291  32.246  29.018  1.00  0.00     0.034 A 
BRANCH  43  57
ATOM     57  C   UNL A   1      46.827  27.696  25.651  1.00  0.00     0.023 A 
ATOM     58  C   UNL A   1      47.041  28.052  24.307  1.00  0.00     0.031 A 
ATOM     59  C   UNL A   1      47.760  26.838  26.261  1.00  0.00     0.131 A 
ATOM     60  C   UNL A   1      48.121  27.503  23.600  1.00  0.00     0.055 A 
ATOM     61  C   UNL A   1      48.876  26.356  25.574  1.00  0.00     0.041 A 
ATOM     62  F   UNL A   1      47.598  26.447  27.535  1.00  0.00    -0.206 F 
ATOM     63  C   UNL A   1      49.054  26.677  24.231  1.00  0.00     0.022 A 
BRANCH  60  64
ATOM     64  S   UNL A   1      48.219  27.783  21.812  1.00  0.00     0.124 S 
ATOM     65  O   UNL A   1      48.515  26.440  21.319  1.00  0.00    -0.237 OA
ATOM     66  O   UNL A   1      46.891  28.300  21.500  1.00  0.00    -0.237 OA
ATOM     67  O   UNL A   1      49.311  28.745  21.674  1.00  0.00    -0.744 OA
ENDBRANCH  60  64
ENDBRANCH  43  57
BRANCH  44  68
ATOM     68  C   UNL A   1      38.821  30.517  30.984  1.00  0.00     0.023 A 
ATOM     69  C   UNL A   1      37.701  31.151  30.422  1.00  0.00     0.031 A 
ATOM     70  C   UNL A   1      38.840  30.326  32.377  1.00  0.00     0.131 A 
ATOM     71  C   UNL A   1      36.673  31.620  31.252  1.00  0.00     0.055 A 
ATOM     72  C   UNL A   1      37.788  30.746  33.193  1.00  0.00     0.041 A 
ATOM     73  F   UNL A   1      39.884  29.722  32.966  1.00  0.00    -0.206 F 
ATOM     74  C   UNL A   1      36.702  31.411  32.633  1.00  0.00     0.022 A 
BRANCH  71  75
ATOM     75  S   UNL A   1      35.338  32.601  30.511  1.00  0.00     0.124 S 
ATOM     76  O   UNL A   1      35.019  31.819  29.322  1.00  0.00    -0.237 OA
ATOM     77  O   UNL A   1      34.336  32.595  31.572  1.00  0.00    -0.237 OA
ATOM     78  O   UNL A   1      35.968  33.894  30.258  1.00  0.00    -0.744 OA
ENDBRANCH  71  75
ENDBRANCH  44  68
BRANCH  56  79
ATOM     79  C   UNL A   1      44.843  33.612  29.338  1.00  0.00     0.023 A 
ATOM     80  C   UNL A   1      44.626  34.713  28.490  1.00  0.00     0.031 A 
ATOM     81  C   UNL A   1      45.612  33.811  30.498  1.00  0.00     0.131 A 
ATOM     82  C   UNL A   1      45.221  35.949  28.785  1.00  0.00     0.055 A 
ATOM     83  C   UNL A   1      46.152  35.058  30.816  1.00  0.00     0.041 A 
ATOM     84  F   UNL A   1      45.853  32.795  31.341  1.00  0.00    -0.206 F 
ATOM     85  C   UNL A   1      45.969  36.133  29.951  1.00  0.00     0.022 A 
BRANCH  82  86
ATOM     86  S   UNL A   1      45.079  37.293  27.576  1.00  0.00     0.124 S 
ATOM     87  O   UNL A   1      45.355  38.468  28.396  1.00  0.00    -0.237 OA
ATOM     88  O   UNL A   1      46.104  36.944  26.597  1.00  0.00    -0.237 OA
ATOM     89  O   UNL A   1      43.703  37.180  27.096  1.00  0.00    -0.744 OA
ENDBRANCH  82  86
ENDBRANCH  56  79
ENDBRANCH  30  31
ENDBRANCH  22  25
ENDBRANCH  20  21
ENDBRANCH  19  20
ENDBRANCH   1  19
TORSDOF 19
ENDMDL
MODEL 3
REMARK VINA RESULT:     -10.0      1.788      7.961
REMARK SMILES C[C@@H]1CC[N@@H+]1[C@@H](CO)C(=O)NCCCCCCNC(=O)c1ccc(-c2c3nc(c(-c4cc(S(=O)(=O)[O-])ccc4F)c4ccc([nH]4)c(-c4cc(S(=O)(=O)[O-])ccc4F)c4nc(c(-c5cc(S(=O)(=O)[O-])ccc5F)c5ccc2[nH]5)C=C4)C=C3)cc1
REMARK SMILES IDX 15 1 14 2 13 3 12 4 11 5 9 6 10 7 6 9 5 10 1 11 2 12 3 13
REMARK SMILES IDX 4 14 7 16 8 17 16 19 17 20 18 21 19 22 20 24 21 25 22 26
REMARK SMILES IDX 83 27 23 28 82 29 24 30 25 31 26 32 76 33 27 34 81 35 75 36
REMARK SMILES IDX 77 37 28 38 80 39 74 40 73 41 29 43 61 44 41 45 60 46 42 47
REMARK SMILES IDX 45 48 59 49 78 50 43 51 44 52 58 54 79 55 46 56 30 57 31 58
REMARK SMILES IDX 39 59 32 60 38 61 40 62 37 63 33 64 34 65 35 66 36 67 62 68
REMARK SMILES IDX 63 69 71 70 64 71 70 72 72 73 69 74 65 75 66 76 67 77 68 78
REMARK SMILES IDX 47 79 48 80 56 81 49 82 55 83 57 84 54 85 50 86 51 87 52 88
REMARK SMILES IDX 53 89
REMARK H PARENT 11 8 5 15 8 18 18 23 77 42 45 53
REMARK Flexibility Score: inf
ROOT
ATOM      1  C   UNL A   1      34.454  22.210  24.215  1.00  0.00     0.002 C 
ENDROOT
BRANCH   1   2
ATOM      2  C   UNL A   1      33.830  22.972  23.038  1.00  0.00     0.002 C 
BRANCH   2   3
ATOM      3  C   UNL A   1      33.238  24.335  23.389  1.00  0.00     0.021 C 
BRANCH   3   4
ATOM      4  C   UNL A   1      32.704  25.109  22.184  1.00  0.00     0.116 C 
BRANCH   4   5
ATOM      5  N   UNL A   1      33.518  26.270  21.884  1.00  0.00    -0.351 N 
ATOM      6  C   UNL A   1      33.489  27.550  22.353  1.00  0.00     0.280 C 
ATOM      7  O   UNL A   1      34.354  28.308  21.889  1.00  0.00    -0.268 OA
ATOM      8  H   UNL A   1      34.225  26.103  21.219  1.00  0.00     0.163 HD
BRANCH   6   9
ATOM      9  C   UNL A   1      32.482  28.079  23.418  1.00  0.00     0.300 C 
BRANCH   9  10
ATOM     10  N   UNL A   1      33.216  28.677  24.569  1.00  0.00    -0.320 N 
ATOM     11  C   UNL A   1      33.167  26.474  25.966  1.00  0.00     0.075 C 
ATOM     12  C   UNL A   1      33.180  27.982  25.891  1.00  0.00     0.187 C 
ATOM     13  C   UNL A   1      31.963  28.854  26.266  1.00  0.00     0.126 C 
ATOM     14  C   UNL A   1      32.566  29.827  25.237  1.00  0.00     0.269 C 
ATOM     15  H   UNL A   1      34.092  28.758  24.053  1.00  0.00     0.349 HD
ENDBRANCH   9  10
BRANCH   9  16
ATOM     16  C   UNL A   1      31.155  28.549  22.760  1.00  0.00     0.231 C 
BRANCH  16  17
ATOM     17  O   UNL A   1      30.682  27.788  21.663  1.00  0.00    -0.390 OA
ATOM     18  H   UNL A   1      30.466  26.890  21.962  1.00  0.00     0.210 HD
ENDBRANCH  16  17
ENDBRANCH   9  16
ENDBRANCH   6   9
ENDBRANCH   4   5
ENDBRANCH   3   4
ENDBRANCH   2   3
ENDBRANCH   1   2
BRANCH   1  19
ATOM     19  C   UNL A   1      35.984  22.225  24.289  1.00  0.00     0.021 C 
BRANCH  19  20
ATOM     20  C   UNL A   1      36.572  22.119  25.694  1.00  0.00     0.116 C 
BRANCH  20  21
ATOM     21  N   UNL A   1      37.549  21.048  25.799  1.00  0.00    -0.352 N 
ATOM     22  C   UNL A   1      38.897  21.108  26.045  1.00  0.00     0.251 C 
ATOM     23  H   UNL A   1      37.188  20.141  25.673  1.00  0.00     0.163 HD
ATOM     24  O   UNL A   1      39.587  20.106  25.891  1.00  0.00    -0.269 OA
BRANCH  22  25
ATOM     25  C   UNL A   1      39.518  22.380  26.474  1.00  0.00     0.039 A 
ATOM     26  C   UNL A   1      40.554  22.341  27.411  1.00  0.00     0.014 A 
ATOM     27  C   UNL A   1      39.070  23.608  25.975  1.00  0.00     0.014 A 
ATOM     28  C   UNL A   1      41.184  23.525  27.798  1.00  0.00     0.010 A 
ATOM     29  C   UNL A   1      39.740  24.782  26.316  1.00  0.00     0.010 A 
ATOM     30  C   UNL A   1      40.806  24.752  27.229  1.00  0.00    -0.014 A 
BRANCH  30  31
ATOM     31  C   UNL A   1      41.527  26.008  27.565  1.00  0.00     0.031 A 
ATOM     32  C   UNL A   1      40.848  27.078  28.375  1.00  0.00     0.074 A 
ATOM     33  C   UNL A   1      42.772  26.203  27.090  1.00  0.00     0.049 A 
ATOM     34  N   UNL A   1      41.284  28.267  28.706  1.00  0.00    -0.248 NA
ATOM     35  C   UNL A   1      39.490  26.781  28.854  1.00  0.00     0.031 C 
ATOM     36  C   UNL A   1      43.520  25.251  26.264  1.00  0.00     0.029 A 
ATOM     37  N   UNL A   1      43.629  27.268  27.221  1.00  0.00    -0.354 N 
ATOM     38  C   UNL A   1      40.255  28.863  29.427  1.00  0.00     0.074 A 
ATOM     39  C   UNL A   1      39.152  27.924  29.435  1.00  0.00     0.031 C 
ATOM     40  C   UNL A   1      44.727  25.768  25.979  1.00  0.00     0.029 A 
ATOM     41  C   UNL A   1      44.825  27.103  26.560  1.00  0.00     0.049 A 
ATOM     42  H   UNL A   1      43.409  28.075  27.740  1.00  0.00     0.167 HD
ATOM     43  C   UNL A   1      40.239  30.071  30.043  1.00  0.00     0.034 A 
ATOM     44  C   UNL A   1      45.874  27.938  26.424  1.00  0.00     0.034 A 
ATOM     45  C   UNL A   1      41.350  30.993  30.032  1.00  0.00     0.049 A 
ATOM     46  C   UNL A   1      45.820  29.288  27.092  1.00  0.00     0.074 A 
ATOM     47  C   UNL A   1      41.460  32.220  30.663  1.00  0.00     0.029 A 
ATOM     48  N   UNL A   1      42.545  30.792  29.350  1.00  0.00    -0.354 N 
ATOM     49  N   UNL A   1      44.855  29.816  27.810  1.00  0.00    -0.248 NA
ATOM     50  C   UNL A   1      46.999  30.149  26.941  1.00  0.00     0.031 C 
ATOM     51  C   UNL A   1      42.689  32.789  30.311  1.00  0.00     0.029 A 
ATOM     52  C   UNL A   1      43.380  31.886  29.521  1.00  0.00     0.049 A 
ATOM     53  H   UNL A   1      42.766  29.990  28.824  1.00  0.00     0.167 HD
ATOM     54  C   UNL A   1      45.326  31.061  28.218  1.00  0.00     0.074 A 
ATOM     55  C   UNL A   1      46.665  31.194  27.683  1.00  0.00     0.031 C 
ATOM     56  C   UNL A   1      44.709  32.009  28.969  1.00  0.00     0.034 A 
BRANCH  43  57
ATOM     57  C   UNL A   1      38.972  30.473  30.757  1.00  0.00     0.023 A 
ATOM     58  C   UNL A   1      37.998  31.274  30.135  1.00  0.00     0.031 A 
ATOM     59  C   UNL A   1      38.738  30.061  32.081  1.00  0.00     0.131 A 
ATOM     60  C   UNL A   1      36.868  31.690  30.856  1.00  0.00     0.055 A 
ATOM     61  C   UNL A   1      37.574  30.415  32.767  1.00  0.00     0.041 A 
ATOM     62  F   UNL A   1      39.641  29.313  32.734  1.00  0.00    -0.206 F 
ATOM     63  C   UNL A   1      36.637  31.245  32.160  1.00  0.00     0.022 A 
BRANCH  60  64
ATOM     64  S   UNL A   1      35.767  32.921  30.108  1.00  0.00     0.124 S 
ATOM     65  O   UNL A   1      36.257  32.957  28.732  1.00  0.00    -0.237 OA
ATOM     66  O   UNL A   1      34.449  32.326  30.302  1.00  0.00    -0.237 OA
ATOM     67  O   UNL A   1      36.025  34.131  30.887  1.00  0.00    -0.744 OA
ENDBRANCH  60  64
ENDBRANCH  43  57
BRANCH  44  68
ATOM     68  C   UNL A   1      47.059  27.540  25.610  1.00  0.00     0.023 A 
ATOM     69  C   UNL A   1      47.179  27.932  24.267  1.00  0.00     0.031 A 
ATOM     70  C   UNL A   1      48.063  26.714  26.147  1.00  0.00     0.131 A 
ATOM     71  C   UNL A   1      48.247  27.458  23.492  1.00  0.00     0.055 A 
ATOM     72  C   UNL A   1      49.153  26.289  25.386  1.00  0.00     0.041 A 
ATOM     73  F   UNL A   1      48.000  26.312  27.426  1.00  0.00    -0.206 F 
ATOM     74  C   UNL A   1      49.242  26.649  24.045  1.00  0.00     0.022 A 
BRANCH  71  75
ATOM     75  S   UNL A   1      48.264  27.832  21.717  1.00  0.00     0.124 S 
ATOM     76  O   UNL A   1      46.915  28.345  21.507  1.00  0.00    -0.237 OA
ATOM     77  O   UNL A   1      49.345  28.808  21.626  1.00  0.00    -0.237 OA
ATOM     78  O   UNL A   1      48.543  26.537  21.100  1.00  0.00    -0.744 OA
ENDBRANCH  71  75
ENDBRANCH  44  68
BRANCH  56  79
ATOM     79  C   UNL A   1      45.502  33.254  29.282  1.00  0.00     0.023 A 
ATOM     80  C   UNL A   1      45.467  34.381  28.442  1.00  0.00     0.031 A 
ATOM     81  C   UNL A   1      46.317  33.305  30.426  1.00  0.00     0.131 A 
ATOM     82  C   UNL A   1      46.278  35.489  28.728  1.00  0.00     0.055 A 
ATOM     83  C   UNL A   1      47.076  34.434  30.737  1.00  0.00     0.041 A 
ATOM     84  F   UNL A   1      46.390  32.256  31.261  1.00  0.00    -0.206 F 
ATOM     85  C   UNL A   1      47.069  35.530  29.880  1.00  0.00     0.022 A 
BRANCH  82  86
ATOM     86  S   UNL A   1      46.353  36.846  27.527  1.00  0.00     0.124 S 
ATOM     87  O   UNL A   1      47.735  37.294  27.661  1.00  0.00    -0.237 OA
ATOM     88  O   UNL A   1      46.019  36.174  26.275  1.00  0.00    -0.237 OA
ATOM     89  O   UNL A   1      45.346  37.789  28.009  1.00  0.00    -0.744 OA
ENDBRANCH  82  86
ENDBRANCH  56  79
ENDBRANCH  30  31
ENDBRANCH  22  25
ENDBRANCH  20  21
ENDBRANCH  19  20
ENDBRANCH   1  19
TORSDOF 19
ENDMDL
