MODEL 1
REMARK VINA RESULT:     -12.5      0.000      0.000
REMARK SMILES Cc1ccc(C(C)C)c(OCC(=O)Nc2nc(CC(=O)NCCCCCCNC(=O)c3ccc(-c4c5nc(c(-c6cc(S(=O)(=O)[O-])ccc6F)c6ccc([nH]6)c(-c6cc(S(=O)(=O)[O-])ccc6F)c6nc(c(-c7cc(S(=O)(=O)[O-])ccc7F)c7ccc4[nH]7)C=C6)C=C5)cc3)cs2)c1
REMARK SMILES IDX 23 1 22 2 21 3 19 4 20 5 18 7 17 8 15 9 16 10 95 11 94 12
REMARK SMILES IDX 14 13 12 14 13 15 11 17 10 18 9 19 1 20 2 21 3 22 96 23 4 24
REMARK SMILES IDX 5 25 6 26 7 27 8 28 24 29 25 30 26 31 27 32 28 33 29 34
REMARK SMILES IDX 30 36 31 37 32 38 93 39 33 40 92 41 34 42 35 43 36 44 86 45
REMARK SMILES IDX 37 46 91 47 85 48 87 49 38 50 90 51 84 52 83 53 39 55 71 56
REMARK SMILES IDX 51 57 70 58 52 59 55 60 69 61 88 62 53 63 54 64 68 66 89 67
REMARK SMILES IDX 56 68 40 69 41 70 49 71 42 72 48 73 50 74 47 75 43 76 44 77
REMARK SMILES IDX 45 78 46 79 72 80 73 81 81 82 74 83 80 84 82 85 79 86 75 87
REMARK SMILES IDX 76 88 77 89 78 90 57 91 58 92 66 93 59 94 65 95 67 96 64 97
REMARK SMILES IDX 60 98 61 99 62 100 63 101
REMARK H PARENT 21 6 14 16 28 35 87 54 55 65
REMARK Flexibility Score: inf
ROOT
ATOM      1  C   UNL A   1      34.790  21.543  26.116  1.00  0.00     0.021 C 
ENDROOT
BRANCH   1   2
ATOM      2  C   UNL A   1      34.457  21.863  27.571  1.00  0.00     0.116 C 
BRANCH   2   3
ATOM      3  N   UNL A   1      33.032  21.982  27.824  1.00  0.00    -0.356 N 
ATOM      4  C   UNL A   1      32.155  22.928  27.375  1.00  0.00     0.226 C 
ATOM      5  O   UNL A   1      30.949  22.771  27.588  1.00  0.00    -0.275 OA
ATOM      6  H   UNL A   1      32.644  21.283  28.399  1.00  0.00     0.163 HD
BRANCH   4   7
ATOM      7  C   UNL A   1      32.649  24.132  26.590  1.00  0.00     0.157 C 
BRANCH   7   8
ATOM      8  C   UNL A   1      31.936  24.317  25.292  1.00  0.00     0.063 A 
ATOM      9  C   UNL A   1      31.932  24.420  23.093  1.00  0.00     0.189 A 
ATOM     10  N   UNL A   1      32.613  23.993  24.121  1.00  0.00    -0.224 NA
ATOM     11  S   UNL A   1      30.398  25.087  23.421  1.00  0.00    -0.105 S 
ATOM     12  C   UNL A   1      30.666  24.832  25.095  1.00  0.00     0.093 A 
BRANCH   9  13
ATOM     13  N   UNL A   1      32.280  24.442  21.778  1.00  0.00    -0.299 N 
ATOM     14  C   UNL A   1      32.879  25.464  21.111  1.00  0.00     0.264 C 
ATOM     15  O   UNL A   1      33.038  25.342  19.889  1.00  0.00    -0.271 OA
ATOM     16  H   UNL A   1      32.077  23.633  21.255  1.00  0.00     0.172 HD
BRANCH  14  17
ATOM     17  C   UNL A   1      33.454  26.690  21.843  1.00  0.00     0.329 C 
BRANCH  17  18
ATOM     18  O   UNL A   1      32.658  27.837  22.052  1.00  0.00    -0.483 OA
BRANCH  18  19
ATOM     19  C   UNL A   1      32.495  28.350  23.308  1.00  0.00     0.123 A 
ATOM     20  C   UNL A   1      34.354  29.052  26.563  1.00  0.00     0.044 C 
ATOM     21  C   UNL A   1      33.266  28.981  25.534  1.00  0.00    -0.047 A 
ATOM     22  C   UNL A   1      32.022  29.555  25.798  1.00  0.00     0.004 A 
ATOM     23  C   UNL A   1      33.487  28.366  24.294  1.00  0.00     0.050 A 
ATOM     24  C   UNL A   1      31.011  29.506  24.839  1.00  0.00     0.008 A 
ATOM     25  C   UNL A   1      31.229  28.912  23.585  1.00  0.00    -0.003 A 
BRANCH  25  26
ATOM     26  C   UNL A   1      30.111  28.899  22.548  1.00  0.00     0.017 C 
ATOM     27  C   UNL A   1      28.832  28.277  23.111  1.00  0.00     0.012 C 
ATOM     28  C   UNL A   1      29.824  30.302  22.010  1.00  0.00     0.012 C 
ENDBRANCH  25  26
ENDBRANCH  18  19
ENDBRANCH  17  18
ENDBRANCH  14  17
ENDBRANCH   9  13
ENDBRANCH   7   8
ENDBRANCH   4   7
ENDBRANCH   2   3
ENDBRANCH   1   2
BRANCH   1  29
ATOM     29  C   UNL A   1      35.958  22.350  25.530  1.00  0.00     0.002 C 
BRANCH  29  30
ATOM     30  C   UNL A   1      37.069  21.552  24.825  1.00  0.00     0.002 C 
BRANCH  30  31
ATOM     31  C   UNL A   1      38.403  21.441  25.564  1.00  0.00     0.021 C 
BRANCH  31  32
ATOM     32  C   UNL A   1      38.870  22.733  26.222  1.00  0.00     0.116 C 
BRANCH  32  33
ATOM     33  N   UNL A   1      40.315  22.877  26.342  1.00  0.00    -0.352 N 
ATOM     34  C   UNL A   1      41.058  24.031  26.555  1.00  0.00     0.251 C 
ATOM     35  H   UNL A   1      40.834  22.043  26.263  1.00  0.00     0.163 HD
ATOM     36  O   UNL A   1      42.275  24.019  26.551  1.00  0.00    -0.269 OA
BRANCH  34  37
ATOM     37  C   UNL A   1      40.333  25.273  26.927  1.00  0.00     0.039 A 
ATOM     38  C   UNL A   1      40.691  26.445  26.251  1.00  0.00     0.014 A 
ATOM     39  C   UNL A   1      39.539  25.330  28.068  1.00  0.00     0.014 A 
ATOM     40  C   UNL A   1      40.473  27.678  26.861  1.00  0.00     0.010 A 
ATOM     41  C   UNL A   1      39.411  26.540  28.723  1.00  0.00     0.010 A 
ATOM     42  C   UNL A   1      39.941  27.701  28.150  1.00  0.00    -0.014 A 
BRANCH  42  43
ATOM     43  C   UNL A   1      40.019  28.871  29.017  1.00  0.00     0.031 A 
ATOM     44  C   UNL A   1      38.960  29.895  28.991  1.00  0.00     0.074 A 
ATOM     45  C   UNL A   1      41.057  29.003  29.871  1.00  0.00     0.049 A 
ATOM     46  N   UNL A   1      39.126  31.130  29.326  1.00  0.00    -0.248 NA
ATOM     47  C   UNL A   1      37.615  29.604  28.518  1.00  0.00     0.031 C 
ATOM     48  C   UNL A   1      41.198  29.968  30.957  1.00  0.00     0.029 A 
ATOM     49  N   UNL A   1      42.320  28.431  29.751  1.00  0.00    -0.354 N 
ATOM     50  C   UNL A   1      37.884  31.718  29.396  1.00  0.00     0.074 A 
ATOM     51  C   UNL A   1      36.991  30.751  28.801  1.00  0.00     0.031 C 
ATOM     52  C   UNL A   1      42.502  30.119  31.236  1.00  0.00     0.029 A 
ATOM     53  C   UNL A   1      43.249  29.357  30.252  1.00  0.00     0.049 A 
ATOM     54  H   UNL A   1      42.524  27.541  29.382  1.00  0.00     0.167 HD
ATOM     55  C   UNL A   1      37.740  32.891  30.079  1.00  0.00     0.034 A 
ATOM     56  C   UNL A   1      44.233  29.859  29.452  1.00  0.00     0.034 A 
ATOM     57  C   UNL A   1      39.036  33.408  30.531  1.00  0.00     0.049 A 
ATOM     58  C   UNL A   1      44.152  31.358  29.265  1.00  0.00     0.074 A 
ATOM     59  C   UNL A   1      39.680  33.393  31.757  1.00  0.00     0.029 A 
ATOM     60  N   UNL A   1      39.989  33.802  29.595  1.00  0.00    -0.354 N 
ATOM     61  N   UNL A   1      43.099  32.077  29.546  1.00  0.00    -0.248 NA
ATOM     62  C   UNL A   1      45.251  32.162  28.741  1.00  0.00     0.031 C 
ATOM     63  C   UNL A   1      41.047  33.710  31.541  1.00  0.00     0.029 A 
ATOM     64  C   UNL A   1      41.228  33.956  30.190  1.00  0.00     0.049 A 
ATOM     65  H   UNL A   1      39.806  33.950  28.639  1.00  0.00     0.167 HD
ATOM     66  C   UNL A   1      43.343  33.395  29.244  1.00  0.00     0.074 A 
ATOM     67  C   UNL A   1      44.717  33.395  28.767  1.00  0.00     0.031 C 
ATOM     68  C   UNL A   1      42.390  34.363  29.408  1.00  0.00     0.034 A 
BRANCH  55  69
ATOM     69  C   UNL A   1      36.414  33.408  30.616  1.00  0.00     0.023 A 
ATOM     70  C   UNL A   1      35.549  34.115  29.751  1.00  0.00     0.031 A 
ATOM     71  C   UNL A   1      35.966  33.310  31.947  1.00  0.00     0.131 A 
ATOM     72  C   UNL A   1      34.398  34.772  30.228  1.00  0.00     0.055 A 
ATOM     73  C   UNL A   1      34.854  34.010  32.437  1.00  0.00     0.041 A 
ATOM     74  F   UNL A   1      36.538  32.482  32.828  1.00  0.00    -0.206 F 
ATOM     75  C   UNL A   1      34.070  34.760  31.580  1.00  0.00     0.022 A 
BRANCH  72  76
ATOM     76  S   UNL A   1      33.324  35.647  29.055  1.00  0.00     0.124 S 
ATOM     77  O   UNL A   1      34.288  36.219  28.122  1.00  0.00    -0.237 OA
ATOM     78  O   UNL A   1      32.486  34.570  28.542  1.00  0.00    -0.237 OA
ATOM     79  O   UNL A   1      32.628  36.621  29.895  1.00  0.00    -0.744 OA
ENDBRANCH  72  76
ENDBRANCH  55  69
BRANCH  56  80
ATOM     80  C   UNL A   1      44.722  28.874  28.444  1.00  0.00     0.023 A 
ATOM     81  C   UNL A   1      45.537  27.823  28.921  1.00  0.00     0.031 A 
ATOM     82  C   UNL A   1      44.095  28.707  27.202  1.00  0.00     0.131 A 
ATOM     83  C   UNL A   1      45.566  26.592  28.252  1.00  0.00     0.055 A 
ATOM     84  C   UNL A   1      44.182  27.495  26.504  1.00  0.00     0.041 A 
ATOM     85  F   UNL A   1      43.284  29.655  26.712  1.00  0.00    -0.206 F 
ATOM     86  C   UNL A   1      44.878  26.416  27.052  1.00  0.00     0.022 A 
BRANCH  83  87
ATOM     87  S   UNL A   1      46.271  25.147  29.105  1.00  0.00     0.124 S 
ATOM     88  O   UNL A   1      47.625  25.599  29.402  1.00  0.00    -0.237 OA
ATOM     89  O   UNL A   1      45.389  24.983  30.259  1.00  0.00    -0.237 OA
ATOM     90  O   UNL A   1      46.163  24.083  28.109  1.00  0.00    -0.744 OA
ENDBRANCH  83  87
ENDBRANCH  56  80
BRANCH  68  91
ATOM     91  C   UNL A   1      42.491  35.806  28.942  1.00  0.00     0.023 A 
ATOM     92  C   UNL A   1      43.179  36.806  29.646  1.00  0.00     0.031 A 
ATOM     93  C   UNL A   1      41.937  36.211  27.701  1.00  0.00     0.131 A 
ATOM     94  C   UNL A   1      43.220  38.134  29.180  1.00  0.00     0.055 A 
ATOM     95  C   UNL A   1      42.049  37.512  27.199  1.00  0.00     0.041 A 
ATOM     96  F   UNL A   1      41.267  35.358  26.912  1.00  0.00    -0.206 F 
ATOM     97  C   UNL A   1      42.678  38.491  27.949  1.00  0.00     0.022 A 
BRANCH  94  98
ATOM     98  S   UNL A   1      43.945  39.401  30.255  1.00  0.00     0.124 S 
ATOM     99  O   UNL A   1      42.985  40.494  30.117  1.00  0.00    -0.237 OA
ATOM    100  O   UNL A   1      43.966  38.737  31.553  1.00  0.00    -0.237 OA
ATOM    101  O   UNL A   1      45.257  39.650  29.662  1.00  0.00    -0.744 OA
ENDBRANCH  94  98
ENDBRANCH  68  91
ENDBRANCH  42  43
ENDBRANCH  34  37
ENDBRANCH  32  33
ENDBRANCH  31  32
ENDBRANCH  30  31
ENDBRANCH  29  30
ENDBRANCH   1  29
TORSDOF 22
ENDMDL
MODEL 2
REMARK VINA RESULT:     -11.8      1.438      2.134
REMARK SMILES Cc1ccc(C(C)C)c(OCC(=O)Nc2nc(CC(=O)NCCCCCCNC(=O)c3ccc(-c4c5nc(c(-c6cc(S(=O)(=O)[O-])ccc6F)c6ccc([nH]6)c(-c6cc(S(=O)(=O)[O-])ccc6F)c6nc(c(-c7cc(S(=O)(=O)[O-])ccc7F)c7ccc4[nH]7)C=C6)C=C5)cc3)cs2)c1
REMARK SMILES IDX 23 1 22 2 21 3 19 4 20 5 18 7 17 8 15 9 16 10 95 11 94 12
REMARK SMILES IDX 14 13 12 14 13 15 11 17 10 18 9 19 1 20 2 21 3 22 96 23 4 24
REMARK SMILES IDX 5 25 6 26 7 27 8 28 24 29 25 30 26 31 27 32 28 33 29 34
REMARK SMILES IDX 30 36 31 37 32 38 93 39 33 40 92 41 34 42 35 43 36 44 86 45
REMARK SMILES IDX 37 46 91 47 85 48 87 49 38 50 90 51 84 52 83 53 39 55 71 56
REMARK SMILES IDX 51 57 70 58 52 59 55 60 69 61 88 62 53 63 54 64 68 66 89 67
REMARK SMILES IDX 56 68 40 69 41 70 49 71 42 72 48 73 50 74 47 75 43 76 44 77
REMARK SMILES IDX 45 78 46 79 72 80 73 81 81 82 74 83 80 84 82 85 79 86 75 87
REMARK SMILES IDX 76 88 77 89 78 90 57 91 58 92 66 93 59 94 65 95 67 96 64 97
REMARK SMILES IDX 60 98 61 99 62 100 63 101
REMARK H PARENT 21 6 14 16 28 35 87 54 55 65
REMARK Flexibility Score: inf
ROOT
ATOM      1  C   UNL A   1      35.611  21.868  26.512  1.00  0.00     0.021 C 
ENDROOT
BRANCH   1   2
ATOM      2  C   UNL A   1      34.249  21.760  27.194  1.00  0.00     0.116 C 
BRANCH   2   3
ATOM      3  N   UNL A   1      33.545  20.528  26.884  1.00  0.00    -0.356 N 
ATOM      4  C   UNL A   1      33.287  19.968  25.665  1.00  0.00     0.226 C 
ATOM      5  O   UNL A   1      32.795  18.837  25.622  1.00  0.00    -0.275 OA
ATOM      6  H   UNL A   1      33.207  20.027  27.661  1.00  0.00     0.163 HD
BRANCH   4   7
ATOM      7  C   UNL A   1      33.638  20.705  24.384  1.00  0.00     0.157 C 
BRANCH   7   8
ATOM      8  C   UNL A   1      32.724  21.851  24.099  1.00  0.00     0.063 A 
ATOM      9  C   UNL A   1      31.105  23.219  24.693  1.00  0.00     0.189 A 
ATOM     10  N   UNL A   1      32.001  22.391  25.157  1.00  0.00    -0.224 NA
ATOM     11  S   UNL A   1      31.151  23.529  23.018  1.00  0.00    -0.105 S 
ATOM     12  C   UNL A   1      32.457  22.429  22.870  1.00  0.00     0.093 A 
BRANCH   9  13
ATOM     13  N   UNL A   1      30.102  23.860  25.353  1.00  0.00    -0.299 N 
ATOM     14  C   UNL A   1      30.235  24.860  26.264  1.00  0.00     0.264 C 
ATOM     15  O   UNL A   1      29.212  25.262  26.834  1.00  0.00    -0.271 OA
ATOM     16  H   UNL A   1      29.185  23.569  25.148  1.00  0.00     0.172 HD
BRANCH  14  17
ATOM     17  C   UNL A   1      31.581  25.564  26.511  1.00  0.00     0.329 C 
BRANCH  17  18
ATOM     18  O   UNL A   1      31.712  26.954  26.298  1.00  0.00    -0.483 OA
BRANCH  18  19
ATOM     19  C   UNL A   1      32.357  27.428  25.191  1.00  0.00     0.123 A 
ATOM     20  C   UNL A   1      33.235  26.555  21.583  1.00  0.00     0.044 C 
ATOM     21  C   UNL A   1      33.125  27.302  22.879  1.00  0.00    -0.047 A 
ATOM     22  C   UNL A   1      33.608  28.607  22.973  1.00  0.00     0.004 A 
ATOM     23  C   UNL A   1      32.516  26.715  23.997  1.00  0.00     0.050 A 
ATOM     24  C   UNL A   1      33.495  29.312  24.170  1.00  0.00     0.008 A 
ATOM     25  C   UNL A   1      32.867  28.742  25.290  1.00  0.00    -0.003 A 
BRANCH  25  26
ATOM     26  C   UNL A   1      32.734  29.549  26.577  1.00  0.00     0.017 C 
ATOM     27  C   UNL A   1      34.101  29.995  27.102  1.00  0.00     0.012 C 
ATOM     28  C   UNL A   1      31.819  30.760  26.392  1.00  0.00     0.012 C 
ENDBRANCH  25  26
ENDBRANCH  18  19
ENDBRANCH  17  18
ENDBRANCH  14  17
ENDBRANCH   9  13
ENDBRANCH   7   8
ENDBRANCH   4   7
ENDBRANCH   2   3
ENDBRANCH   1   2
BRANCH   1  29
ATOM     29  C   UNL A   1      35.953  23.264  25.971  1.00  0.00     0.002 C 
BRANCH  29  30
ATOM     30  C   UNL A   1      37.303  23.417  25.248  1.00  0.00     0.002 C 
BRANCH  30  31
ATOM     31  C   UNL A   1      38.365  22.361  25.556  1.00  0.00     0.021 C 
BRANCH  31  32
ATOM     32  C   UNL A   1      39.235  22.674  26.767  1.00  0.00     0.116 C 
BRANCH  32  33
ATOM     33  N   UNL A   1      40.622  23.000  26.460  1.00  0.00    -0.352 N 
ATOM     34  C   UNL A   1      41.218  24.251  26.364  1.00  0.00     0.251 C 
ATOM     35  H   UNL A   1      41.216  22.230  26.301  1.00  0.00     0.163 HD
ATOM     36  O   UNL A   1      42.377  24.383  26.015  1.00  0.00    -0.269 OA
BRANCH  34  37
ATOM     37  C   UNL A   1      40.448  25.432  26.830  1.00  0.00     0.039 A 
ATOM     38  C   UNL A   1      40.667  26.640  26.156  1.00  0.00     0.014 A 
ATOM     39  C   UNL A   1      39.756  25.412  28.036  1.00  0.00     0.014 A 
ATOM     40  C   UNL A   1      40.422  27.842  26.815  1.00  0.00     0.010 A 
ATOM     41  C   UNL A   1      39.606  26.597  28.731  1.00  0.00     0.010 A 
ATOM     42  C   UNL A   1      40.005  27.803  28.146  1.00  0.00    -0.014 A 
BRANCH  42  43
ATOM     43  C   UNL A   1      40.082  28.957  29.033  1.00  0.00     0.031 A 
ATOM     44  C   UNL A   1      39.025  29.985  29.019  1.00  0.00     0.074 A 
ATOM     45  C   UNL A   1      41.115  29.072  29.895  1.00  0.00     0.049 A 
ATOM     46  N   UNL A   1      39.193  31.213  29.376  1.00  0.00    -0.248 NA
ATOM     47  C   UNL A   1      37.682  29.706  28.534  1.00  0.00     0.031 C 
ATOM     48  C   UNL A   1      41.253  30.017  30.999  1.00  0.00     0.029 A 
ATOM     49  N   UNL A   1      42.377  28.498  29.772  1.00  0.00    -0.354 N 
ATOM     50  C   UNL A   1      37.952  31.803  29.450  1.00  0.00     0.074 A 
ATOM     51  C   UNL A   1      37.059  30.849  28.833  1.00  0.00     0.031 C 
ATOM     52  C   UNL A   1      42.556  30.159  31.288  1.00  0.00     0.029 A 
ATOM     53  C   UNL A   1      43.306  29.413  30.294  1.00  0.00     0.049 A 
ATOM     54  H   UNL A   1      42.581  27.614  29.389  1.00  0.00     0.167 HD
ATOM     55  C   UNL A   1      37.807  32.965  30.152  1.00  0.00     0.034 A 
ATOM     56  C   UNL A   1      44.296  29.926  29.508  1.00  0.00     0.034 A 
ATOM     57  C   UNL A   1      39.102  33.470  30.620  1.00  0.00     0.049 A 
ATOM     58  C   UNL A   1      44.219  31.429  29.347  1.00  0.00     0.074 A 
ATOM     59  C   UNL A   1      39.739  33.432  31.850  1.00  0.00     0.029 A 
ATOM     60  N   UNL A   1      40.061  33.878  29.696  1.00  0.00    -0.354 N 
ATOM     61  N   UNL A   1      43.167  32.145  29.635  1.00  0.00    -0.248 NA
ATOM     62  C   UNL A   1      45.323  32.239  28.843  1.00  0.00     0.031 C 
ATOM     63  C   UNL A   1      41.108  33.749  31.647  1.00  0.00     0.029 A 
ATOM     64  C   UNL A   1      41.297  34.018  30.302  1.00  0.00     0.049 A 
ATOM     65  H   UNL A   1      39.884  34.043  28.742  1.00  0.00     0.167 HD
ATOM     66  C   UNL A   1      43.417  33.467  29.357  1.00  0.00     0.074 A 
ATOM     67  C   UNL A   1      44.793  33.473  28.888  1.00  0.00     0.031 C 
ATOM     68  C   UNL A   1      42.465  34.436  29.533  1.00  0.00     0.034 A 
BRANCH  55  69
ATOM     69  C   UNL A   1      36.480  33.475  30.690  1.00  0.00     0.023 A 
ATOM     70  C   UNL A   1      35.561  34.078  29.801  1.00  0.00     0.031 A 
ATOM     71  C   UNL A   1      36.077  33.471  32.040  1.00  0.00     0.131 A 
ATOM     72  C   UNL A   1      34.401  34.729  30.263  1.00  0.00     0.055 A 
ATOM     73  C   UNL A   1      34.955  34.168  32.510  1.00  0.00     0.041 A 
ATOM     74  F   UNL A   1      36.709  32.740  32.965  1.00  0.00    -0.206 F 
ATOM     75  C   UNL A   1      34.116  34.817  31.621  1.00  0.00     0.022 A 
BRANCH  72  76
ATOM     76  S   UNL A   1      33.258  35.466  29.060  1.00  0.00     0.124 S 
ATOM     77  O   UNL A   1      34.148  36.298  28.259  1.00  0.00    -0.237 OA
ATOM     78  O   UNL A   1      32.704  34.288  28.402  1.00  0.00    -0.237 OA
ATOM     79  O   UNL A   1      32.313  36.203  29.899  1.00  0.00    -0.744 OA
ENDBRANCH  72  76
ENDBRANCH  55  69
BRANCH  56  80
ATOM     80  C   UNL A   1      44.788  28.958  28.486  1.00  0.00     0.023 A 
ATOM     81  C   UNL A   1      45.639  27.926  28.941  1.00  0.00     0.031 A 
ATOM     82  C   UNL A   1      44.139  28.779  27.257  1.00  0.00     0.131 A 
ATOM     83  C   UNL A   1      45.685  26.698  28.267  1.00  0.00     0.055 A 
ATOM     84  C   UNL A   1      44.242  27.572  26.552  1.00  0.00     0.041 A 
ATOM     85  F   UNL A   1      43.294  29.708  26.788  1.00  0.00    -0.206 F 
ATOM     86  C   UNL A   1      44.976  26.509  27.081  1.00  0.00     0.022 A 
BRANCH  83  87
ATOM     87  S   UNL A   1      46.444  25.268  29.099  1.00  0.00     0.124 S 
ATOM     88  O   UNL A   1      47.160  25.900  30.200  1.00  0.00    -0.237 OA
ATOM     89  O   UNL A   1      45.288  24.456  29.476  1.00  0.00    -0.237 OA
ATOM     90  O   UNL A   1      47.278  24.677  28.056  1.00  0.00    -0.744 OA
ENDBRANCH  83  87
ENDBRANCH  56  80
BRANCH  68  91
ATOM     91  C   UNL A   1      42.573  35.886  29.092  1.00  0.00     0.023 A 
ATOM     92  C   UNL A   1      43.355  36.845  29.753  1.00  0.00     0.031 A 
ATOM     93  C   UNL A   1      41.922  36.340  27.917  1.00  0.00     0.131 A 
ATOM     94  C   UNL A   1      43.399  38.183  29.316  1.00  0.00     0.055 A 
ATOM     95  C   UNL A   1      42.032  37.649  27.437  1.00  0.00     0.041 A 
ATOM     96  F   UNL A   1      41.154  35.529  27.174  1.00  0.00    -0.206 F 
ATOM     97  C   UNL A   1      42.760  38.588  28.148  1.00  0.00     0.022 A 
BRANCH  94  98
ATOM     98  S   UNL A   1      44.260  39.397  30.349  1.00  0.00     0.124 S 
ATOM     99  O   UNL A   1      44.308  40.560  29.466  1.00  0.00    -0.237 OA
ATOM    100  O   UNL A   1      43.376  39.514  31.502  1.00  0.00    -0.237 OA
ATOM    101  O   UNL A   1      45.553  38.769  30.616  1.00  0.00    -0.744 OA
ENDBRANCH  94  98
ENDBRANCH  68  91
ENDBRANCH  42  43
ENDBRANCH  34  37
ENDBRANCH  32  33
ENDBRANCH  31  32
ENDBRANCH  30  31
ENDBRANCH  29  30
ENDBRANCH   1  29
TORSDOF 22
ENDMDL
MODEL 3
REMARK VINA RESULT:     -11.4      2.872      3.977
REMARK SMILES Cc1ccc(C(C)C)c(OCC(=O)Nc2nc(CC(=O)NCCCCCCNC(=O)c3ccc(-c4c5nc(c(-c6cc(S(=O)(=O)[O-])ccc6F)c6ccc([nH]6)c(-c6cc(S(=O)(=O)[O-])ccc6F)c6nc(c(-c7cc(S(=O)(=O)[O-])ccc7F)c7ccc4[nH]7)C=C6)C=C5)cc3)cs2)c1
REMARK SMILES IDX 23 1 22 2 21 3 19 4 20 5 18 7 17 8 15 9 16 10 95 11 94 12
REMARK SMILES IDX 14 13 12 14 13 15 11 17 10 18 9 19 1 20 2 21 3 22 96 23 4 24
REMARK SMILES IDX 5 25 6 26 7 27 8 28 24 29 25 30 26 31 27 32 28 33 29 34
REMARK SMILES IDX 30 36 31 37 32 38 93 39 33 40 92 41 34 42 35 43 36 44 86 45
REMARK SMILES IDX 37 46 91 47 85 48 87 49 38 50 90 51 84 52 83 53 39 55 71 56
REMARK SMILES IDX 51 57 70 58 52 59 55 60 69 61 88 62 53 63 54 64 68 66 89 67
REMARK SMILES IDX 56 68 40 69 41 70 49 71 42 72 48 73 50 74 47 75 43 76 44 77
REMARK SMILES IDX 45 78 46 79 72 80 73 81 81 82 74 83 80 84 82 85 79 86 75 87
REMARK SMILES IDX 76 88 77 89 78 90 57 91 58 92 66 93 59 94 65 95 67 96 64 97
REMARK SMILES IDX 60 98 61 99 62 100 63 101
REMARK H PARENT 21 6 14 16 28 35 87 54 55 65
REMARK Flexibility Score: inf
ROOT
ATOM      1  C   UNL A   1      39.035  19.309  25.662  1.00  0.00     0.021 C 
ENDROOT
BRANCH   1   2
ATOM      2  C   UNL A   1      38.044  19.922  24.676  1.00  0.00     0.116 C 
BRANCH   2   3
ATOM      3  N   UNL A   1      36.748  20.210  25.265  1.00  0.00    -0.356 N 
ATOM      4  C   UNL A   1      35.867  21.209  24.959  1.00  0.00     0.226 C 
ATOM      5  O   UNL A   1      34.749  21.196  25.482  1.00  0.00    -0.275 OA
ATOM      6  H   UNL A   1      36.465  19.601  25.985  1.00  0.00     0.163 HD
BRANCH   4   7
ATOM      7  C   UNL A   1      36.240  22.292  23.961  1.00  0.00     0.157 C 
BRANCH   7   8
ATOM      8  C   UNL A   1      35.286  23.440  23.961  1.00  0.00     0.063 A 
ATOM      9  C   UNL A   1      33.915  24.807  22.913  1.00  0.00     0.189 A 
ATOM     10  N   UNL A   1      34.515  23.652  22.822  1.00  0.00    -0.224 NA
ATOM     11  S   UNL A   1      34.093  25.644  24.387  1.00  0.00    -0.105 S 
ATOM     12  C   UNL A   1      35.101  24.381  24.959  1.00  0.00     0.093 A 
BRANCH   9  13
ATOM     13  N   UNL A   1      33.181  25.471  21.980  1.00  0.00    -0.299 N 
ATOM     14  C   UNL A   1      31.836  25.671  21.993  1.00  0.00     0.264 C 
ATOM     15  O   UNL A   1      31.324  26.220  21.008  1.00  0.00    -0.271 OA
ATOM     16  H   UNL A   1      33.675  25.845  21.215  1.00  0.00     0.172 HD
BRANCH  14  17
ATOM     17  C   UNL A   1      30.975  25.342  23.226  1.00  0.00     0.329 C 
BRANCH  17  18
ATOM     18  O   UNL A   1      30.098  26.310  23.764  1.00  0.00    -0.483 OA
BRANCH  18  19
ATOM     19  C   UNL A   1      30.589  27.396  24.432  1.00  0.00     0.123 A 
ATOM     20  C   UNL A   1      32.772  28.408  27.390  1.00  0.00     0.044 C 
ATOM     21  C   UNL A   1      31.892  28.490  26.178  1.00  0.00    -0.047 A 
ATOM     22  C   UNL A   1      31.617  29.730  25.602  1.00  0.00     0.004 A 
ATOM     23  C   UNL A   1      31.361  27.331  25.596  1.00  0.00     0.050 A 
ATOM     24  C   UNL A   1      30.813  29.812  24.466  1.00  0.00     0.008 A 
ATOM     25  C   UNL A   1      30.293  28.654  23.862  1.00  0.00    -0.003 A 
BRANCH  25  26
ATOM     26  C   UNL A   1      29.439  28.775  22.604  1.00  0.00     0.017 C 
ATOM     27  C   UNL A   1      27.952  28.894  22.946  1.00  0.00     0.012 C 
ATOM     28  C   UNL A   1      29.877  29.955  21.735  1.00  0.00     0.012 C 
ENDBRANCH  25  26
ENDBRANCH  18  19
ENDBRANCH  17  18
ENDBRANCH  14  17
ENDBRANCH   9  13
ENDBRANCH   7   8
ENDBRANCH   4   7
ENDBRANCH   2   3
ENDBRANCH   1   2
BRANCH   1  29
ATOM     29  C   UNL A   1      40.152  20.255  26.126  1.00  0.00     0.002 C 
BRANCH  29  30
ATOM     30  C   UNL A   1      41.118  19.717  27.197  1.00  0.00     0.002 C 
BRANCH  30  31
ATOM     31  C   UNL A   1      42.394  19.045  26.688  1.00  0.00     0.021 C 
BRANCH  31  32
ATOM     32  C   UNL A   1      42.981  19.674  25.430  1.00  0.00     0.116 C 
BRANCH  32  33
ATOM     33  N   UNL A   1      44.349  20.158  25.564  1.00  0.00    -0.352 N 
ATOM     34  C   UNL A   1      44.789  21.429  25.912  1.00  0.00     0.251 C 
ATOM     35  H   UNL A   1      45.056  19.495  25.384  1.00  0.00     0.163 HD
ATOM     36  O   UNL A   1      45.971  21.721  25.904  1.00  0.00    -0.269 OA
BRANCH  34  37
ATOM     37  C   UNL A   1      43.792  22.399  26.431  1.00  0.00     0.039 A 
ATOM     38  C   UNL A   1      43.556  23.543  25.659  1.00  0.00     0.014 A 
ATOM     39  C   UNL A   1      43.320  22.319  27.737  1.00  0.00     0.014 A 
ATOM     40  C   UNL A   1      43.078  24.695  26.277  1.00  0.00     0.010 A 
ATOM     41  C   UNL A   1      42.943  23.484  28.375  1.00  0.00     0.010 A 
ATOM     42  C   UNL A   1      42.891  24.685  27.659  1.00  0.00    -0.014 A 
BRANCH  42  43
ATOM     43  C   UNL A   1      42.765  25.904  28.450  1.00  0.00     0.031 A 
ATOM     44  C   UNL A   1      41.549  26.732  28.362  1.00  0.00     0.074 A 
ATOM     45  C   UNL A   1      43.760  26.262  29.290  1.00  0.00     0.049 A 
ATOM     46  N   UNL A   1      41.503  27.995  28.617  1.00  0.00    -0.248 NA
ATOM     47  C   UNL A   1      40.275  26.189  27.913  1.00  0.00     0.031 C 
ATOM     48  C   UNL A   1      43.729  27.304  30.312  1.00  0.00     0.029 A 
ATOM     49  N   UNL A   1      45.101  25.904  29.202  1.00  0.00    -0.354 N 
ATOM     50  C   UNL A   1      40.179  28.369  28.654  1.00  0.00     0.074 A 
ATOM     51  C   UNL A   1      39.465  27.230  28.124  1.00  0.00     0.031 C 
ATOM     52  C   UNL A   1      44.987  27.689  30.577  1.00  0.00     0.029 A 
ATOM     53  C   UNL A   1      45.859  27.003  29.640  1.00  0.00     0.049 A 
ATOM     54  H   UNL A   1      45.455  25.040  28.890  1.00  0.00     0.167 HD
ATOM     55  C   UNL A   1      39.835  29.542  29.262  1.00  0.00     0.034 A 
ATOM     56  C   UNL A   1      46.750  27.612  28.806  1.00  0.00     0.034 A 
ATOM     57  C   UNL A   1      41.022  30.297  29.675  1.00  0.00     0.049 A 
ATOM     58  C   UNL A   1      46.419  29.062  28.525  1.00  0.00     0.074 A 
ATOM     59  C   UNL A   1      41.651  30.468  30.898  1.00  0.00     0.029 A 
ATOM     60  N   UNL A   1      41.902  30.786  28.713  1.00  0.00    -0.354 N 
ATOM     61  N   UNL A   1      45.258  29.609  28.763  1.00  0.00    -0.248 NA
ATOM     62  C   UNL A   1      47.371  30.004  27.947  1.00  0.00     0.031 C 
ATOM     63  C   UNL A   1      42.946  30.997  30.658  1.00  0.00     0.029 A 
ATOM     64  C   UNL A   1      43.093  31.184  29.293  1.00  0.00     0.049 A 
ATOM     65  H   UNL A   1      41.704  30.841  27.750  1.00  0.00     0.167 HD
ATOM     66  C   UNL A   1      45.280  30.927  28.377  1.00  0.00     0.074 A 
ATOM     67  C   UNL A   1      46.637  31.129  27.897  1.00  0.00     0.031 C 
ATOM     68  C   UNL A   1      44.176  31.730  28.483  1.00  0.00     0.034 A 
BRANCH  55  69
ATOM     69  C   UNL A   1      38.437  29.861  29.769  1.00  0.00     0.023 A 
ATOM     70  C   UNL A   1      37.621  30.748  29.030  1.00  0.00     0.031 A 
ATOM     71  C   UNL A   1      37.869  29.403  30.973  1.00  0.00     0.131 A 
ATOM     72  C   UNL A   1      36.396  31.222  29.535  1.00  0.00     0.055 A 
ATOM     73  C   UNL A   1      36.678  29.917  31.506  1.00  0.00     0.041 A 
ATOM     74  F   UNL A   1      38.399  28.388  31.665  1.00  0.00    -0.206 F 
ATOM     75  C   UNL A   1      35.940  30.845  30.794  1.00  0.00     0.022 A 
BRANCH  72  76
ATOM     76  S   UNL A   1      35.393  32.346  28.522  1.00  0.00     0.124 S 
ATOM     77  O   UNL A   1      36.410  33.158  27.863  1.00  0.00    -0.237 OA
ATOM     78  O   UNL A   1      34.653  31.419  27.674  1.00  0.00    -0.237 OA
ATOM     79  O   UNL A   1      34.581  33.058  29.509  1.00  0.00    -0.744 OA
ENDBRANCH  72  76
ENDBRANCH  55  69
BRANCH  56  80
ATOM     80  C   UNL A   1      47.405  26.662  27.861  1.00  0.00     0.023 A 
ATOM     81  C   UNL A   1      47.195  26.886  26.482  1.00  0.00     0.031 A 
ATOM     82  C   UNL A   1      48.500  25.873  28.239  1.00  0.00     0.131 A 
ATOM     83  C   UNL A   1      48.154  26.478  25.545  1.00  0.00     0.055 A 
ATOM     84  C   UNL A   1      49.421  25.410  27.290  1.00  0.00     0.041 A 
ATOM     85  F   UNL A   1      48.770  25.652  29.534  1.00  0.00    -0.206 F 
ATOM     86  C   UNL A   1      49.278  25.754  25.945  1.00  0.00     0.022 A 
BRANCH  83  87
ATOM     87  S   UNL A   1      48.068  27.144  23.854  1.00  0.00     0.124 S 
ATOM     88  O   UNL A   1      49.164  28.106  23.849  1.00  0.00    -0.237 OA
ATOM     89  O   UNL A   1      48.262  25.957  23.023  1.00  0.00    -0.237 OA
ATOM     90  O   UNL A   1      46.725  27.713  23.785  1.00  0.00    -0.744 OA
ENDBRANCH  83  87
ENDBRANCH  56  80
BRANCH  68  91
ATOM     91  C   UNL A   1      44.037  33.137  27.926  1.00  0.00     0.023 A 
ATOM     92  C   UNL A   1      44.055  34.295  28.719  1.00  0.00     0.031 A 
ATOM     93  C   UNL A   1      43.947  33.361  26.528  1.00  0.00     0.131 A 
ATOM     94  C   UNL A   1      43.897  35.574  28.151  1.00  0.00     0.055 A 
ATOM     95  C   UNL A   1      43.872  34.637  25.960  1.00  0.00     0.041 A 
ATOM     96  F   UNL A   1      43.936  32.349  25.648  1.00  0.00    -0.206 F 
ATOM     97  C   UNL A   1      43.828  35.756  26.773  1.00  0.00     0.022 A 
BRANCH  94  98
ATOM     98  S   UNL A   1      43.718  36.992  29.265  1.00  0.00     0.124 S 
ATOM     99  O   UNL A   1      44.906  37.778  28.941  1.00  0.00    -0.237 OA
ATOM    100  O   UNL A   1      42.445  37.565  28.844  1.00  0.00    -0.237 OA
ATOM    101  O   UNL A   1      43.719  36.389  30.596  1.00  0.00    -0.744 OA
ENDBRANCH  94  98
ENDBRANCH  68  91
ENDBRANCH  42  43
ENDBRANCH  34  37
ENDBRANCH  32  33
ENDBRANCH  31  32
ENDBRANCH  30  31
ENDBRANCH  29  30
ENDBRANCH   1  29
TORSDOF 22
ENDMDL
