MODEL 1
REMARK VINA RESULT:     -11.9      0.000      0.000
REMARK SMILES CS(=O)(=O)N1C[C@@H]2CN(C(=O)c3ccco3)C[C@]2(C(=O)NCCCCCCNC(=O)c2ccc(-c3c4nc(c(-c5cc(S(=O)(=O)[O-])ccc5F)c5ccc([nH]5)c(-c5cc(S(=O)(=O)[O-])ccc5F)c5nc(c(-c6cc(S(=O)(=O)[O-])ccc6F)c6ccc3[nH]6)C=C5)C=C4)cc2)C1
REMARK SMILES IDX 25 1 24 2 23 3 22 4 21 5 19 6 20 7 18 9 5 10 6 11 94 12 7 13
REMARK SMILES IDX 8 14 17 15 9 16 2 17 1 18 3 19 4 20 10 21 11 22 12 23 13 24
REMARK SMILES IDX 16 25 14 26 15 27 26 28 27 29 28 30 29 31 30 33 31 34 32 35
REMARK SMILES IDX 93 36 33 37 92 38 34 39 35 40 36 41 86 42 37 43 91 44 85 45
REMARK SMILES IDX 87 46 38 47 90 48 84 49 83 50 39 52 71 53 51 54 70 55 52 56
REMARK SMILES IDX 55 57 69 58 88 59 53 60 54 61 68 63 89 64 56 65 40 66 41 67
REMARK SMILES IDX 49 68 42 69 48 70 50 71 47 72 43 73 44 74 45 75 46 76 72 77
REMARK SMILES IDX 73 78 81 79 74 80 80 81 82 82 79 83 75 84 76 85 77 86 78 87
REMARK SMILES IDX 57 88 58 89 66 90 59 91 65 92 67 93 64 94 60 95 61 96 62 97
REMARK SMILES IDX 63 98
REMARK H PARENT 21 8 28 32 87 51 55 62
REMARK Flexibility Score: inf
ROOT
ATOM      1  C   UNL A   1      31.504  30.708  26.403  1.00  0.00     0.002 C 
ENDROOT
BRANCH   1   2
ATOM      2  C   UNL A   1      32.797  30.048  26.881  1.00  0.00     0.002 C 
BRANCH   2   3
ATOM      3  C   UNL A   1      32.712  28.525  26.974  1.00  0.00     0.021 C 
BRANCH   3   4
ATOM      4  C   UNL A   1      33.667  27.784  26.042  1.00  0.00     0.116 C 
BRANCH   4   5
ATOM      5  N   UNL A   1      34.022  28.655  24.937  1.00  0.00    -0.356 N 
ATOM      6  C   UNL A   1      33.747  28.426  23.612  1.00  0.00     0.229 C 
ATOM      7  O   UNL A   1      34.422  29.002  22.756  1.00  0.00    -0.274 OA
ATOM      8  H   UNL A   1      34.505  29.485  25.158  1.00  0.00     0.163 HD
BRANCH   6   9
ATOM      9  C   UNL A   1      32.550  27.484  23.311  1.00  0.00     0.086 C 
ATOM     10  N   UNL A   1      30.327  28.599  23.150  1.00  0.00    -0.201 NA
ATOM     11  C   UNL A   1      30.091  27.214  22.812  1.00  0.00     0.108 C 
ATOM     12  C   UNL A   1      31.774  28.870  23.004  1.00  0.00     0.121 C 
ATOM     13  C   UNL A   1      31.476  26.776  22.390  1.00  0.00     0.042 C 
ATOM     14  C   UNL A   1      31.657  25.284  22.549  1.00  0.00     0.126 C 
ATOM     15  C   UNL A   1      33.652  26.526  22.602  1.00  0.00     0.138 C 
ATOM     16  N   UNL A   1      33.076  25.182  22.681  1.00  0.00    -0.334 N 
BRANCH  10  17
ATOM     17  S   UNL A   1      29.199  29.789  22.816  1.00  0.00     0.211 S 
ATOM     18  C   UNL A   1      27.643  28.958  23.074  1.00  0.00     0.176 C 
ATOM     19  O   UNL A   1      29.288  30.091  21.402  1.00  0.00    -0.213 OA
ATOM     20  O   UNL A   1      29.333  30.824  23.815  1.00  0.00    -0.213 OA
ENDBRANCH  10  17
BRANCH  16  21
ATOM     21  C   UNL A   1      33.625  23.982  23.129  1.00  0.00     0.289 C 
ATOM     22  O   UNL A   1      34.355  23.333  22.376  1.00  0.00    -0.265 OA
BRANCH  21  23
ATOM     23  C   UNL A   1      33.244  23.465  24.424  1.00  0.00     0.191 A 
ATOM     24  C   UNL A   1      32.623  24.108  25.481  1.00  0.00     0.056 A 
ATOM     25  O   UNL A   1      33.428  22.146  24.737  1.00  0.00    -0.459 OA
ATOM     26  C   UNL A   1      32.440  23.144  26.497  1.00  0.00     0.043 A 
ATOM     27  C   UNL A   1      32.911  21.959  25.982  1.00  0.00     0.196 A 
ENDBRANCH  21  23
ENDBRANCH  16  21
ENDBRANCH   6   9
ENDBRANCH   4   5
ENDBRANCH   3   4
ENDBRANCH   2   3
ENDBRANCH   1   2
BRANCH   1  28
ATOM     28  C   UNL A   1      31.400  32.210  26.691  1.00  0.00     0.021 C 
BRANCH  28  29
ATOM     29  C   UNL A   1      32.735  32.916  26.915  1.00  0.00     0.116 C 
BRANCH  29  30
ATOM     30  N   UNL A   1      32.577  34.171  27.627  1.00  0.00    -0.352 N 
ATOM     31  C   UNL A   1      33.215  34.606  28.762  1.00  0.00     0.251 C 
ATOM     32  H   UNL A   1      31.920  34.796  27.244  1.00  0.00     0.163 HD
ATOM     33  O   UNL A   1      32.812  35.608  29.344  1.00  0.00    -0.269 OA
BRANCH  31  34
ATOM     34  C   UNL A   1      34.376  33.851  29.278  1.00  0.00     0.039 A 
ATOM     35  C   UNL A   1      35.662  34.269  28.931  1.00  0.00     0.014 A 
ATOM     36  C   UNL A   1      34.191  32.732  30.095  1.00  0.00     0.014 A 
ATOM     37  C   UNL A   1      36.768  33.582  29.436  1.00  0.00     0.010 A 
ATOM     38  C   UNL A   1      35.296  32.089  30.649  1.00  0.00     0.010 A 
ATOM     39  C   UNL A   1      36.597  32.498  30.315  1.00  0.00    -0.014 A 
BRANCH  39  40
ATOM     40  C   UNL A   1      37.771  31.759  30.852  1.00  0.00     0.031 A 
ATOM     41  C   UNL A   1      38.267  32.052  32.244  1.00  0.00     0.074 A 
ATOM     42  C   UNL A   1      38.394  30.835  30.093  1.00  0.00     0.049 A 
ATOM     43  N   UNL A   1      39.292  31.550  32.881  1.00  0.00    -0.248 NA
ATOM     44  C   UNL A   1      37.520  33.062  33.012  1.00  0.00     0.031 C 
ATOM     45  C   UNL A   1      38.016  30.470  28.726  1.00  0.00     0.029 A 
ATOM     46  N   UNL A   1      39.474  30.032  30.361  1.00  0.00    -0.354 N 
ATOM     47  C   UNL A   1      39.310  32.171  34.125  1.00  0.00     0.074 A 
ATOM     48  C   UNL A   1      38.240  33.147  34.120  1.00  0.00     0.031 C 
ATOM     49  C   UNL A   1      38.828  29.493  28.291  1.00  0.00     0.029 A 
ATOM     50  C   UNL A   1      39.817  29.195  29.322  1.00  0.00     0.049 A 
ATOM     51  H   UNL A   1      39.959  30.052  31.218  1.00  0.00     0.167 HD
ATOM     52  C   UNL A   1      40.117  31.929  35.187  1.00  0.00     0.034 A 
ATOM     53  C   UNL A   1      40.817  28.297  29.214  1.00  0.00     0.034 A 
ATOM     54  C   UNL A   1      41.182  30.956  35.182  1.00  0.00     0.049 A 
ATOM     55  C   UNL A   1      41.751  28.102  30.388  1.00  0.00     0.074 A 
ATOM     56  C   UNL A   1      42.060  30.634  36.201  1.00  0.00     0.029 A 
ATOM     57  N   UNL A   1      41.512  30.145  34.104  1.00  0.00    -0.354 N 
ATOM     58  N   UNL A   1      41.737  28.687  31.564  1.00  0.00    -0.248 NA
ATOM     59  C   UNL A   1      42.823  27.112  30.224  1.00  0.00     0.031 C 
ATOM     60  C   UNL A   1      42.961  29.678  35.720  1.00  0.00     0.029 A 
ATOM     61  C   UNL A   1      42.589  29.336  34.431  1.00  0.00     0.049 A 
ATOM     62  H   UNL A   1      41.049  30.145  33.236  1.00  0.00     0.167 HD
ATOM     63  C   UNL A   1      42.762  28.088  32.295  1.00  0.00     0.074 A 
ATOM     64  C   UNL A   1      43.361  27.093  31.433  1.00  0.00     0.031 C 
ATOM     65  C   UNL A   1      43.168  28.334  33.568  1.00  0.00     0.034 A 
BRANCH  52  66
ATOM     66  C   UNL A   1      39.881  32.741  36.438  1.00  0.00     0.023 A 
ATOM     67  C   UNL A   1      38.982  32.311  37.430  1.00  0.00     0.031 A 
ATOM     68  C   UNL A   1      40.553  33.959  36.644  1.00  0.00     0.131 A 
ATOM     69  C   UNL A   1      38.727  33.122  38.545  1.00  0.00     0.055 A 
ATOM     70  C   UNL A   1      40.359  34.720  37.798  1.00  0.00     0.041 A 
ATOM     71  F   UNL A   1      41.405  34.434  35.723  1.00  0.00    -0.206 F 
ATOM     72  C   UNL A   1      39.431  34.309  38.752  1.00  0.00     0.022 A 
BRANCH  69  73
ATOM     73  S   UNL A   1      37.364  32.668  39.652  1.00  0.00     0.124 S 
ATOM     74  O   UNL A   1      36.227  32.674  38.734  1.00  0.00    -0.237 OA
ATOM     75  O   UNL A   1      37.779  31.360  40.146  1.00  0.00    -0.237 OA
ATOM     76  O   UNL A   1      37.360  33.738  40.647  1.00  0.00    -0.744 OA
ENDBRANCH  69  73
ENDBRANCH  52  66
BRANCH  53  77
ATOM     77  C   UNL A   1      41.016  27.510  27.959  1.00  0.00     0.023 A 
ATOM     78  C   UNL A   1      40.715  26.139  27.915  1.00  0.00     0.031 A 
ATOM     79  C   UNL A   1      41.607  28.087  26.821  1.00  0.00     0.131 A 
ATOM     80  C   UNL A   1      41.084  25.376  26.797  1.00  0.00     0.055 A 
ATOM     81  C   UNL A   1      41.902  27.338  25.681  1.00  0.00     0.041 A 
ATOM     82  F   UNL A   1      41.918  29.394  26.804  1.00  0.00    -0.206 F 
ATOM     83  C   UNL A   1      41.663  25.967  25.673  1.00  0.00     0.022 A 
BRANCH  80  84
ATOM     84  S   UNL A   1      40.940  23.569  26.899  1.00  0.00     0.124 S 
ATOM     85  O   UNL A   1      41.381  23.316  28.267  1.00  0.00    -0.237 OA
ATOM     86  O   UNL A   1      39.521  23.364  26.634  1.00  0.00    -0.237 OA
ATOM     87  O   UNL A   1      41.845  23.098  25.854  1.00  0.00    -0.744 OA
ENDBRANCH  80  84
ENDBRANCH  53  77
BRANCH  65  88
ATOM     88  C   UNL A   1      44.253  27.447  34.132  1.00  0.00     0.023 A 
ATOM     89  C   UNL A   1      43.976  26.199  34.714  1.00  0.00     0.031 A 
ATOM     90  C   UNL A   1      45.593  27.876  34.100  1.00  0.00     0.131 A 
ATOM     91  C   UNL A   1      45.012  25.457  35.304  1.00  0.00     0.055 A 
ATOM     92  C   UNL A   1      46.628  27.100  34.622  1.00  0.00     0.041 A 
ATOM     93  F   UNL A   1      45.920  29.062  33.559  1.00  0.00    -0.206 F 
ATOM     94  C   UNL A   1      46.338  25.891  35.245  1.00  0.00     0.022 A 
BRANCH  91  95
ATOM     95  S   UNL A   1      44.585  23.972  36.255  1.00  0.00     0.124 S 
ATOM     96  O   UNL A   1      44.338  24.521  37.584  1.00  0.00    -0.237 OA
ATOM     97  O   UNL A   1      43.412  23.473  35.544  1.00  0.00    -0.237 OA
ATOM     98  O   UNL A   1      45.780  23.136  36.141  1.00  0.00    -0.744 OA
ENDBRANCH  91  95
ENDBRANCH  65  88
ENDBRANCH  39  40
ENDBRANCH  31  34
ENDBRANCH  29  30
ENDBRANCH  28  29
ENDBRANCH   1  28
TORSDOF 19
ENDMDL
MODEL 2
REMARK VINA RESULT:     -11.9      2.124      8.251
REMARK SMILES CS(=O)(=O)N1C[C@@H]2CN(C(=O)c3ccco3)C[C@]2(C(=O)NCCCCCCNC(=O)c2ccc(-c3c4nc(c(-c5cc(S(=O)(=O)[O-])ccc5F)c5ccc([nH]5)c(-c5cc(S(=O)(=O)[O-])ccc5F)c5nc(c(-c6cc(S(=O)(=O)[O-])ccc6F)c6ccc3[nH]6)C=C5)C=C4)cc2)C1
REMARK SMILES IDX 25 1 24 2 23 3 22 4 21 5 19 6 20 7 18 9 5 10 6 11 94 12 7 13
REMARK SMILES IDX 8 14 17 15 9 16 2 17 1 18 3 19 4 20 10 21 11 22 12 23 13 24
REMARK SMILES IDX 16 25 14 26 15 27 26 28 27 29 28 30 29 31 30 33 31 34 32 35
REMARK SMILES IDX 93 36 33 37 92 38 34 39 35 40 36 41 86 42 37 43 91 44 85 45
REMARK SMILES IDX 87 46 38 47 90 48 84 49 83 50 39 52 71 53 51 54 70 55 52 56
REMARK SMILES IDX 55 57 69 58 88 59 53 60 54 61 68 63 89 64 56 65 40 66 41 67
REMARK SMILES IDX 49 68 42 69 48 70 50 71 47 72 43 73 44 74 45 75 46 76 72 77
REMARK SMILES IDX 73 78 81 79 74 80 80 81 82 82 79 83 75 84 76 85 77 86 78 87
REMARK SMILES IDX 57 88 58 89 66 90 59 91 65 92 67 93 64 94 60 95 61 96 62 97
REMARK SMILES IDX 63 98
REMARK H PARENT 21 8 28 32 87 51 55 62
REMARK Flexibility Score: inf
ROOT
ATOM      1  C   UNL A   1      31.487  30.697  26.303  1.00  0.00     0.002 C 
ENDROOT
BRANCH   1   2
ATOM      2  C   UNL A   1      32.609  29.927  26.995  1.00  0.00     0.002 C 
BRANCH   2   3
ATOM      3  C   UNL A   1      32.178  28.565  27.539  1.00  0.00     0.021 C 
BRANCH   3   4
ATOM      4  C   UNL A   1      32.228  27.434  26.515  1.00  0.00     0.116 C 
BRANCH   4   5
ATOM      5  N   UNL A   1      31.264  26.416  26.884  1.00  0.00    -0.356 N 
ATOM      6  C   UNL A   1      30.529  25.650  26.014  1.00  0.00     0.229 C 
ATOM      7  O   UNL A   1      29.488  25.126  26.415  1.00  0.00    -0.274 OA
ATOM      8  H   UNL A   1      31.123  26.261  27.847  1.00  0.00     0.163 HD
BRANCH   6   9
ATOM      9  C   UNL A   1      31.121  25.469  24.590  1.00  0.00     0.086 C 
ATOM     10  N   UNL A   1      32.156  23.247  24.137  1.00  0.00    -0.201 NA
ATOM     11  C   UNL A   1      32.211  23.963  22.883  1.00  0.00     0.108 C 
ATOM     12  C   UNL A   1      31.150  23.904  25.000  1.00  0.00     0.121 C 
ATOM     13  C   UNL A   1      31.115  24.987  23.082  1.00  0.00     0.042 C 
ATOM     14  C   UNL A   1      31.334  26.207  22.218  1.00  0.00     0.126 C 
ATOM     15  C   UNL A   1      30.033  26.586  24.138  1.00  0.00     0.138 C 
ATOM     16  N   UNL A   1      30.615  27.204  22.945  1.00  0.00    -0.334 N 
BRANCH  10  17
ATOM     17  S   UNL A   1      32.397  21.594  24.216  1.00  0.00     0.211 S 
ATOM     18  C   UNL A   1      34.139  21.454  24.567  1.00  0.00     0.176 C 
ATOM     19  O   UNL A   1      32.189  21.057  22.887  1.00  0.00    -0.213 OA
ATOM     20  O   UNL A   1      31.663  21.088  25.353  1.00  0.00    -0.213 OA
ENDBRANCH  10  17
BRANCH  16  21
ATOM     21  C   UNL A   1      30.807  28.545  22.617  1.00  0.00     0.289 C 
ATOM     22  O   UNL A   1      31.943  29.021  22.660  1.00  0.00    -0.265 OA
BRANCH  21  23
ATOM     23  C   UNL A   1      29.659  29.380  22.338  1.00  0.00     0.191 A 
ATOM     24  C   UNL A   1      28.568  29.671  23.137  1.00  0.00     0.056 A 
ATOM     25  O   UNL A   1      29.564  30.075  21.164  1.00  0.00    -0.459 OA
ATOM     26  C   UNL A   1      27.754  30.568  22.409  1.00  0.00     0.043 A 
ATOM     27  C   UNL A   1      28.422  30.811  21.232  1.00  0.00     0.196 A 
ENDBRANCH  21  23
ENDBRANCH  16  21
ENDBRANCH   6   9
ENDBRANCH   4   5
ENDBRANCH   3   4
ENDBRANCH   2   3
ENDBRANCH   1   2
BRANCH   1  28
ATOM     28  C   UNL A   1      31.514  32.214  26.519  1.00  0.00     0.021 C 
BRANCH  28  29
ATOM     29  C   UNL A   1      32.698  32.726  27.336  1.00  0.00     0.116 C 
BRANCH  29  30
ATOM     30  N   UNL A   1      32.556  34.129  27.684  1.00  0.00    -0.352 N 
ATOM     31  C   UNL A   1      33.179  34.839  28.679  1.00  0.00     0.251 C 
ATOM     32  H   UNL A   1      31.925  34.641  27.128  1.00  0.00     0.163 HD
ATOM     33  O   UNL A   1      32.789  35.967  28.961  1.00  0.00    -0.269 OA
BRANCH  31  34
ATOM     34  C   UNL A   1      34.308  34.227  29.412  1.00  0.00     0.039 A 
ATOM     35  C   UNL A   1      34.040  33.464  30.550  1.00  0.00     0.014 A 
ATOM     36  C   UNL A   1      35.624  34.415  28.978  1.00  0.00     0.014 A 
ATOM     37  C   UNL A   1      35.094  32.857  31.235  1.00  0.00     0.010 A 
ATOM     38  C   UNL A   1      36.666  33.754  29.626  1.00  0.00     0.010 A 
ATOM     39  C   UNL A   1      36.414  32.979  30.769  1.00  0.00    -0.014 A 
BRANCH  39  40
ATOM     40  C   UNL A   1      37.543  32.338  31.496  1.00  0.00     0.031 A 
ATOM     41  C   UNL A   1      38.274  31.179  30.871  1.00  0.00     0.074 A 
ATOM     42  C   UNL A   1      37.905  32.788  32.714  1.00  0.00     0.049 A 
ATOM     43  N   UNL A   1      39.253  30.459  31.354  1.00  0.00    -0.248 NA
ATOM     44  C   UNL A   1      37.827  30.760  29.533  1.00  0.00     0.031 C 
ATOM     45  C   UNL A   1      37.268  33.896  33.430  1.00  0.00     0.029 A 
ATOM     46  N   UNL A   1      38.898  32.374  33.566  1.00  0.00    -0.354 N 
ATOM     47  C   UNL A   1      39.547  29.512  30.379  1.00  0.00     0.074 A 
ATOM     48  C   UNL A   1      38.587  29.698  29.312  1.00  0.00     0.031 C 
ATOM     49  C   UNL A   1      37.907  34.093  34.594  1.00  0.00     0.029 A 
ATOM     50  C   UNL A   1      38.966  33.099  34.736  1.00  0.00     0.049 A 
ATOM     51  H   UNL A   1      39.506  31.628  33.361  1.00  0.00     0.167 HD
ATOM     52  C   UNL A   1      40.545  28.595  30.356  1.00  0.00     0.034 A 
ATOM     53  C   UNL A   1      39.784  32.969  35.800  1.00  0.00     0.034 A 
ATOM     54  C   UNL A   1      41.497  28.416  31.425  1.00  0.00     0.049 A 
ATOM     55  C   UNL A   1      40.840  31.888  35.780  1.00  0.00     0.074 A 
ATOM     56  C   UNL A   1      42.545  27.515  31.505  1.00  0.00     0.029 A 
ATOM     57  N   UNL A   1      41.519  29.153  32.601  1.00  0.00    -0.354 N 
ATOM     58  N   UNL A   1      41.115  31.014  34.837  1.00  0.00    -0.248 NA
ATOM     59  C   UNL A   1      41.709  31.787  36.960  1.00  0.00     0.031 C 
ATOM     60  C   UNL A   1      43.158  27.663  32.753  1.00  0.00     0.029 A 
ATOM     61  C   UNL A   1      42.552  28.716  33.416  1.00  0.00     0.049 A 
ATOM     62  H   UNL A   1      40.893  29.879  32.824  1.00  0.00     0.167 HD
ATOM     63  C   UNL A   1      42.225  30.305  35.292  1.00  0.00     0.074 A 
ATOM     64  C   UNL A   1      42.574  30.859  36.582  1.00  0.00     0.031 C 
ATOM     65  C   UNL A   1      42.902  29.290  34.694  1.00  0.00     0.034 A 
BRANCH  52  66
ATOM     66  C   UNL A   1      40.649  27.712  29.136  1.00  0.00     0.023 A 
ATOM     67  C   UNL A   1      41.598  27.963  28.129  1.00  0.00     0.031 A 
ATOM     68  C   UNL A   1      39.789  26.611  28.969  1.00  0.00     0.131 A 
ATOM     69  C   UNL A   1      41.620  27.169  26.973  1.00  0.00     0.055 A 
ATOM     70  C   UNL A   1      39.875  25.774  27.855  1.00  0.00     0.041 A 
ATOM     71  F   UNL A   1      38.847  26.334  29.884  1.00  0.00    -0.206 F 
ATOM     72  C   UNL A   1      40.785  26.059  26.841  1.00  0.00     0.022 A 
BRANCH  69  73
ATOM     73  S   UNL A   1      42.663  27.694  25.584  1.00  0.00     0.124 S 
ATOM     74  O   UNL A   1      41.927  28.855  25.087  1.00  0.00    -0.237 OA
ATOM     75  O   UNL A   1      43.938  27.976  26.234  1.00  0.00    -0.237 OA
ATOM     76  O   UNL A   1      42.659  26.534  24.696  1.00  0.00    -0.744 OA
ENDBRANCH  69  73
ENDBRANCH  52  66
BRANCH  53  77
ATOM     77  C   UNL A   1      39.652  33.867  36.989  1.00  0.00     0.023 A 
ATOM     78  C   UNL A   1      39.072  33.401  38.180  1.00  0.00     0.031 A 
ATOM     79  C   UNL A   1      40.006  35.226  36.920  1.00  0.00     0.131 A 
ATOM     80  C   UNL A   1      38.781  34.301  39.216  1.00  0.00     0.055 A 
ATOM     81  C   UNL A   1      39.785  36.102  37.984  1.00  0.00     0.041 A 
ATOM     82  F   UNL A   1      40.565  35.728  35.807  1.00  0.00    -0.206 F 
ATOM     83  C   UNL A   1      39.147  35.646  39.134  1.00  0.00     0.022 A 
BRANCH  80  84
ATOM     84  S   UNL A   1      37.775  33.718  40.610  1.00  0.00     0.124 S 
ATOM     85  O   UNL A   1      38.697  32.805  41.275  1.00  0.00    -0.237 OA
ATOM     86  O   UNL A   1      37.484  34.962  41.314  1.00  0.00    -0.237 OA
ATOM     87  O   UNL A   1      36.629  33.087  39.960  1.00  0.00    -0.744 OA
ENDBRANCH  80  84
ENDBRANCH  53  77
BRANCH  65  88
ATOM     88  C   UNL A   1      44.141  28.779  35.391  1.00  0.00     0.023 A 
ATOM     89  C   UNL A   1      44.095  27.745  36.341  1.00  0.00     0.031 A 
ATOM     90  C   UNL A   1      45.392  29.357  35.106  1.00  0.00     0.131 A 
ATOM     91  C   UNL A   1      45.263  27.372  37.025  1.00  0.00     0.055 A 
ATOM     92  C   UNL A   1      46.562  28.930  35.736  1.00  0.00     0.041 A 
ATOM     93  F   UNL A   1      45.499  30.351  34.209  1.00  0.00    -0.206 F 
ATOM     94  C   UNL A   1      46.498  27.944  36.714  1.00  0.00     0.022 A 
BRANCH  91  95
ATOM     95  S   UNL A   1      45.125  26.208  38.411  1.00  0.00     0.124 S 
ATOM     96  O   UNL A   1      44.826  24.955  37.727  1.00  0.00    -0.237 OA
ATOM     97  O   UNL A   1      46.445  26.299  39.027  1.00  0.00    -0.237 OA
ATOM     98  O   UNL A   1      44.030  26.756  39.211  1.00  0.00    -0.744 OA
ENDBRANCH  91  95
ENDBRANCH  65  88
ENDBRANCH  39  40
ENDBRANCH  31  34
ENDBRANCH  29  30
ENDBRANCH  28  29
ENDBRANCH   1  28
TORSDOF 19
ENDMDL
MODEL 3
REMARK VINA RESULT:     -11.8      1.436      3.457
REMARK SMILES CS(=O)(=O)N1C[C@@H]2CN(C(=O)c3ccco3)C[C@]2(C(=O)NCCCCCCNC(=O)c2ccc(-c3c4nc(c(-c5cc(S(=O)(=O)[O-])ccc5F)c5ccc([nH]5)c(-c5cc(S(=O)(=O)[O-])ccc5F)c5nc(c(-c6cc(S(=O)(=O)[O-])ccc6F)c6ccc3[nH]6)C=C5)C=C4)cc2)C1
REMARK SMILES IDX 25 1 24 2 23 3 22 4 21 5 19 6 20 7 18 9 5 10 6 11 94 12 7 13
REMARK SMILES IDX 8 14 17 15 9 16 2 17 1 18 3 19 4 20 10 21 11 22 12 23 13 24
REMARK SMILES IDX 16 25 14 26 15 27 26 28 27 29 28 30 29 31 30 33 31 34 32 35
REMARK SMILES IDX 93 36 33 37 92 38 34 39 35 40 36 41 86 42 37 43 91 44 85 45
REMARK SMILES IDX 87 46 38 47 90 48 84 49 83 50 39 52 71 53 51 54 70 55 52 56
REMARK SMILES IDX 55 57 69 58 88 59 53 60 54 61 68 63 89 64 56 65 40 66 41 67
REMARK SMILES IDX 49 68 42 69 48 70 50 71 47 72 43 73 44 74 45 75 46 76 72 77
REMARK SMILES IDX 73 78 81 79 74 80 80 81 82 82 79 83 75 84 76 85 77 86 78 87
REMARK SMILES IDX 57 88 58 89 66 90 59 91 65 92 67 93 64 94 60 95 61 96 62 97
REMARK SMILES IDX 63 98
REMARK H PARENT 21 8 28 32 87 51 55 62
REMARK Flexibility Score: inf
ROOT
ATOM      1  C   UNL A   1      31.678  30.188  26.892  1.00  0.00     0.002 C 
ENDROOT
BRANCH   1   2
ATOM      2  C   UNL A   1      33.117  29.776  27.200  1.00  0.00     0.002 C 
BRANCH   2   3
ATOM      3  C   UNL A   1      33.310  28.265  27.334  1.00  0.00     0.021 C 
BRANCH   3   4
ATOM      4  C   UNL A   1      32.683  27.450  26.206  1.00  0.00     0.116 C 
BRANCH   4   5
ATOM      5  N   UNL A   1      31.791  26.458  26.777  1.00  0.00    -0.356 N 
ATOM      6  C   UNL A   1      30.937  25.644  26.074  1.00  0.00     0.229 C 
ATOM      7  O   UNL A   1      29.972  25.148  26.659  1.00  0.00    -0.274 OA
ATOM      8  H   UNL A   1      31.798  26.360  27.757  1.00  0.00     0.163 HD
BRANCH   6   9
ATOM      9  C   UNL A   1      31.308  25.378  24.590  1.00  0.00     0.086 C 
ATOM     10  N   UNL A   1      32.193  23.099  24.102  1.00  0.00    -0.201 NA
ATOM     11  C   UNL A   1      32.086  23.756  22.820  1.00  0.00     0.108 C 
ATOM     12  C   UNL A   1      31.346  23.833  25.069  1.00  0.00     0.121 C 
ATOM     13  C   UNL A   1      31.065  24.830  23.125  1.00  0.00     0.042 C 
ATOM     14  C   UNL A   1      31.193  26.001  22.179  1.00  0.00     0.126 C 
ATOM     15  C   UNL A   1      30.202  26.515  24.246  1.00  0.00     0.138 C 
ATOM     16  N   UNL A   1      30.621  27.057  22.952  1.00  0.00    -0.334 N 
BRANCH  10  17
ATOM     17  S   UNL A   1      32.390  21.443  24.227  1.00  0.00     0.211 S 
ATOM     18  C   UNL A   1      34.118  21.269  24.630  1.00  0.00     0.176 C 
ATOM     19  O   UNL A   1      32.205  20.879  22.906  1.00  0.00    -0.213 OA
ATOM     20  O   UNL A   1      31.612  20.984  25.355  1.00  0.00    -0.213 OA
ENDBRANCH  10  17
BRANCH  16  21
ATOM     21  C   UNL A   1      30.806  28.373  22.534  1.00  0.00     0.289 C 
ATOM     22  O   UNL A   1      31.947  28.835  22.477  1.00  0.00    -0.265 OA
BRANCH  21  23
ATOM     23  C   UNL A   1      29.651  29.207  22.280  1.00  0.00     0.191 A 
ATOM     24  C   UNL A   1      28.463  29.302  22.982  1.00  0.00     0.056 A 
ATOM     25  O   UNL A   1      29.649  30.111  21.254  1.00  0.00    -0.459 OA
ATOM     26  C   UNL A   1      27.686  30.294  22.341  1.00  0.00     0.043 A 
ATOM     27  C   UNL A   1      28.467  30.782  21.320  1.00  0.00     0.196 A 
ENDBRANCH  21  23
ENDBRANCH  16  21
ENDBRANCH   6   9
ENDBRANCH   4   5
ENDBRANCH   3   4
ENDBRANCH   2   3
ENDBRANCH   1   2
BRANCH   1  28
ATOM     28  C   UNL A   1      31.440  31.700  26.820  1.00  0.00     0.021 C 
BRANCH  28  29
ATOM     29  C   UNL A   1      32.708  32.549  26.774  1.00  0.00     0.116 C 
BRANCH  29  30
ATOM     30  N   UNL A   1      32.509  33.860  27.367  1.00  0.00    -0.352 N 
ATOM     31  C   UNL A   1      33.132  34.417  28.457  1.00  0.00     0.251 C 
ATOM     32  H   UNL A   1      31.835  34.427  26.928  1.00  0.00     0.163 HD
ATOM     33  O   UNL A   1      32.697  35.456  28.944  1.00  0.00    -0.269 OA
BRANCH  31  34
ATOM     34  C   UNL A   1      34.313  33.748  29.040  1.00  0.00     0.039 A 
ATOM     35  C   UNL A   1      34.121  32.650  29.881  1.00  0.00     0.014 A 
ATOM     36  C   UNL A   1      35.603  34.211  28.763  1.00  0.00     0.014 A 
ATOM     37  C   UNL A   1      35.230  31.991  30.416  1.00  0.00     0.010 A 
ATOM     38  C   UNL A   1      36.708  33.513  29.246  1.00  0.00     0.010 A 
ATOM     39  C   UNL A   1      36.534  32.403  30.089  1.00  0.00    -0.014 A 
BRANCH  39  40
ATOM     40  C   UNL A   1      37.720  31.709  30.658  1.00  0.00     0.031 A 
ATOM     41  C   UNL A   1      38.180  32.037  32.055  1.00  0.00     0.074 A 
ATOM     42  C   UNL A   1      38.386  30.795  29.924  1.00  0.00     0.049 A 
ATOM     43  N   UNL A   1      39.209  31.577  32.717  1.00  0.00    -0.248 NA
ATOM     44  C   UNL A   1      37.387  33.033  32.794  1.00  0.00     0.031 C 
ATOM     45  C   UNL A   1      38.046  30.399  28.556  1.00  0.00     0.029 A 
ATOM     46  N   UNL A   1      39.486  30.031  30.224  1.00  0.00    -0.354 N 
ATOM     47  C   UNL A   1      39.183  32.216  33.952  1.00  0.00     0.074 A 
ATOM     48  C   UNL A   1      38.083  33.156  33.914  1.00  0.00     0.031 C 
ATOM     49  C   UNL A   1      38.897  29.443  28.150  1.00  0.00     0.029 A 
ATOM     50  C   UNL A   1      39.875  29.192  29.203  1.00  0.00     0.049 A 
ATOM     51  H   UNL A   1      39.954  30.078  31.088  1.00  0.00     0.167 HD
ATOM     52  C   UNL A   1      39.977  32.015  35.032  1.00  0.00     0.034 A 
ATOM     53  C   UNL A   1      40.906  28.325  29.126  1.00  0.00     0.034 A 
ATOM     54  C   UNL A   1      41.073  31.076  35.061  1.00  0.00     0.049 A 
ATOM     55  C   UNL A   1      41.823  28.177  30.320  1.00  0.00     0.074 A 
ATOM     56  C   UNL A   1      41.942  30.797  36.101  1.00  0.00     0.029 A 
ATOM     57  N   UNL A   1      41.448  30.262  34.001  1.00  0.00    -0.354 N 
ATOM     58  N   UNL A   1      41.769  28.777  31.487  1.00  0.00    -0.248 NA
ATOM     59  C   UNL A   1      42.929  27.219  30.190  1.00  0.00     0.031 C 
ATOM     60  C   UNL A   1      42.881  29.864  35.650  1.00  0.00     0.029 A 
ATOM     61  C   UNL A   1      42.545  29.493  34.360  1.00  0.00     0.049 A 
ATOM     62  H   UNL A   1      41.002  30.234  33.125  1.00  0.00     0.167 HD
ATOM     63  C   UNL A   1      42.798  28.222  32.246  1.00  0.00     0.074 A 
ATOM     64  C   UNL A   1      43.445  27.235  31.409  1.00  0.00     0.031 C 
ATOM     65  C   UNL A   1      43.171  28.497  33.522  1.00  0.00     0.034 A 
BRANCH  52  66
ATOM     66  C   UNL A   1      39.692  32.835  36.268  1.00  0.00     0.023 A 
ATOM     67  C   UNL A   1      38.875  32.343  37.300  1.00  0.00     0.031 A 
ATOM     68  C   UNL A   1      40.233  34.125  36.416  1.00  0.00     0.131 A 
ATOM     69  C   UNL A   1      38.567  33.157  38.400  1.00  0.00     0.055 A 
ATOM     70  C   UNL A   1      39.992  34.896  37.555  1.00  0.00     0.041 A 
ATOM     71  F   UNL A   1      41.001  34.659  35.454  1.00  0.00    -0.206 F 
ATOM     72  C   UNL A   1      39.144  34.419  38.550  1.00  0.00     0.022 A 
BRANCH  69  73
ATOM     73  S   UNL A   1      37.295  32.593  39.563  1.00  0.00     0.124 S 
ATOM     74  O   UNL A   1      36.095  32.637  38.730  1.00  0.00    -0.237 OA
ATOM     75  O   UNL A   1      37.769  31.264  39.932  1.00  0.00    -0.237 OA
ATOM     76  O   UNL A   1      37.340  33.591  40.630  1.00  0.00    -0.744 OA
ENDBRANCH  69  73
ENDBRANCH  52  66
BRANCH  53  77
ATOM     77  C   UNL A   1      41.154  27.527  27.886  1.00  0.00     0.023 A 
ATOM     78  C   UNL A   1      40.864  26.154  27.846  1.00  0.00     0.031 A 
ATOM     79  C   UNL A   1      41.779  28.099  26.764  1.00  0.00     0.131 A 
ATOM     80  C   UNL A   1      41.278  25.383  26.749  1.00  0.00     0.055 A 
ATOM     81  C   UNL A   1      42.118  27.341  25.642  1.00  0.00     0.041 A 
ATOM     82  F   UNL A   1      42.080  29.407  26.745  1.00  0.00    -0.206 F 
ATOM     83  C   UNL A   1      41.890  25.968  25.640  1.00  0.00     0.022 A 
BRANCH  80  84
ATOM     84  S   UNL A   1      41.144  23.576  26.864  1.00  0.00     0.124 S 
ATOM     85  O   UNL A   1      39.720  23.372  26.625  1.00  0.00    -0.237 OA
ATOM     86  O   UNL A   1      42.042  23.138  25.802  1.00  0.00    -0.237 OA
ATOM     87  O   UNL A   1      41.598  23.289  28.223  1.00  0.00    -0.744 OA
ENDBRANCH  80  84
ENDBRANCH  53  77
BRANCH  65  88
ATOM     88  C   UNL A   1      44.274  27.654  34.118  1.00  0.00     0.023 A 
ATOM     89  C   UNL A   1      44.014  26.463  34.816  1.00  0.00     0.031 A 
ATOM     90  C   UNL A   1      45.614  28.069  33.999  1.00  0.00     0.131 A 
ATOM     91  C   UNL A   1      45.068  25.767  35.428  1.00  0.00     0.055 A 
ATOM     92  C   UNL A   1      46.665  27.332  34.547  1.00  0.00     0.041 A 
ATOM     93  F   UNL A   1      45.925  29.201  33.346  1.00  0.00    -0.206 F 
ATOM     94  C   UNL A   1      46.393  26.183  35.281  1.00  0.00     0.022 A 
BRANCH  91  95
ATOM     95  S   UNL A   1      44.672  24.372  36.519  1.00  0.00     0.124 S 
ATOM     96  O   UNL A   1      43.864  23.525  35.648  1.00  0.00    -0.237 OA
ATOM     97  O   UNL A   1      45.995  23.857  36.860  1.00  0.00    -0.237 OA
ATOM     98  O   UNL A   1      43.947  24.997  37.625  1.00  0.00    -0.744 OA
ENDBRANCH  91  95
ENDBRANCH  65  88
ENDBRANCH  39  40
ENDBRANCH  31  34
ENDBRANCH  29  30
ENDBRANCH  28  29
ENDBRANCH   1  28
TORSDOF 19
ENDMDL
