MODEL 1
REMARK VINA RESULT:      -9.7      0.000      0.000
REMARK SMILES Cc1c(C[NH2+]CC(=O)NCCCCCCNC(=O)c2ccc(-c3c4nc(c(-c5cc(S(=O)(=O)[O-])ccc5F)c5ccc([nH]5)c(-c5cc(S(=O)(=O)[O-])ccc5F)c5nc(c(-c6cc(S(=O)(=O)[O-])ccc6F)c6ccc3[nH]6)C=C5)C=C4)cc2)cnn1C
REMARK SMILES IDX 12 1 11 2 10 3 9 4 7 5 8 6 6 8 5 9 4 12 3 13 1 14 2 15 84 16
REMARK SMILES IDX 82 17 83 18 85 19 13 20 14 21 15 22 16 23 17 24 18 26 19 27
REMARK SMILES IDX 20 28 81 29 21 30 80 31 22 32 23 33 24 34 74 35 25 36 79 37
REMARK SMILES IDX 73 38 75 39 26 40 78 41 72 42 71 43 27 45 59 46 39 47 58 48
REMARK SMILES IDX 40 49 43 50 57 51 76 52 41 53 42 54 56 56 77 57 44 58 28 59
REMARK SMILES IDX 29 60 37 61 30 62 36 63 38 64 35 65 31 66 32 67 33 68 34 69
REMARK SMILES IDX 60 70 61 71 69 72 62 73 68 74 70 75 67 76 63 77 64 78 65 79
REMARK SMILES IDX 66 80 45 81 46 82 54 83 47 84 53 85 55 86 52 87 48 88 49 89
REMARK SMILES IDX 50 90 51 91
REMARK H PARENT 9 7 5 10 5 11 16 25 75 44 43 55
REMARK Flexibility Score: inf
ROOT
ATOM      1  C   UNL A   1      35.089  31.826  27.999  1.00  0.00     0.002 C 
ENDROOT
BRANCH   1   2
ATOM      2  C   UNL A   1      33.735  31.244  27.595  1.00  0.00     0.021 C 
BRANCH   2   3
ATOM      3  C   UNL A   1      33.788  29.825  27.008  1.00  0.00     0.116 C 
BRANCH   3   4
ATOM      4  N   UNL A   1      32.813  28.963  27.660  1.00  0.00    -0.351 N 
ATOM      5  C   UNL A   1      31.859  28.139  27.132  1.00  0.00     0.275 C 
ATOM      6  O   UNL A   1      31.025  27.657  27.903  1.00  0.00    -0.269 OA
ATOM      7  H   UNL A   1      32.846  28.976  28.643  1.00  0.00     0.163 HD
BRANCH   5   8
ATOM      8  C   UNL A   1      31.817  27.818  25.627  1.00  0.00     0.362 C 
BRANCH   8   9
ATOM      9  N   UNL A   1      30.623  27.036  25.229  1.00  0.00    -0.335 N 
ATOM     10  H   UNL A   1      30.682  26.101  25.632  1.00  0.00     0.347 HD
ATOM     11  H   UNL A   1      29.785  27.507  25.569  1.00  0.00     0.347 HD
BRANCH   9  12
ATOM     12  C   UNL A   1      30.556  26.931  23.780  1.00  0.00     0.301 C 
BRANCH  12  13
ATOM     13  C   UNL A   1      30.144  28.183  23.106  1.00  0.00     0.047 A 
ATOM     14  C   UNL A   1      27.559  28.232  23.382  1.00  0.00     0.067 C 
ATOM     15  C   UNL A   1      28.877  28.693  22.881  1.00  0.00     0.044 A 
ATOM     16  N   UNL A   1      29.049  29.726  21.991  1.00  0.00    -0.272 N 
ATOM     17  C   UNL A   1      31.001  29.042  22.380  1.00  0.00     0.145 A 
ATOM     18  N   UNL A   1      30.340  29.992  21.724  1.00  0.00    -0.181 NA
ATOM     19  C   UNL A   1      28.029  30.451  21.270  1.00  0.00     0.174 C 
ENDBRANCH  12  13
ENDBRANCH   9  12
ENDBRANCH   8   9
ENDBRANCH   5   8
ENDBRANCH   3   4
ENDBRANCH   2   3
ENDBRANCH   1   2
BRANCH   1  20
ATOM     20  C   UNL A   1      35.162  33.353  28.004  1.00  0.00     0.002 C 
BRANCH  20  21
ATOM     21  C   UNL A   1      33.821  34.084  28.129  1.00  0.00     0.021 C 
BRANCH  21  22
ATOM     22  C   UNL A   1      33.898  35.532  28.611  1.00  0.00     0.116 C 
BRANCH  22  23
ATOM     23  N   UNL A   1      33.158  35.736  29.842  1.00  0.00    -0.352 N 
ATOM     24  C   UNL A   1      33.328  35.164  31.078  1.00  0.00     0.251 C 
ATOM     25  H   UNL A   1      32.420  36.385  29.781  1.00  0.00     0.163 HD
ATOM     26  O   UNL A   1      32.450  35.299  31.925  1.00  0.00    -0.269 OA
BRANCH  24  27
ATOM     27  C   UNL A   1      34.547  34.381  31.388  1.00  0.00     0.039 A 
ATOM     28  C   UNL A   1      34.403  33.063  31.830  1.00  0.00     0.014 A 
ATOM     29  C   UNL A   1      35.821  34.953  31.312  1.00  0.00     0.014 A 
ATOM     30  C   UNL A   1      35.533  32.309  32.162  1.00  0.00     0.010 A 
ATOM     31  C   UNL A   1      36.951  34.181  31.582  1.00  0.00     0.010 A 
ATOM     32  C   UNL A   1      36.819  32.857  32.029  1.00  0.00    -0.014 A 
BRANCH  32  33
ATOM     33  C   UNL A   1      38.026  32.080  32.419  1.00  0.00     0.031 A 
ATOM     34  C   UNL A   1      38.708  32.370  33.731  1.00  0.00     0.074 A 
ATOM     35  C   UNL A   1      38.519  31.137  31.594  1.00  0.00     0.049 A 
ATOM     36  N   UNL A   1      39.801  31.852  34.233  1.00  0.00    -0.248 NA
ATOM     37  C   UNL A   1      38.089  33.400  34.581  1.00  0.00     0.031 C 
ATOM     38  C   UNL A   1      37.960  30.778  30.289  1.00  0.00     0.029 A 
ATOM     39  N   UNL A   1      39.603  30.304  31.730  1.00  0.00    -0.354 N 
ATOM     40  C   UNL A   1      40.001  32.493  35.452  1.00  0.00     0.074 A 
ATOM     41  C   UNL A   1      38.955  33.486  35.578  1.00  0.00     0.031 C 
ATOM     42  C   UNL A   1      38.691  29.785  29.756  1.00  0.00     0.029 A 
ATOM     43  C   UNL A   1      39.789  29.457  30.661  1.00  0.00     0.049 A 
ATOM     44  H   UNL A   1      40.191  30.312  32.519  1.00  0.00     0.167 HD
ATOM     45  C   UNL A   1      40.948  32.257  36.393  1.00  0.00     0.034 A 
ATOM     46  C   UNL A   1      40.738  28.527  30.438  1.00  0.00     0.034 A 
ATOM     47  C   UNL A   1      41.983  31.260  36.260  1.00  0.00     0.049 A 
ATOM     48  C   UNL A   1      41.790  28.293  31.496  1.00  0.00     0.074 A 
ATOM     49  C   UNL A   1      43.004  30.947  37.141  1.00  0.00     0.029 A 
ATOM     50  N   UNL A   1      42.120  30.402  35.176  1.00  0.00    -0.354 N 
ATOM     51  N   UNL A   1      41.957  28.902  32.648  1.00  0.00    -0.248 NA
ATOM     52  C   UNL A   1      42.765  27.227  31.234  1.00  0.00     0.031 C 
ATOM     53  C   UNL A   1      43.780  29.929  36.574  1.00  0.00     0.029 A 
ATOM     54  C   UNL A   1      43.205  29.562  35.368  1.00  0.00     0.049 A 
ATOM     55  H   UNL A   1      41.531  30.392  34.387  1.00  0.00     0.167 HD
ATOM     56  C   UNL A   1      43.027  28.257  33.264  1.00  0.00     0.074 A 
ATOM     57  C   UNL A   1      43.453  27.206  32.365  1.00  0.00     0.031 C 
ATOM     58  C   UNL A   1      43.605  28.508  34.468  1.00  0.00     0.034 A 
BRANCH  45  59
ATOM     59  C   UNL A   1      40.906  33.107  37.641  1.00  0.00     0.023 A 
ATOM     60  C   UNL A   1      40.176  32.706  38.774  1.00  0.00     0.031 A 
ATOM     61  C   UNL A   1      41.570  34.345  37.692  1.00  0.00     0.131 A 
ATOM     62  C   UNL A   1      40.064  33.565  39.877  1.00  0.00     0.055 A 
ATOM     63  C   UNL A   1      41.522  35.160  38.825  1.00  0.00     0.041 A 
ATOM     64  F   UNL A   1      42.267  34.791  36.634  1.00  0.00    -0.206 F 
ATOM     65  C   UNL A   1      40.753  34.778  39.921  1.00  0.00     0.022 A 
BRANCH  62  66
ATOM     66  S   UNL A   1      38.896  33.133  41.196  1.00  0.00     0.124 S 
ATOM     67  O   UNL A   1      37.791  34.048  40.919  1.00  0.00    -0.237 OA
ATOM     68  O   UNL A   1      38.636  31.722  40.940  1.00  0.00    -0.237 OA
ATOM     69  O   UNL A   1      39.641  33.419  42.420  1.00  0.00    -0.744 OA
ENDBRANCH  62  66
ENDBRANCH  45  59
BRANCH  46  70
ATOM     70  C   UNL A   1      40.749  27.731  29.177  1.00  0.00     0.023 A 
ATOM     71  C   UNL A   1      41.662  28.022  28.149  1.00  0.00     0.031 A 
ATOM     72  C   UNL A   1      39.797  26.724  28.944  1.00  0.00     0.131 A 
ATOM     73  C   UNL A   1      41.558  27.366  26.913  1.00  0.00     0.055 A 
ATOM     74  C   UNL A   1      39.736  26.031  27.733  1.00  0.00     0.041 A 
ATOM     75  F   UNL A   1      38.905  26.400  29.894  1.00  0.00    -0.206 F 
ATOM     76  C   UNL A   1      40.608  26.366  26.701  1.00  0.00     0.022 A 
BRANCH  73  77
ATOM     77  S   UNL A   1      42.604  27.932  25.543  1.00  0.00     0.124 S 
ATOM     78  O   UNL A   1      41.812  29.028  24.996  1.00  0.00    -0.237 OA
ATOM     79  O   UNL A   1      43.830  28.309  26.237  1.00  0.00    -0.237 OA
ATOM     80  O   UNL A   1      42.711  26.752  24.688  1.00  0.00    -0.744 OA
ENDBRANCH  73  77
ENDBRANCH  46  70
BRANCH  58  81
ATOM     81  C   UNL A   1      44.705  27.571  34.903  1.00  0.00     0.023 A 
ATOM     82  C   UNL A   1      46.059  27.833  34.627  1.00  0.00     0.031 A 
ATOM     83  C   UNL A   1      44.386  26.376  35.572  1.00  0.00     0.131 A 
ATOM     84  C   UNL A   1      47.035  26.879  34.951  1.00  0.00     0.055 A 
ATOM     85  C   UNL A   1      45.367  25.458  35.947  1.00  0.00     0.041 A 
ATOM     86  F   UNL A   1      43.109  26.077  35.862  1.00  0.00    -0.206 F 
ATOM     87  C   UNL A   1      46.698  25.699  35.620  1.00  0.00     0.022 A 
BRANCH  84  88
ATOM     88  S   UNL A   1      48.737  27.147  34.382  1.00  0.00     0.124 S 
ATOM     89  O   UNL A   1      48.839  28.603  34.402  1.00  0.00    -0.237 OA
ATOM     90  O   UNL A   1      49.515  26.439  35.393  1.00  0.00    -0.237 OA
ATOM     91  O   UNL A   1      48.753  26.543  33.052  1.00  0.00    -0.744 OA
ENDBRANCH  84  88
ENDBRANCH  58  81
ENDBRANCH  32  33
ENDBRANCH  24  27
ENDBRANCH  22  23
ENDBRANCH  21  22
ENDBRANCH  20  21
ENDBRANCH   1  20
TORSDOF 19
ENDMDL
MODEL 2
REMARK VINA RESULT:      -9.6      3.853      5.320
REMARK SMILES Cc1c(C[NH2+]CC(=O)NCCCCCCNC(=O)c2ccc(-c3c4nc(c(-c5cc(S(=O)(=O)[O-])ccc5F)c5ccc([nH]5)c(-c5cc(S(=O)(=O)[O-])ccc5F)c5nc(c(-c6cc(S(=O)(=O)[O-])ccc6F)c6ccc3[nH]6)C=C5)C=C4)cc2)cnn1C
REMARK SMILES IDX 12 1 11 2 10 3 9 4 7 5 8 6 6 8 5 9 4 12 3 13 1 14 2 15 84 16
REMARK SMILES IDX 82 17 83 18 85 19 13 20 14 21 15 22 16 23 17 24 18 26 19 27
REMARK SMILES IDX 20 28 81 29 21 30 80 31 22 32 23 33 24 34 74 35 25 36 79 37
REMARK SMILES IDX 73 38 75 39 26 40 78 41 72 42 71 43 27 45 59 46 39 47 58 48
REMARK SMILES IDX 40 49 43 50 57 51 76 52 41 53 42 54 56 56 77 57 44 58 28 59
REMARK SMILES IDX 29 60 37 61 30 62 36 63 38 64 35 65 31 66 32 67 33 68 34 69
REMARK SMILES IDX 60 70 61 71 69 72 62 73 68 74 70 75 67 76 63 77 64 78 65 79
REMARK SMILES IDX 66 80 45 81 46 82 54 83 47 84 53 85 55 86 52 87 48 88 49 89
REMARK SMILES IDX 50 90 51 91
REMARK H PARENT 9 7 5 10 5 11 16 25 75 44 43 55
REMARK Flexibility Score: inf
ROOT
ATOM      1  C   UNL A   1      31.383  27.226  27.019  1.00  0.00     0.002 C 
ENDROOT
BRANCH   1   2
ATOM      2  C   UNL A   1      31.108  26.998  25.534  1.00  0.00     0.021 C 
BRANCH   2   3
ATOM      3  C   UNL A   1      30.535  25.616  25.185  1.00  0.00     0.116 C 
BRANCH   3   4
ATOM      4  N   UNL A   1      30.155  24.898  26.392  1.00  0.00    -0.351 N 
ATOM      5  C   UNL A   1      30.137  23.558  26.664  1.00  0.00     0.275 C 
ATOM      6  O   UNL A   1      29.588  23.190  27.706  1.00  0.00    -0.269 OA
ATOM      7  H   UNL A   1      29.861  25.472  27.136  1.00  0.00     0.163 HD
BRANCH   5   8
ATOM      8  C   UNL A   1      30.777  22.535  25.709  1.00  0.00     0.362 C 
BRANCH   8   9
ATOM      9  N   UNL A   1      31.950  21.843  26.293  1.00  0.00    -0.335 N 
ATOM     10  H   UNL A   1      32.617  22.537  26.632  1.00  0.00     0.347 HD
ATOM     11  H   UNL A   1      31.641  21.253  27.065  1.00  0.00     0.347 HD
BRANCH   9  12
ATOM     12  C   UNL A   1      32.591  21.013  25.286  1.00  0.00     0.301 C 
BRANCH  12  13
ATOM     13  C   UNL A   1      33.983  21.413  24.975  1.00  0.00     0.047 A 
ATOM     14  C   UNL A   1      33.733  23.716  23.794  1.00  0.00     0.067 C 
ATOM     15  C   UNL A   1      34.455  22.517  24.287  1.00  0.00     0.044 A 
ATOM     16  N   UNL A   1      35.786  22.263  24.055  1.00  0.00    -0.272 N 
ATOM     17  C   UNL A   1      35.129  20.612  25.182  1.00  0.00     0.145 A 
ATOM     18  N   UNL A   1      36.227  21.139  24.645  1.00  0.00    -0.181 NA
ATOM     19  C   UNL A   1      36.688  22.995  23.196  1.00  0.00     0.174 C 
ENDBRANCH  12  13
ENDBRANCH   9  12
ENDBRANCH   8   9
ENDBRANCH   5   8
ENDBRANCH   3   4
ENDBRANCH   2   3
ENDBRANCH   1   2
BRANCH   1  20
ATOM     20  C   UNL A   1      32.623  28.066  27.326  1.00  0.00     0.002 C 
BRANCH  20  21
ATOM     21  C   UNL A   1      32.636  29.477  26.731  1.00  0.00     0.021 C 
BRANCH  21  22
ATOM     22  C   UNL A   1      33.949  30.246  26.878  1.00  0.00     0.116 C 
BRANCH  22  23
ATOM     23  N   UNL A   1      33.795  31.435  27.695  1.00  0.00    -0.352 N 
ATOM     24  C   UNL A   1      34.523  31.861  28.778  1.00  0.00     0.251 C 
ATOM     25  H   UNL A   1      33.054  32.028  27.431  1.00  0.00     0.163 HD
ATOM     26  O   UNL A   1      34.086  32.776  29.470  1.00  0.00    -0.269 OA
BRANCH  24  27
ATOM     27  C   UNL A   1      35.814  31.220  29.122  1.00  0.00     0.039 A 
ATOM     28  C   UNL A   1      35.800  30.048  29.884  1.00  0.00     0.014 A 
ATOM     29  C   UNL A   1      37.035  31.797  28.757  1.00  0.00     0.014 A 
ATOM     30  C   UNL A   1      37.003  29.439  30.252  1.00  0.00     0.010 A 
ATOM     31  C   UNL A   1      38.233  31.154  29.070  1.00  0.00     0.010 A 
ATOM     32  C   UNL A   1      38.231  29.979  29.838  1.00  0.00    -0.014 A 
BRANCH  32  33
ATOM     33  C   UNL A   1      39.518  29.363  30.258  1.00  0.00     0.031 A 
ATOM     34  C   UNL A   1      40.232  29.885  31.478  1.00  0.00     0.074 A 
ATOM     35  C   UNL A   1      40.054  28.358  29.539  1.00  0.00     0.049 A 
ATOM     36  N   UNL A   1      41.388  29.532  31.980  1.00  0.00    -0.248 NA
ATOM     37  C   UNL A   1      39.565  30.969  32.216  1.00  0.00     0.031 C 
ATOM     38  C   UNL A   1      39.469  27.777  28.329  1.00  0.00     0.029 A 
ATOM     39  N   UNL A   1      41.211  27.642  29.722  1.00  0.00    -0.354 N 
ATOM     40  C   UNL A   1      41.587  30.349  33.089  1.00  0.00     0.074 A 
ATOM     41  C   UNL A   1      40.465  31.263  33.141  1.00  0.00     0.031 C 
ATOM     42  C   UNL A   1      40.259  26.782  27.892  1.00  0.00     0.029 A 
ATOM     43  C   UNL A   1      41.422  26.673  28.768  1.00  0.00     0.049 A 
ATOM     44  H   UNL A   1      41.833  27.806  30.468  1.00  0.00     0.167 HD
ATOM     45  C   UNL A   1      42.594  30.323  33.997  1.00  0.00     0.034 A 
ATOM     46  C   UNL A   1      42.437  25.800  28.617  1.00  0.00     0.034 A 
ATOM     47  C   UNL A   1      43.705  29.404  33.939  1.00  0.00     0.049 A 
ATOM     48  C   UNL A   1      43.554  25.801  29.634  1.00  0.00     0.074 A 
ATOM     49  C   UNL A   1      44.790  29.299  34.793  1.00  0.00     0.029 A 
ATOM     50  N   UNL A   1      43.867  28.418  32.974  1.00  0.00    -0.354 N 
ATOM     51  N   UNL A   1      43.720  26.575  30.682  1.00  0.00    -0.248 NA
ATOM     52  C   UNL A   1      44.606  24.791  29.461  1.00  0.00     0.031 C 
ATOM     53  C   UNL A   1      45.625  28.278  34.324  1.00  0.00     0.029 A 
ATOM     54  C   UNL A   1      45.030  27.703  33.213  1.00  0.00     0.049 A 
ATOM     55  H   UNL A   1      43.246  28.252  32.228  1.00  0.00     0.167 HD
ATOM     56  C   UNL A   1      44.869  26.110  31.316  1.00  0.00     0.074 A 
ATOM     57  C   UNL A   1      45.344  24.982  30.543  1.00  0.00     0.031 C 
ATOM     58  C   UNL A   1      45.478  26.570  32.440  1.00  0.00     0.034 A 
BRANCH  45  59
ATOM     59  C   UNL A   1      42.535  31.331  35.120  1.00  0.00     0.023 A 
ATOM     60  C   UNL A   1      42.986  32.652  34.941  1.00  0.00     0.031 A 
ATOM     61  C   UNL A   1      42.060  30.966  36.391  1.00  0.00     0.131 A 
ATOM     62  C   UNL A   1      43.023  33.534  36.031  1.00  0.00     0.055 A 
ATOM     63  C   UNL A   1      42.022  31.874  37.452  1.00  0.00     0.041 A 
ATOM     64  F   UNL A   1      41.635  29.715  36.629  1.00  0.00    -0.206 F 
ATOM     65  C   UNL A   1      42.521  33.162  37.279  1.00  0.00     0.022 A 
BRANCH  62  66
ATOM     66  S   UNL A   1      43.863  35.129  35.825  1.00  0.00     0.124 S 
ATOM     67  O   UNL A   1      43.427  35.845  37.022  1.00  0.00    -0.237 OA
ATOM     68  O   UNL A   1      45.269  34.744  35.788  1.00  0.00    -0.237 OA
ATOM     69  O   UNL A   1      43.322  35.640  34.568  1.00  0.00    -0.744 OA
ENDBRANCH  62  66
ENDBRANCH  45  59
BRANCH  46  70
ATOM     70  C   UNL A   1      42.461  24.841  27.475  1.00  0.00     0.023 A 
ATOM     71  C   UNL A   1      41.849  23.581  27.579  1.00  0.00     0.031 A 
ATOM     72  C   UNL A   1      43.164  25.134  26.294  1.00  0.00     0.131 A 
ATOM     73  C   UNL A   1      42.012  22.636  26.555  1.00  0.00     0.055 A 
ATOM     74  C   UNL A   1      43.273  24.212  25.251  1.00  0.00     0.041 A 
ATOM     75  F   UNL A   1      43.763  26.326  26.138  1.00  0.00    -0.206 F 
ATOM     76  C   UNL A   1      42.711  22.946  25.388  1.00  0.00     0.022 A 
BRANCH  73  77
ATOM     77  S   UNL A   1      41.401  20.949  26.829  1.00  0.00     0.124 S 
ATOM     78  O   UNL A   1      42.168  20.542  28.002  1.00  0.00    -0.237 OA
ATOM     79  O   UNL A   1      39.976  21.176  27.040  1.00  0.00    -0.237 OA
ATOM     80  O   UNL A   1      41.745  20.259  25.588  1.00  0.00    -0.744 OA
ENDBRANCH  73  77
ENDBRANCH  46  70
BRANCH  58  81
ATOM     81  C   UNL A   1      46.675  25.795  32.933  1.00  0.00     0.023 A 
ATOM     82  C   UNL A   1      47.971  26.032  32.440  1.00  0.00     0.031 A 
ATOM     83  C   UNL A   1      46.507  24.773  33.884  1.00  0.00     0.131 A 
ATOM     84  C   UNL A   1      49.033  25.211  32.844  1.00  0.00     0.055 A 
ATOM     85  C   UNL A   1      47.578  23.998  34.329  1.00  0.00     0.041 A 
ATOM     86  F   UNL A   1      45.292  24.505  34.390  1.00  0.00    -0.206 F 
ATOM     87  C   UNL A   1      48.847  24.203  33.795  1.00  0.00     0.022 A 
BRANCH  84  88
ATOM     88  S   UNL A   1      50.640  25.399  32.024  1.00  0.00     0.124 S 
ATOM     89  O   UNL A   1      50.756  24.144  31.288  1.00  0.00    -0.237 OA
ATOM     90  O   UNL A   1      50.435  26.596  31.213  1.00  0.00    -0.237 OA
ATOM     91  O   UNL A   1      51.576  25.555  33.134  1.00  0.00    -0.744 OA
ENDBRANCH  84  88
ENDBRANCH  58  81
ENDBRANCH  32  33
ENDBRANCH  24  27
ENDBRANCH  22  23
ENDBRANCH  21  22
ENDBRANCH  20  21
ENDBRANCH   1  20
TORSDOF 19
ENDMDL
MODEL 3
REMARK VINA RESULT:      -9.5      3.420      4.839
REMARK SMILES Cc1c(C[NH2+]CC(=O)NCCCCCCNC(=O)c2ccc(-c3c4nc(c(-c5cc(S(=O)(=O)[O-])ccc5F)c5ccc([nH]5)c(-c5cc(S(=O)(=O)[O-])ccc5F)c5nc(c(-c6cc(S(=O)(=O)[O-])ccc6F)c6ccc3[nH]6)C=C5)C=C4)cc2)cnn1C
REMARK SMILES IDX 12 1 11 2 10 3 9 4 7 5 8 6 6 8 5 9 4 12 3 13 1 14 2 15 84 16
REMARK SMILES IDX 82 17 83 18 85 19 13 20 14 21 15 22 16 23 17 24 18 26 19 27
REMARK SMILES IDX 20 28 81 29 21 30 80 31 22 32 23 33 24 34 74 35 25 36 79 37
REMARK SMILES IDX 73 38 75 39 26 40 78 41 72 42 71 43 27 45 59 46 39 47 58 48
REMARK SMILES IDX 40 49 43 50 57 51 76 52 41 53 42 54 56 56 77 57 44 58 28 59
REMARK SMILES IDX 29 60 37 61 30 62 36 63 38 64 35 65 31 66 32 67 33 68 34 69
REMARK SMILES IDX 60 70 61 71 69 72 62 73 68 74 70 75 67 76 63 77 64 78 65 79
REMARK SMILES IDX 66 80 45 81 46 82 54 83 47 84 53 85 55 86 52 87 48 88 49 89
REMARK SMILES IDX 50 90 51 91
REMARK H PARENT 9 7 5 10 5 11 16 25 75 44 43 55
REMARK Flexibility Score: inf
ROOT
ATOM      1  C   UNL A   1      32.660  27.421  25.768  1.00  0.00     0.002 C 
ENDROOT
BRANCH   1   2
ATOM      2  C   UNL A   1      32.598  25.974  25.284  1.00  0.00     0.021 C 
BRANCH   2   3
ATOM      3  C   UNL A   1      33.018  24.923  26.324  1.00  0.00     0.116 C 
BRANCH   3   4
ATOM      4  N   UNL A   1      31.857  24.424  27.046  1.00  0.00    -0.351 N 
ATOM      5  C   UNL A   1      30.826  23.628  26.633  1.00  0.00     0.275 C 
ATOM      6  O   UNL A   1      29.858  23.503  27.389  1.00  0.00    -0.269 OA
ATOM      7  H   UNL A   1      31.806  24.707  27.987  1.00  0.00     0.163 HD
BRANCH   5   8
ATOM      8  C   UNL A   1      30.860  22.908  25.274  1.00  0.00     0.362 C 
BRANCH   8   9
ATOM      9  N   UNL A   1      31.490  21.568  25.336  1.00  0.00    -0.335 N 
ATOM     10  H   UNL A   1      31.847  21.406  26.278  1.00  0.00     0.347 HD
ATOM     11  H   UNL A   1      30.795  20.859  25.102  1.00  0.00     0.347 HD
BRANCH   9  12
ATOM     12  C   UNL A   1      32.589  21.490  24.387  1.00  0.00     0.301 C 
BRANCH  12  13
ATOM     13  C   UNL A   1      33.914  21.784  24.977  1.00  0.00     0.047 A 
ATOM     14  C   UNL A   1      35.190  23.027  23.082  1.00  0.00     0.067 C 
ATOM     15  C   UNL A   1      35.030  22.370  24.403  1.00  0.00     0.044 A 
ATOM     16  N   UNL A   1      36.055  22.158  25.293  1.00  0.00    -0.272 N 
ATOM     17  C   UNL A   1      34.364  21.341  26.242  1.00  0.00     0.145 A 
ATOM     18  N   UNL A   1      35.655  21.589  26.444  1.00  0.00    -0.181 NA
ATOM     19  C   UNL A   1      37.467  22.382  25.084  1.00  0.00     0.174 C 
ENDBRANCH  12  13
ENDBRANCH   9  12
ENDBRANCH   8   9
ENDBRANCH   5   8
ENDBRANCH   3   4
ENDBRANCH   2   3
ENDBRANCH   1   2
BRANCH   1  20
ATOM     20  C   UNL A   1      31.523  28.317  25.275  1.00  0.00     0.002 C 
BRANCH  20  21
ATOM     21  C   UNL A   1      31.774  29.826  25.370  1.00  0.00     0.021 C 
BRANCH  21  22
ATOM     22  C   UNL A   1      31.781  30.407  26.784  1.00  0.00     0.116 C 
BRANCH  22  23
ATOM     23  N   UNL A   1      31.869  31.856  26.777  1.00  0.00    -0.352 N 
ATOM     24  C   UNL A   1      32.729  32.689  27.447  1.00  0.00     0.251 C 
ATOM     25  H   UNL A   1      31.211  32.310  26.202  1.00  0.00     0.163 HD
ATOM     26  O   UNL A   1      32.488  33.892  27.485  1.00  0.00    -0.269 OA
BRANCH  24  27
ATOM     27  C   UNL A   1      33.928  32.149  28.130  1.00  0.00     0.039 A 
ATOM     28  C   UNL A   1      34.657  32.993  28.973  1.00  0.00     0.014 A 
ATOM     29  C   UNL A   1      34.376  30.845  27.897  1.00  0.00     0.014 A 
ATOM     30  C   UNL A   1      35.811  32.522  29.606  1.00  0.00     0.010 A 
ATOM     31  C   UNL A   1      35.491  30.356  28.578  1.00  0.00     0.010 A 
ATOM     32  C   UNL A   1      36.233  31.195  29.424  1.00  0.00    -0.014 A 
BRANCH  32  33
ATOM     33  C   UNL A   1      37.482  30.696  30.058  1.00  0.00     0.031 A 
ATOM     34  C   UNL A   1      37.846  31.148  31.449  1.00  0.00     0.074 A 
ATOM     35  C   UNL A   1      38.296  29.860  29.384  1.00  0.00     0.049 A 
ATOM     36  N   UNL A   1      38.913  30.880  32.158  1.00  0.00    -0.248 NA
ATOM     37  C   UNL A   1      36.890  32.042  32.120  1.00  0.00     0.031 C 
ATOM     38  C   UNL A   1      38.063  29.365  28.026  1.00  0.00     0.029 A 
ATOM     39  N   UNL A   1      39.483  29.274  29.750  1.00  0.00    -0.354 N 
ATOM     40  C   UNL A   1      38.758  31.573  33.355  1.00  0.00     0.074 A 
ATOM     41  C   UNL A   1      37.528  32.328  33.244  1.00  0.00     0.031 C 
ATOM     42  C   UNL A   1      39.063  28.536  27.682  1.00  0.00     0.029 A 
ATOM     43  C   UNL A   1      40.024  28.464  28.779  1.00  0.00     0.049 A 
ATOM     44  H   UNL A   1      39.907  29.421  30.627  1.00  0.00     0.167 HD
ATOM     45  C   UNL A   1      39.549  31.560  34.456  1.00  0.00     0.034 A 
ATOM     46  C   UNL A   1      41.166  27.748  28.775  1.00  0.00     0.034 A 
ATOM     47  C   UNL A   1      40.771  30.798  34.559  1.00  0.00     0.049 A 
ATOM     48  C   UNL A   1      42.037  27.760  30.009  1.00  0.00     0.074 A 
ATOM     49  C   UNL A   1      41.660  30.723  35.617  1.00  0.00     0.029 A 
ATOM     50  N   UNL A   1      41.270  29.966  33.565  1.00  0.00    -0.354 N 
ATOM     51  N   UNL A   1      41.869  28.415  31.135  1.00  0.00    -0.248 NA
ATOM     52  C   UNL A   1      43.239  26.917  29.978  1.00  0.00     0.031 C 
ATOM     53  C   UNL A   1      42.714  29.879  35.250  1.00  0.00     0.029 A 
ATOM     54  C   UNL A   1      42.451  29.376  33.986  1.00  0.00     0.049 A 
ATOM     55  H   UNL A   1      40.847  29.818  32.688  1.00  0.00     0.167 HD
ATOM     56  C   UNL A   1      42.919  28.020  31.960  1.00  0.00     0.074 A 
ATOM     57  C   UNL A   1      43.702  27.063  31.209  1.00  0.00     0.031 C 
ATOM     58  C   UNL A   1      43.210  28.410  33.229  1.00  0.00     0.034 A 
BRANCH  45  59
ATOM     59  C   UNL A   1      39.114  32.407  35.629  1.00  0.00     0.023 A 
ATOM     60  C   UNL A   1      39.540  33.741  35.764  1.00  0.00     0.031 A 
ATOM     61  C   UNL A   1      38.297  31.873  36.639  1.00  0.00     0.131 A 
ATOM     62  C   UNL A   1      39.211  34.469  36.917  1.00  0.00     0.055 A 
ATOM     63  C   UNL A   1      37.905  32.629  37.745  1.00  0.00     0.041 A 
ATOM     64  F   UNL A   1      37.875  30.600  36.576  1.00  0.00    -0.206 F 
ATOM     65  C   UNL A   1      38.376  33.931  37.897  1.00  0.00     0.022 A 
BRANCH  62  66
ATOM     66  S   UNL A   1      40.004  36.079  37.180  1.00  0.00     0.124 S 
ATOM     67  O   UNL A   1      41.356  35.680  37.565  1.00  0.00    -0.237 OA
ATOM     68  O   UNL A   1      39.874  36.714  35.874  1.00  0.00    -0.237 OA
ATOM     69  O   UNL A   1      39.210  36.681  38.248  1.00  0.00    -0.744 OA
ENDBRANCH  62  66
ENDBRANCH  45  59
BRANCH  46  70
ATOM     70  C   UNL A   1      41.564  26.947  27.581  1.00  0.00     0.023 A 
ATOM     71  C   UNL A   1      41.394  25.553  27.559  1.00  0.00     0.031 A 
ATOM     72  C   UNL A   1      42.195  27.549  26.479  1.00  0.00     0.131 A 
ATOM     73  C   UNL A   1      41.912  24.800  26.495  1.00  0.00     0.055 A 
ATOM     74  C   UNL A   1      42.656  26.801  25.393  1.00  0.00     0.041 A 
ATOM     75  F   UNL A   1      42.377  28.879  26.444  1.00  0.00    -0.206 F 
ATOM     76  C   UNL A   1      42.533  25.415  25.407  1.00  0.00     0.022 A 
BRANCH  73  77
ATOM     77  S   UNL A   1      41.874  22.990  26.616  1.00  0.00     0.124 S 
ATOM     78  O   UNL A   1      42.962  22.731  27.553  1.00  0.00    -0.237 OA
ATOM     79  O   UNL A   1      40.525  22.750  27.115  1.00  0.00    -0.237 OA
ATOM     80  O   UNL A   1      42.117  22.553  25.243  1.00  0.00    -0.744 OA
ENDBRANCH  73  77
ENDBRANCH  46  70
BRANCH  58  81
ATOM     81  C   UNL A   1      44.380  27.733  33.898  1.00  0.00     0.023 A 
ATOM     82  C   UNL A   1      44.216  26.611  34.730  1.00  0.00     0.031 A 
ATOM     83  C   UNL A   1      45.679  28.247  33.729  1.00  0.00     0.131 A 
ATOM     84  C   UNL A   1      45.318  26.086  35.419  1.00  0.00     0.055 A 
ATOM     85  C   UNL A   1      46.782  27.682  34.370  1.00  0.00     0.041 A 
ATOM     86  F   UNL A   1      45.894  29.315  32.945  1.00  0.00    -0.206 F 
ATOM     87  C   UNL A   1      46.603  26.607  35.235  1.00  0.00     0.022 A 
BRANCH  84  88
ATOM     88  S   UNL A   1      45.035  24.785  36.652  1.00  0.00     0.124 S 
ATOM     89  O   UNL A   1      45.706  25.327  37.828  1.00  0.00    -0.237 OA
ATOM     90  O   UNL A   1      43.578  24.734  36.717  1.00  0.00    -0.237 OA
ATOM     91  O   UNL A   1      45.671  23.609  36.062  1.00  0.00    -0.744 OA
ENDBRANCH  84  88
ENDBRANCH  58  81
ENDBRANCH  32  33
ENDBRANCH  24  27
ENDBRANCH  22  23
ENDBRANCH  21  22
ENDBRANCH  20  21
ENDBRANCH   1  20
TORSDOF 19
ENDMDL
