MODEL 1
REMARK VINA RESULT:     -12.2      0.000      0.000
REMARK SMILES Cc1cccc(NC(=O)[C@H]2C[C@H]2C(=O)NCCCCCCNC(=O)c2ccc(-c3c4nc(c(-c5cc(S(=O)(=O)[O-])ccc5F)c5ccc([nH]5)c(-c5cc(S(=O)(=O)[O-])ccc5F)c5nc(c(-c6cc(S(=O)(=O)[O-])ccc6F)c6ccc3[nH]6)C=C5)C=C4)cc2)c1
REMARK SMILES IDX 19 1 18 2 17 3 16 4 15 5 13 6 14 7 12 9 10 10 11 11 8 12
REMARK SMILES IDX 7 13 9 15 6 16 1 17 2 18 3 19 88 20 4 21 5 22 20 23 21 24
REMARK SMILES IDX 22 25 23 26 24 28 25 29 26 30 87 31 27 32 86 33 28 34 29 35
REMARK SMILES IDX 30 36 80 37 31 38 85 39 79 40 81 41 32 42 84 43 78 44 77 45
REMARK SMILES IDX 33 47 65 48 45 49 64 50 46 51 49 52 63 53 82 54 47 55 48 56
REMARK SMILES IDX 62 58 83 59 50 60 34 61 35 62 43 63 36 64 42 65 44 66 41 67
REMARK SMILES IDX 37 68 38 69 39 70 40 71 66 72 67 73 75 74 68 75 74 76 76 77
REMARK SMILES IDX 73 78 69 79 70 80 71 81 72 82 51 83 52 84 60 85 53 86 59 87
REMARK SMILES IDX 61 88 58 89 54 90 55 91 56 92 57 93
REMARK H PARENT 15 8 7 14 22 27 81 46 49 57
REMARK Flexibility Score: inf
ROOT
ATOM      1  C   UNL A   1      34.325  29.074  27.288  1.00  0.00     0.002 C 
ENDROOT
BRANCH   1   2
ATOM      2  C   UNL A   1      33.279  28.001  26.944  1.00  0.00     0.002 C 
BRANCH   2   3
ATOM      3  C   UNL A   1      33.757  26.813  26.098  1.00  0.00     0.021 C 
BRANCH   3   4
ATOM      4  C   UNL A   1      32.697  26.157  25.212  1.00  0.00     0.116 C 
BRANCH   4   5
ATOM      5  N   UNL A   1      33.208  25.848  23.896  1.00  0.00    -0.356 N 
ATOM      6  C   UNL A   1      33.411  26.575  22.765  1.00  0.00     0.223 C 
ATOM      7  O   UNL A   1      33.891  25.985  21.798  1.00  0.00    -0.275 OA
ATOM      8  H   UNL A   1      33.465  24.903  23.796  1.00  0.00     0.163 HD
BRANCH   6   9
ATOM      9  C   UNL A   1      33.137  28.020  22.582  1.00  0.00     0.091 C 
ATOM     10  C   UNL A   1      31.762  28.598  22.329  1.00  0.00     0.092 C 
ATOM     11  C   UNL A   1      32.605  29.042  23.523  1.00  0.00     0.028 C 
BRANCH  10  12
ATOM     12  C   UNL A   1      30.453  27.958  22.607  1.00  0.00     0.228 C 
ATOM     13  N   UNL A   1      29.328  28.700  22.853  1.00  0.00    -0.326 N 
ATOM     14  H   UNL A   1      28.573  28.160  23.180  1.00  0.00     0.169 HD
ATOM     15  O   UNL A   1      30.405  26.741  22.783  1.00  0.00    -0.274 OA
BRANCH  13  16
ATOM     16  C   UNL A   1      29.020  30.064  22.737  1.00  0.00     0.041 A 
ATOM     17  C   UNL A   1      27.815  32.312  19.891  1.00  0.00     0.044 C 
ATOM     18  C   UNL A   1      28.281  31.852  21.240  1.00  0.00    -0.049 A 
ATOM     19  C   UNL A   1      28.419  32.772  22.281  1.00  0.00     0.003 A 
ATOM     20  C   UNL A   1      28.605  30.507  21.472  1.00  0.00     0.029 A 
ATOM     21  C   UNL A   1      28.851  32.346  23.534  1.00  0.00     0.002 A 
ATOM     22  C   UNL A   1      29.137  30.996  23.761  1.00  0.00     0.026 A 
ENDBRANCH  13  16
ENDBRANCH  10  12
ENDBRANCH   6   9
ENDBRANCH   4   5
ENDBRANCH   3   4
ENDBRANCH   2   3
ENDBRANCH   1   2
BRANCH   1  23
ATOM     23  C   UNL A   1      33.796  30.488  27.531  1.00  0.00     0.021 C 
BRANCH  23  24
ATOM     24  C   UNL A   1      34.872  31.564  27.601  1.00  0.00     0.116 C 
BRANCH  24  25
ATOM     25  N   UNL A   1      35.214  31.988  28.953  1.00  0.00    -0.352 N 
ATOM     26  C   UNL A   1      36.058  31.381  29.871  1.00  0.00     0.251 C 
ATOM     27  H   UNL A   1      34.786  32.822  29.258  1.00  0.00     0.163 HD
ATOM     28  O   UNL A   1      36.172  31.815  31.005  1.00  0.00    -0.269 OA
BRANCH  26  29
ATOM     29  C   UNL A   1      36.912  30.252  29.422  1.00  0.00     0.039 A 
ATOM     30  C   UNL A   1      37.012  29.137  30.263  1.00  0.00     0.014 A 
ATOM     31  C   UNL A   1      37.752  30.378  28.321  1.00  0.00     0.014 A 
ATOM     32  C   UNL A   1      38.100  28.277  30.133  1.00  0.00     0.010 A 
ATOM     33  C   UNL A   1      38.885  29.592  28.255  1.00  0.00     0.010 A 
ATOM     34  C   UNL A   1      39.090  28.578  29.197  1.00  0.00    -0.014 A 
BRANCH  34  35
ATOM     35  C   UNL A   1      40.433  28.010  29.240  1.00  0.00     0.031 A 
ATOM     36  C   UNL A   1      40.718  26.652  28.734  1.00  0.00     0.074 A 
ATOM     37  C   UNL A   1      41.463  28.768  29.676  1.00  0.00     0.049 A 
ATOM     38  N   UNL A   1      41.702  25.928  29.153  1.00  0.00    -0.248 NA
ATOM     39  C   UNL A   1      39.901  25.982  27.729  1.00  0.00     0.031 C 
ATOM     40  C   UNL A   1      42.889  28.503  29.507  1.00  0.00     0.029 A 
ATOM     41  N   UNL A   1      41.417  29.837  30.563  1.00  0.00    -0.354 N 
ATOM     42  C   UNL A   1      41.838  24.871  28.286  1.00  0.00     0.074 A 
ATOM     43  C   UNL A   1      40.645  24.901  27.469  1.00  0.00     0.031 C 
ATOM     44  C   UNL A   1      43.574  29.205  30.422  1.00  0.00     0.029 A 
ATOM     45  C   UNL A   1      42.608  29.833  31.303  1.00  0.00     0.049 A 
ATOM     46  H   UNL A   1      40.679  30.483  30.654  1.00  0.00     0.167 HD
ATOM     47  C   UNL A   1      43.008  24.177  28.245  1.00  0.00     0.034 A 
ATOM     48  C   UNL A   1      42.599  29.728  32.663  1.00  0.00     0.034 A 
ATOM     49  C   UNL A   1      43.996  24.705  29.181  1.00  0.00     0.049 A 
ATOM     50  C   UNL A   1      43.337  28.517  33.191  1.00  0.00     0.074 A 
ATOM     51  C   UNL A   1      45.111  25.512  29.020  1.00  0.00     0.029 A 
ATOM     52  N   UNL A   1      43.767  24.625  30.548  1.00  0.00    -0.354 N 
ATOM     53  N   UNL A   1      43.714  27.510  32.455  1.00  0.00    -0.248 NA
ATOM     54  C   UNL A   1      43.677  28.329  34.597  1.00  0.00     0.031 C 
ATOM     55  C   UNL A   1      45.558  25.912  30.304  1.00  0.00     0.029 A 
ATOM     56  C   UNL A   1      44.722  25.339  31.245  1.00  0.00     0.049 A 
ATOM     57  H   UNL A   1      43.026  24.128  30.964  1.00  0.00     0.167 HD
ATOM     58  C   UNL A   1      44.293  26.541  33.242  1.00  0.00     0.074 A 
ATOM     59  C   UNL A   1      44.264  27.119  34.574  1.00  0.00     0.031 C 
ATOM     60  C   UNL A   1      44.715  25.353  32.704  1.00  0.00     0.034 A 
BRANCH  47  61
ATOM     61  C   UNL A   1      43.366  23.208  27.144  1.00  0.00     0.023 A 
ATOM     62  C   UNL A   1      42.812  21.911  27.158  1.00  0.00     0.031 A 
ATOM     63  C   UNL A   1      44.243  23.482  26.078  1.00  0.00     0.131 A 
ATOM     64  C   UNL A   1      43.206  20.930  26.232  1.00  0.00     0.055 A 
ATOM     65  C   UNL A   1      44.675  22.493  25.182  1.00  0.00     0.041 A 
ATOM     66  F   UNL A   1      44.685  24.725  25.839  1.00  0.00    -0.206 F 
ATOM     67  C   UNL A   1      44.167  21.204  25.265  1.00  0.00     0.022 A 
BRANCH  64  68
ATOM     68  S   UNL A   1      42.437  19.290  26.319  1.00  0.00     0.124 S 
ATOM     69  O   UNL A   1      42.195  19.137  27.751  1.00  0.00    -0.237 OA
ATOM     70  O   UNL A   1      41.257  19.455  25.479  1.00  0.00    -0.237 OA
ATOM     71  O   UNL A   1      43.466  18.405  25.771  1.00  0.00    -0.744 OA
ENDBRANCH  64  68
ENDBRANCH  47  61
BRANCH  48  72
ATOM     72  C   UNL A   1      41.398  30.352  33.285  1.00  0.00     0.023 A 
ATOM     73  C   UNL A   1      41.403  31.757  33.423  1.00  0.00     0.031 A 
ATOM     74  C   UNL A   1      40.163  29.691  33.332  1.00  0.00     0.131 A 
ATOM     75  C   UNL A   1      40.197  32.471  33.434  1.00  0.00     0.055 A 
ATOM     76  C   UNL A   1      38.961  30.406  33.408  1.00  0.00     0.041 A 
ATOM     77  F   UNL A   1      40.093  28.362  33.172  1.00  0.00    -0.206 F 
ATOM     78  C   UNL A   1      38.972  31.802  33.413  1.00  0.00     0.022 A 
BRANCH  75  79
ATOM     79  S   UNL A   1      40.260  34.272  33.195  1.00  0.00     0.124 S 
ATOM     80  O   UNL A   1      39.107  34.720  33.967  1.00  0.00    -0.237 OA
ATOM     81  O   UNL A   1      41.569  34.620  33.744  1.00  0.00    -0.237 OA
ATOM     82  O   UNL A   1      40.151  34.431  31.748  1.00  0.00    -0.744 OA
ENDBRANCH  75  79
ENDBRANCH  48  72
BRANCH  60  83
ATOM     83  C   UNL A   1      45.212  24.111  33.435  1.00  0.00     0.023 A 
ATOM     84  C   UNL A   1      46.504  23.962  33.958  1.00  0.00     0.031 A 
ATOM     85  C   UNL A   1      44.345  23.007  33.669  1.00  0.00     0.131 A 
ATOM     86  C   UNL A   1      46.897  22.787  34.635  1.00  0.00     0.055 A 
ATOM     87  C   UNL A   1      44.721  21.862  34.379  1.00  0.00     0.041 A 
ATOM     88  F   UNL A   1      43.079  22.985  33.229  1.00  0.00    -0.206 F 
ATOM     89  C   UNL A   1      46.009  21.742  34.865  1.00  0.00     0.022 A 
BRANCH  86  90
ATOM     90  S   UNL A   1      48.620  22.645  35.178  1.00  0.00     0.124 S 
ATOM     91  O   UNL A   1      49.335  22.585  33.906  1.00  0.00    -0.237 OA
ATOM     92  O   UNL A   1      48.804  23.870  35.950  1.00  0.00    -0.237 OA
ATOM     93  O   UNL A   1      48.637  21.410  35.959  1.00  0.00    -0.744 OA
ENDBRANCH  86  90
ENDBRANCH  60  83
ENDBRANCH  34  35
ENDBRANCH  26  29
ENDBRANCH  24  25
ENDBRANCH  23  24
ENDBRANCH   1  23
TORSDOF 18
ENDMDL
MODEL 2
REMARK VINA RESULT:     -12.0      1.715      4.177
REMARK SMILES Cc1cccc(NC(=O)[C@H]2C[C@H]2C(=O)NCCCCCCNC(=O)c2ccc(-c3c4nc(c(-c5cc(S(=O)(=O)[O-])ccc5F)c5ccc([nH]5)c(-c5cc(S(=O)(=O)[O-])ccc5F)c5nc(c(-c6cc(S(=O)(=O)[O-])ccc6F)c6ccc3[nH]6)C=C5)C=C4)cc2)c1
REMARK SMILES IDX 19 1 18 2 17 3 16 4 15 5 13 6 14 7 12 9 10 10 11 11 8 12
REMARK SMILES IDX 7 13 9 15 6 16 1 17 2 18 3 19 88 20 4 21 5 22 20 23 21 24
REMARK SMILES IDX 22 25 23 26 24 28 25 29 26 30 87 31 27 32 86 33 28 34 29 35
REMARK SMILES IDX 30 36 80 37 31 38 85 39 79 40 81 41 32 42 84 43 78 44 77 45
REMARK SMILES IDX 33 47 65 48 45 49 64 50 46 51 49 52 63 53 82 54 47 55 48 56
REMARK SMILES IDX 62 58 83 59 50 60 34 61 35 62 43 63 36 64 42 65 44 66 41 67
REMARK SMILES IDX 37 68 38 69 39 70 40 71 66 72 67 73 75 74 68 75 74 76 76 77
REMARK SMILES IDX 73 78 69 79 70 80 71 81 72 82 51 83 52 84 60 85 53 86 59 87
REMARK SMILES IDX 61 88 58 89 54 90 55 91 56 92 57 93
REMARK H PARENT 15 8 7 14 22 27 81 46 49 57
REMARK Flexibility Score: inf
ROOT
ATOM      1  C   UNL A   1      32.019  30.542  26.000  1.00  0.00     0.002 C 
ENDROOT
BRANCH   1   2
ATOM      2  C   UNL A   1      31.125  29.577  25.204  1.00  0.00     0.002 C 
BRANCH   2   3
ATOM      3  C   UNL A   1      31.682  29.055  23.873  1.00  0.00     0.021 C 
BRANCH   3   4
ATOM      4  C   UNL A   1      31.681  27.535  23.700  1.00  0.00     0.116 C 
BRANCH   4   5
ATOM      5  N   UNL A   1      30.797  26.885  24.640  1.00  0.00    -0.356 N 
ATOM      6  C   UNL A   1      30.989  26.142  25.762  1.00  0.00     0.223 C 
ATOM      7  O   UNL A   1      29.984  25.743  26.350  1.00  0.00    -0.275 OA
ATOM      8  H   UNL A   1      29.845  27.005  24.418  1.00  0.00     0.163 HD
BRANCH   6   9
ATOM      9  C   UNL A   1      32.291  25.781  26.370  1.00  0.00     0.091 C 
ATOM     10  C   UNL A   1      33.143  24.614  25.923  1.00  0.00     0.092 C 
ATOM     11  C   UNL A   1      33.687  26.042  25.924  1.00  0.00     0.028 C 
BRANCH  10  12
ATOM     12  C   UNL A   1      33.079  23.900  24.624  1.00  0.00     0.228 C 
ATOM     13  N   UNL A   1      34.177  23.280  24.091  1.00  0.00    -0.326 N 
ATOM     14  H   UNL A   1      34.042  22.988  23.160  1.00  0.00     0.169 HD
ATOM     15  O   UNL A   1      32.067  24.003  23.933  1.00  0.00    -0.274 OA
BRANCH  13  16
ATOM     16  C   UNL A   1      35.454  22.969  24.585  1.00  0.00     0.041 A 
ATOM     17  C   UNL A   1      37.525  19.768  24.846  1.00  0.00     0.044 C 
ATOM     18  C   UNL A   1      37.100  21.202  24.968  1.00  0.00    -0.049 A 
ATOM     19  C   UNL A   1      37.946  22.131  25.577  1.00  0.00     0.003 A 
ATOM     20  C   UNL A   1      35.850  21.626  24.496  1.00  0.00     0.029 A 
ATOM     21  C   UNL A   1      37.553  23.462  25.689  1.00  0.00     0.002 A 
ATOM     22  C   UNL A   1      36.319  23.878  25.183  1.00  0.00     0.026 A 
ENDBRANCH  13  16
ENDBRANCH  10  12
ENDBRANCH   6   9
ENDBRANCH   4   5
ENDBRANCH   3   4
ENDBRANCH   2   3
ENDBRANCH   1   2
BRANCH   1  23
ATOM     23  C   UNL A   1      33.415  30.036  26.363  1.00  0.00     0.021 C 
BRANCH  23  24
ATOM     24  C   UNL A   1      33.707  29.997  27.858  1.00  0.00     0.116 C 
BRANCH  24  25
ATOM     25  N   UNL A   1      34.459  31.143  28.355  1.00  0.00    -0.352 N 
ATOM     26  C   UNL A   1      35.744  31.184  28.873  1.00  0.00     0.251 C 
ATOM     27  H   UNL A   1      33.989  32.007  28.318  1.00  0.00     0.163 HD
ATOM     28  O   UNL A   1      36.205  32.215  29.335  1.00  0.00    -0.269 OA
BRANCH  26  29
ATOM     29  C   UNL A   1      36.602  29.977  28.761  1.00  0.00     0.039 A 
ATOM     30  C   UNL A   1      36.871  29.258  29.932  1.00  0.00     0.014 A 
ATOM     31  C   UNL A   1      37.292  29.690  27.587  1.00  0.00     0.014 A 
ATOM     32  C   UNL A   1      37.984  28.421  29.982  1.00  0.00     0.010 A 
ATOM     33  C   UNL A   1      38.453  28.947  27.663  1.00  0.00     0.010 A 
ATOM     34  C   UNL A   1      38.831  28.359  28.875  1.00  0.00    -0.014 A 
BRANCH  34  35
ATOM     35  C   UNL A   1      40.201  27.860  28.941  1.00  0.00     0.031 A 
ATOM     36  C   UNL A   1      40.556  26.505  28.476  1.00  0.00     0.074 A 
ATOM     37  C   UNL A   1      41.188  28.682  29.361  1.00  0.00     0.049 A 
ATOM     38  N   UNL A   1      41.573  25.844  28.921  1.00  0.00    -0.248 NA
ATOM     39  C   UNL A   1      39.781  25.766  27.487  1.00  0.00     0.031 C 
ATOM     40  C   UNL A   1      42.627  28.484  29.208  1.00  0.00     0.029 A 
ATOM     41  N   UNL A   1      41.084  29.772  30.216  1.00  0.00    -0.354 N 
ATOM     42  C   UNL A   1      41.767  24.770  28.086  1.00  0.00     0.074 A 
ATOM     43  C   UNL A   1      40.580  24.717  27.262  1.00  0.00     0.031 C 
ATOM     44  C   UNL A   1      43.271  29.245  30.105  1.00  0.00     0.029 A 
ATOM     45  C   UNL A   1      42.268  29.849  30.962  1.00  0.00     0.049 A 
ATOM     46  H   UNL A   1      40.314  30.382  30.285  1.00  0.00     0.167 HD
ATOM     47  C   UNL A   1      42.971  24.134  28.071  1.00  0.00     0.034 A 
ATOM     48  C   UNL A   1      42.255  29.782  32.325  1.00  0.00     0.034 A 
ATOM     49  C   UNL A   1      43.925  24.738  28.997  1.00  0.00     0.049 A 
ATOM     50  C   UNL A   1      43.049  28.625  32.891  1.00  0.00     0.074 A 
ATOM     51  C   UNL A   1      45.000  25.595  28.818  1.00  0.00     0.029 A 
ATOM     52  N   UNL A   1      43.691  24.686  30.365  1.00  0.00    -0.354 N 
ATOM     53  N   UNL A   1      43.481  27.617  32.187  1.00  0.00    -0.248 NA
ATOM     54  C   UNL A   1      43.389  28.495  34.304  1.00  0.00     0.031 C 
ATOM     55  C   UNL A   1      45.417  26.054  30.093  1.00  0.00     0.029 A 
ATOM     56  C   UNL A   1      44.604  25.466  31.046  1.00  0.00     0.049 A 
ATOM     57  H   UNL A   1      42.972  24.164  30.790  1.00  0.00     0.167 HD
ATOM     58  C   UNL A   1      44.102  26.702  33.005  1.00  0.00     0.074 A 
ATOM     59  C   UNL A   1      44.035  27.315  34.320  1.00  0.00     0.031 C 
ATOM     60  C   UNL A   1      44.587  25.522  32.503  1.00  0.00     0.034 A 
BRANCH  47  61
ATOM     61  C   UNL A   1      43.384  23.154  27.001  1.00  0.00     0.023 A 
ATOM     62  C   UNL A   1      42.867  21.842  27.029  1.00  0.00     0.031 A 
ATOM     63  C   UNL A   1      44.280  23.431  25.951  1.00  0.00     0.131 A 
ATOM     64  C   UNL A   1      43.312  20.854  26.134  1.00  0.00     0.055 A 
ATOM     65  C   UNL A   1      44.762  22.437  25.088  1.00  0.00     0.041 A 
ATOM     66  F   UNL A   1      44.692  24.681  25.696  1.00  0.00    -0.206 F 
ATOM     67  C   UNL A   1      44.289  21.135  25.186  1.00  0.00     0.022 A 
BRANCH  64  68
ATOM     68  S   UNL A   1      42.588  19.194  26.237  1.00  0.00     0.124 S 
ATOM     69  O   UNL A   1      43.647  18.360  25.676  1.00  0.00    -0.237 OA
ATOM     70  O   UNL A   1      42.342  19.050  27.667  1.00  0.00    -0.237 OA
ATOM     71  O   UNL A   1      41.386  19.299  25.411  1.00  0.00    -0.744 OA
ENDBRANCH  64  68
ENDBRANCH  47  61
BRANCH  48  72
ATOM     72  C   UNL A   1      41.021  30.363  32.922  1.00  0.00     0.023 A 
ATOM     73  C   UNL A   1      40.924  31.771  32.956  1.00  0.00     0.031 A 
ATOM     74  C   UNL A   1      39.838  29.620  33.042  1.00  0.00     0.131 A 
ATOM     75  C   UNL A   1      39.669  32.394  32.937  1.00  0.00     0.055 A 
ATOM     76  C   UNL A   1      38.588  30.250  33.088  1.00  0.00     0.041 A 
ATOM     77  F   UNL A   1      39.864  28.281  32.983  1.00  0.00    -0.206 F 
ATOM     78  C   UNL A   1      38.497  31.639  32.990  1.00  0.00     0.022 A 
BRANCH  75  79
ATOM     79  S   UNL A   1      39.597  34.172  32.565  1.00  0.00     0.124 S 
ATOM     80  O   UNL A   1      39.254  34.171  31.147  1.00  0.00    -0.237 OA
ATOM     81  O   UNL A   1      38.554  34.645  33.473  1.00  0.00    -0.237 OA
ATOM     82  O   UNL A   1      40.939  34.646  32.888  1.00  0.00    -0.744 OA
ENDBRANCH  75  79
ENDBRANCH  48  72
BRANCH  60  83
ATOM     83  C   UNL A   1      45.140  24.327  33.273  1.00  0.00     0.023 A 
ATOM     84  C   UNL A   1      46.439  24.252  33.794  1.00  0.00     0.031 A 
ATOM     85  C   UNL A   1      44.324  23.195  33.547  1.00  0.00     0.131 A 
ATOM     86  C   UNL A   1      46.885  23.119  34.508  1.00  0.00     0.055 A 
ATOM     87  C   UNL A   1      44.751  22.091  34.293  1.00  0.00     0.041 A 
ATOM     88  F   UNL A   1      43.058  23.103  33.114  1.00  0.00    -0.206 F 
ATOM     89  C   UNL A   1      46.045  22.044  34.776  1.00  0.00     0.022 A 
BRANCH  86  90
ATOM     90  S   UNL A   1      48.615  23.070  35.046  1.00  0.00     0.124 S 
ATOM     91  O   UNL A   1      48.584  23.904  36.245  1.00  0.00    -0.237 OA
ATOM     92  O   UNL A   1      48.829  21.644  35.274  1.00  0.00    -0.237 OA
ATOM     93  O   UNL A   1      49.347  23.635  33.915  1.00  0.00    -0.744 OA
ENDBRANCH  86  90
ENDBRANCH  60  83
ENDBRANCH  34  35
ENDBRANCH  26  29
ENDBRANCH  24  25
ENDBRANCH  23  24
ENDBRANCH   1  23
TORSDOF 18
ENDMDL
MODEL 3
REMARK VINA RESULT:     -11.7      3.270      5.040
REMARK SMILES Cc1cccc(NC(=O)[C@H]2C[C@H]2C(=O)NCCCCCCNC(=O)c2ccc(-c3c4nc(c(-c5cc(S(=O)(=O)[O-])ccc5F)c5ccc([nH]5)c(-c5cc(S(=O)(=O)[O-])ccc5F)c5nc(c(-c6cc(S(=O)(=O)[O-])ccc6F)c6ccc3[nH]6)C=C5)C=C4)cc2)c1
REMARK SMILES IDX 19 1 18 2 17 3 16 4 15 5 13 6 14 7 12 9 10 10 11 11 8 12
REMARK SMILES IDX 7 13 9 15 6 16 1 17 2 18 3 19 88 20 4 21 5 22 20 23 21 24
REMARK SMILES IDX 22 25 23 26 24 28 25 29 26 30 87 31 27 32 86 33 28 34 29 35
REMARK SMILES IDX 30 36 80 37 31 38 85 39 79 40 81 41 32 42 84 43 78 44 77 45
REMARK SMILES IDX 33 47 65 48 45 49 64 50 46 51 49 52 63 53 82 54 47 55 48 56
REMARK SMILES IDX 62 58 83 59 50 60 34 61 35 62 43 63 36 64 42 65 44 66 41 67
REMARK SMILES IDX 37 68 38 69 39 70 40 71 66 72 67 73 75 74 68 75 74 76 76 77
REMARK SMILES IDX 73 78 69 79 70 80 71 81 72 82 51 83 52 84 60 85 53 86 59 87
REMARK SMILES IDX 61 88 58 89 54 90 55 91 56 92 57 93
REMARK H PARENT 15 8 7 14 22 27 81 46 49 57
REMARK Flexibility Score: inf
ROOT
ATOM      1  C   UNL A   1      33.234  28.876  27.229  1.00  0.00     0.002 C 
ENDROOT
BRANCH   1   2
ATOM      2  C   UNL A   1      32.080  27.897  26.961  1.00  0.00     0.002 C 
BRANCH   2   3
ATOM      3  C   UNL A   1      32.440  26.408  26.869  1.00  0.00     0.021 C 
BRANCH   3   4
ATOM      4  C   UNL A   1      31.712  25.612  25.784  1.00  0.00     0.116 C 
BRANCH   4   5
ATOM      5  N   UNL A   1      30.721  24.721  26.342  1.00  0.00    -0.356 N 
ATOM      6  C   UNL A   1      30.778  23.531  26.997  1.00  0.00     0.223 C 
ATOM      7  O   UNL A   1      29.711  23.037  27.359  1.00  0.00    -0.275 OA
ATOM      8  H   UNL A   1      29.799  25.047  26.220  1.00  0.00     0.163 HD
BRANCH   6   9
ATOM      9  C   UNL A   1      32.003  22.773  27.346  1.00  0.00     0.091 C 
ATOM     10  C   UNL A   1      32.903  22.100  26.333  1.00  0.00     0.092 C 
ATOM     11  C   UNL A   1      33.440  23.158  27.297  1.00  0.00     0.028 C 
BRANCH  10  12
ATOM     12  C   UNL A   1      32.989  22.383  24.879  1.00  0.00     0.228 C 
ATOM     13  N   UNL A   1      34.188  22.635  24.267  1.00  0.00    -0.326 N 
ATOM     14  H   UNL A   1      34.088  22.964  23.344  1.00  0.00     0.169 HD
ATOM     15  O   UNL A   1      31.953  22.556  24.240  1.00  0.00    -0.274 OA
BRANCH  13  16
ATOM     16  C   UNL A   1      35.527  22.523  24.670  1.00  0.00     0.041 A 
ATOM     17  C   UNL A   1      38.022  19.638  24.928  1.00  0.00     0.044 C 
ATOM     18  C   UNL A   1      37.419  21.010  25.008  1.00  0.00    -0.049 A 
ATOM     19  C   UNL A   1      38.177  22.077  25.496  1.00  0.00     0.003 A 
ATOM     20  C   UNL A   1      36.092  21.239  24.619  1.00  0.00     0.029 A 
ATOM     21  C   UNL A   1      37.619  23.350  25.570  1.00  0.00     0.002 A 
ATOM     22  C   UNL A   1      36.305  23.572  25.146  1.00  0.00     0.026 A 
ENDBRANCH  13  16
ENDBRANCH  10  12
ENDBRANCH   6   9
ENDBRANCH   4   5
ENDBRANCH   3   4
ENDBRANCH   2   3
ENDBRANCH   1   2
BRANCH   1  23
ATOM     23  C   UNL A   1      32.846  30.330  27.502  1.00  0.00     0.021 C 
BRANCH  23  24
ATOM     24  C   UNL A   1      33.933  31.347  27.186  1.00  0.00     0.116 C 
BRANCH  24  25
ATOM     25  N   UNL A   1      34.392  32.117  28.335  1.00  0.00    -0.352 N 
ATOM     26  C   UNL A   1      35.337  31.778  29.292  1.00  0.00     0.251 C 
ATOM     27  H   UNL A   1      33.973  33.002  28.448  1.00  0.00     0.163 HD
ATOM     28  O   UNL A   1      35.548  32.499  30.253  1.00  0.00    -0.269 OA
BRANCH  26  29
ATOM     29  C   UNL A   1      36.174  30.570  29.077  1.00  0.00     0.039 A 
ATOM     30  C   UNL A   1      36.559  29.835  30.205  1.00  0.00     0.014 A 
ATOM     31  C   UNL A   1      36.738  30.296  27.835  1.00  0.00     0.014 A 
ATOM     32  C   UNL A   1      37.668  28.995  30.129  1.00  0.00     0.010 A 
ATOM     33  C   UNL A   1      37.897  29.549  27.781  1.00  0.00     0.010 A 
ATOM     34  C   UNL A   1      38.396  28.946  28.940  1.00  0.00    -0.014 A 
BRANCH  34  35
ATOM     35  C   UNL A   1      39.763  28.442  28.859  1.00  0.00     0.031 A 
ATOM     36  C   UNL A   1      40.052  27.008  28.659  1.00  0.00     0.074 A 
ATOM     37  C   UNL A   1      40.796  29.314  28.884  1.00  0.00     0.049 A 
ATOM     38  N   UNL A   1      41.147  26.442  29.043  1.00  0.00    -0.248 NA
ATOM     39  C   UNL A   1      39.118  26.081  28.031  1.00  0.00     0.031 C 
ATOM     40  C   UNL A   1      42.183  29.052  28.510  1.00  0.00     0.029 A 
ATOM     41  N   UNL A   1      40.833  30.574  29.469  1.00  0.00    -0.354 N 
ATOM     42  C   UNL A   1      41.201  25.202  28.456  1.00  0.00     0.074 A 
ATOM     43  C   UNL A   1      39.881  24.989  27.906  1.00  0.00     0.031 C 
ATOM     44  C   UNL A   1      42.969  29.982  29.070  1.00  0.00     0.029 A 
ATOM     45  C   UNL A   1      42.136  30.791  29.940  1.00  0.00     0.049 A 
ATOM     46  H   UNL A   1      40.078  31.201  29.541  1.00  0.00     0.167 HD
ATOM     47  C   UNL A   1      42.393  24.550  28.359  1.00  0.00     0.034 A 
ATOM     48  C   UNL A   1      42.383  31.039  31.259  1.00  0.00     0.034 A 
ATOM     49  C   UNL A   1      43.493  25.327  28.924  1.00  0.00     0.049 A 
ATOM     50  C   UNL A   1      43.294  30.024  31.914  1.00  0.00     0.074 A 
ATOM     51  C   UNL A   1      44.497  26.094  28.353  1.00  0.00     0.029 A 
ATOM     52  N   UNL A   1      43.524  25.596  30.286  1.00  0.00    -0.354 N 
ATOM     53  N   UNL A   1      43.605  28.871  31.391  1.00  0.00    -0.248 NA
ATOM     54  C   UNL A   1      43.898  30.213  33.228  1.00  0.00     0.031 C 
ATOM     55  C   UNL A   1      45.139  26.823  29.385  1.00  0.00     0.029 A 
ATOM     56  C   UNL A   1      44.534  26.489  30.584  1.00  0.00     0.049 A 
ATOM     57  H   UNL A   1      42.911  25.203  30.948  1.00  0.00     0.167 HD
ATOM     58  C   UNL A   1      44.389  28.153  32.265  1.00  0.00     0.074 A 
ATOM     59  C   UNL A   1      44.560  29.053  33.392  1.00  0.00     0.031 C 
ATOM     60  C   UNL A   1      44.793  26.878  31.965  1.00  0.00     0.034 A 
BRANCH  47  61
ATOM     61  C   UNL A   1      42.616  23.341  27.484  1.00  0.00     0.023 A 
ATOM     62  C   UNL A   1      43.658  23.359  26.534  1.00  0.00     0.031 A 
ATOM     63  C   UNL A   1      41.845  22.165  27.517  1.00  0.00     0.131 A 
ATOM     64  C   UNL A   1      43.832  22.315  25.610  1.00  0.00     0.055 A 
ATOM     65  C   UNL A   1      41.985  21.143  26.567  1.00  0.00     0.041 A 
ATOM     66  F   UNL A   1      40.954  21.940  28.494  1.00  0.00    -0.206 F 
ATOM     67  C   UNL A   1      42.974  21.221  25.596  1.00  0.00     0.022 A 
BRANCH  64  68
ATOM     68  S   UNL A   1      45.204  22.416  24.427  1.00  0.00     0.124 S 
ATOM     69  O   UNL A   1      46.277  21.729  25.139  1.00  0.00    -0.237 OA
ATOM     70  O   UNL A   1      44.660  21.730  23.261  1.00  0.00    -0.237 OA
ATOM     71  O   UNL A   1      45.400  23.856  24.260  1.00  0.00    -0.744 OA
ENDBRANCH  64  68
ENDBRANCH  47  61
BRANCH  48  72
ATOM     72  C   UNL A   1      41.273  31.771  31.929  1.00  0.00     0.023 A 
ATOM     73  C   UNL A   1      40.323  30.995  32.628  1.00  0.00     0.031 A 
ATOM     74  C   UNL A   1      41.371  33.133  32.245  1.00  0.00     0.131 A 
ATOM     75  C   UNL A   1      39.628  31.540  33.716  1.00  0.00     0.055 A 
ATOM     76  C   UNL A   1      40.626  33.688  33.293  1.00  0.00     0.041 A 
ATOM     77  F   UNL A   1      42.278  33.911  31.640  1.00  0.00    -0.206 F 
ATOM     78  C   UNL A   1      39.784  32.883  34.062  1.00  0.00     0.022 A 
BRANCH  75  79
ATOM     79  S   UNL A   1      38.741  30.406  34.827  1.00  0.00     0.124 S 
ATOM     80  O   UNL A   1      39.785  30.033  35.774  1.00  0.00    -0.237 OA
ATOM     81  O   UNL A   1      37.671  31.249  35.355  1.00  0.00    -0.237 OA
ATOM     82  O   UNL A   1      38.286  29.340  33.938  1.00  0.00    -0.744 OA
ENDBRANCH  75  79
ENDBRANCH  48  72
BRANCH  60  83
ATOM     83  C   UNL A   1      45.507  25.879  32.870  1.00  0.00     0.023 A 
ATOM     84  C   UNL A   1      44.865  24.859  33.586  1.00  0.00     0.031 A 
ATOM     85  C   UNL A   1      46.922  25.905  33.011  1.00  0.00     0.131 A 
ATOM     86  C   UNL A   1      45.588  23.958  34.398  1.00  0.00     0.055 A 
ATOM     87  C   UNL A   1      47.643  24.985  33.780  1.00  0.00     0.041 A 
ATOM     88  F   UNL A   1      47.686  26.821  32.399  1.00  0.00    -0.206 F 
ATOM     89  C   UNL A   1      46.975  24.004  34.488  1.00  0.00     0.022 A 
BRANCH  86  90
ATOM     90  S   UNL A   1      44.658  22.745  35.371  1.00  0.00     0.124 S 
ATOM     91  O   UNL A   1      45.182  22.968  36.716  1.00  0.00    -0.237 OA
ATOM     92  O   UNL A   1      43.277  23.164  35.153  1.00  0.00    -0.237 OA
ATOM     93  O   UNL A   1      45.022  21.464  34.768  1.00  0.00    -0.744 OA
ENDBRANCH  86  90
ENDBRANCH  60  83
ENDBRANCH  34  35
ENDBRANCH  26  29
ENDBRANCH  24  25
ENDBRANCH  23  24
ENDBRANCH   1  23
TORSDOF 18
ENDMDL
