MODEL 1
REMARK VINA RESULT:     -11.3      0.000      0.000
REMARK SMILES CC1(C)CCC[C@H]1NS(=O)(=O)c1cccc(C(=O)NCCCCCCNC(=O)c2ccc(-c3c4nc(c(-c5cc(S(=O)(=O)[O-])ccc5F)c5ccc([nH]5)c(-c5cc(S(=O)(=O)[O-])ccc5F)c5nc(c(-c6cc(S(=O)(=O)[O-])ccc6F)c6ccc3[nH]6)C=C5)C=C4)cc2)c1
REMARK SMILES IDX 22 1 21 2 20 3 19 4 17 5 18 6 16 8 12 9 13 10 92 11 14 12
REMARK SMILES IDX 15 13 9 14 10 15 11 16 8 17 7 19 1 20 2 21 3 22 4 23 5 24
REMARK SMILES IDX 6 25 23 26 24 27 25 28 26 29 27 30 28 32 29 33 30 34 91 35
REMARK SMILES IDX 31 36 90 37 32 38 33 39 34 40 84 41 35 42 89 43 83 44 85 45
REMARK SMILES IDX 36 46 88 47 82 48 81 49 37 51 69 52 49 53 68 54 50 55 53 56
REMARK SMILES IDX 67 57 86 58 51 59 52 60 66 62 87 63 54 64 38 65 39 66 47 67
REMARK SMILES IDX 40 68 46 69 48 70 45 71 41 72 42 73 43 74 44 75 70 76 71 77
REMARK SMILES IDX 79 78 72 79 78 80 80 81 77 82 73 83 74 84 75 85 76 86 55 87
REMARK SMILES IDX 56 88 64 89 57 90 63 91 65 92 62 93 58 94 59 95 60 96 61 97
REMARK H PARENT 19 7 8 18 26 31 85 50 53 61
REMARK Flexibility Score: inf
ROOT
ATOM      1  C   UNL A   1      32.600  26.205  26.535  1.00  0.00     0.002 C 
ENDROOT
BRANCH   1   2
ATOM      2  C   UNL A   1      32.251  24.779  26.120  1.00  0.00     0.021 C 
BRANCH   2   3
ATOM      3  C   UNL A   1      32.999  23.656  26.826  1.00  0.00     0.116 C 
BRANCH   3   4
ATOM      4  N   UNL A   1      34.422  23.574  26.521  1.00  0.00    -0.352 N 
ATOM      5  C   UNL A   1      35.057  23.438  25.302  1.00  0.00     0.251 C 
ATOM      6  O   UNL A   1      36.282  23.365  25.250  1.00  0.00    -0.269 OA
ATOM      7  H   UNL A   1      35.020  23.623  27.301  1.00  0.00     0.163 HD
BRANCH   5   8
ATOM      8  C   UNL A   1      34.268  23.311  24.050  1.00  0.00     0.041 A 
ATOM      9  C   UNL A   1      33.203  24.356  22.158  1.00  0.00     0.083 A 
ATOM     10  C   UNL A   1      32.403  23.235  21.951  1.00  0.00     0.022 A 
ATOM     11  C   UNL A   1      34.200  24.355  23.136  1.00  0.00     0.035 A 
ATOM     12  C   UNL A   1      32.596  22.111  22.761  1.00  0.00     0.002 A 
ATOM     13  C   UNL A   1      33.508  22.157  23.825  1.00  0.00     0.014 A 
BRANCH   9  14
ATOM     14  S   UNL A   1      32.943  25.907  21.354  1.00  0.00     0.240 S 
ATOM     15  O   UNL A   1      32.995  25.654  19.931  1.00  0.00    -0.207 OA
ATOM     16  O   UNL A   1      33.853  26.836  21.986  1.00  0.00    -0.207 OA
BRANCH  14  17
ATOM     17  N   UNL A   1      31.410  26.427  21.766  1.00  0.00    -0.208 NA
ATOM     18  H   UNL A   1      31.238  27.269  21.217  1.00  0.00     0.141 HD
BRANCH  17  19
ATOM     19  C   UNL A   1      31.036  26.758  23.147  1.00  0.00     0.075 C 
ATOM     20  C   UNL A   1      30.902  29.176  22.144  1.00  0.00     0.013 C 
ATOM     21  C   UNL A   1      30.426  28.190  23.221  1.00  0.00    -0.019 C 
ATOM     22  C   UNL A   1      30.739  28.813  24.597  1.00  0.00     0.013 C 
ATOM     23  C   UNL A   1      28.918  27.922  23.075  1.00  0.00     0.008 C 
ATOM     24  C   UNL A   1      28.680  26.660  23.885  1.00  0.00     0.002 C 
ATOM     25  C   UNL A   1      29.938  25.824  23.685  1.00  0.00     0.020 C 
ENDBRANCH  17  19
ENDBRANCH  14  17
ENDBRANCH   9  14
ENDBRANCH   5   8
ENDBRANCH   3   4
ENDBRANCH   2   3
ENDBRANCH   1   2
BRANCH   1  26
ATOM     26  C   UNL A   1      33.664  26.925  25.703  1.00  0.00     0.002 C 
BRANCH  26  27
ATOM     27  C   UNL A   1      34.068  28.332  26.153  1.00  0.00     0.021 C 
BRANCH  27  28
ATOM     28  C   UNL A   1      33.281  28.935  27.315  1.00  0.00     0.116 C 
BRANCH  28  29
ATOM     29  N   UNL A   1      33.400  30.379  27.393  1.00  0.00    -0.352 N 
ATOM     30  C   UNL A   1      34.399  31.163  27.914  1.00  0.00     0.251 C 
ATOM     31  H   UNL A   1      32.642  30.877  27.011  1.00  0.00     0.163 HD
ATOM     32  O   UNL A   1      34.225  32.377  27.981  1.00  0.00    -0.269 OA
BRANCH  30  33
ATOM     33  C   UNL A   1      35.662  30.570  28.423  1.00  0.00     0.039 A 
ATOM     34  C   UNL A   1      36.835  30.785  27.690  1.00  0.00     0.014 A 
ATOM     35  C   UNL A   1      35.703  29.774  29.570  1.00  0.00     0.014 A 
ATOM     36  C   UNL A   1      38.048  30.248  28.132  1.00  0.00     0.010 A 
ATOM     37  C   UNL A   1      36.926  29.292  30.046  1.00  0.00     0.010 A 
ATOM     38  C   UNL A   1      38.110  29.517  29.328  1.00  0.00    -0.014 A 
BRANCH  38  39
ATOM     39  C   UNL A   1      39.405  28.975  29.821  1.00  0.00     0.031 A 
ATOM     40  C   UNL A   1      40.097  29.604  31.001  1.00  0.00     0.074 A 
ATOM     41  C   UNL A   1      39.980  27.937  29.182  1.00  0.00     0.049 A 
ATOM     42  N   UNL A   1      41.236  29.287  31.562  1.00  0.00    -0.248 NA
ATOM     43  C   UNL A   1      39.429  30.764  31.610  1.00  0.00     0.031 C 
ATOM     44  C   UNL A   1      39.437  27.271  27.995  1.00  0.00     0.029 A 
ATOM     45  N   UNL A   1      41.148  27.262  29.435  1.00  0.00    -0.354 N 
ATOM     46  C   UNL A   1      41.429  30.212  32.583  1.00  0.00     0.074 A 
ATOM     47  C   UNL A   1      40.316  31.137  32.521  1.00  0.00     0.031 C 
ATOM     48  C   UNL A   1      40.260  26.271  27.638  1.00  0.00     0.029 A 
ATOM     49  C   UNL A   1      41.401  26.242  28.548  1.00  0.00     0.049 A 
ATOM     50  H   UNL A   1      41.748  27.486  30.182  1.00  0.00     0.167 HD
ATOM     51  C   UNL A   1      42.428  30.274  33.501  1.00  0.00     0.034 A 
ATOM     52  C   UNL A   1      42.434  25.380  28.473  1.00  0.00     0.034 A 
ATOM     53  C   UNL A   1      43.527  29.339  33.557  1.00  0.00     0.049 A 
ATOM     54  C   UNL A   1      43.525  25.457  29.508  1.00  0.00     0.074 A 
ATOM     55  C   UNL A   1      44.562  29.275  34.476  1.00  0.00     0.029 A 
ATOM     56  N   UNL A   1      43.741  28.306  32.652  1.00  0.00    -0.354 N 
ATOM     57  N   UNL A   1      43.663  26.303  30.504  1.00  0.00    -0.248 NA
ATOM     58  C   UNL A   1      44.588  24.448  29.421  1.00  0.00     0.031 C 
ATOM     59  C   UNL A   1      45.429  28.244  34.093  1.00  0.00     0.029 A 
ATOM     60  C   UNL A   1      44.902  27.617  32.976  1.00  0.00     0.049 A 
ATOM     61  H   UNL A   1      43.154  28.093  31.892  1.00  0.00     0.167 HD
ATOM     62  C   UNL A   1      44.819  25.911  31.174  1.00  0.00     0.074 A 
ATOM     63  C   UNL A   1      45.324  24.743  30.482  1.00  0.00     0.031 C 
ATOM     64  C   UNL A   1      45.410  26.467  32.263  1.00  0.00     0.034 A 
BRANCH  51  65
ATOM     65  C   UNL A   1      42.383  31.412  34.495  1.00  0.00     0.023 A 
ATOM     66  C   UNL A   1      41.453  31.434  35.551  1.00  0.00     0.031 A 
ATOM     67  C   UNL A   1      43.249  32.511  34.363  1.00  0.00     0.131 A 
ATOM     68  C   UNL A   1      41.351  32.566  36.373  1.00  0.00     0.055 A 
ATOM     69  C   UNL A   1      43.200  33.598  35.238  1.00  0.00     0.041 A 
ATOM     70  F   UNL A   1      44.148  32.558  33.366  1.00  0.00    -0.206 F 
ATOM     71  C   UNL A   1      42.234  33.638  36.240  1.00  0.00     0.022 A 
BRANCH  68  72
ATOM     72  S   UNL A   1      39.947  32.682  37.516  1.00  0.00     0.124 S 
ATOM     73  O   UNL A   1      40.608  32.540  38.811  1.00  0.00    -0.237 OA
ATOM     74  O   UNL A   1      39.403  34.001  37.215  1.00  0.00    -0.237 OA
ATOM     75  O   UNL A   1      39.098  31.555  37.132  1.00  0.00    -0.744 OA
ENDBRANCH  68  72
ENDBRANCH  51  65
BRANCH  52  76
ATOM     76  C   UNL A   1      42.491  24.369  27.381  1.00  0.00     0.023 A 
ATOM     77  C   UNL A   1      41.831  23.135  27.503  1.00  0.00     0.031 A 
ATOM     78  C   UNL A   1      43.233  24.610  26.213  1.00  0.00     0.131 A 
ATOM     79  C   UNL A   1      41.960  22.172  26.490  1.00  0.00     0.055 A 
ATOM     80  C   UNL A   1      43.323  23.666  25.189  1.00  0.00     0.041 A 
ATOM     81  F   UNL A   1      43.876  25.777  26.046  1.00  0.00    -0.206 F 
ATOM     82  C   UNL A   1      42.692  22.433  25.329  1.00  0.00     0.022 A 
BRANCH  79  83
ATOM     83  S   UNL A   1      41.208  20.541  26.742  1.00  0.00     0.124 S 
ATOM     84  O   UNL A   1      39.798  20.883  26.892  1.00  0.00    -0.237 OA
ATOM     85  O   UNL A   1      41.572  19.845  25.512  1.00  0.00    -0.237 OA
ATOM     86  O   UNL A   1      41.862  20.047  27.952  1.00  0.00    -0.744 OA
ENDBRANCH  79  83
ENDBRANCH  52  76
BRANCH  64  87
ATOM     87  C   UNL A   1      46.653  25.786  32.782  1.00  0.00     0.023 A 
ATOM     88  C   UNL A   1      47.923  26.057  32.241  1.00  0.00     0.031 A 
ATOM     89  C   UNL A   1      46.561  24.823  33.802  1.00  0.00     0.131 A 
ATOM     90  C   UNL A   1      49.038  25.323  32.672  1.00  0.00     0.055 A 
ATOM     91  C   UNL A   1      47.684  24.140  34.270  1.00  0.00     0.041 A 
ATOM     92  F   UNL A   1      45.375  24.523  34.354  1.00  0.00    -0.206 F 
ATOM     93  C   UNL A   1      48.929  24.376  33.694  1.00  0.00     0.022 A 
BRANCH  90  94
ATOM     94  S   UNL A   1      50.615  25.543  31.802  1.00  0.00     0.124 S 
ATOM     95  O   UNL A   1      50.598  24.433  30.855  1.00  0.00    -0.237 OA
ATOM     96  O   UNL A   1      50.470  26.876  31.226  1.00  0.00    -0.237 OA
ATOM     97  O   UNL A   1      51.612  25.434  32.867  1.00  0.00    -0.744 OA
ENDBRANCH  90  94
ENDBRANCH  64  87
ENDBRANCH  38  39
ENDBRANCH  30  33
ENDBRANCH  28  29
ENDBRANCH  27  28
ENDBRANCH  26  27
ENDBRANCH   1  26
TORSDOF 19
ENDMDL
MODEL 2
REMARK VINA RESULT:     -10.9      3.312      5.009
REMARK SMILES CC1(C)CCC[C@H]1NS(=O)(=O)c1cccc(C(=O)NCCCCCCNC(=O)c2ccc(-c3c4nc(c(-c5cc(S(=O)(=O)[O-])ccc5F)c5ccc([nH]5)c(-c5cc(S(=O)(=O)[O-])ccc5F)c5nc(c(-c6cc(S(=O)(=O)[O-])ccc6F)c6ccc3[nH]6)C=C5)C=C4)cc2)c1
REMARK SMILES IDX 22 1 21 2 20 3 19 4 17 5 18 6 16 8 12 9 13 10 92 11 14 12
REMARK SMILES IDX 15 13 9 14 10 15 11 16 8 17 7 19 1 20 2 21 3 22 4 23 5 24
REMARK SMILES IDX 6 25 23 26 24 27 25 28 26 29 27 30 28 32 29 33 30 34 91 35
REMARK SMILES IDX 31 36 90 37 32 38 33 39 34 40 84 41 35 42 89 43 83 44 85 45
REMARK SMILES IDX 36 46 88 47 82 48 81 49 37 51 69 52 49 53 68 54 50 55 53 56
REMARK SMILES IDX 67 57 86 58 51 59 52 60 66 62 87 63 54 64 38 65 39 66 47 67
REMARK SMILES IDX 40 68 46 69 48 70 45 71 41 72 42 73 43 74 44 75 70 76 71 77
REMARK SMILES IDX 79 78 72 79 78 80 80 81 77 82 73 83 74 84 75 85 76 86 55 87
REMARK SMILES IDX 56 88 64 89 57 90 63 91 65 92 62 93 58 94 59 95 60 96 61 97
REMARK H PARENT 19 7 8 18 26 31 85 50 53 61
REMARK Flexibility Score: inf
ROOT
ATOM      1  C   UNL A   1      35.115  30.166  28.129  1.00  0.00     0.002 C 
ENDROOT
BRANCH   1   2
ATOM      2  C   UNL A   1      34.919  29.210  26.956  1.00  0.00     0.021 C 
BRANCH   2   3
ATOM      3  C   UNL A   1      33.532  29.167  26.329  1.00  0.00     0.116 C 
BRANCH   3   4
ATOM      4  N   UNL A   1      33.492  29.441  24.898  1.00  0.00    -0.352 N 
ATOM      5  C   UNL A   1      32.962  28.687  23.869  1.00  0.00     0.251 C 
ATOM      6  O   UNL A   1      33.044  29.083  22.709  1.00  0.00    -0.269 OA
ATOM      7  H   UNL A   1      33.904  30.292  24.624  1.00  0.00     0.163 HD
BRANCH   5   8
ATOM      8  C   UNL A   1      32.346  27.363  24.144  1.00  0.00     0.041 A 
ATOM      9  C   UNL A   1      32.219  25.003  23.679  1.00  0.00     0.083 A 
ATOM     10  C   UNL A   1      30.947  24.930  24.242  1.00  0.00     0.022 A 
ATOM     11  C   UNL A   1      32.956  26.188  23.722  1.00  0.00     0.035 A 
ATOM     12  C   UNL A   1      30.404  26.078  24.830  1.00  0.00     0.002 A 
ATOM     13  C   UNL A   1      31.090  27.298  24.758  1.00  0.00     0.014 A 
BRANCH   9  14
ATOM     14  S   UNL A   1      32.947  23.701  22.733  1.00  0.00     0.240 S 
ATOM     15  O   UNL A   1      33.303  24.265  21.451  1.00  0.00    -0.207 OA
ATOM     16  O   UNL A   1      32.035  22.583  22.835  1.00  0.00    -0.207 OA
BRANCH  14  17
ATOM     17  N   UNL A   1      34.335  23.225  23.532  1.00  0.00    -0.208 NA
ATOM     18  H   UNL A   1      34.470  22.240  23.304  1.00  0.00     0.141 HD
BRANCH  17  19
ATOM     19  C   UNL A   1      34.478  23.329  24.989  1.00  0.00     0.075 C 
ATOM     20  C   UNL A   1      34.524  20.715  24.806  1.00  0.00     0.013 C 
ATOM     21  C   UNL A   1      34.935  21.968  25.594  1.00  0.00    -0.019 C 
ATOM     22  C   UNL A   1      34.376  21.826  27.024  1.00  0.00     0.013 C 
ATOM     23  C   UNL A   1      36.467  22.107  25.619  1.00  0.00     0.008 C 
ATOM     24  C   UNL A   1      36.707  23.548  26.034  1.00  0.00     0.002 C 
ATOM     25  C   UNL A   1      35.573  24.335  25.388  1.00  0.00     0.020 C 
ENDBRANCH  17  19
ENDBRANCH  14  17
ENDBRANCH   9  14
ENDBRANCH   5   8
ENDBRANCH   3   4
ENDBRANCH   2   3
ENDBRANCH   1   2
BRANCH   1  26
ATOM     26  C   UNL A   1      35.090  31.663  27.811  1.00  0.00     0.002 C 
BRANCH  26  27
ATOM     27  C   UNL A   1      33.763  32.398  28.013  1.00  0.00     0.021 C 
BRANCH  27  28
ATOM     28  C   UNL A   1      33.790  33.919  27.872  1.00  0.00     0.116 C 
BRANCH  28  29
ATOM     29  N   UNL A   1      33.209  34.606  29.011  1.00  0.00    -0.352 N 
ATOM     30  C   UNL A   1      33.583  34.612  30.331  1.00  0.00     0.251 C 
ATOM     31  H   UNL A   1      32.421  35.157  28.802  1.00  0.00     0.163 HD
ATOM     32  O   UNL A   1      32.861  35.178  31.148  1.00  0.00    -0.269 OA
BRANCH  30  33
ATOM     33  C   UNL A   1      34.819  33.928  30.789  1.00  0.00     0.039 A 
ATOM     34  C   UNL A   1      34.685  32.788  31.591  1.00  0.00     0.014 A 
ATOM     35  C   UNL A   1      36.095  34.411  30.488  1.00  0.00     0.014 A 
ATOM     36  C   UNL A   1      35.821  32.110  32.043  1.00  0.00     0.010 A 
ATOM     37  C   UNL A   1      37.228  33.697  30.886  1.00  0.00     0.010 A 
ATOM     38  C   UNL A   1      37.103  32.543  31.674  1.00  0.00    -0.014 A 
BRANCH  38  39
ATOM     39  C   UNL A   1      38.314  31.803  32.124  1.00  0.00     0.031 A 
ATOM     40  C   UNL A   1      38.959  32.125  33.445  1.00  0.00     0.074 A 
ATOM     41  C   UNL A   1      38.856  30.865  31.323  1.00  0.00     0.049 A 
ATOM     42  N   UNL A   1      40.026  31.604  33.997  1.00  0.00    -0.248 NA
ATOM     43  C   UNL A   1      38.336  33.195  34.236  1.00  0.00     0.031 C 
ATOM     44  C   UNL A   1      38.357  30.495  29.996  1.00  0.00     0.029 A 
ATOM     45  N   UNL A   1      39.949  30.052  31.503  1.00  0.00    -0.354 N 
ATOM     46  C   UNL A   1      40.210  32.290  35.194  1.00  0.00     0.074 A 
ATOM     47  C   UNL A   1      39.176  33.303  35.254  1.00  0.00     0.031 C 
ATOM     48  C   UNL A   1      39.128  29.517  29.493  1.00  0.00     0.029 A 
ATOM     49  C   UNL A   1      40.191  29.209  30.444  1.00  0.00     0.049 A 
ATOM     50  H   UNL A   1      40.506  30.072  32.314  1.00  0.00     0.167 HD
ATOM     51  C   UNL A   1      41.138  32.082  36.162  1.00  0.00     0.034 A 
ATOM     52  C   UNL A   1      41.160  28.291  30.259  1.00  0.00     0.034 A 
ATOM     53  C   UNL A   1      42.158  31.061  36.093  1.00  0.00     0.049 A 
ATOM     54  C   UNL A   1      42.173  28.067  31.350  1.00  0.00     0.074 A 
ATOM     55  C   UNL A   1      43.112  30.727  37.039  1.00  0.00     0.029 A 
ATOM     56  N   UNL A   1      42.362  30.212  35.013  1.00  0.00    -0.354 N 
ATOM     57  N   UNL A   1      42.298  28.685  32.503  1.00  0.00    -0.248 NA
ATOM     58  C   UNL A   1      43.162  27.005  31.123  1.00  0.00     0.031 C 
ATOM     59  C   UNL A   1      43.927  29.719  36.508  1.00  0.00     0.029 A 
ATOM     60  C   UNL A   1      43.441  29.374  35.258  1.00  0.00     0.049 A 
ATOM     61  H   UNL A   1      41.820  30.205  34.192  1.00  0.00     0.167 HD
ATOM     62  C   UNL A   1      43.368  28.069  33.147  1.00  0.00     0.074 A 
ATOM     63  C   UNL A   1      43.835  27.020  32.265  1.00  0.00     0.031 C 
ATOM     64  C   UNL A   1      43.914  28.346  34.359  1.00  0.00     0.034 A 
BRANCH  51  65
ATOM     65  C   UNL A   1      41.103  33.002  37.361  1.00  0.00     0.023 A 
ATOM     66  C   UNL A   1      40.373  32.678  38.520  1.00  0.00     0.031 A 
ATOM     67  C   UNL A   1      41.769  34.239  37.333  1.00  0.00     0.131 A 
ATOM     68  C   UNL A   1      40.255  33.612  39.560  1.00  0.00     0.055 A 
ATOM     69  C   UNL A   1      41.717  35.130  38.407  1.00  0.00     0.041 A 
ATOM     70  F   UNL A   1      42.469  34.615  36.249  1.00  0.00    -0.206 F 
ATOM     71  C   UNL A   1      40.941  34.827  39.522  1.00  0.00     0.022 A 
BRANCH  68  72
ATOM     72  S   UNL A   1      39.064  33.282  40.888  1.00  0.00     0.124 S 
ATOM     73  O   UNL A   1      37.954  34.155  40.513  1.00  0.00    -0.237 OA
ATOM     74  O   UNL A   1      38.827  31.850  40.751  1.00  0.00    -0.237 OA
ATOM     75  O   UNL A   1      39.780  33.682  42.098  1.00  0.00    -0.744 OA
ENDBRANCH  68  72
ENDBRANCH  51  65
BRANCH  52  76
ATOM     76  C   UNL A   1      41.224  27.513  28.990  1.00  0.00     0.023 A 
ATOM     77  C   UNL A   1      42.189  27.802  28.012  1.00  0.00     0.031 A 
ATOM     78  C   UNL A   1      40.299  26.489  28.725  1.00  0.00     0.131 A 
ATOM     79  C   UNL A   1      42.181  27.101  26.796  1.00  0.00     0.055 A 
ATOM     80  C   UNL A   1      40.322  25.765  27.532  1.00  0.00     0.041 A 
ATOM     81  F   UNL A   1      39.361  26.170  29.632  1.00  0.00    -0.206 F 
ATOM     82  C   UNL A   1      41.262  26.077  26.554  1.00  0.00     0.022 A 
BRANCH  79  83
ATOM     83  S   UNL A   1      43.355  27.592  25.503  1.00  0.00     0.124 S 
ATOM     84  O   UNL A   1      44.137  26.373  25.331  1.00  0.00    -0.237 OA
ATOM     85  O   UNL A   1      42.465  27.944  24.402  1.00  0.00    -0.237 OA
ATOM     86  O   UNL A   1      44.073  28.714  26.103  1.00  0.00    -0.744 OA
ENDBRANCH  79  83
ENDBRANCH  52  76
BRANCH  64  87
ATOM     87  C   UNL A   1      45.061  27.469  34.802  1.00  0.00     0.023 A 
ATOM     88  C   UNL A   1      44.846  26.286  35.532  1.00  0.00     0.031 A 
ATOM     89  C   UNL A   1      46.387  27.845  34.527  1.00  0.00     0.131 A 
ATOM     90  C   UNL A   1      45.940  25.558  36.022  1.00  0.00     0.055 A 
ATOM     91  C   UNL A   1      47.471  27.082  34.964  1.00  0.00     0.041 A 
ATOM     92  F   UNL A   1      46.652  28.964  33.834  1.00  0.00    -0.206 F 
ATOM     93  C   UNL A   1      47.251  25.941  35.730  1.00  0.00     0.022 A 
BRANCH  90  94
ATOM     94  S   UNL A   1      45.628  24.164  37.141  1.00  0.00     0.124 S 
ATOM     95  O   UNL A   1      44.619  24.715  38.040  1.00  0.00    -0.237 OA
ATOM     96  O   UNL A   1      45.167  23.126  36.224  1.00  0.00    -0.237 OA
ATOM     97  O   UNL A   1      46.933  23.917  37.752  1.00  0.00    -0.744 OA
ENDBRANCH  90  94
ENDBRANCH  64  87
ENDBRANCH  38  39
ENDBRANCH  30  33
ENDBRANCH  28  29
ENDBRANCH  27  28
ENDBRANCH  26  27
ENDBRANCH   1  26
TORSDOF 19
ENDMDL
MODEL 3
REMARK VINA RESULT:     -10.8      4.910      7.873
REMARK SMILES CC1(C)CCC[C@H]1NS(=O)(=O)c1cccc(C(=O)NCCCCCCNC(=O)c2ccc(-c3c4nc(c(-c5cc(S(=O)(=O)[O-])ccc5F)c5ccc([nH]5)c(-c5cc(S(=O)(=O)[O-])ccc5F)c5nc(c(-c6cc(S(=O)(=O)[O-])ccc6F)c6ccc3[nH]6)C=C5)C=C4)cc2)c1
REMARK SMILES IDX 22 1 21 2 20 3 19 4 17 5 18 6 16 8 12 9 13 10 92 11 14 12
REMARK SMILES IDX 15 13 9 14 10 15 11 16 8 17 7 19 1 20 2 21 3 22 4 23 5 24
REMARK SMILES IDX 6 25 23 26 24 27 25 28 26 29 27 30 28 32 29 33 30 34 91 35
REMARK SMILES IDX 31 36 90 37 32 38 33 39 34 40 84 41 35 42 89 43 83 44 85 45
REMARK SMILES IDX 36 46 88 47 82 48 81 49 37 51 69 52 49 53 68 54 50 55 53 56
REMARK SMILES IDX 67 57 86 58 51 59 52 60 66 62 87 63 54 64 38 65 39 66 47 67
REMARK SMILES IDX 40 68 46 69 48 70 45 71 41 72 42 73 43 74 44 75 70 76 71 77
REMARK SMILES IDX 79 78 72 79 78 80 80 81 77 82 73 83 74 84 75 85 76 86 55 87
REMARK SMILES IDX 56 88 64 89 57 90 63 91 65 92 62 93 58 94 59 95 60 96 61 97
REMARK H PARENT 19 7 8 18 26 31 85 50 53 61
REMARK Flexibility Score: inf
ROOT
ATOM      1  C   UNL A   1      37.254  21.929  24.417  1.00  0.00     0.002 C 
ENDROOT
BRANCH   1   2
ATOM      2  C   UNL A   1      37.359  22.841  25.636  1.00  0.00     0.021 C 
BRANCH   2   3
ATOM      3  C   UNL A   1      36.141  23.695  25.962  1.00  0.00     0.116 C 
BRANCH   3   4
ATOM      4  N   UNL A   1      35.163  23.066  26.841  1.00  0.00    -0.352 N 
ATOM      5  C   UNL A   1      34.018  22.360  26.526  1.00  0.00     0.251 C 
ATOM      6  O   UNL A   1      33.301  21.918  27.420  1.00  0.00    -0.269 OA
ATOM      7  H   UNL A   1      35.345  23.158  27.804  1.00  0.00     0.163 HD
BRANCH   5   8
ATOM      8  C   UNL A   1      33.607  22.183  25.109  1.00  0.00     0.041 A 
ATOM      9  C   UNL A   1      33.149  23.149  22.950  1.00  0.00     0.083 A 
ATOM     10  C   UNL A   1      32.403  22.034  22.576  1.00  0.00     0.022 A 
ATOM     11  C   UNL A   1      33.832  23.180  24.168  1.00  0.00     0.035 A 
ATOM     12  C   UNL A   1      32.324  20.950  23.458  1.00  0.00     0.002 A 
ATOM     13  C   UNL A   1      32.903  21.034  24.732  1.00  0.00     0.014 A 
BRANCH   9  14
ATOM     14  S   UNL A   1      33.176  24.660  22.036  1.00  0.00     0.240 S 
ATOM     15  O   UNL A   1      33.275  24.302  20.639  1.00  0.00    -0.207 OA
ATOM     16  O   UNL A   1      34.176  25.487  22.674  1.00  0.00    -0.207 OA
BRANCH  14  17
ATOM     17  N   UNL A   1      31.716  25.427  22.307  1.00  0.00    -0.208 NA
ATOM     18  H   UNL A   1      31.738  26.282  21.752  1.00  0.00     0.141 HD
BRANCH  17  19
ATOM     19  C   UNL A   1      31.273  25.824  23.649  1.00  0.00     0.075 C 
ATOM     20  C   UNL A   1      31.893  28.207  22.751  1.00  0.00     0.013 C 
ATOM     21  C   UNL A   1      31.049  27.364  23.719  1.00  0.00    -0.019 C 
ATOM     22  C   UNL A   1      31.339  27.863  25.150  1.00  0.00     0.013 C 
ATOM     23  C   UNL A   1      29.553  27.503  23.387  1.00  0.00     0.008 C 
ATOM     24  C   UNL A   1      28.899  26.336  24.104  1.00  0.00     0.002 C 
ATOM     25  C   UNL A   1      29.913  25.202  24.012  1.00  0.00     0.020 C 
ENDBRANCH  17  19
ENDBRANCH  14  17
ENDBRANCH   9  14
ENDBRANCH   5   8
ENDBRANCH   3   4
ENDBRANCH   2   3
ENDBRANCH   1   2
BRANCH   1  26
ATOM     26  C   UNL A   1      36.890  20.466  24.679  1.00  0.00     0.002 C 
BRANCH  26  27
ATOM     27  C   UNL A   1      38.039  19.507  25.000  1.00  0.00     0.021 C 
BRANCH  27  28
ATOM     28  C   UNL A   1      39.122  20.024  25.946  1.00  0.00     0.116 C 
BRANCH  28  29
ATOM     29  N   UNL A   1      40.299  19.176  25.980  1.00  0.00    -0.352 N 
ATOM     30  C   UNL A   1      41.623  19.498  26.147  1.00  0.00     0.251 C 
ATOM     31  H   UNL A   1      40.119  18.215  25.867  1.00  0.00     0.163 HD
ATOM     32  O   UNL A   1      42.467  18.615  26.019  1.00  0.00    -0.269 OA
BRANCH  30  33
ATOM     33  C   UNL A   1      42.049  20.888  26.448  1.00  0.00     0.039 A 
ATOM     34  C   UNL A   1      42.173  21.787  25.382  1.00  0.00     0.014 A 
ATOM     35  C   UNL A   1      42.374  21.306  27.741  1.00  0.00     0.014 A 
ATOM     36  C   UNL A   1      42.569  23.107  25.618  1.00  0.00     0.010 A 
ATOM     37  C   UNL A   1      42.708  22.641  27.984  1.00  0.00     0.010 A 
ATOM     38  C   UNL A   1      42.817  23.553  26.924  1.00  0.00    -0.014 A 
BRANCH  38  39
ATOM     39  C   UNL A   1      43.204  24.967  27.184  1.00  0.00     0.031 A 
ATOM     40  C   UNL A   1      42.244  25.909  27.862  1.00  0.00     0.074 A 
ATOM     41  C   UNL A   1      44.406  25.415  26.773  1.00  0.00     0.049 A 
ATOM     42  N   UNL A   1      42.393  27.176  28.156  1.00  0.00    -0.248 NA
ATOM     43  C   UNL A   1      40.934  25.356  28.233  1.00  0.00     0.031 C 
ATOM     44  C   UNL A   1      45.406  24.617  26.059  1.00  0.00     0.029 A 
ATOM     45  N   UNL A   1      44.993  26.651  26.893  1.00  0.00    -0.354 N 
ATOM     46  C   UNL A   1      41.193  27.577  28.735  1.00  0.00     0.074 A 
ATOM     47  C   UNL A   1      40.310  26.429  28.695  1.00  0.00     0.031 C 
ATOM     48  C   UNL A   1      46.488  25.377  25.824  1.00  0.00     0.029 A 
ATOM     49  C   UNL A   1      46.251  26.721  26.341  1.00  0.00     0.049 A 
ATOM     50  H   UNL A   1      44.555  27.414  27.332  1.00  0.00     0.167 HD
ATOM     51  C   UNL A   1      40.863  28.780  29.271  1.00  0.00     0.034 A 
ATOM     52  C   UNL A   1      47.116  27.750  26.260  1.00  0.00     0.034 A 
ATOM     53  C   UNL A   1      41.758  29.913  29.312  1.00  0.00     0.049 A 
ATOM     54  C   UNL A   1      46.738  29.073  26.871  1.00  0.00     0.074 A 
ATOM     55  C   UNL A   1      41.548  31.159  29.878  1.00  0.00     0.029 A 
ATOM     56  N   UNL A   1      43.033  29.943  28.760  1.00  0.00    -0.354 N 
ATOM     57  N   UNL A   1      45.620  29.419  27.468  1.00  0.00    -0.248 NA
ATOM     58  C   UNL A   1      47.747  30.137  26.816  1.00  0.00     0.031 C 
ATOM     59  C   UNL A   1      42.669  31.958  29.618  1.00  0.00     0.029 A 
ATOM     60  C   UNL A   1      43.609  31.191  28.949  1.00  0.00     0.049 A 
ATOM     61  H   UNL A   1      43.464  29.186  28.301  1.00  0.00     0.167 HD
ATOM     62  C   UNL A   1      45.803  30.737  27.878  1.00  0.00     0.074 A 
ATOM     63  C   UNL A   1      47.145  31.112  27.482  1.00  0.00     0.031 C 
ATOM     64  C   UNL A   1      44.940  31.562  28.526  1.00  0.00     0.034 A 
BRANCH  51  65
ATOM     65  C   UNL A   1      39.465  28.930  29.823  1.00  0.00     0.023 A 
ATOM     66  C   UNL A   1      38.436  29.533  29.076  1.00  0.00     0.031 A 
ATOM     67  C   UNL A   1      39.162  28.506  31.129  1.00  0.00     0.131 A 
ATOM     68  C   UNL A   1      37.187  29.775  29.667  1.00  0.00     0.055 A 
ATOM     69  C   UNL A   1      37.891  28.673  31.683  1.00  0.00     0.041 A 
ATOM     70  F   UNL A   1      40.105  27.938  31.899  1.00  0.00    -0.206 F 
ATOM     71  C   UNL A   1      36.900  29.327  30.958  1.00  0.00     0.022 A 
BRANCH  68  72
ATOM     72  S   UNL A   1      35.999  30.822  28.783  1.00  0.00     0.124 S 
ATOM     73  O   UNL A   1      35.283  31.454  29.889  1.00  0.00    -0.237 OA
ATOM     74  O   UNL A   1      36.867  31.693  28.000  1.00  0.00    -0.237 OA
ATOM     75  O   UNL A   1      35.211  29.866  28.006  1.00  0.00    -0.744 OA
ENDBRANCH  68  72
ENDBRANCH  51  65
BRANCH  52  76
ATOM     76  C   UNL A   1      48.428  27.576  25.574  1.00  0.00     0.023 A 
ATOM     77  C   UNL A   1      48.536  27.694  24.180  1.00  0.00     0.031 A 
ATOM     78  C   UNL A   1      49.586  27.258  26.304  1.00  0.00     0.131 A 
ATOM     79  C   UNL A   1      49.769  27.455  23.553  1.00  0.00     0.055 A 
ATOM     80  C   UNL A   1      50.819  27.064  25.681  1.00  0.00     0.041 A 
ATOM     81  F   UNL A   1      49.535  27.141  27.641  1.00  0.00    -0.206 F 
ATOM     82  C   UNL A   1      50.913  27.152  24.295  1.00  0.00     0.022 A 
BRANCH  79  83
ATOM     83  S   UNL A   1      49.841  27.483  21.741  1.00  0.00     0.124 S 
ATOM     84  O   UNL A   1      51.164  26.923  21.487  1.00  0.00    -0.237 OA
ATOM     85  O   UNL A   1      48.708  26.639  21.378  1.00  0.00    -0.237 OA
ATOM     86  O   UNL A   1      49.690  28.899  21.416  1.00  0.00    -0.744 OA
ENDBRANCH  79  83
ENDBRANCH  52  76
BRANCH  64  87
ATOM     87  C   UNL A   1      45.449  32.942  28.867  1.00  0.00     0.023 A 
ATOM     88  C   UNL A   1      45.371  34.005  27.949  1.00  0.00     0.031 A 
ATOM     89  C   UNL A   1      46.058  33.185  30.111  1.00  0.00     0.131 A 
ATOM     90  C   UNL A   1      45.955  35.242  28.260  1.00  0.00     0.055 A 
ATOM     91  C   UNL A   1      46.582  34.437  30.439  1.00  0.00     0.041 A 
ATOM     92  F   UNL A   1      46.160  32.208  31.025  1.00  0.00    -0.206 F 
ATOM     93  C   UNL A   1      46.547  35.468  29.505  1.00  0.00     0.022 A 
BRANCH  90  94
ATOM     94  S   UNL A   1      46.028  36.518  26.973  1.00  0.00     0.124 S 
ATOM     95  O   UNL A   1      44.702  37.122  27.066  1.00  0.00    -0.237 OA
ATOM     96  O   UNL A   1      47.141  37.349  27.421  1.00  0.00    -0.237 OA
ATOM     97  O   UNL A   1      46.277  35.756  25.750  1.00  0.00    -0.744 OA
ENDBRANCH  90  94
ENDBRANCH  64  87
ENDBRANCH  38  39
ENDBRANCH  30  33
ENDBRANCH  28  29
ENDBRANCH  27  28
ENDBRANCH  26  27
ENDBRANCH   1  26
TORSDOF 19
ENDMDL
