MODEL 1
REMARK VINA RESULT:      -9.6      0.000      0.000
REMARK SMILES C=CCN(CC(=O)NCCCCCCNC(=O)c1ccc(-c2c3nc(c(-c4cc(S(=O)(=O)[O-])ccc4F)c4ccc([nH]4)c(-c4cc(S(=O)(=O)[O-])ccc4F)c4nc(c(-c5cc(S(=O)(=O)[O-])ccc5F)c5ccc2[nH]5)C=C4)C=C3)cc1)c1nccn(C)c1=O
REMARK SMILES IDX 11 1 10 2 9 3 8 4 6 5 7 6 5 8 4 9 3 10 2 11 1 12 81 13 82 14
REMARK SMILES IDX 87 15 83 16 85 17 88 18 84 19 86 20 12 21 13 22 14 23 15 24
REMARK SMILES IDX 16 25 17 27 18 28 19 29 80 30 20 31 79 32 21 33 22 34 23 35
REMARK SMILES IDX 73 36 24 37 78 38 72 39 74 40 25 41 77 42 71 43 70 44 26 46
REMARK SMILES IDX 58 47 38 48 57 49 39 50 42 51 56 52 75 53 40 54 41 55 55 57
REMARK SMILES IDX 76 58 43 59 27 60 28 61 36 62 29 63 35 64 37 65 34 66 30 67
REMARK SMILES IDX 31 68 32 69 33 70 59 71 60 72 68 73 61 74 67 75 69 76 66 77
REMARK SMILES IDX 62 78 63 79 64 80 65 81 44 82 45 83 53 84 46 85 52 86 54 87
REMARK SMILES IDX 51 88 47 89 48 90 49 91 50 92
REMARK H PARENT 8 7 15 26 74 45 42 56
REMARK Flexibility Score: inf
ROOT
ATOM      1  C   UNL A   1      34.931  31.501  28.701  1.00  0.00     0.002 C 
ENDROOT
BRANCH   1   2
ATOM      2  C   UNL A   1      34.842  30.291  27.762  1.00  0.00     0.021 C 
BRANCH   2   3
ATOM      3  C   UNL A   1      33.630  30.294  26.831  1.00  0.00     0.116 C 
BRANCH   3   4
ATOM      4  N   UNL A   1      32.475  29.640  27.402  1.00  0.00    -0.355 N 
ATOM      5  C   UNL A   1      32.096  28.329  27.352  1.00  0.00     0.239 C 
ATOM      6  O   UNL A   1      31.122  27.989  28.033  1.00  0.00    -0.273 OA
ATOM      7  H   UNL A   1      31.868  30.230  27.905  1.00  0.00     0.163 HD
BRANCH   5   8
ATOM      8  C   UNL A   1      32.918  27.276  26.602  1.00  0.00     0.218 C 
BRANCH   8   9
ATOM      9  N   UNL A   1      32.212  26.450  25.606  1.00  0.00    -0.339 N 
BRANCH   9  10
ATOM     10  C   UNL A   1      32.010  27.053  24.287  1.00  0.00     0.146 C 
BRANCH  10  11
ATOM     11  C   UNL A   1      30.624  27.585  24.090  1.00  0.00    -0.014 C 
ATOM     12  C   UNL A   1      29.535  26.801  24.054  1.00  0.00     0.006 C 
ENDBRANCH  10  11
ENDBRANCH   9  10
BRANCH   9  13
ATOM     13  C   UNL A   1      32.040  25.070  25.795  1.00  0.00     0.196 A 
ATOM     14  N   UNL A   1      31.050  24.630  26.535  1.00  0.00    -0.233 NA
ATOM     15  C   UNL A   1      33.031  24.040  25.147  1.00  0.00     0.293 A 
ATOM     16  C   UNL A   1      30.860  23.284  26.655  1.00  0.00     0.131 A 
ATOM     17  N   UNL A   1      32.689  22.701  25.304  1.00  0.00    -0.314 N 
ATOM     18  O   UNL A   1      34.061  24.414  24.592  1.00  0.00    -0.265 OA
ATOM     19  C   UNL A   1      31.607  22.347  26.071  1.00  0.00     0.109 A 
ATOM     20  C   UNL A   1      33.547  21.696  24.715  1.00  0.00     0.153 C 
ENDBRANCH   9  13
ENDBRANCH   8   9
ENDBRANCH   5   8
ENDBRANCH   3   4
ENDBRANCH   2   3
ENDBRANCH   1   2
BRANCH   1  21
ATOM     21  C   UNL A   1      34.922  32.873  28.017  1.00  0.00     0.002 C 
BRANCH  21  22
ATOM     22  C   UNL A   1      33.653  33.706  28.223  1.00  0.00     0.021 C 
BRANCH  22  23
ATOM     23  C   UNL A   1      33.887  35.151  28.656  1.00  0.00     0.116 C 
BRANCH  23  24
ATOM     24  N   UNL A   1      33.155  35.484  29.867  1.00  0.00    -0.352 N 
ATOM     25  C   UNL A   1      33.332  35.030  31.152  1.00  0.00     0.251 C 
ATOM     26  H   UNL A   1      32.423  36.130  29.749  1.00  0.00     0.163 HD
ATOM     27  O   UNL A   1      32.480  35.278  32.001  1.00  0.00    -0.269 OA
BRANCH  25  28
ATOM     28  C   UNL A   1      34.527  34.229  31.512  1.00  0.00     0.039 A 
ATOM     29  C   UNL A   1      35.795  34.760  31.259  1.00  0.00     0.014 A 
ATOM     30  C   UNL A   1      34.405  32.950  32.063  1.00  0.00     0.014 A 
ATOM     31  C   UNL A   1      36.938  34.035  31.610  1.00  0.00     0.010 A 
ATOM     32  C   UNL A   1      35.544  32.252  32.465  1.00  0.00     0.010 A 
ATOM     33  C   UNL A   1      36.823  32.787  32.242  1.00  0.00    -0.014 A 
BRANCH  33  34
ATOM     34  C   UNL A   1      38.027  32.025  32.671  1.00  0.00     0.031 A 
ATOM     35  C   UNL A   1      38.697  32.342  33.980  1.00  0.00     0.074 A 
ATOM     36  C   UNL A   1      38.555  31.095  31.850  1.00  0.00     0.049 A 
ATOM     37  N   UNL A   1      39.799  31.850  34.488  1.00  0.00    -0.248 NA
ATOM     38  C   UNL A   1      38.059  33.371  34.814  1.00  0.00     0.031 C 
ATOM     39  C   UNL A   1      38.022  30.728  30.535  1.00  0.00     0.029 A 
ATOM     40  N   UNL A   1      39.666  30.301  31.989  1.00  0.00    -0.354 N 
ATOM     41  C   UNL A   1      39.999  32.524  35.689  1.00  0.00     0.074 A 
ATOM     42  C   UNL A   1      38.927  33.490  35.808  1.00  0.00     0.031 C 
ATOM     43  C   UNL A   1      38.801  29.778  29.994  1.00  0.00     0.029 A 
ATOM     44  C   UNL A   1      39.908  29.492  30.902  1.00  0.00     0.049 A 
ATOM     45  H   UNL A   1      40.236  30.309  32.791  1.00  0.00     0.167 HD
ATOM     46  C   UNL A   1      40.977  32.341  36.612  1.00  0.00     0.034 A 
ATOM     47  C   UNL A   1      40.915  28.630  30.656  1.00  0.00     0.034 A 
ATOM     48  C   UNL A   1      42.023  31.356  36.492  1.00  0.00     0.049 A 
ATOM     49  C   UNL A   1      41.984  28.438  31.701  1.00  0.00     0.074 A 
ATOM     50  C   UNL A   1      43.015  31.035  37.404  1.00  0.00     0.029 A 
ATOM     51  N   UNL A   1      42.221  30.535  35.389  1.00  0.00    -0.354 N 
ATOM     52  N   UNL A   1      42.122  29.039  32.861  1.00  0.00    -0.248 NA
ATOM     53  C   UNL A   1      43.023  27.443  31.412  1.00  0.00     0.031 C 
ATOM     54  C   UNL A   1      43.846  30.067  36.828  1.00  0.00     0.029 A 
ATOM     55  C   UNL A   1      43.335  29.732  35.585  1.00  0.00     0.049 A 
ATOM     56  H   UNL A   1      41.654  30.525  34.584  1.00  0.00     0.167 HD
ATOM     57  C   UNL A   1      43.248  28.471  33.450  1.00  0.00     0.074 A 
ATOM     58  C   UNL A   1      43.741  27.471  32.525  1.00  0.00     0.031 C 
ATOM     59  C   UNL A   1      43.821  28.746  34.648  1.00  0.00     0.034 A 
BRANCH  46  60
ATOM     60  C   UNL A   1      40.973  33.250  37.819  1.00  0.00     0.023 A 
ATOM     61  C   UNL A   1      40.275  32.920  38.993  1.00  0.00     0.031 A 
ATOM     62  C   UNL A   1      41.665  34.474  37.787  1.00  0.00     0.131 A 
ATOM     63  C   UNL A   1      40.224  33.832  40.057  1.00  0.00     0.055 A 
ATOM     64  C   UNL A   1      41.674  35.344  38.879  1.00  0.00     0.041 A 
ATOM     65  F   UNL A   1      42.334  34.852  36.686  1.00  0.00    -0.206 F 
ATOM     66  C   UNL A   1      40.939  35.032  40.018  1.00  0.00     0.022 A 
BRANCH  63  67
ATOM     67  S   UNL A   1      39.103  33.489  41.442  1.00  0.00     0.124 S 
ATOM     68  O   UNL A   1      37.827  33.966  40.912  1.00  0.00    -0.237 OA
ATOM     69  O   UNL A   1      39.229  32.044  41.599  1.00  0.00    -0.237 OA
ATOM     70  O   UNL A   1      39.653  34.286  42.535  1.00  0.00    -0.744 OA
ENDBRANCH  63  67
ENDBRANCH  46  60
BRANCH  47  71
ATOM     71  C   UNL A   1      40.978  27.890  29.363  1.00  0.00     0.023 A 
ATOM     72  C   UNL A   1      41.939  28.212  28.393  1.00  0.00     0.031 A 
ATOM     73  C   UNL A   1      40.046  26.881  29.062  1.00  0.00     0.131 A 
ATOM     74  C   UNL A   1      41.917  27.566  27.146  1.00  0.00     0.055 A 
ATOM     75  C   UNL A   1      40.060  26.207  27.840  1.00  0.00     0.041 A 
ATOM     76  F   UNL A   1      39.111  26.532  29.959  1.00  0.00    -0.206 F 
ATOM     77  C   UNL A   1      40.990  26.558  26.868  1.00  0.00     0.022 A 
BRANCH  74  78
ATOM     78  S   UNL A   1      43.066  28.125  25.858  1.00  0.00     0.124 S 
ATOM     79  O   UNL A   1      44.139  27.144  25.970  1.00  0.00    -0.237 OA
ATOM     80  O   UNL A   1      42.240  28.040  24.659  1.00  0.00    -0.237 OA
ATOM     81  O   UNL A   1      43.413  29.482  26.279  1.00  0.00    -0.744 OA
ENDBRANCH  74  78
ENDBRANCH  47  71
BRANCH  59  82
ATOM     82  C   UNL A   1      45.019  27.918  35.039  1.00  0.00     0.023 A 
ATOM     83  C   UNL A   1      44.882  26.665  35.662  1.00  0.00     0.031 A 
ATOM     84  C   UNL A   1      46.318  28.401  34.800  1.00  0.00     0.131 A 
ATOM     85  C   UNL A   1      46.024  25.962  36.075  1.00  0.00     0.055 A 
ATOM     86  C   UNL A   1      47.451  27.671  35.163  1.00  0.00     0.041 A 
ATOM     87  F   UNL A   1      46.507  29.592  34.209  1.00  0.00    -0.206 F 
ATOM     88  C   UNL A   1      47.308  26.450  35.817  1.00  0.00     0.022 A 
BRANCH  85  89
ATOM     89  S   UNL A   1      45.809  24.438  37.036  1.00  0.00     0.124 S 
ATOM     90  O   UNL A   1      45.724  24.948  38.400  1.00  0.00    -0.237 OA
ATOM     91  O   UNL A   1      44.576  23.892  36.481  1.00  0.00    -0.237 OA
ATOM     92  O   UNL A   1      47.016  23.671  36.735  1.00  0.00    -0.744 OA
ENDBRANCH  85  89
ENDBRANCH  59  82
ENDBRANCH  33  34
ENDBRANCH  25  28
ENDBRANCH  23  24
ENDBRANCH  22  23
ENDBRANCH  21  22
ENDBRANCH   1  21
TORSDOF 20
ENDMDL
MODEL 2
REMARK VINA RESULT:      -8.9      7.009     12.523
REMARK SMILES C=CCN(CC(=O)NCCCCCCNC(=O)c1ccc(-c2c3nc(c(-c4cc(S(=O)(=O)[O-])ccc4F)c4ccc([nH]4)c(-c4cc(S(=O)(=O)[O-])ccc4F)c4nc(c(-c5cc(S(=O)(=O)[O-])ccc5F)c5ccc2[nH]5)C=C4)C=C3)cc1)c1nccn(C)c1=O
REMARK SMILES IDX 11 1 10 2 9 3 8 4 6 5 7 6 5 8 4 9 3 10 2 11 1 12 81 13 82 14
REMARK SMILES IDX 87 15 83 16 85 17 88 18 84 19 86 20 12 21 13 22 14 23 15 24
REMARK SMILES IDX 16 25 17 27 18 28 19 29 80 30 20 31 79 32 21 33 22 34 23 35
REMARK SMILES IDX 73 36 24 37 78 38 72 39 74 40 25 41 77 42 71 43 70 44 26 46
REMARK SMILES IDX 58 47 38 48 57 49 39 50 42 51 56 52 75 53 40 54 41 55 55 57
REMARK SMILES IDX 76 58 43 59 27 60 28 61 36 62 29 63 35 64 37 65 34 66 30 67
REMARK SMILES IDX 31 68 32 69 33 70 59 71 60 72 68 73 61 74 67 75 69 76 66 77
REMARK SMILES IDX 62 78 63 79 64 80 65 81 44 82 45 83 53 84 46 85 52 86 54 87
REMARK SMILES IDX 51 88 47 89 48 90 49 91 50 92
REMARK H PARENT 8 7 15 26 74 45 42 56
REMARK Flexibility Score: inf
ROOT
ATOM      1  C   UNL A   1      47.417  37.851  28.295  1.00  0.00     0.002 C 
ENDROOT
BRANCH   1   2
ATOM      2  C   UNL A   1      47.273  38.006  29.814  1.00  0.00     0.021 C 
BRANCH   2   3
ATOM      3  C   UNL A   1      46.734  39.362  30.269  1.00  0.00     0.116 C 
BRANCH   3   4
ATOM      4  N   UNL A   1      45.925  39.278  31.463  1.00  0.00    -0.355 N 
ATOM      5  C   UNL A   1      44.574  39.135  31.597  1.00  0.00     0.239 C 
ATOM      6  O   UNL A   1      44.129  38.961  32.738  1.00  0.00    -0.273 OA
ATOM      7  H   UNL A   1      46.424  39.333  32.309  1.00  0.00     0.163 HD
BRANCH   5   8
ATOM      8  C   UNL A   1      43.643  39.045  30.384  1.00  0.00     0.218 C 
BRANCH   8   9
ATOM      9  N   UNL A   1      43.083  40.306  29.866  1.00  0.00    -0.339 N 
BRANCH   9  10
ATOM     10  C   UNL A   1      41.933  40.186  28.968  1.00  0.00     0.146 C 
BRANCH  10  11
ATOM     11  C   UNL A   1      42.324  40.028  27.531  1.00  0.00    -0.014 C 
ATOM     12  C   UNL A   1      41.777  39.111  26.718  1.00  0.00     0.006 C 
ENDBRANCH  10  11
ENDBRANCH   9  10
BRANCH   9  13
ATOM     13  C   UNL A   1      43.411  41.540  30.448  1.00  0.00     0.196 A 
ATOM     14  N   UNL A   1      44.391  42.258  29.951  1.00  0.00    -0.233 NA
ATOM     15  C   UNL A   1      42.631  42.070  31.702  1.00  0.00     0.293 A 
ATOM     16  C   UNL A   1      44.653  43.484  30.488  1.00  0.00     0.131 A 
ATOM     17  N   UNL A   1      42.963  43.356  32.114  1.00  0.00    -0.314 N 
ATOM     18  O   UNL A   1      41.826  41.357  32.296  1.00  0.00    -0.265 OA
ATOM     19  C   UNL A   1      43.983  44.039  31.500  1.00  0.00     0.109 A 
ATOM     20  C   UNL A   1      42.269  43.918  33.253  1.00  0.00     0.153 C 
ENDBRANCH   9  13
ENDBRANCH   8   9
ENDBRANCH   5   8
ENDBRANCH   3   4
ENDBRANCH   2   3
ENDBRANCH   1   2
BRANCH   1  21
ATOM     21  C   UNL A   1      47.026  36.482  27.727  1.00  0.00     0.002 C 
BRANCH  21  22
ATOM     22  C   UNL A   1      47.140  36.339  26.205  1.00  0.00     0.021 C 
BRANCH  22  23
ATOM     23  C   UNL A   1      47.031  34.911  25.677  1.00  0.00     0.116 C 
BRANCH  23  24
ATOM     24  N   UNL A   1      45.865  34.729  24.828  1.00  0.00    -0.352 N 
ATOM     25  C   UNL A   1      44.559  34.481  25.174  1.00  0.00     0.251 C 
ATOM     26  H   UNL A   1      46.037  34.793  23.861  1.00  0.00     0.163 HD
ATOM     27  O   UNL A   1      43.756  34.158  24.301  1.00  0.00    -0.269 OA
BRANCH  25  28
ATOM     28  C   UNL A   1      44.119  34.579  26.586  1.00  0.00     0.039 A 
ATOM     29  C   UNL A   1      43.567  35.782  27.038  1.00  0.00     0.014 A 
ATOM     30  C   UNL A   1      44.279  33.510  27.473  1.00  0.00     0.014 A 
ATOM     31  C   UNL A   1      43.125  35.894  28.360  1.00  0.00     0.010 A 
ATOM     32  C   UNL A   1      43.784  33.603  28.774  1.00  0.00     0.010 A 
ATOM     33  C   UNL A   1      43.202  34.797  29.232  1.00  0.00    -0.014 A 
BRANCH  33  34
ATOM     34  C   UNL A   1      42.688  34.880  30.625  1.00  0.00     0.031 A 
ATOM     35  C   UNL A   1      43.623  35.201  31.760  1.00  0.00     0.074 A 
ATOM     36  C   UNL A   1      41.393  34.599  30.876  1.00  0.00     0.049 A 
ATOM     37  N   UNL A   1      43.384  35.235  33.046  1.00  0.00    -0.248 NA
ATOM     38  C   UNL A   1      45.018  35.491  31.401  1.00  0.00     0.031 C 
ATOM     39  C   UNL A   1      40.397  34.232  29.866  1.00  0.00     0.029 A 
ATOM     40  N   UNL A   1      40.694  34.561  32.057  1.00  0.00    -0.354 N 
ATOM     41  C   UNL A   1      44.601  35.528  33.653  1.00  0.00     0.074 A 
ATOM     42  C   UNL A   1      45.583  35.617  32.592  1.00  0.00     0.031 C 
ATOM     43  C   UNL A   1      39.218  34.014  30.469  1.00  0.00     0.029 A 
ATOM     44  C   UNL A   1      39.378  34.189  31.910  1.00  0.00     0.049 A 
ATOM     45  H   UNL A   1      41.098  34.779  32.928  1.00  0.00     0.167 HD
ATOM     46  C   UNL A   1      44.869  35.722  34.968  1.00  0.00     0.034 A 
ATOM     47  C   UNL A   1      38.413  33.994  32.830  1.00  0.00     0.034 A 
ATOM     48  C   UNL A   1      43.874  35.657  36.011  1.00  0.00     0.049 A 
ATOM     49  C   UNL A   1      38.733  34.224  34.285  1.00  0.00     0.074 A 
ATOM     50  C   UNL A   1      44.024  35.914  37.363  1.00  0.00     0.029 A 
ATOM     51  N   UNL A   1      42.545  35.304  35.821  1.00  0.00    -0.354 N 
ATOM     52  N   UNL A   1      39.877  34.564  34.835  1.00  0.00    -0.248 NA
ATOM     53  C   UNL A   1      37.631  34.060  35.241  1.00  0.00     0.031 C 
ATOM     54  C   UNL A   1      42.803  35.657  37.998  1.00  0.00     0.029 A 
ATOM     55  C   UNL A   1      41.872  35.307  37.034  1.00  0.00     0.049 A 
ATOM     56  H   UNL A   1      42.138  35.084  34.952  1.00  0.00     0.167 HD
ATOM     57  C   UNL A   1      39.621  34.681  36.198  1.00  0.00     0.074 A 
ATOM     58  C   UNL A   1      38.214  34.391  36.384  1.00  0.00     0.031 C 
ATOM     59  C   UNL A   1      40.470  35.005  37.205  1.00  0.00     0.034 A 
BRANCH  46  60
ATOM     60  C   UNL A   1      46.305  35.993  35.354  1.00  0.00     0.023 A 
ATOM     61  C   UNL A   1      46.872  37.275  35.249  1.00  0.00     0.031 A 
ATOM     62  C   UNL A   1      47.123  34.947  35.817  1.00  0.00     0.131 A 
ATOM     63  C   UNL A   1      48.232  37.463  35.532  1.00  0.00     0.055 A 
ATOM     64  C   UNL A   1      48.458  35.158  36.172  1.00  0.00     0.041 A 
ATOM     65  F   UNL A   1      46.643  33.698  35.921  1.00  0.00    -0.206 F 
ATOM     66  C   UNL A   1      49.024  36.419  36.016  1.00  0.00     0.022 A 
BRANCH  63  67
ATOM     67  S   UNL A   1      48.987  39.064  35.134  1.00  0.00     0.124 S 
ATOM     68  O   UNL A   1      49.473  39.495  36.443  1.00  0.00    -0.237 OA
ATOM     69  O   UNL A   1      50.011  38.697  34.161  1.00  0.00    -0.237 OA
ATOM     70  O   UNL A   1      47.874  39.846  34.602  1.00  0.00    -0.744 OA
ENDBRANCH  63  67
ENDBRANCH  46  60
BRANCH  47  71
ATOM     71  C   UNL A   1      37.053  33.543  32.416  1.00  0.00     0.023 A 
ATOM     72  C   UNL A   1      36.016  34.465  32.210  1.00  0.00     0.031 A 
ATOM     73  C   UNL A   1      36.761  32.175  32.267  1.00  0.00     0.131 A 
ATOM     74  C   UNL A   1      34.722  34.008  31.914  1.00  0.00     0.055 A 
ATOM     75  C   UNL A   1      35.484  31.728  31.923  1.00  0.00     0.041 A 
ATOM     76  F   UNL A   1      37.719  31.253  32.446  1.00  0.00    -0.206 F 
ATOM     77  C   UNL A   1      34.452  32.646  31.759  1.00  0.00     0.022 A 
BRANCH  74  78
ATOM     78  S   UNL A   1      33.374  35.219  31.821  1.00  0.00     0.124 S 
ATOM     79  O   UNL A   1      34.061  36.456  32.169  1.00  0.00    -0.237 OA
ATOM     80  O   UNL A   1      32.947  35.089  30.433  1.00  0.00    -0.237 OA
ATOM     81  O   UNL A   1      32.416  34.736  32.814  1.00  0.00    -0.744 OA
ENDBRANCH  74  78
ENDBRANCH  47  71
BRANCH  59  82
ATOM     82  C   UNL A   1      39.881  35.103  38.590  1.00  0.00     0.023 A 
ATOM     83  C   UNL A   1      39.698  33.968  39.399  1.00  0.00     0.031 A 
ATOM     84  C   UNL A   1      39.479  36.351  39.099  1.00  0.00     0.131 A 
ATOM     85  C   UNL A   1      39.077  34.096  40.651  1.00  0.00     0.055 A 
ATOM     86  C   UNL A   1      38.913  36.480  40.368  1.00  0.00     0.041 A 
ATOM     87  F   UNL A   1      39.629  37.468  38.367  1.00  0.00    -0.206 F 
ATOM     88  C   UNL A   1      38.698  35.346  41.147  1.00  0.00     0.022 A 
BRANCH  85  89
ATOM     89  S   UNL A   1      38.693  32.593  41.591  1.00  0.00     0.124 S 
ATOM     90  O   UNL A   1      37.351  32.273  41.117  1.00  0.00    -0.237 OA
ATOM     91  O   UNL A   1      39.752  31.682  41.168  1.00  0.00    -0.237 OA
ATOM     92  O   UNL A   1      38.772  33.029  42.983  1.00  0.00    -0.744 OA
ENDBRANCH  85  89
ENDBRANCH  59  82
ENDBRANCH  33  34
ENDBRANCH  25  28
ENDBRANCH  23  24
ENDBRANCH  22  23
ENDBRANCH  21  22
ENDBRANCH   1  21
TORSDOF 20
ENDMDL
MODEL 3
REMARK VINA RESULT:      -8.8      6.882      8.666
REMARK SMILES C=CCN(CC(=O)NCCCCCCNC(=O)c1ccc(-c2c3nc(c(-c4cc(S(=O)(=O)[O-])ccc4F)c4ccc([nH]4)c(-c4cc(S(=O)(=O)[O-])ccc4F)c4nc(c(-c5cc(S(=O)(=O)[O-])ccc5F)c5ccc2[nH]5)C=C4)C=C3)cc1)c1nccn(C)c1=O
REMARK SMILES IDX 11 1 10 2 9 3 8 4 6 5 7 6 5 8 4 9 3 10 2 11 1 12 81 13 82 14
REMARK SMILES IDX 87 15 83 16 85 17 88 18 84 19 86 20 12 21 13 22 14 23 15 24
REMARK SMILES IDX 16 25 17 27 18 28 19 29 80 30 20 31 79 32 21 33 22 34 23 35
REMARK SMILES IDX 73 36 24 37 78 38 72 39 74 40 25 41 77 42 71 43 70 44 26 46
REMARK SMILES IDX 58 47 38 48 57 49 39 50 42 51 56 52 75 53 40 54 41 55 55 57
REMARK SMILES IDX 76 58 43 59 27 60 28 61 36 62 29 63 35 64 37 65 34 66 30 67
REMARK SMILES IDX 31 68 32 69 33 70 59 71 60 72 68 73 61 74 67 75 69 76 66 77
REMARK SMILES IDX 62 78 63 79 64 80 65 81 44 82 45 83 53 84 46 85 52 86 54 87
REMARK SMILES IDX 51 88 47 89 48 90 49 91 50 92
REMARK H PARENT 8 7 15 26 74 45 42 56
REMARK Flexibility Score: inf
ROOT
ATOM      1  C   UNL A   1      35.574  30.274  27.413  1.00  0.00     0.002 C 
ENDROOT
BRANCH   1   2
ATOM      2  C   UNL A   1      34.284  29.474  27.635  1.00  0.00     0.021 C 
BRANCH   2   3
ATOM      3  C   UNL A   1      33.133  29.845  26.700  1.00  0.00     0.116 C 
BRANCH   3   4
ATOM      4  N   UNL A   1      33.447  29.636  25.305  1.00  0.00    -0.355 N 
ATOM      5  C   UNL A   1      32.823  28.858  24.374  1.00  0.00     0.239 C 
ATOM      6  O   UNL A   1      33.212  28.944  23.203  1.00  0.00    -0.273 OA
ATOM      7  H   UNL A   1      34.232  30.130  24.976  1.00  0.00     0.163 HD
BRANCH   5   8
ATOM      8  C   UNL A   1      31.592  28.012  24.717  1.00  0.00     0.218 C 
BRANCH   8   9
ATOM      9  N   UNL A   1      30.800  27.482  23.592  1.00  0.00    -0.339 N 
BRANCH   9  10
ATOM     10  C   UNL A   1      31.154  26.140  23.125  1.00  0.00     0.146 C 
BRANCH  10  11
ATOM     11  C   UNL A   1      31.764  26.136  21.757  1.00  0.00    -0.014 C 
ATOM     12  C   UNL A   1      33.067  25.907  21.534  1.00  0.00     0.006 C 
ENDBRANCH  10  11
ENDBRANCH   9  10
BRANCH   9  13
ATOM     13  C   UNL A   1      29.585  28.074  23.214  1.00  0.00     0.196 A 
ATOM     14  N   UNL A   1      28.452  27.574  23.648  1.00  0.00    -0.233 NA
ATOM     15  C   UNL A   1      29.560  29.320  22.261  1.00  0.00     0.293 A 
ATOM     16  C   UNL A   1      27.284  28.201  23.323  1.00  0.00     0.131 A 
ATOM     17  N   UNL A   1      28.309  29.891  22.056  1.00  0.00    -0.314 N 
ATOM     18  O   UNL A   1      30.582  29.711  21.702  1.00  0.00    -0.265 OA
ATOM     19  C   UNL A   1      27.186  29.308  22.587  1.00  0.00     0.109 A 
ATOM     20  C   UNL A   1      28.213  31.056  21.203  1.00  0.00     0.153 C 
ENDBRANCH   9  13
ENDBRANCH   8   9
ENDBRANCH   5   8
ENDBRANCH   3   4
ENDBRANCH   2   3
ENDBRANCH   1   2
BRANCH   1  21
ATOM     21  C   UNL A   1      35.584  31.692  27.996  1.00  0.00     0.002 C 
BRANCH  21  22
ATOM     22  C   UNL A   1      34.776  31.885  29.284  1.00  0.00     0.021 C 
BRANCH  22  23
ATOM     23  C   UNL A   1      35.594  32.276  30.512  1.00  0.00     0.116 C 
BRANCH  23  24
ATOM     24  N   UNL A   1      35.708  31.182  31.463  1.00  0.00    -0.352 N 
ATOM     25  C   UNL A   1      36.800  30.416  31.791  1.00  0.00     0.251 C 
ATOM     26  H   UNL A   1      34.880  30.957  31.944  1.00  0.00     0.163 HD
ATOM     27  O   UNL A   1      36.644  29.406  32.473  1.00  0.00    -0.269 OA
BRANCH  25  28
ATOM     28  C   UNL A   1      38.154  30.784  31.311  1.00  0.00     0.039 A 
ATOM     29  C   UNL A   1      38.446  30.653  29.950  1.00  0.00     0.014 A 
ATOM     30  C   UNL A   1      39.144  31.223  32.196  1.00  0.00     0.014 A 
ATOM     31  C   UNL A   1      39.708  31.014  29.469  1.00  0.00     0.010 A 
ATOM     32  C   UNL A   1      40.383  31.638  31.706  1.00  0.00     0.010 A 
ATOM     33  C   UNL A   1      40.678  31.537  30.337  1.00  0.00    -0.014 A 
BRANCH  33  34
ATOM     34  C   UNL A   1      42.008  31.977  29.835  1.00  0.00     0.031 A 
ATOM     35  C   UNL A   1      42.266  33.432  29.550  1.00  0.00     0.074 A 
ATOM     36  C   UNL A   1      42.958  31.058  29.570  1.00  0.00     0.049 A 
ATOM     37  N   UNL A   1      43.325  34.000  29.031  1.00  0.00    -0.248 NA
ATOM     38  C   UNL A   1      41.176  34.367  29.864  1.00  0.00     0.031 C 
ATOM     39  C   UNL A   1      42.813  29.613  29.763  1.00  0.00     0.029 A 
ATOM     40  N   UNL A   1      44.228  31.198  29.068  1.00  0.00    -0.354 N 
ATOM     41  C   UNL A   1      43.023  35.354  28.934  1.00  0.00     0.074 A 
ATOM     42  C   UNL A   1      41.663  35.512  29.408  1.00  0.00     0.031 C 
ATOM     43  C   UNL A   1      43.950  29.003  29.391  1.00  0.00     0.029 A 
ATOM     44  C   UNL A   1      44.892  30.004  28.899  1.00  0.00     0.049 A 
ATOM     45  H   UNL A   1      44.626  32.071  28.848  1.00  0.00     0.167 HD
ATOM     46  C   UNL A   1      43.811  36.371  28.506  1.00  0.00     0.034 A 
ATOM     47  C   UNL A   1      46.112  29.743  28.391  1.00  0.00     0.034 A 
ATOM     48  C   UNL A   1      45.174  36.203  28.062  1.00  0.00     0.049 A 
ATOM     49  C   UNL A   1      46.973  30.891  27.930  1.00  0.00     0.074 A 
ATOM     50  C   UNL A   1      46.084  37.174  27.683  1.00  0.00     0.029 A 
ATOM     51  N   UNL A   1      45.821  34.981  27.931  1.00  0.00    -0.354 N 
ATOM     52  N   UNL A   1      46.693  32.175  27.905  1.00  0.00    -0.248 NA
ATOM     53  C   UNL A   1      48.318  30.558  27.443  1.00  0.00     0.031 C 
ATOM     54  C   UNL A   1      47.258  36.538  27.265  1.00  0.00     0.029 A 
ATOM     55  C   UNL A   1      47.108  35.173  27.448  1.00  0.00     0.049 A 
ATOM     56  H   UNL A   1      45.426  34.106  28.148  1.00  0.00     0.167 HD
ATOM     57  C   UNL A   1      47.840  32.802  27.427  1.00  0.00     0.074 A 
ATOM     58  C   UNL A   1      48.818  31.759  27.191  1.00  0.00     0.031 C 
ATOM     59  C   UNL A   1      48.068  34.121  27.207  1.00  0.00     0.034 A 
BRANCH  46  60
ATOM     60  C   UNL A   1      43.205  37.755  28.470  1.00  0.00     0.023 A 
ATOM     61  C   UNL A   1      43.414  38.683  29.504  1.00  0.00     0.031 A 
ATOM     62  C   UNL A   1      42.391  38.144  27.391  1.00  0.00     0.131 A 
ATOM     63  C   UNL A   1      42.760  39.924  29.474  1.00  0.00     0.055 A 
ATOM     64  C   UNL A   1      41.805  39.411  27.329  1.00  0.00     0.041 A 
ATOM     65  F   UNL A   1      42.141  37.294  26.382  1.00  0.00    -0.206 F 
ATOM     66  C   UNL A   1      41.976  40.303  28.382  1.00  0.00     0.022 A 
BRANCH  63  67
ATOM     67  S   UNL A   1      42.841  40.983  30.945  1.00  0.00     0.124 S 
ATOM     68  O   UNL A   1      43.736  40.217  31.810  1.00  0.00    -0.237 OA
ATOM     69  O   UNL A   1      43.380  42.228  30.408  1.00  0.00    -0.237 OA
ATOM     70  O   UNL A   1      41.454  41.048  31.398  1.00  0.00    -0.744 OA
ENDBRANCH  63  67
ENDBRANCH  46  60
BRANCH  47  71
ATOM     71  C   UNL A   1      46.596  28.338  28.272  1.00  0.00     0.023 A 
ATOM     72  C   UNL A   1      46.266  27.551  27.158  1.00  0.00     0.031 A 
ATOM     73  C   UNL A   1      47.359  27.748  29.295  1.00  0.00     0.131 A 
ATOM     74  C   UNL A   1      46.653  26.202  27.114  1.00  0.00     0.055 A 
ATOM     75  C   UNL A   1      47.786  26.421  29.224  1.00  0.00     0.041 A 
ATOM     76  F   UNL A   1      47.708  28.459  30.377  1.00  0.00    -0.206 F 
ATOM     77  C   UNL A   1      47.420  25.635  28.135  1.00  0.00     0.022 A 
BRANCH  74  78
ATOM     78  S   UNL A   1      46.064  25.173  25.741  1.00  0.00     0.124 S 
ATOM     79  O   UNL A   1      45.455  26.167  24.865  1.00  0.00    -0.237 OA
ATOM     80  O   UNL A   1      47.303  24.569  25.264  1.00  0.00    -0.237 OA
ATOM     81  O   UNL A   1      45.131  24.251  26.385  1.00  0.00    -0.744 OA
ENDBRANCH  74  78
ENDBRANCH  47  71
BRANCH  59  82
ATOM     82  C   UNL A   1      49.446  34.506  26.728  1.00  0.00     0.023 A 
ATOM     83  C   UNL A   1      50.562  34.478  27.582  1.00  0.00     0.031 A 
ATOM     84  C   UNL A   1      49.638  34.926  25.399  1.00  0.00     0.131 A 
ATOM     85  C   UNL A   1      51.810  34.915  27.114  1.00  0.00     0.055 A 
ATOM     86  C   UNL A   1      50.894  35.307  24.924  1.00  0.00     0.041 A 
ATOM     87  F   UNL A   1      48.606  34.973  24.541  1.00  0.00    -0.206 F 
ATOM     88  C   UNL A   1      51.986  35.315  25.787  1.00  0.00     0.022 A 
BRANCH  85  89
ATOM     89  S   UNL A   1      53.187  35.037  28.289  1.00  0.00     0.124 S 
ATOM     90  O   UNL A   1      53.264  36.476  28.518  1.00  0.00    -0.237 OA
ATOM     91  O   UNL A   1      52.710  34.238  29.413  1.00  0.00    -0.237 OA
ATOM     92  O   UNL A   1      54.314  34.464  27.557  1.00  0.00    -0.744 OA
ENDBRANCH  85  89
ENDBRANCH  59  82
ENDBRANCH  33  34
ENDBRANCH  25  28
ENDBRANCH  23  24
ENDBRANCH  22  23
ENDBRANCH  21  22
ENDBRANCH   1  21
TORSDOF 20
ENDMDL
