MODEL 1
REMARK VINA RESULT:     -10.6      0.000      0.000
REMARK SMILES CC(C)CN(CC(N)=O)C(=O)N1CC[C@H](C(=O)NCCCCCCNC(=O)c2ccc(-c3c4nc(c(-c5cc(S(=O)(=O)[O-])ccc5F)c5ccc([nH]5)c(-c5cc(S(=O)(=O)[O-])ccc5F)c5nc(c(-c6cc(S(=O)(=O)[O-])ccc6F)c6ccc3[nH]6)C=C5)C=C4)cc2)[C@@H]1C
REMARK SMILES IDX 21 1 20 2 19 3 18 4 16 5 17 6 15 8 12 9 13 10 91 11 14 12
REMARK SMILES IDX 92 13 10 14 11 15 5 16 4 17 2 18 1 19 3 20 6 21 7 22 8 23
REMARK SMILES IDX 9 24 22 27 23 28 24 29 25 30 26 31 27 33 28 34 29 35 90 36
REMARK SMILES IDX 30 37 89 38 31 39 32 40 33 41 83 42 34 43 88 44 82 45 84 46
REMARK SMILES IDX 35 47 87 48 81 49 80 50 36 52 68 53 48 54 67 55 49 56 52 57
REMARK SMILES IDX 66 58 85 59 50 60 51 61 65 63 86 64 53 65 37 66 38 67 46 68
REMARK SMILES IDX 39 69 45 70 47 71 44 72 40 73 41 74 42 75 43 76 69 77 70 78
REMARK SMILES IDX 78 79 71 80 77 81 79 82 76 83 72 84 73 85 74 86 75 87 54 88
REMARK SMILES IDX 55 89 63 90 56 91 62 92 64 93 61 94 57 95 58 96 59 97 60 98
REMARK H PARENT 18 7 8 25 8 26 25 32 84 51 52 62
REMARK Flexibility Score: inf
ROOT
ATOM      1  C   UNL A   1      32.792  29.827  26.059  1.00  0.00     0.002 C 
ENDROOT
BRANCH   1   2
ATOM      2  C   UNL A   1      32.764  28.707  27.096  1.00  0.00     0.021 C 
BRANCH   2   3
ATOM      3  C   UNL A   1      32.695  27.283  26.522  1.00  0.00     0.116 C 
BRANCH   3   4
ATOM      4  N   UNL A   1      31.327  26.801  26.584  1.00  0.00    -0.356 N 
ATOM      5  C   UNL A   1      30.777  25.572  26.402  1.00  0.00     0.225 C 
ATOM      6  O   UNL A   1      29.543  25.554  26.330  1.00  0.00    -0.275 OA
ATOM      7  H   UNL A   1      30.670  27.501  26.800  1.00  0.00     0.163 HD
BRANCH   5   8
ATOM      8  C   UNL A   1      31.585  24.272  26.463  1.00  0.00     0.102 C 
ATOM      9  N   UNL A   1      32.254  22.335  25.235  1.00  0.00    -0.321 N 
ATOM     10  C   UNL A   1      30.905  22.065  25.668  1.00  0.00     0.122 C 
ATOM     11  C   UNL A   1      32.460  23.785  25.285  1.00  0.00     0.096 C 
ATOM     12  C   UNL A   1      30.678  23.054  26.790  1.00  0.00     0.037 C 
ATOM     13  C   UNL A   1      32.185  24.394  23.911  1.00  0.00     0.032 C 
BRANCH   9  14
ATOM     14  C   UNL A   1      32.778  21.562  24.218  1.00  0.00     0.320 C 
ATOM     15  O   UNL A   1      32.150  21.454  23.167  1.00  0.00    -0.248 OA
BRANCH  14  16
ATOM     16  N   UNL A   1      34.021  20.994  24.412  1.00  0.00    -0.315 N 
BRANCH  16  17
ATOM     17  C   UNL A   1      35.220  21.828  24.246  1.00  0.00     0.125 C 
BRANCH  17  18
ATOM     18  C   UNL A   1      36.079  22.032  25.518  1.00  0.00     0.002 C 
ATOM     19  C   UNL A   1      37.527  21.552  25.351  1.00  0.00     0.009 C 
ATOM     20  C   UNL A   1      36.116  23.523  25.880  1.00  0.00     0.009 C 
ENDBRANCH  17  18
ENDBRANCH  16  17
BRANCH  16  21
ATOM     21  C   UNL A   1      34.232  19.586  24.761  1.00  0.00     0.221 C 
BRANCH  21  22
ATOM     22  C   UNL A   1      32.981  18.875  25.307  1.00  0.00     0.237 C 
ATOM     23  N   UNL A   1      32.906  18.799  26.675  1.00  0.00    -0.368 N 
ATOM     24  O   UNL A   1      32.090  18.397  24.624  1.00  0.00    -0.273 OA
ATOM     25  H   UNL A   1      33.622  19.184  27.230  1.00  0.00     0.159 HD
ATOM     26  H   UNL A   1      32.136  18.359  27.102  1.00  0.00     0.159 HD
ENDBRANCH  21  22
ENDBRANCH  16  21
ENDBRANCH  14  16
ENDBRANCH   9  14
ENDBRANCH   5   8
ENDBRANCH   3   4
ENDBRANCH   2   3
ENDBRANCH   1   2
BRANCH   1  27
ATOM     27  C   UNL A   1      31.457  30.558  25.884  1.00  0.00     0.002 C 
BRANCH  27  28
ATOM     28  C   UNL A   1      31.379  31.967  26.489  1.00  0.00     0.021 C 
BRANCH  28  29
ATOM     29  C   UNL A   1      32.649  32.461  27.184  1.00  0.00     0.116 C 
BRANCH  29  30
ATOM     30  N   UNL A   1      32.556  33.866  27.539  1.00  0.00    -0.352 N 
ATOM     31  C   UNL A   1      33.192  34.564  28.533  1.00  0.00     0.251 C 
ATOM     32  H   UNL A   1      31.945  34.398  26.980  1.00  0.00     0.163 HD
ATOM     33  O   UNL A   1      32.773  35.677  28.848  1.00  0.00    -0.269 OA
BRANCH  31  34
ATOM     34  C   UNL A   1      34.364  33.989  29.228  1.00  0.00     0.039 A 
ATOM     35  C   UNL A   1      34.156  33.055  30.248  1.00  0.00     0.014 A 
ATOM     36  C   UNL A   1      35.663  34.409  28.921  1.00  0.00     0.014 A 
ATOM     37  C   UNL A   1      35.249  32.509  30.926  1.00  0.00     0.010 A 
ATOM     38  C   UNL A   1      36.754  33.821  29.559  1.00  0.00     0.010 A 
ATOM     39  C   UNL A   1      36.559  32.870  30.573  1.00  0.00    -0.014 A 
BRANCH  39  40
ATOM     40  C   UNL A   1      37.735  32.282  31.268  1.00  0.00     0.031 A 
ATOM     41  C   UNL A   1      38.564  31.229  30.583  1.00  0.00     0.074 A 
ATOM     42  C   UNL A   1      38.027  32.661  32.529  1.00  0.00     0.049 A 
ATOM     43  N   UNL A   1      39.568  30.531  31.050  1.00  0.00    -0.248 NA
ATOM     44  C   UNL A   1      38.198  30.902  29.197  1.00  0.00     0.031 C 
ATOM     45  C   UNL A   1      37.285  33.659  33.302  1.00  0.00     0.029 A 
ATOM     46  N   UNL A   1      39.016  32.246  33.385  1.00  0.00    -0.354 N 
ATOM     47  C   UNL A   1      39.950  29.678  30.019  1.00  0.00     0.074 A 
ATOM     48  C   UNL A   1      39.031  29.909  28.924  1.00  0.00     0.031 C 
ATOM     49  C   UNL A   1      37.856  33.791  34.512  1.00  0.00     0.029 A 
ATOM     50  C   UNL A   1      38.974  32.858  34.617  1.00  0.00     0.049 A 
ATOM     51  H   UNL A   1      39.693  31.575  33.141  1.00  0.00     0.167 HD
ATOM     52  C   UNL A   1      40.985  28.801  29.980  1.00  0.00     0.034 A 
ATOM     53  C   UNL A   1      39.739  32.676  35.712  1.00  0.00     0.034 A 
ATOM     54  C   UNL A   1      41.897  28.586  31.077  1.00  0.00     0.049 A 
ATOM     55  C   UNL A   1      40.858  31.665  35.657  1.00  0.00     0.074 A 
ATOM     56  C   UNL A   1      42.991  27.739  31.138  1.00  0.00     0.029 A 
ATOM     57  N   UNL A   1      41.823  29.224  32.308  1.00  0.00    -0.354 N 
ATOM     58  N   UNL A   1      41.220  30.884  34.665  1.00  0.00    -0.248 NA
ATOM     59  C   UNL A   1      41.679  31.518  36.867  1.00  0.00     0.031 C 
ATOM     60  C   UNL A   1      43.543  27.825  32.421  1.00  0.00     0.029 A 
ATOM     61  C   UNL A   1      42.838  28.776  33.139  1.00  0.00     0.049 A 
ATOM     62  H   UNL A   1      41.148  29.898  32.555  1.00  0.00     0.167 HD
ATOM     63  C   UNL A   1      42.334  30.184  35.120  1.00  0.00     0.074 A 
ATOM     64  C   UNL A   1      42.590  30.644  36.469  1.00  0.00     0.031 C 
ATOM     65  C   UNL A   1      43.079  29.247  34.482  1.00  0.00     0.034 A 
BRANCH  52  66
ATOM     66  C   UNL A   1      41.167  27.998  28.715  1.00  0.00     0.023 A 
ATOM     67  C   UNL A   1      40.760  26.653  28.634  1.00  0.00     0.031 A 
ATOM     68  C   UNL A   1      41.766  28.573  27.582  1.00  0.00     0.131 A 
ATOM     69  C   UNL A   1      41.019  25.912  27.472  1.00  0.00     0.055 A 
ATOM     70  C   UNL A   1      41.951  27.852  26.399  1.00  0.00     0.041 A 
ATOM     71  F   UNL A   1      42.190  29.846  27.604  1.00  0.00    -0.206 F 
ATOM     72  C   UNL A   1      41.589  26.508  26.344  1.00  0.00     0.022 A 
BRANCH  69  73
ATOM     73  S   UNL A   1      40.712  24.125  27.497  1.00  0.00     0.124 S 
ATOM     74  O   UNL A   1      41.504  23.707  28.650  1.00  0.00    -0.237 OA
ATOM     75  O   UNL A   1      39.264  24.055  27.657  1.00  0.00    -0.237 OA
ATOM     76  O   UNL A   1      41.218  23.671  26.203  1.00  0.00    -0.744 OA
ENDBRANCH  69  73
ENDBRANCH  52  66
BRANCH  53  77
ATOM     77  C   UNL A   1      39.480  33.449  36.961  1.00  0.00     0.023 A 
ATOM     78  C   UNL A   1      40.197  34.623  37.244  1.00  0.00     0.031 A 
ATOM     79  C   UNL A   1      38.563  32.990  37.924  1.00  0.00     0.131 A 
ATOM     80  C   UNL A   1      40.030  35.264  38.481  1.00  0.00     0.055 A 
ATOM     81  C   UNL A   1      38.357  33.665  39.128  1.00  0.00     0.041 A 
ATOM     82  F   UNL A   1      37.848  31.874  37.705  1.00  0.00    -0.206 F 
ATOM     83  C   UNL A   1      39.108  34.800  39.420  1.00  0.00     0.022 A 
BRANCH  80  84
ATOM     84  S   UNL A   1      41.122  36.655  38.890  1.00  0.00     0.124 S 
ATOM     85  O   UNL A   1      41.932  36.092  39.964  1.00  0.00    -0.237 OA
ATOM     86  O   UNL A   1      41.806  36.883  37.621  1.00  0.00    -0.237 OA
ATOM     87  O   UNL A   1      40.193  37.708  39.293  1.00  0.00    -0.744 OA
ENDBRANCH  80  84
ENDBRANCH  53  77
BRANCH  65  88
ATOM     88  C   UNL A   1      44.278  28.707  35.223  1.00  0.00     0.023 A 
ATOM     89  C   UNL A   1      44.159  27.682  36.177  1.00  0.00     0.031 A 
ATOM     90  C   UNL A   1      45.556  29.243  34.981  1.00  0.00     0.131 A 
ATOM     91  C   UNL A   1      45.289  27.262  36.893  1.00  0.00     0.055 A 
ATOM     92  C   UNL A   1      46.685  28.782  35.656  1.00  0.00     0.041 A 
ATOM     93  F   UNL A   1      45.724  30.226  34.081  1.00  0.00    -0.206 F 
ATOM     94  C   UNL A   1      46.554  27.795  36.629  1.00  0.00     0.022 A 
BRANCH  91  95
ATOM     95  S   UNL A   1      45.072  26.068  38.242  1.00  0.00     0.124 S 
ATOM     96  O   UNL A   1      43.769  26.450  38.779  1.00  0.00    -0.237 OA
ATOM     97  O   UNL A   1      45.121  24.790  37.539  1.00  0.00    -0.237 OA
ATOM     98  O   UNL A   1      46.207  26.334  39.123  1.00  0.00    -0.744 OA
ENDBRANCH  91  95
ENDBRANCH  65  88
ENDBRANCH  39  40
ENDBRANCH  31  34
ENDBRANCH  29  30
ENDBRANCH  28  29
ENDBRANCH  27  28
ENDBRANCH   1  27
TORSDOF 22
ENDMDL
MODEL 2
REMARK VINA RESULT:     -10.5      3.475      8.649
REMARK SMILES CC(C)CN(CC(N)=O)C(=O)N1CC[C@H](C(=O)NCCCCCCNC(=O)c2ccc(-c3c4nc(c(-c5cc(S(=O)(=O)[O-])ccc5F)c5ccc([nH]5)c(-c5cc(S(=O)(=O)[O-])ccc5F)c5nc(c(-c6cc(S(=O)(=O)[O-])ccc6F)c6ccc3[nH]6)C=C5)C=C4)cc2)[C@@H]1C
REMARK SMILES IDX 21 1 20 2 19 3 18 4 16 5 17 6 15 8 12 9 13 10 91 11 14 12
REMARK SMILES IDX 92 13 10 14 11 15 5 16 4 17 2 18 1 19 3 20 6 21 7 22 8 23
REMARK SMILES IDX 9 24 22 27 23 28 24 29 25 30 26 31 27 33 28 34 29 35 90 36
REMARK SMILES IDX 30 37 89 38 31 39 32 40 33 41 83 42 34 43 88 44 82 45 84 46
REMARK SMILES IDX 35 47 87 48 81 49 80 50 36 52 68 53 48 54 67 55 49 56 52 57
REMARK SMILES IDX 66 58 85 59 50 60 51 61 65 63 86 64 53 65 37 66 38 67 46 68
REMARK SMILES IDX 39 69 45 70 47 71 44 72 40 73 41 74 42 75 43 76 69 77 70 78
REMARK SMILES IDX 78 79 71 80 77 81 79 82 76 83 72 84 73 85 74 86 75 87 54 88
REMARK SMILES IDX 55 89 63 90 56 91 62 92 64 93 61 94 57 95 58 96 59 97 60 98
REMARK H PARENT 18 7 8 25 8 26 25 32 84 51 52 62
REMARK Flexibility Score: inf
ROOT
ATOM      1  C   UNL A   1      31.569  28.946  23.947  1.00  0.00     0.002 C 
ENDROOT
BRANCH   1   2
ATOM      2  C   UNL A   1      30.419  28.024  23.550  1.00  0.00     0.021 C 
BRANCH   2   3
ATOM      3  C   UNL A   1      30.799  26.549  23.352  1.00  0.00     0.116 C 
BRANCH   3   4
ATOM      4  N   UNL A   1      31.660  26.421  22.190  1.00  0.00    -0.356 N 
ATOM      5  C   UNL A   1      32.939  25.987  22.037  1.00  0.00     0.225 C 
ATOM      6  O   UNL A   1      33.437  26.203  20.926  1.00  0.00    -0.275 OA
ATOM      7  H   UNL A   1      31.234  26.703  21.349  1.00  0.00     0.163 HD
BRANCH   5   8
ATOM      8  C   UNL A   1      33.668  25.134  23.079  1.00  0.00     0.102 C 
ATOM      9  N   UNL A   1      33.382  23.552  24.847  1.00  0.00    -0.321 N 
ATOM     10  C   UNL A   1      33.074  24.835  25.429  1.00  0.00     0.122 C 
ATOM     11  C   UNL A   1      33.254  23.677  23.392  1.00  0.00     0.096 C 
ATOM     12  C   UNL A   1      33.689  25.829  24.469  1.00  0.00     0.037 C 
ATOM     13  C   UNL A   1      31.858  23.237  22.955  1.00  0.00     0.032 C 
BRANCH   9  14
ATOM     14  C   UNL A   1      32.970  22.417  25.516  1.00  0.00     0.320 C 
ATOM     15  O   UNL A   1      32.004  22.489  26.273  1.00  0.00    -0.248 OA
BRANCH  14  16
ATOM     16  N   UNL A   1      33.632  21.235  25.253  1.00  0.00    -0.315 N 
BRANCH  16  17
ATOM     17  C   UNL A   1      35.021  21.077  25.711  1.00  0.00     0.125 C 
BRANCH  17  18
ATOM     18  C   UNL A   1      36.105  21.156  24.610  1.00  0.00     0.002 C 
ATOM     19  C   UNL A   1      36.737  22.549  24.483  1.00  0.00     0.009 C 
ATOM     20  C   UNL A   1      37.228  20.157  24.921  1.00  0.00     0.009 C 
ENDBRANCH  17  18
ENDBRANCH  16  17
BRANCH  16  21
ATOM     21  C   UNL A   1      33.042  20.113  24.517  1.00  0.00     0.221 C 
BRANCH  21  22
ATOM     22  C   UNL A   1      33.169  18.754  25.226  1.00  0.00     0.237 C 
ATOM     23  N   UNL A   1      34.164  17.938  24.747  1.00  0.00    -0.368 N 
ATOM     24  O   UNL A   1      32.469  18.376  26.151  1.00  0.00    -0.273 OA
ATOM     25  H   UNL A   1      34.731  18.240  24.002  1.00  0.00     0.159 HD
ATOM     26  H   UNL A   1      34.309  17.051  25.149  1.00  0.00     0.159 HD
ENDBRANCH  21  22
ENDBRANCH  16  21
ENDBRANCH  14  16
ENDBRANCH   9  14
ENDBRANCH   5   8
ENDBRANCH   3   4
ENDBRANCH   2   3
ENDBRANCH   1   2
BRANCH   1  27
ATOM     27  C   UNL A   1      31.556  29.374  25.418  1.00  0.00     0.002 C 
BRANCH  27  28
ATOM     28  C   UNL A   1      32.443  28.552  26.364  1.00  0.00     0.021 C 
BRANCH  28  29
ATOM     29  C   UNL A   1      33.815  29.154  26.675  1.00  0.00     0.116 C 
BRANCH  29  30
ATOM     30  N   UNL A   1      33.706  30.521  27.154  1.00  0.00    -0.352 N 
ATOM     31  C   UNL A   1      34.465  31.190  28.078  1.00  0.00     0.251 C 
ATOM     32  H   UNL A   1      32.976  31.047  26.753  1.00  0.00     0.163 HD
ATOM     33  O   UNL A   1      34.046  32.246  28.550  1.00  0.00    -0.269 OA
BRANCH  31  34
ATOM     34  C   UNL A   1      35.772  30.651  28.514  1.00  0.00     0.039 A 
ATOM     35  C   UNL A   1      35.807  29.724  29.560  1.00  0.00     0.014 A 
ATOM     36  C   UNL A   1      36.965  31.098  27.938  1.00  0.00     0.014 A 
ATOM     37  C   UNL A   1      37.032  29.211  29.996  1.00  0.00     0.010 A 
ATOM     38  C   UNL A   1      38.182  30.544  28.335  1.00  0.00     0.010 A 
ATOM     39  C   UNL A   1      38.229  29.600  29.372  1.00  0.00    -0.014 A 
BRANCH  39  40
ATOM     40  C   UNL A   1      39.540  29.048  29.807  1.00  0.00     0.031 A 
ATOM     41  C   UNL A   1      40.318  29.730  30.900  1.00  0.00     0.074 A 
ATOM     42  C   UNL A   1      40.049  27.964  29.188  1.00  0.00     0.049 A 
ATOM     43  N   UNL A   1      41.515  29.461  31.358  1.00  0.00    -0.248 NA
ATOM     44  C   UNL A   1      39.673  30.883  31.546  1.00  0.00     0.031 C 
ATOM     45  C   UNL A   1      39.395  27.228  28.102  1.00  0.00     0.029 A 
ATOM     46  N   UNL A   1      41.235  27.297  29.372  1.00  0.00    -0.354 N 
ATOM     47  C   UNL A   1      41.769  30.413  32.341  1.00  0.00     0.074 A 
ATOM     48  C   UNL A   1      40.624  31.299  32.369  1.00  0.00     0.031 C 
ATOM     49  C   UNL A   1      40.182  26.204  27.731  1.00  0.00     0.029 A 
ATOM     50  C   UNL A   1      41.411  26.234  28.517  1.00  0.00     0.049 A 
ATOM     51  H   UNL A   1      41.896  27.556  30.053  1.00  0.00     0.167 HD
ATOM     52  C   UNL A   1      42.846  30.525  33.158  1.00  0.00     0.034 A 
ATOM     53  C   UNL A   1      42.452  25.390  28.372  1.00  0.00     0.034 A 
ATOM     54  C   UNL A   1      43.977  29.629  33.123  1.00  0.00     0.049 A 
ATOM     55  C   UNL A   1      43.656  25.561  29.266  1.00  0.00     0.074 A 
ATOM     56  C   UNL A   1      45.110  29.637  33.919  1.00  0.00     0.029 A 
ATOM     57  N   UNL A   1      44.120  28.564  32.243  1.00  0.00    -0.354 N 
ATOM     58  N   UNL A   1      43.869  26.452  30.206  1.00  0.00    -0.248 NA
ATOM     59  C   UNL A   1      44.756  24.603  29.087  1.00  0.00     0.031 C 
ATOM     60  C   UNL A   1      45.960  28.613  33.485  1.00  0.00     0.029 A 
ATOM     61  C   UNL A   1      45.328  27.922  32.465  1.00  0.00     0.049 A 
ATOM     62  H   UNL A   1      43.459  28.303  31.562  1.00  0.00     0.167 HD
ATOM     63  C   UNL A   1      45.109  26.137  30.754  1.00  0.00     0.074 A 
ATOM     64  C   UNL A   1      45.590  24.967  30.049  1.00  0.00     0.031 C 
ATOM     65  C   UNL A   1      45.790  26.755  31.752  1.00  0.00     0.034 A 
BRANCH  52  66
ATOM     66  C   UNL A   1      42.854  31.668  34.144  1.00  0.00     0.023 A 
ATOM     67  C   UNL A   1      42.316  31.527  35.436  1.00  0.00     0.031 A 
ATOM     68  C   UNL A   1      43.391  32.916  33.788  1.00  0.00     0.131 A 
ATOM     69  C   UNL A   1      42.264  32.633  36.298  1.00  0.00     0.055 A 
ATOM     70  C   UNL A   1      43.408  33.993  34.679  1.00  0.00     0.041 A 
ATOM     71  F   UNL A   1      43.903  33.117  32.564  1.00  0.00    -0.206 F 
ATOM     72  C   UNL A   1      42.829  33.858  35.938  1.00  0.00     0.022 A 
BRANCH  69  73
ATOM     73  S   UNL A   1      41.339  32.480  37.850  1.00  0.00     0.124 S 
ATOM     74  O   UNL A   1      40.093  31.870  37.391  1.00  0.00    -0.237 OA
ATOM     75  O   UNL A   1      42.208  31.628  38.654  1.00  0.00    -0.237 OA
ATOM     76  O   UNL A   1      41.216  33.860  38.314  1.00  0.00    -0.744 OA
ENDBRANCH  69  73
ENDBRANCH  52  66
BRANCH  53  77
ATOM     77  C   UNL A   1      42.425  24.314  27.340  1.00  0.00     0.023 A 
ATOM     78  C   UNL A   1      41.833  23.070  27.611  1.00  0.00     0.031 A 
ATOM     79  C   UNL A   1      43.049  24.486  26.091  1.00  0.00     0.131 A 
ATOM     80  C   UNL A   1      41.929  22.029  26.675  1.00  0.00     0.055 A 
ATOM     81  C   UNL A   1      43.091  23.467  25.139  1.00  0.00     0.041 A 
ATOM     82  F   UNL A   1      43.629  25.657  25.777  1.00  0.00    -0.206 F 
ATOM     83  C   UNL A   1      42.544  22.222  25.436  1.00  0.00     0.022 A 
BRANCH  80  84
ATOM     84  S   UNL A   1      41.333  20.381  27.147  1.00  0.00     0.124 S 
ATOM     85  O   UNL A   1      42.574  19.615  27.180  1.00  0.00    -0.237 OA
ATOM     86  O   UNL A   1      40.706  20.646  28.438  1.00  0.00    -0.237 OA
ATOM     87  O   UNL A   1      40.411  20.032  26.067  1.00  0.00    -0.744 OA
ENDBRANCH  80  84
ENDBRANCH  53  77
BRANCH  65  88
ATOM     88  C   UNL A   1      47.099  26.134  32.172  1.00  0.00     0.023 A 
ATOM     89  C   UNL A   1      48.292  26.372  31.469  1.00  0.00     0.031 A 
ATOM     90  C   UNL A   1      47.146  25.276  33.286  1.00  0.00     0.131 A 
ATOM     91  C   UNL A   1      49.471  25.716  31.851  1.00  0.00     0.055 A 
ATOM     92  C   UNL A   1      48.333  24.670  33.696  1.00  0.00     0.041 A 
ATOM     93  F   UNL A   1      46.035  25.013  33.992  1.00  0.00    -0.206 F 
ATOM     94  C   UNL A   1      49.502  24.878  32.969  1.00  0.00     0.022 A 
BRANCH  91  95
ATOM     95  S   UNL A   1      50.948  25.903  30.815  1.00  0.00     0.124 S 
ATOM     96  O   UNL A   1      50.522  25.283  29.564  1.00  0.00    -0.237 OA
ATOM     97  O   UNL A   1      51.125  27.350  30.781  1.00  0.00    -0.237 OA
ATOM     98  O   UNL A   1      51.978  25.170  31.550  1.00  0.00    -0.744 OA
ENDBRANCH  91  95
ENDBRANCH  65  88
ENDBRANCH  39  40
ENDBRANCH  31  34
ENDBRANCH  29  30
ENDBRANCH  28  29
ENDBRANCH  27  28
ENDBRANCH   1  27
TORSDOF 22
ENDMDL
MODEL 3
REMARK VINA RESULT:     -10.4      2.832      8.479
REMARK SMILES CC(C)CN(CC(N)=O)C(=O)N1CC[C@H](C(=O)NCCCCCCNC(=O)c2ccc(-c3c4nc(c(-c5cc(S(=O)(=O)[O-])ccc5F)c5ccc([nH]5)c(-c5cc(S(=O)(=O)[O-])ccc5F)c5nc(c(-c6cc(S(=O)(=O)[O-])ccc6F)c6ccc3[nH]6)C=C5)C=C4)cc2)[C@@H]1C
REMARK SMILES IDX 21 1 20 2 19 3 18 4 16 5 17 6 15 8 12 9 13 10 91 11 14 12
REMARK SMILES IDX 92 13 10 14 11 15 5 16 4 17 2 18 1 19 3 20 6 21 7 22 8 23
REMARK SMILES IDX 9 24 22 27 23 28 24 29 25 30 26 31 27 33 28 34 29 35 90 36
REMARK SMILES IDX 30 37 89 38 31 39 32 40 33 41 83 42 34 43 88 44 82 45 84 46
REMARK SMILES IDX 35 47 87 48 81 49 80 50 36 52 68 53 48 54 67 55 49 56 52 57
REMARK SMILES IDX 66 58 85 59 50 60 51 61 65 63 86 64 53 65 37 66 38 67 46 68
REMARK SMILES IDX 39 69 45 70 47 71 44 72 40 73 41 74 42 75 43 76 69 77 70 78
REMARK SMILES IDX 78 79 71 80 77 81 79 82 76 83 72 84 73 85 74 86 75 87 54 88
REMARK SMILES IDX 55 89 63 90 56 91 62 92 64 93 61 94 57 95 58 96 59 97 60 98
REMARK H PARENT 18 7 8 25 8 26 25 32 84 51 52 62
REMARK Flexibility Score: inf
ROOT
ATOM      1  C   UNL A   1      31.769  29.492  25.123  1.00  0.00     0.002 C 
ENDROOT
BRANCH   1   2
ATOM      2  C   UNL A   1      30.793  28.882  24.121  1.00  0.00     0.021 C 
BRANCH   2   3
ATOM      3  C   UNL A   1      30.673  27.351  24.170  1.00  0.00     0.116 C 
BRANCH   3   4
ATOM      4  N   UNL A   1      30.878  26.806  22.841  1.00  0.00    -0.356 N 
ATOM      5  C   UNL A   1      31.924  26.159  22.263  1.00  0.00     0.225 C 
ATOM      6  O   UNL A   1      31.839  26.009  21.040  1.00  0.00    -0.275 OA
ATOM      7  H   UNL A   1      30.107  26.927  22.240  1.00  0.00     0.163 HD
BRANCH   5   8
ATOM      8  C   UNL A   1      33.048  25.496  23.065  1.00  0.00     0.102 C 
ATOM      9  N   UNL A   1      33.596  24.407  25.120  1.00  0.00    -0.321 N 
ATOM     10  C   UNL A   1      33.571  25.815  25.430  1.00  0.00     0.122 C 
ATOM     11  C   UNL A   1      32.829  24.205  23.887  1.00  0.00     0.096 C 
ATOM     12  C   UNL A   1      33.684  26.487  24.079  1.00  0.00     0.037 C 
ATOM     13  C   UNL A   1      31.388  23.829  24.228  1.00  0.00     0.032 C 
BRANCH   9  14
ATOM     14  C   UNL A   1      33.535  23.508  26.167  1.00  0.00     0.320 C 
ATOM     15  O   UNL A   1      32.640  23.626  27.002  1.00  0.00    -0.248 OA
BRANCH  14  16
ATOM     16  N   UNL A   1      34.454  22.480  26.190  1.00  0.00    -0.315 N 
BRANCH  16  17
ATOM     17  C   UNL A   1      35.816  22.729  25.696  1.00  0.00     0.125 C 
BRANCH  17  18
ATOM     18  C   UNL A   1      36.203  21.996  24.388  1.00  0.00     0.002 C 
ATOM     19  C   UNL A   1      36.586  22.953  23.252  1.00  0.00     0.009 C 
ATOM     20  C   UNL A   1      37.399  21.073  24.650  1.00  0.00     0.009 C 
ENDBRANCH  17  18
ENDBRANCH  16  17
BRANCH  16  21
ATOM     21  C   UNL A   1      34.154  21.125  26.663  1.00  0.00     0.221 C 
BRANCH  21  22
ATOM     22  C   UNL A   1      33.274  20.301  25.708  1.00  0.00     0.237 C 
ATOM     23  N   UNL A   1      32.839  19.100  26.209  1.00  0.00    -0.368 N 
ATOM     24  O   UNL A   1      32.952  20.639  24.581  1.00  0.00    -0.273 OA
ATOM     25  H   UNL A   1      33.096  18.823  27.118  1.00  0.00     0.159 HD
ATOM     26  H   UNL A   1      32.271  18.514  25.658  1.00  0.00     0.159 HD
ENDBRANCH  21  22
ENDBRANCH  16  21
ENDBRANCH  14  16
ENDBRANCH   9  14
ENDBRANCH   5   8
ENDBRANCH   3   4
ENDBRANCH   2   3
ENDBRANCH   1   2
BRANCH   1  27
ATOM     27  C   UNL A   1      31.716  28.863  26.519  1.00  0.00     0.002 C 
BRANCH  27  28
ATOM     28  C   UNL A   1      33.031  28.880  27.313  1.00  0.00     0.021 C 
BRANCH  28  29
ATOM     29  C   UNL A   1      34.088  29.872  26.823  1.00  0.00     0.116 C 
BRANCH  29  30
ATOM     30  N   UNL A   1      33.959  31.162  27.478  1.00  0.00    -0.352 N 
ATOM     31  C   UNL A   1      34.659  31.683  28.535  1.00  0.00     0.251 C 
ATOM     32  H   UNL A   1      33.264  31.751  27.105  1.00  0.00     0.163 HD
ATOM     33  O   UNL A   1      34.219  32.672  29.119  1.00  0.00    -0.269 OA
BRANCH  31  34
ATOM     34  C   UNL A   1      35.928  31.064  28.978  1.00  0.00     0.039 A 
ATOM     35  C   UNL A   1      35.880  29.979  29.858  1.00  0.00     0.014 A 
ATOM     36  C   UNL A   1      37.163  31.585  28.578  1.00  0.00     0.014 A 
ATOM     37  C   UNL A   1      37.067  29.388  30.300  1.00  0.00     0.010 A 
ATOM     38  C   UNL A   1      38.344  30.959  28.974  1.00  0.00     0.010 A 
ATOM     39  C   UNL A   1      38.309  29.858  29.844  1.00  0.00    -0.014 A 
BRANCH  39  40
ATOM     40  C   UNL A   1      39.582  29.227  30.285  1.00  0.00     0.031 A 
ATOM     41  C   UNL A   1      40.308  29.760  31.491  1.00  0.00     0.074 A 
ATOM     42  C   UNL A   1      40.106  28.208  29.574  1.00  0.00     0.049 A 
ATOM     43  N   UNL A   1      41.470  29.410  31.981  1.00  0.00    -0.248 NA
ATOM     44  C   UNL A   1      39.648  30.848  32.228  1.00  0.00     0.031 C 
ATOM     45  C   UNL A   1      39.503  27.618  28.376  1.00  0.00     0.029 A 
ATOM     46  N   UNL A   1      41.266  27.495  29.746  1.00  0.00    -0.354 N 
ATOM     47  C   UNL A   1      41.684  30.237  33.080  1.00  0.00     0.074 A 
ATOM     48  C   UNL A   1      40.557  31.143  33.145  1.00  0.00     0.031 C 
ATOM     49  C   UNL A   1      40.290  26.623  27.934  1.00  0.00     0.029 A 
ATOM     50  C   UNL A   1      41.472  26.532  28.785  1.00  0.00     0.049 A 
ATOM     51  H   UNL A   1      41.892  27.657  30.489  1.00  0.00     0.167 HD
ATOM     52  C   UNL A   1      42.714  30.227  33.963  1.00  0.00     0.034 A 
ATOM     53  C   UNL A   1      42.504  25.684  28.602  1.00  0.00     0.034 A 
ATOM     54  C   UNL A   1      43.828  29.313  33.888  1.00  0.00     0.049 A 
ATOM     55  C   UNL A   1      43.656  25.720  29.576  1.00  0.00     0.074 A 
ATOM     56  C   UNL A   1      44.913  29.201  34.741  1.00  0.00     0.029 A 
ATOM     57  N   UNL A   1      44.002  28.352  32.901  1.00  0.00    -0.354 N 
ATOM     58  N   UNL A   1      43.831  26.493  30.623  1.00  0.00    -0.248 NA
ATOM     59  C   UNL A   1      44.746  24.762  29.349  1.00  0.00     0.031 C 
ATOM     60  C   UNL A   1      45.767  28.212  34.241  1.00  0.00     0.029 A 
ATOM     61  C   UNL A   1      45.183  27.658  33.114  1.00  0.00     0.049 A 
ATOM     62  H   UNL A   1      43.377  28.187  32.158  1.00  0.00     0.167 HD
ATOM     63  C   UNL A   1      45.031  26.086  31.200  1.00  0.00     0.074 A 
ATOM     64  C   UNL A   1      45.529  24.992  30.392  1.00  0.00     0.031 C 
ATOM     65  C   UNL A   1      45.664  26.569  32.298  1.00  0.00     0.034 A 
BRANCH  52  66
ATOM     66  C   UNL A   1      42.686  31.250  35.073  1.00  0.00     0.023 A 
ATOM     67  C   UNL A   1      43.158  32.560  34.877  1.00  0.00     0.031 A 
ATOM     68  C   UNL A   1      42.196  30.912  36.346  1.00  0.00     0.131 A 
ATOM     69  C   UNL A   1      43.195  33.461  35.951  1.00  0.00     0.055 A 
ATOM     70  C   UNL A   1      42.163  31.837  37.393  1.00  0.00     0.041 A 
ATOM     71  F   UNL A   1      41.749  29.672  36.600  1.00  0.00    -0.206 F 
ATOM     72  C   UNL A   1      42.677  33.117  37.202  1.00  0.00     0.022 A 
BRANCH  69  73
ATOM     73  S   UNL A   1      44.040  35.049  35.724  1.00  0.00     0.124 S 
ATOM     74  O   UNL A   1      42.913  35.954  35.512  1.00  0.00    -0.237 OA
ATOM     75  O   UNL A   1      44.759  35.208  36.982  1.00  0.00    -0.237 OA
ATOM     76  O   UNL A   1      44.880  34.826  34.549  1.00  0.00    -0.744 OA
ENDBRANCH  69  73
ENDBRANCH  52  66
BRANCH  53  77
ATOM     77  C   UNL A   1      42.516  24.734  27.453  1.00  0.00     0.023 A 
ATOM     78  C   UNL A   1      41.910  23.471  27.555  1.00  0.00     0.031 A 
ATOM     79  C   UNL A   1      43.192  25.044  26.259  1.00  0.00     0.131 A 
ATOM     80  C   UNL A   1      42.042  22.544  26.510  1.00  0.00     0.055 A 
ATOM     81  C   UNL A   1      43.271  24.140  25.198  1.00  0.00     0.041 A 
ATOM     82  F   UNL A   1      43.787  26.238  26.105  1.00  0.00    -0.206 F 
ATOM     83  C   UNL A   1      42.708  22.873  25.328  1.00  0.00     0.022 A 
BRANCH  80  84
ATOM     84  S   UNL A   1      41.424  20.857  26.765  1.00  0.00     0.124 S 
ATOM     85  O   UNL A   1      40.006  21.094  27.013  1.00  0.00    -0.237 OA
ATOM     86  O   UNL A   1      41.757  20.219  25.495  1.00  0.00    -0.237 OA
ATOM     87  O   UNL A   1      42.190  20.386  27.917  1.00  0.00    -0.744 OA
ENDBRANCH  80  84
ENDBRANCH  53  77
BRANCH  65  88
ATOM     88  C   UNL A   1      46.934  25.871  32.716  1.00  0.00     0.023 A 
ATOM     89  C   UNL A   1      46.933  24.837  33.669  1.00  0.00     0.031 A 
ATOM     90  C   UNL A   1      48.167  26.261  32.164  1.00  0.00     0.131 A 
ATOM     91  C   UNL A   1      48.145  24.266  34.081  1.00  0.00     0.055 A 
ATOM     92  C   UNL A   1      49.365  25.652  32.536  1.00  0.00     0.041 A 
ATOM     93  F   UNL A   1      48.225  27.245  31.252  1.00  0.00    -0.206 F 
ATOM     94  C   UNL A   1      49.360  24.657  33.511  1.00  0.00     0.022 A 
BRANCH  91  95
ATOM     95  S   UNL A   1      48.126  23.065  35.440  1.00  0.00     0.124 S 
ATOM     96  O   UNL A   1      49.361  23.388  36.149  1.00  0.00    -0.237 OA
ATOM     97  O   UNL A   1      46.887  23.400  36.135  1.00  0.00    -0.237 OA
ATOM     98  O   UNL A   1      48.122  21.773  34.757  1.00  0.00    -0.744 OA
ENDBRANCH  91  95
ENDBRANCH  65  88
ENDBRANCH  39  40
ENDBRANCH  31  34
ENDBRANCH  29  30
ENDBRANCH  28  29
ENDBRANCH  27  28
ENDBRANCH   1  27
TORSDOF 22
ENDMDL
