MODEL 1
REMARK VINA RESULT:     -10.6      0.000      0.000
REMARK SMILES O=CN1CCC[C@@H](C(=O)NCCCCCCNC(=O)c2ccc(-c3c4nc(c(-c5cc(S(=O)(=O)[O-])ccc5F)c5ccc([nH]5)c(-c5cc(S(=O)(=O)[O-])ccc5F)c5nc(c(-c6cc(S(=O)(=O)[O-])ccc6F)c6ccc3[nH]6)C=C5)C=C4)cc2)C1
REMARK SMILES IDX 14 1 13 2 12 3 11 4 10 5 8 6 9 7 7 9 3 10 4 11 83 12 5 13
REMARK SMILES IDX 6 14 2 15 1 16 15 17 16 18 17 19 18 20 19 22 20 23 21 24
REMARK SMILES IDX 82 25 22 26 81 27 23 28 24 29 25 30 75 31 26 32 80 33 74 34
REMARK SMILES IDX 76 35 27 36 79 37 73 38 72 39 28 41 60 42 40 43 59 44 41 45
REMARK SMILES IDX 44 46 58 47 77 48 42 49 43 50 57 52 78 53 45 54 29 55 30 56
REMARK SMILES IDX 38 57 31 58 37 59 39 60 36 61 32 62 33 63 34 64 35 65 61 66
REMARK SMILES IDX 62 67 70 68 63 69 69 70 71 71 68 72 64 73 65 74 66 75 67 76
REMARK SMILES IDX 46 77 47 78 55 79 48 80 54 81 56 82 53 83 49 84 50 85 51 86
REMARK SMILES IDX 52 87
REMARK H PARENT 10 8 17 21 76 40 44 51
REMARK Flexibility Score: inf
ROOT
ATOM      1  C   UNL A   1      34.197  20.481  25.010  1.00  0.00     0.002 C 
ENDROOT
BRANCH   1   2
ATOM      2  C   UNL A   1      32.738  20.676  24.582  1.00  0.00     0.002 C 
BRANCH   2   3
ATOM      3  C   UNL A   1      32.363  20.136  23.192  1.00  0.00     0.021 C 
BRANCH   3   4
ATOM      4  C   UNL A   1      31.825  21.178  22.205  1.00  0.00     0.116 C 
BRANCH   4   5
ATOM      5  N   UNL A   1      32.737  22.294  22.038  1.00  0.00    -0.356 N 
ATOM      6  C   UNL A   1      32.779  23.595  22.386  1.00  0.00     0.224 C 
ATOM      7  O   UNL A   1      33.773  24.198  21.958  1.00  0.00    -0.275 OA
ATOM      8  H   UNL A   1      33.543  22.029  21.538  1.00  0.00     0.163 HD
BRANCH   6   9
ATOM      9  C   UNL A   1      31.793  24.338  23.289  1.00  0.00     0.098 C 
ATOM     10  N   UNL A   1      31.646  25.191  25.633  1.00  0.00    -0.344 N 
ATOM     11  C   UNL A   1      31.040  26.446  25.237  1.00  0.00     0.119 C 
ATOM     12  C   UNL A   1      32.497  24.526  24.651  1.00  0.00     0.132 C 
ATOM     13  C   UNL A   1      30.294  26.287  23.921  1.00  0.00     0.022 C 
ATOM     14  C   UNL A   1      31.174  25.660  22.832  1.00  0.00     0.017 C 
BRANCH  10  15
ATOM     15  C   UNL A   1      31.547  24.712  26.923  1.00  0.00     0.339 C 
ATOM     16  O   UNL A   1      31.127  23.613  27.258  1.00  0.00    -0.279 OA
ENDBRANCH  10  15
ENDBRANCH   6   9
ENDBRANCH   4   5
ENDBRANCH   3   4
ENDBRANCH   2   3
ENDBRANCH   1   2
BRANCH   1  17
ATOM     17  C   UNL A   1      35.148  21.627  24.660  1.00  0.00     0.021 C 
BRANCH  17  18
ATOM     18  C   UNL A   1      36.283  21.863  25.652  1.00  0.00     0.116 C 
BRANCH  18  19
ATOM     19  N   UNL A   1      37.293  20.817  25.616  1.00  0.00    -0.352 N 
ATOM     20  C   UNL A   1      38.649  20.901  25.837  1.00  0.00     0.251 C 
ATOM     21  H   UNL A   1      36.959  19.916  25.401  1.00  0.00     0.163 HD
ATOM     22  O   UNL A   1      39.361  19.925  25.609  1.00  0.00    -0.269 OA
BRANCH  20  23
ATOM     23  C   UNL A   1      39.253  22.168  26.314  1.00  0.00     0.039 A 
ATOM     24  C   UNL A   1      40.307  22.111  27.230  1.00  0.00     0.014 A 
ATOM     25  C   UNL A   1      38.787  23.407  25.866  1.00  0.00     0.014 A 
ATOM     26  C   UNL A   1      40.939  23.290  27.639  1.00  0.00     0.010 A 
ATOM     27  C   UNL A   1      39.467  24.574  26.214  1.00  0.00     0.010 A 
ATOM     28  C   UNL A   1      40.552  24.530  27.104  1.00  0.00    -0.014 A 
BRANCH  28  29
ATOM     29  C   UNL A   1      41.270  25.785  27.460  1.00  0.00     0.031 A 
ATOM     30  C   UNL A   1      40.582  26.847  28.278  1.00  0.00     0.074 A 
ATOM     31  C   UNL A   1      42.519  25.996  26.999  1.00  0.00     0.049 A 
ATOM     32  N   UNL A   1      41.009  28.034  28.624  1.00  0.00    -0.248 NA
ATOM     33  C   UNL A   1      39.220  26.542  28.743  1.00  0.00     0.031 C 
ATOM     34  C   UNL A   1      43.282  25.061  26.170  1.00  0.00     0.029 A 
ATOM     35  N   UNL A   1      43.368  27.066  27.154  1.00  0.00    -0.354 N 
ATOM     36  C   UNL A   1      39.969  28.622  29.336  1.00  0.00     0.074 A 
ATOM     37  C   UNL A   1      38.868  27.683  29.315  1.00  0.00     0.031 C 
ATOM     38  C   UNL A   1      44.492  25.585  25.915  1.00  0.00     0.029 A 
ATOM     39  C   UNL A   1      44.576  26.914  26.511  1.00  0.00     0.049 A 
ATOM     40  H   UNL A   1      43.134  27.867  27.676  1.00  0.00     0.167 HD
ATOM     41  C   UNL A   1      39.943  29.822  29.969  1.00  0.00     0.034 A 
ATOM     42  C   UNL A   1      45.625  27.753  26.401  1.00  0.00     0.034 A 
ATOM     43  C   UNL A   1      41.054  30.744  29.988  1.00  0.00     0.049 A 
ATOM     44  C   UNL A   1      45.558  29.099  27.080  1.00  0.00     0.074 A 
ATOM     45  C   UNL A   1      41.151  31.961  30.641  1.00  0.00     0.029 A 
ATOM     46  N   UNL A   1      42.257  30.559  29.318  1.00  0.00    -0.354 N 
ATOM     47  N   UNL A   1      44.583  29.619  27.790  1.00  0.00    -0.248 NA
ATOM     48  C   UNL A   1      46.735  29.966  26.950  1.00  0.00     0.031 C 
ATOM     49  C   UNL A   1      42.376  32.546  30.301  1.00  0.00     0.029 A 
ATOM     50  C   UNL A   1      43.084  31.656  29.511  1.00  0.00     0.049 A 
ATOM     51  H   UNL A   1      42.489  29.765  28.784  1.00  0.00     0.167 HD
ATOM     52  C   UNL A   1      45.048  30.859  28.221  1.00  0.00     0.074 A 
ATOM     53  C   UNL A   1      46.393  31.000  27.704  1.00  0.00     0.031 C 
ATOM     54  C   UNL A   1      44.422  31.793  28.982  1.00  0.00     0.034 A 
BRANCH  41  55
ATOM     55  C   UNL A   1      38.662  30.213  30.670  1.00  0.00     0.023 A 
ATOM     56  C   UNL A   1      37.654  30.942  30.016  1.00  0.00     0.031 A 
ATOM     57  C   UNL A   1      38.453  29.868  32.018  1.00  0.00     0.131 A 
ATOM     58  C   UNL A   1      36.523  31.372  30.728  1.00  0.00     0.055 A 
ATOM     59  C   UNL A   1      37.285  30.222  32.696  1.00  0.00     0.041 A 
ATOM     60  F   UNL A   1      39.387  29.192  32.704  1.00  0.00    -0.206 F 
ATOM     61  C   UNL A   1      36.318  30.993  32.056  1.00  0.00     0.022 A 
BRANCH  58  62
ATOM     62  S   UNL A   1      35.404  32.560  29.939  1.00  0.00     0.124 S 
ATOM     63  O   UNL A   1      34.336  32.663  30.932  1.00  0.00    -0.237 OA
ATOM     64  O   UNL A   1      36.250  33.737  29.785  1.00  0.00    -0.237 OA
ATOM     65  O   UNL A   1      35.023  31.896  28.694  1.00  0.00    -0.744 OA
ENDBRANCH  58  62
ENDBRANCH  41  55
BRANCH  42  66
ATOM     66  C   UNL A   1      46.828  27.362  25.608  1.00  0.00     0.023 A 
ATOM     67  C   UNL A   1      47.006  27.814  24.291  1.00  0.00     0.031 A 
ATOM     68  C   UNL A   1      47.794  26.489  26.139  1.00  0.00     0.131 A 
ATOM     69  C   UNL A   1      48.093  27.352  23.532  1.00  0.00     0.055 A 
ATOM     70  C   UNL A   1      48.906  26.080  25.401  1.00  0.00     0.041 A 
ATOM     71  F   UNL A   1      47.675  26.026  27.394  1.00  0.00    -0.206 F 
ATOM     72  C   UNL A   1      49.052  26.500  24.083  1.00  0.00     0.022 A 
BRANCH  69  73
ATOM     73  S   UNL A   1      48.180  27.801  21.776  1.00  0.00     0.124 S 
ATOM     74  O   UNL A   1      48.325  26.494  21.143  1.00  0.00    -0.237 OA
ATOM     75  O   UNL A   1      46.904  28.476  21.573  1.00  0.00    -0.237 OA
ATOM     76  O   UNL A   1      49.359  28.663  21.704  1.00  0.00    -0.744 OA
ENDBRANCH  69  73
ENDBRANCH  42  66
BRANCH  54  77
ATOM     77  C   UNL A   1      45.209  33.030  29.343  1.00  0.00     0.023 A 
ATOM     78  C   UNL A   1      45.172  34.193  28.554  1.00  0.00     0.031 A 
ATOM     79  C   UNL A   1      46.018  33.041  30.494  1.00  0.00     0.131 A 
ATOM     80  C   UNL A   1      45.973  35.296  28.893  1.00  0.00     0.055 A 
ATOM     81  C   UNL A   1      46.759  34.164  30.865  1.00  0.00     0.041 A 
ATOM     82  F   UNL A   1      46.096  31.958  31.284  1.00  0.00    -0.206 F 
ATOM     83  C   UNL A   1      46.750  35.295  30.055  1.00  0.00     0.022 A 
BRANCH  80  84
ATOM     84  S   UNL A   1      46.062  36.695  27.744  1.00  0.00     0.124 S 
ATOM     85  O   UNL A   1      46.578  37.759  28.600  1.00  0.00    -0.237 OA
ATOM     86  O   UNL A   1      46.979  36.201  26.720  1.00  0.00    -0.237 OA
ATOM     87  O   UNL A   1      44.679  36.868  27.305  1.00  0.00    -0.744 OA
ENDBRANCH  80  84
ENDBRANCH  54  77
ENDBRANCH  28  29
ENDBRANCH  20  23
ENDBRANCH  18  19
ENDBRANCH  17  18
ENDBRANCH   1  17
TORSDOF 17
ENDMDL
MODEL 2
REMARK VINA RESULT:     -10.5      5.093      7.726
REMARK SMILES O=CN1CCC[C@@H](C(=O)NCCCCCCNC(=O)c2ccc(-c3c4nc(c(-c5cc(S(=O)(=O)[O-])ccc5F)c5ccc([nH]5)c(-c5cc(S(=O)(=O)[O-])ccc5F)c5nc(c(-c6cc(S(=O)(=O)[O-])ccc6F)c6ccc3[nH]6)C=C5)C=C4)cc2)C1
REMARK SMILES IDX 14 1 13 2 12 3 11 4 10 5 8 6 9 7 7 9 3 10 4 11 83 12 5 13
REMARK SMILES IDX 6 14 2 15 1 16 15 17 16 18 17 19 18 20 19 22 20 23 21 24
REMARK SMILES IDX 82 25 22 26 81 27 23 28 24 29 25 30 75 31 26 32 80 33 74 34
REMARK SMILES IDX 76 35 27 36 79 37 73 38 72 39 28 41 60 42 40 43 59 44 41 45
REMARK SMILES IDX 44 46 58 47 77 48 42 49 43 50 57 52 78 53 45 54 29 55 30 56
REMARK SMILES IDX 38 57 31 58 37 59 39 60 36 61 32 62 33 63 34 64 35 65 61 66
REMARK SMILES IDX 62 67 70 68 63 69 69 70 71 71 68 72 64 73 65 74 66 75 67 76
REMARK SMILES IDX 46 77 47 78 55 79 48 80 54 81 56 82 53 83 49 84 50 85 51 86
REMARK SMILES IDX 52 87
REMARK H PARENT 10 8 17 21 76 40 44 51
REMARK Flexibility Score: inf
ROOT
ATOM      1  C   UNL A   1      33.091  29.337  24.756  1.00  0.00     0.002 C 
ENDROOT
BRANCH   1   2
ATOM      2  C   UNL A   1      32.943  28.655  23.392  1.00  0.00     0.002 C 
BRANCH   2   3
ATOM      3  C   UNL A   1      31.553  28.743  22.739  1.00  0.00     0.021 C 
BRANCH   3   4
ATOM      4  C   UNL A   1      30.905  27.399  22.390  1.00  0.00     0.116 C 
BRANCH   4   5
ATOM      5  N   UNL A   1      31.764  26.578  21.557  1.00  0.00    -0.356 N 
ATOM      6  C   UNL A   1      32.607  25.542  21.730  1.00  0.00     0.224 C 
ATOM      7  O   UNL A   1      33.191  25.190  20.694  1.00  0.00    -0.275 OA
ATOM      8  H   UNL A   1      31.716  26.850  20.612  1.00  0.00     0.163 HD
BRANCH   6   9
ATOM      9  C   UNL A   1      32.837  24.746  23.016  1.00  0.00     0.098 C 
ATOM     10  N   UNL A   1      33.138  22.377  23.748  1.00  0.00    -0.344 N 
ATOM     11  C   UNL A   1      34.210  22.699  24.668  1.00  0.00     0.119 C 
ATOM     12  C   UNL A   1      32.957  23.263  22.602  1.00  0.00     0.132 C 
ATOM     13  C   UNL A   1      34.097  24.141  25.136  1.00  0.00     0.022 C 
ATOM     14  C   UNL A   1      33.981  25.120  23.961  1.00  0.00     0.017 C 
BRANCH  10  15
ATOM     15  C   UNL A   1      32.411  21.210  23.861  1.00  0.00     0.339 C 
ATOM     16  O   UNL A   1      31.834  20.809  24.863  1.00  0.00    -0.279 OA
ENDBRANCH  10  15
ENDBRANCH   6   9
ENDBRANCH   4   5
ENDBRANCH   3   4
ENDBRANCH   2   3
ENDBRANCH   1   2
BRANCH   1  17
ATOM     17  C   UNL A   1      33.635  28.456  25.882  1.00  0.00     0.021 C 
BRANCH  17  18
ATOM     18  C   UNL A   1      33.269  28.897  27.295  1.00  0.00     0.116 C 
BRANCH  18  19
ATOM     19  N   UNL A   1      33.377  30.335  27.486  1.00  0.00    -0.352 N 
ATOM     20  C   UNL A   1      34.395  31.069  28.050  1.00  0.00     0.251 C 
ATOM     21  H   UNL A   1      32.609  30.861  27.166  1.00  0.00     0.163 HD
ATOM     22  O   UNL A   1      34.231  32.269  28.259  1.00  0.00    -0.269 OA
BRANCH  20  23
ATOM     23  C   UNL A   1      35.667  30.413  28.436  1.00  0.00     0.039 A 
ATOM     24  C   UNL A   1      36.762  30.501  27.572  1.00  0.00     0.014 A 
ATOM     25  C   UNL A   1      35.786  29.713  29.640  1.00  0.00     0.014 A 
ATOM     26  C   UNL A   1      37.991  29.951  27.946  1.00  0.00     0.010 A 
ATOM     27  C   UNL A   1      37.031  29.233  30.046  1.00  0.00     0.010 A 
ATOM     28  C   UNL A   1      38.149  29.347  29.205  1.00  0.00    -0.014 A 
BRANCH  28  29
ATOM     29  C   UNL A   1      39.472  28.835  29.657  1.00  0.00     0.031 A 
ATOM     30  C   UNL A   1      40.221  29.537  30.759  1.00  0.00     0.074 A 
ATOM     31  C   UNL A   1      40.028  27.773  29.038  1.00  0.00     0.049 A 
ATOM     32  N   UNL A   1      41.414  29.292  31.239  1.00  0.00    -0.248 NA
ATOM     33  C   UNL A   1      39.549  30.686  31.385  1.00  0.00     0.031 C 
ATOM     34  C   UNL A   1      39.419  27.026  27.936  1.00  0.00     0.029 A 
ATOM     35  N   UNL A   1      41.230  27.140  29.240  1.00  0.00    -0.354 N 
ATOM     36  C   UNL A   1      41.640  30.260  32.212  1.00  0.00     0.074 A 
ATOM     37  C   UNL A   1      40.487  31.133  32.206  1.00  0.00     0.031 C 
ATOM     38  C   UNL A   1      40.237  26.023  27.579  1.00  0.00     0.029 A 
ATOM     39  C   UNL A   1      41.452  26.084  28.385  1.00  0.00     0.049 A 
ATOM     40  H   UNL A   1      41.874  27.416  29.932  1.00  0.00     0.167 HD
ATOM     41  C   UNL A   1      42.701  30.393  33.048  1.00  0.00     0.034 A 
ATOM     42  C   UNL A   1      42.516  25.266  28.254  1.00  0.00     0.034 A 
ATOM     43  C   UNL A   1      43.841  29.508  33.047  1.00  0.00     0.049 A 
ATOM     44  C   UNL A   1      43.701  25.459  29.168  1.00  0.00     0.074 A 
ATOM     45  C   UNL A   1      44.943  29.522  33.885  1.00  0.00     0.029 A 
ATOM     46  N   UNL A   1      44.034  28.455  32.161  1.00  0.00    -0.354 N 
ATOM     47  N   UNL A   1      43.878  26.352  30.116  1.00  0.00    -0.248 NA
ATOM     48  C   UNL A   1      44.825  24.529  29.002  1.00  0.00     0.031 C 
ATOM     49  C   UNL A   1      45.836  28.534  33.455  1.00  0.00     0.029 A 
ATOM     50  C   UNL A   1      45.252  27.840  32.408  1.00  0.00     0.049 A 
ATOM     51  H   UNL A   1      43.398  28.185  31.459  1.00  0.00     0.167 HD
ATOM     52  C   UNL A   1      45.117  26.064  30.682  1.00  0.00     0.074 A 
ATOM     53  C   UNL A   1      45.636  24.908  29.978  1.00  0.00     0.031 C 
ATOM     54  C   UNL A   1      45.766  26.693  31.694  1.00  0.00     0.034 A 
BRANCH  41  55
ATOM     55  C   UNL A   1      42.685  31.555  34.015  1.00  0.00     0.023 A 
ATOM     56  C   UNL A   1      42.049  31.470  35.265  1.00  0.00     0.031 A 
ATOM     57  C   UNL A   1      43.298  32.775  33.673  1.00  0.00     0.131 A 
ATOM     58  C   UNL A   1      41.970  32.601  36.092  1.00  0.00     0.055 A 
ATOM     59  C   UNL A   1      43.293  33.870  34.538  1.00  0.00     0.041 A 
ATOM     60  F   UNL A   1      43.902  32.927  32.484  1.00  0.00    -0.206 F 
ATOM     61  C   UNL A   1      42.612  33.793  35.750  1.00  0.00     0.022 A 
BRANCH  58  62
ATOM     62  S   UNL A   1      40.887  32.537  37.545  1.00  0.00     0.124 S 
ATOM     63  O   UNL A   1      41.738  31.853  38.517  1.00  0.00    -0.237 OA
ATOM     64  O   UNL A   1      40.623  33.947  37.805  1.00  0.00    -0.237 OA
ATOM     65  O   UNL A   1      39.738  31.760  37.081  1.00  0.00    -0.744 OA
ENDBRANCH  58  62
ENDBRANCH  41  55
BRANCH  42  66
ATOM     66  C   UNL A   1      42.528  24.199  27.211  1.00  0.00     0.023 A 
ATOM     67  C   UNL A   1      41.778  23.022  27.370  1.00  0.00     0.031 A 
ATOM     68  C   UNL A   1      43.329  24.317  26.061  1.00  0.00     0.131 A 
ATOM     69  C   UNL A   1      41.884  21.990  26.424  1.00  0.00     0.055 A 
ATOM     70  C   UNL A   1      43.384  23.313  25.092  1.00  0.00     0.041 A 
ATOM     71  F   UNL A   1      44.066  25.421  25.857  1.00  0.00    -0.206 F 
ATOM     72  C   UNL A   1      42.670  22.134  25.279  1.00  0.00     0.022 A 
BRANCH  69  73
ATOM     73  S   UNL A   1      41.056  20.412  26.764  1.00  0.00     0.124 S 
ATOM     74  O   UNL A   1      42.017  19.453  26.229  1.00  0.00    -0.237 OA
ATOM     75  O   UNL A   1      40.924  20.446  28.216  1.00  0.00    -0.237 OA
ATOM     76  O   UNL A   1      39.801  20.520  26.022  1.00  0.00    -0.744 OA
ENDBRANCH  69  73
ENDBRANCH  42  66
BRANCH  54  77
ATOM     77  C   UNL A   1      47.087  26.110  32.137  1.00  0.00     0.023 A 
ATOM     78  C   UNL A   1      47.174  25.163  33.172  1.00  0.00     0.031 A 
ATOM     79  C   UNL A   1      48.282  26.518  31.515  1.00  0.00     0.131 A 
ATOM     80  C   UNL A   1      48.431  24.700  33.594  1.00  0.00     0.055 A 
ATOM     81  C   UNL A   1      49.522  26.003  31.892  1.00  0.00     0.041 A 
ATOM     82  F   UNL A   1      48.261  27.422  30.523  1.00  0.00    -0.206 F 
ATOM     83  C   UNL A   1      49.603  25.099  32.946  1.00  0.00     0.022 A 
BRANCH  80  84
ATOM     84  S   UNL A   1      48.522  23.645  35.066  1.00  0.00     0.124 S 
ATOM     85  O   UNL A   1      47.138  23.202  35.208  1.00  0.00    -0.237 OA
ATOM     86  O   UNL A   1      49.479  22.621  34.659  1.00  0.00    -0.237 OA
ATOM     87  O   UNL A   1      48.993  24.552  36.110  1.00  0.00    -0.744 OA
ENDBRANCH  80  84
ENDBRANCH  54  77
ENDBRANCH  28  29
ENDBRANCH  20  23
ENDBRANCH  18  19
ENDBRANCH  17  18
ENDBRANCH   1  17
TORSDOF 17
ENDMDL
MODEL 3
REMARK VINA RESULT:     -10.5      5.530     10.767
REMARK SMILES O=CN1CCC[C@@H](C(=O)NCCCCCCNC(=O)c2ccc(-c3c4nc(c(-c5cc(S(=O)(=O)[O-])ccc5F)c5ccc([nH]5)c(-c5cc(S(=O)(=O)[O-])ccc5F)c5nc(c(-c6cc(S(=O)(=O)[O-])ccc6F)c6ccc3[nH]6)C=C5)C=C4)cc2)C1
REMARK SMILES IDX 14 1 13 2 12 3 11 4 10 5 8 6 9 7 7 9 3 10 4 11 83 12 5 13
REMARK SMILES IDX 6 14 2 15 1 16 15 17 16 18 17 19 18 20 19 22 20 23 21 24
REMARK SMILES IDX 82 25 22 26 81 27 23 28 24 29 25 30 75 31 26 32 80 33 74 34
REMARK SMILES IDX 76 35 27 36 79 37 73 38 72 39 28 41 60 42 40 43 59 44 41 45
REMARK SMILES IDX 44 46 58 47 77 48 42 49 43 50 57 52 78 53 45 54 29 55 30 56
REMARK SMILES IDX 38 57 31 58 37 59 39 60 36 61 32 62 33 63 34 64 35 65 61 66
REMARK SMILES IDX 62 67 70 68 63 69 69 70 71 71 68 72 64 73 65 74 66 75 67 76
REMARK SMILES IDX 46 77 47 78 55 79 48 80 54 81 56 82 53 83 49 84 50 85 51 86
REMARK SMILES IDX 52 87
REMARK H PARENT 10 8 17 21 76 40 44 51
REMARK Flexibility Score: inf
ROOT
ATOM      1  C   UNL A   1      31.527  30.727  26.223  1.00  0.00     0.002 C 
ENDROOT
BRANCH   1   2
ATOM      2  C   UNL A   1      32.287  29.676  27.040  1.00  0.00     0.002 C 
BRANCH   2   3
ATOM      3  C   UNL A   1      31.593  28.314  27.206  1.00  0.00     0.021 C 
BRANCH   3   4
ATOM      4  C   UNL A   1      32.239  27.151  26.446  1.00  0.00     0.116 C 
BRANCH   4   5
ATOM      5  N   UNL A   1      32.430  27.455  25.041  1.00  0.00    -0.356 N 
ATOM      6  C   UNL A   1      31.657  27.798  23.991  1.00  0.00     0.224 C 
ATOM      7  O   UNL A   1      32.278  27.905  22.924  1.00  0.00    -0.275 OA
ATOM      8  H   UNL A   1      33.379  27.398  24.786  1.00  0.00     0.163 HD
BRANCH   6   9
ATOM      9  C   UNL A   1      30.164  28.129  24.017  1.00  0.00     0.098 C 
ATOM     10  N   UNL A   1      28.603  29.899  23.196  1.00  0.00    -0.344 N 
ATOM     11  C   UNL A   1      27.599  28.946  22.768  1.00  0.00     0.119 C 
ATOM     12  C   UNL A   1      29.989  29.439  23.218  1.00  0.00     0.132 C 
ATOM     13  C   UNL A   1      27.710  27.658  23.569  1.00  0.00     0.022 C 
ATOM     14  C   UNL A   1      29.136  27.093  23.557  1.00  0.00     0.017 C 
BRANCH  10  15
ATOM     15  C   UNL A   1      28.294  31.222  23.435  1.00  0.00     0.339 C 
ATOM     16  O   UNL A   1      27.174  31.686  23.598  1.00  0.00    -0.279 OA
ENDBRANCH  10  15
ENDBRANCH   6   9
ENDBRANCH   4   5
ENDBRANCH   3   4
ENDBRANCH   2   3
ENDBRANCH   1   2
BRANCH   1  17
ATOM     17  C   UNL A   1      31.392  32.103  26.876  1.00  0.00     0.021 C 
BRANCH  17  18
ATOM     18  C   UNL A   1      32.664  32.947  26.897  1.00  0.00     0.116 C 
BRANCH  18  19
ATOM     19  N   UNL A   1      32.511  34.183  27.647  1.00  0.00    -0.352 N 
ATOM     20  C   UNL A   1      33.205  34.631  28.748  1.00  0.00     0.251 C 
ATOM     21  H   UNL A   1      31.808  34.790  27.320  1.00  0.00     0.163 HD
ATOM     22  O   UNL A   1      32.823  35.641  29.335  1.00  0.00    -0.269 OA
BRANCH  20  23
ATOM     23  C   UNL A   1      34.383  33.882  29.247  1.00  0.00     0.039 A 
ATOM     24  C   UNL A   1      35.662  34.370  28.966  1.00  0.00     0.014 A 
ATOM     25  C   UNL A   1      34.235  32.705  29.985  1.00  0.00     0.014 A 
ATOM     26  C   UNL A   1      36.786  33.720  29.485  1.00  0.00     0.010 A 
ATOM     27  C   UNL A   1      35.351  32.103  30.567  1.00  0.00     0.010 A 
ATOM     28  C   UNL A   1      36.640  32.603  30.325  1.00  0.00    -0.014 A 
BRANCH  28  29
ATOM     29  C   UNL A   1      37.819  31.951  30.958  1.00  0.00     0.031 A 
ATOM     30  C   UNL A   1      38.602  30.905  30.208  1.00  0.00     0.074 A 
ATOM     31  C   UNL A   1      38.151  32.256  32.229  1.00  0.00     0.049 A 
ATOM     32  N   UNL A   1      39.607  30.172  30.614  1.00  0.00    -0.248 NA
ATOM     33  C   UNL A   1      38.178  30.629  28.827  1.00  0.00     0.031 C 
ATOM     34  C   UNL A   1      37.453  33.227  33.074  1.00  0.00     0.029 A 
ATOM     35  N   UNL A   1      39.155  31.778  33.037  1.00  0.00    -0.354 N 
ATOM     36  C   UNL A   1      39.928  29.341  29.545  1.00  0.00     0.074 A 
ATOM     37  C   UNL A   1      38.969  29.618  28.499  1.00  0.00     0.031 C 
ATOM     38  C   UNL A   1      38.064  33.292  34.268  1.00  0.00     0.029 A 
ATOM     39  C   UNL A   1      39.163  32.332  34.298  1.00  0.00     0.049 A 
ATOM     40  H   UNL A   1      39.806  31.103  32.743  1.00  0.00     0.167 HD
ATOM     41  C   UNL A   1      40.945  28.448  29.439  1.00  0.00     0.034 A 
ATOM     42  C   UNL A   1      39.954  32.086  35.362  1.00  0.00     0.034 A 
ATOM     43  C   UNL A   1      41.900  28.189  30.490  1.00  0.00     0.049 A 
ATOM     44  C   UNL A   1      41.052  31.059  35.232  1.00  0.00     0.074 A 
ATOM     45  C   UNL A   1      42.996  27.344  30.467  1.00  0.00     0.029 A 
ATOM     46  N   UNL A   1      41.871  28.762  31.755  1.00  0.00    -0.354 N 
ATOM     47  N   UNL A   1      41.372  30.316  34.198  1.00  0.00    -0.248 NA
ATOM     48  C   UNL A   1      41.901  30.845  36.410  1.00  0.00     0.031 C 
ATOM     49  C   UNL A   1      43.579  27.345  31.739  1.00  0.00     0.029 A 
ATOM     50  C   UNL A   1      42.906  28.260  32.531  1.00  0.00     0.049 A 
ATOM     51  H   UNL A   1      41.211  29.429  32.057  1.00  0.00     0.167 HD
ATOM     52  C   UNL A   1      42.483  29.575  34.591  1.00  0.00     0.074 A 
ATOM     53  C   UNL A   1      42.784  29.971  35.951  1.00  0.00     0.031 C 
ATOM     54  C   UNL A   1      43.193  28.654  33.891  1.00  0.00     0.034 A 
BRANCH  41  55
ATOM     55  C   UNL A   1      41.055  27.668  28.148  1.00  0.00     0.023 A 
ATOM     56  C   UNL A   1      40.678  26.317  28.066  1.00  0.00     0.031 A 
ATOM     57  C   UNL A   1      41.562  28.280  26.987  1.00  0.00     0.131 A 
ATOM     58  C   UNL A   1      40.888  25.600  26.877  1.00  0.00     0.055 A 
ATOM     59  C   UNL A   1      41.685  27.586  25.782  1.00  0.00     0.041 A 
ATOM     60  F   UNL A   1      41.959  29.561  27.006  1.00  0.00    -0.206 F 
ATOM     61  C   UNL A   1      41.362  26.232  25.726  1.00  0.00     0.022 A 
BRANCH  58  62
ATOM     62  S   UNL A   1      40.678  23.800  26.904  1.00  0.00     0.124 S 
ATOM     63  O   UNL A   1      39.287  23.659  26.477  1.00  0.00    -0.237 OA
ATOM     64  O   UNL A   1      41.688  23.349  25.954  1.00  0.00    -0.237 OA
ATOM     65  O   UNL A   1      40.930  23.446  28.300  1.00  0.00    -0.744 OA
ENDBRANCH  58  62
ENDBRANCH  41  55
BRANCH  42  66
ATOM     66  C   UNL A   1      39.737  32.808  36.650  1.00  0.00     0.023 A 
ATOM     67  C   UNL A   1      38.795  32.353  37.586  1.00  0.00     0.031 A 
ATOM     68  C   UNL A   1      40.436  33.993  36.944  1.00  0.00     0.131 A 
ATOM     69  C   UNL A   1      38.537  33.105  38.744  1.00  0.00     0.055 A 
ATOM     70  C   UNL A   1      40.221  34.705  38.125  1.00  0.00     0.041 A 
ATOM     71  F   UNL A   1      41.350  34.473  36.086  1.00  0.00    -0.206 F 
ATOM     72  C   UNL A   1      39.254  34.268  39.027  1.00  0.00     0.022 A 
BRANCH  69  73
ATOM     73  S   UNL A   1      37.176  32.591  39.828  1.00  0.00     0.124 S 
ATOM     74  O   UNL A   1      36.042  32.614  38.910  1.00  0.00    -0.237 OA
ATOM     75  O   UNL A   1      37.621  31.274  40.268  1.00  0.00    -0.237 OA
ATOM     76  O   UNL A   1      37.161  33.621  40.865  1.00  0.00    -0.744 OA
ENDBRANCH  69  73
ENDBRANCH  42  66
BRANCH  54  77
ATOM     77  C   UNL A   1      44.400  28.051  34.569  1.00  0.00     0.023 A 
ATOM     78  C   UNL A   1      45.672  28.644  34.490  1.00  0.00     0.031 A 
ATOM     79  C   UNL A   1      44.275  26.855  35.299  1.00  0.00     0.131 A 
ATOM     80  C   UNL A   1      46.778  28.011  35.081  1.00  0.00     0.055 A 
ATOM     81  C   UNL A   1      45.365  26.266  35.941  1.00  0.00     0.041 A 
ATOM     82  F   UNL A   1      43.086  26.240  35.404  1.00  0.00    -0.206 F 
ATOM     83  C   UNL A   1      46.627  26.836  35.823  1.00  0.00     0.022 A 
BRANCH  80  84
ATOM     84  S   UNL A   1      48.433  28.690  34.783  1.00  0.00     0.124 S 
ATOM     85  O   UNL A   1      49.198  28.117  35.886  1.00  0.00    -0.237 OA
ATOM     86  O   UNL A   1      48.748  28.174  33.454  1.00  0.00    -0.237 OA
ATOM     87  O   UNL A   1      48.229  30.135  34.854  1.00  0.00    -0.744 OA
ENDBRANCH  80  84
ENDBRANCH  54  77
ENDBRANCH  28  29
ENDBRANCH  20  23
ENDBRANCH  18  19
ENDBRANCH  17  18
ENDBRANCH   1  17
TORSDOF 17
ENDMDL
