MODEL 1
REMARK VINA RESULT:     -11.8      0.000      0.000
REMARK SMILES Cc1ccc(F)c(C(=O)N[C@@H]2C=C[C@@H](C(=O)NCCCCCCNC(=O)c3ccc(-c4c5nc(c(-c6cc(S(=O)(=O)[O-])ccc6F)c6ccc([nH]6)c(-c6cc(S(=O)(=O)[O-])ccc6F)c6nc(c(-c7cc(S(=O)(=O)[O-])ccc7F)c7ccc4[nH]7)C=C6)C=C5)cc3)C2)c1
REMARK SMILES IDX 21 1 20 2 19 3 18 4 17 5 15 6 16 7 14 9 11 10 12 11 90 12
REMARK SMILES IDX 13 13 10 14 8 15 9 16 7 18 1 19 2 20 3 21 91 22 4 23 5 24
REMARK SMILES IDX 6 25 22 26 23 27 24 28 25 29 26 31 27 32 28 33 89 34 29 35
REMARK SMILES IDX 88 36 30 37 31 38 32 39 82 40 33 41 87 42 81 43 83 44 34 45
REMARK SMILES IDX 86 46 80 47 79 48 35 50 67 51 47 52 66 53 48 54 51 55 65 56
REMARK SMILES IDX 84 57 49 58 50 59 64 61 85 62 52 63 36 64 37 65 45 66 38 67
REMARK SMILES IDX 44 68 46 69 43 70 39 71 40 72 41 73 42 74 68 75 69 76 77 77
REMARK SMILES IDX 70 78 76 79 78 80 75 81 71 82 72 83 73 84 74 85 53 86 54 87
REMARK SMILES IDX 62 88 55 89 61 90 63 91 60 92 56 93 57 94 58 95 59 96
REMARK H PARENT 17 8 10 17 24 30 83 49 51 60
REMARK Flexibility Score: inf
ROOT
ATOM      1  C   UNL A   1      33.327  26.485  26.072  1.00  0.00     0.002 C 
ENDROOT
BRANCH   1   2
ATOM      2  C   UNL A   1      32.075  25.602  26.065  1.00  0.00     0.002 C 
BRANCH   2   3
ATOM      3  C   UNL A   1      32.309  24.157  26.519  1.00  0.00     0.021 C 
BRANCH   3   4
ATOM      4  C   UNL A   1      31.335  23.134  25.935  1.00  0.00     0.116 C 
BRANCH   4   5
ATOM      5  N   UNL A   1      31.816  21.772  26.054  1.00  0.00    -0.356 N 
ATOM      6  C   UNL A   1      32.762  21.077  25.366  1.00  0.00     0.227 C 
ATOM      7  O   UNL A   1      33.051  19.958  25.804  1.00  0.00    -0.274 OA
ATOM      8  H   UNL A   1      31.376  21.253  26.766  1.00  0.00     0.163 HD
BRANCH   6   9
ATOM      9  C   UNL A   1      33.395  21.567  24.054  1.00  0.00     0.103 C 
ATOM     10  C   UNL A   1      32.943  23.746  22.989  1.00  0.00     0.106 C 
ATOM     11  C   UNL A   1      34.352  23.636  23.483  1.00  0.00    -0.006 C 
ATOM     12  C   UNL A   1      32.398  22.326  23.183  1.00  0.00     0.047 C 
ATOM     13  C   UNL A   1      34.575  22.480  24.123  1.00  0.00    -0.016 C 
BRANCH  10  14
ATOM     14  N   UNL A   1      32.912  24.249  21.635  1.00  0.00    -0.346 N 
ATOM     15  C   UNL A   1      32.745  25.533  21.153  1.00  0.00     0.254 C 
ATOM     16  O   UNL A   1      32.951  25.737  19.960  1.00  0.00    -0.269 OA
ATOM     17  H   UNL A   1      33.029  23.563  20.940  1.00  0.00     0.164 HD
BRANCH  15  18
ATOM     18  C   UNL A   1      32.245  26.635  22.015  1.00  0.00     0.075 A 
ATOM     19  C   UNL A   1      28.949  28.192  23.087  1.00  0.00     0.044 C 
ATOM     20  C   UNL A   1      30.426  27.960  22.948  1.00  0.00    -0.050 A 
ATOM     21  C   UNL A   1      31.332  28.971  23.277  1.00  0.00     0.006 A 
ATOM     22  C   UNL A   1      30.909  26.751  22.418  1.00  0.00     0.020 A 
ATOM     23  C   UNL A   1      32.690  28.803  23.016  1.00  0.00     0.040 A 
ATOM     24  C   UNL A   1      33.134  27.656  22.361  1.00  0.00     0.135 A 
ATOM     25  F   UNL A   1      34.432  27.596  22.027  1.00  0.00    -0.206 F 
ENDBRANCH  15  18
ENDBRANCH  10  14
ENDBRANCH   6   9
ENDBRANCH   4   5
ENDBRANCH   3   4
ENDBRANCH   2   3
ENDBRANCH   1   2
BRANCH   1  26
ATOM     26  C   UNL A   1      33.117  27.897  26.628  1.00  0.00     0.021 C 
BRANCH  26  27
ATOM     27  C   UNL A   1      34.225  28.887  26.281  1.00  0.00     0.116 C 
BRANCH  27  28
ATOM     28  N   UNL A   1      33.870  30.247  26.655  1.00  0.00    -0.352 N 
ATOM     29  C   UNL A   1      34.421  31.053  27.624  1.00  0.00     0.251 C 
ATOM     30  H   UNL A   1      33.131  30.648  26.142  1.00  0.00     0.163 HD
ATOM     31  O   UNL A   1      33.849  32.082  27.959  1.00  0.00    -0.269 OA
BRANCH  29  32
ATOM     32  C   UNL A   1      35.690  30.653  28.271  1.00  0.00     0.039 A 
ATOM     33  C   UNL A   1      35.651  29.757  29.340  1.00  0.00     0.014 A 
ATOM     34  C   UNL A   1      36.914  31.152  27.815  1.00  0.00     0.014 A 
ATOM     35  C   UNL A   1      36.846  29.303  29.904  1.00  0.00     0.010 A 
ATOM     36  C   UNL A   1      38.105  30.646  28.331  1.00  0.00     0.010 A 
ATOM     37  C   UNL A   1      38.084  29.709  29.376  1.00  0.00    -0.014 A 
BRANCH  37  38
ATOM     38  C   UNL A   1      39.359  29.134  29.881  1.00  0.00     0.031 A 
ATOM     39  C   UNL A   1      40.087  29.783  31.026  1.00  0.00     0.074 A 
ATOM     40  C   UNL A   1      39.892  28.061  29.258  1.00  0.00     0.049 A 
ATOM     41  N   UNL A   1      41.241  29.467  31.556  1.00  0.00    -0.248 NA
ATOM     42  C   UNL A   1      39.446  30.956  31.638  1.00  0.00     0.031 C 
ATOM     43  C   UNL A   1      39.297  27.372  28.110  1.00  0.00     0.029 A 
ATOM     44  N   UNL A   1      41.055  27.370  29.492  1.00  0.00    -0.354 N 
ATOM     45  C   UNL A   1      41.471  30.406  32.556  1.00  0.00     0.074 A 
ATOM     46  C   UNL A   1      40.359  31.333  32.520  1.00  0.00     0.031 C 
ATOM     47  C   UNL A   1      40.086  26.347  27.755  1.00  0.00     0.029 A 
ATOM     48  C   UNL A   1      41.270  26.335  28.609  1.00  0.00     0.049 A 
ATOM     49  H   UNL A   1      41.677  27.593  30.222  1.00  0.00     0.167 HD
ATOM     50  C   UNL A   1      42.504  30.475  33.431  1.00  0.00     0.034 A 
ATOM     51  C   UNL A   1      42.312  25.488  28.483  1.00  0.00     0.034 A 
ATOM     52  C   UNL A   1      43.598  29.534  33.456  1.00  0.00     0.049 A 
ATOM     53  C   UNL A   1      43.466  25.611  29.445  1.00  0.00     0.074 A 
ATOM     54  C   UNL A   1      44.655  29.468  34.348  1.00  0.00     0.029 A 
ATOM     55  N   UNL A   1      43.791  28.508  32.539  1.00  0.00    -0.354 N 
ATOM     56  N   UNL A   1      43.631  26.461  30.434  1.00  0.00    -0.248 NA
ATOM     57  C   UNL A   1      44.573  24.659  29.281  1.00  0.00     0.031 C 
ATOM     58  C   UNL A   1      45.528  28.462  33.920  1.00  0.00     0.029 A 
ATOM     59  C   UNL A   1      44.974  27.839  32.814  1.00  0.00     0.049 A 
ATOM     60  H   UNL A   1      43.177  28.288  31.802  1.00  0.00     0.167 HD
ATOM     61  C   UNL A   1      44.849  26.129  31.020  1.00  0.00     0.074 A 
ATOM     62  C   UNL A   1      45.363  24.986  30.292  1.00  0.00     0.031 C 
ATOM     63  C   UNL A   1      45.487  26.714  32.067  1.00  0.00     0.034 A 
BRANCH  50  64
ATOM     64  C   UNL A   1      42.518  31.622  34.414  1.00  0.00     0.023 A 
ATOM     65  C   UNL A   1      41.755  31.599  35.595  1.00  0.00     0.031 A 
ATOM     66  C   UNL A   1      43.308  32.759  34.165  1.00  0.00     0.131 A 
ATOM     67  C   UNL A   1      41.748  32.714  36.446  1.00  0.00     0.055 A 
ATOM     68  C   UNL A   1      43.360  33.831  35.057  1.00  0.00     0.041 A 
ATOM     69  F   UNL A   1      44.041  32.849  33.044  1.00  0.00    -0.206 F 
ATOM     70  C   UNL A   1      42.567  33.819  36.199  1.00  0.00     0.022 A 
BRANCH  67  71
ATOM     71  S   UNL A   1      40.552  32.757  37.808  1.00  0.00     0.124 S 
ATOM     72  O   UNL A   1      41.339  32.205  38.909  1.00  0.00    -0.237 OA
ATOM     73  O   UNL A   1      40.232  34.177  37.903  1.00  0.00    -0.237 OA
ATOM     74  O   UNL A   1      39.465  31.901  37.339  1.00  0.00    -0.744 OA
ENDBRANCH  67  71
ENDBRANCH  50  64
BRANCH  51  75
ATOM     75  C   UNL A   1      42.335  24.474  27.389  1.00  0.00     0.023 A 
ATOM     76  C   UNL A   1      41.640  23.261  27.507  1.00  0.00     0.031 A 
ATOM     77  C   UNL A   1      43.102  24.681  26.227  1.00  0.00     0.131 A 
ATOM     78  C   UNL A   1      41.763  22.281  26.508  1.00  0.00     0.055 A 
ATOM     79  C   UNL A   1      43.171  23.730  25.207  1.00  0.00     0.041 A 
ATOM     80  F   UNL A   1      43.789  25.823  26.060  1.00  0.00    -0.206 F 
ATOM     81  C   UNL A   1      42.512  22.515  25.352  1.00  0.00     0.022 A 
BRANCH  78  82
ATOM     82  S   UNL A   1      41.015  20.653  26.790  1.00  0.00     0.124 S 
ATOM     83  O   UNL A   1      39.778  20.760  26.026  1.00  0.00    -0.237 OA
ATOM     84  O   UNL A   1      42.030  19.757  26.249  1.00  0.00    -0.237 OA
ATOM     85  O   UNL A   1      40.851  20.603  28.242  1.00  0.00    -0.744 OA
ENDBRANCH  78  82
ENDBRANCH  51  75
BRANCH  63  86
ATOM     86  C   UNL A   1      46.800  26.105  32.499  1.00  0.00     0.023 A 
ATOM     87  C   UNL A   1      46.857  25.078  33.456  1.00  0.00     0.031 A 
ATOM     88  C   UNL A   1      48.010  26.564  31.949  1.00  0.00     0.131 A 
ATOM     89  C   UNL A   1      48.099  24.581  33.877  1.00  0.00     0.055 A 
ATOM     90  C   UNL A   1      49.240  26.018  32.322  1.00  0.00     0.041 A 
ATOM     91  F   UNL A   1      48.018  27.547  31.035  1.00  0.00    -0.206 F 
ATOM     92  C   UNL A   1      49.290  25.031  33.300  1.00  0.00     0.022 A 
BRANCH  89  93
ATOM     93  S   UNL A   1      48.146  23.405  35.257  1.00  0.00     0.124 S 
ATOM     94  O   UNL A   1      46.761  22.945  35.309  1.00  0.00    -0.237 OA
ATOM     95  O   UNL A   1      49.126  22.427  34.802  1.00  0.00    -0.237 OA
ATOM     96  O   UNL A   1      48.569  24.225  36.391  1.00  0.00    -0.744 OA
ENDBRANCH  89  93
ENDBRANCH  63  86
ENDBRANCH  37  38
ENDBRANCH  29  32
ENDBRANCH  27  28
ENDBRANCH  26  27
ENDBRANCH   1  26
TORSDOF 18
ENDMDL
MODEL 2
REMARK VINA RESULT:     -11.6      1.710      2.027
REMARK SMILES Cc1ccc(F)c(C(=O)N[C@@H]2C=C[C@@H](C(=O)NCCCCCCNC(=O)c3ccc(-c4c5nc(c(-c6cc(S(=O)(=O)[O-])ccc6F)c6ccc([nH]6)c(-c6cc(S(=O)(=O)[O-])ccc6F)c6nc(c(-c7cc(S(=O)(=O)[O-])ccc7F)c7ccc4[nH]7)C=C6)C=C5)cc3)C2)c1
REMARK SMILES IDX 21 1 20 2 19 3 18 4 17 5 15 6 16 7 14 9 11 10 12 11 90 12
REMARK SMILES IDX 13 13 10 14 8 15 9 16 7 18 1 19 2 20 3 21 91 22 4 23 5 24
REMARK SMILES IDX 6 25 22 26 23 27 24 28 25 29 26 31 27 32 28 33 89 34 29 35
REMARK SMILES IDX 88 36 30 37 31 38 32 39 82 40 33 41 87 42 81 43 83 44 34 45
REMARK SMILES IDX 86 46 80 47 79 48 35 50 67 51 47 52 66 53 48 54 51 55 65 56
REMARK SMILES IDX 84 57 49 58 50 59 64 61 85 62 52 63 36 64 37 65 45 66 38 67
REMARK SMILES IDX 44 68 46 69 43 70 39 71 40 72 41 73 42 74 68 75 69 76 77 77
REMARK SMILES IDX 70 78 76 79 78 80 75 81 71 82 72 83 73 84 74 85 53 86 54 87
REMARK SMILES IDX 62 88 55 89 61 90 63 91 60 92 56 93 57 94 58 95 59 96
REMARK H PARENT 17 8 10 17 24 30 83 49 51 60
REMARK Flexibility Score: inf
ROOT
ATOM      1  C   UNL A   1      33.233  26.287  26.081  1.00  0.00     0.002 C 
ENDROOT
BRANCH   1   2
ATOM      2  C   UNL A   1      31.907  25.545  25.890  1.00  0.00     0.002 C 
BRANCH   2   3
ATOM      3  C   UNL A   1      31.842  24.167  26.559  1.00  0.00     0.021 C 
BRANCH   3   4
ATOM      4  C   UNL A   1      31.036  23.119  25.792  1.00  0.00     0.116 C 
BRANCH   4   5
ATOM      5  N   UNL A   1      31.550  21.775  25.974  1.00  0.00    -0.356 N 
ATOM      6  C   UNL A   1      32.536  21.085  25.341  1.00  0.00     0.227 C 
ATOM      7  O   UNL A   1      32.841  19.989  25.827  1.00  0.00    -0.274 OA
ATOM      8  H   UNL A   1      31.102  21.269  26.690  1.00  0.00     0.163 HD
BRANCH   6   9
ATOM      9  C   UNL A   1      33.197  21.546  24.033  1.00  0.00     0.103 C 
ATOM     10  C   UNL A   1      32.874  23.756  22.985  1.00  0.00     0.106 C 
ATOM     11  C   UNL A   1      34.274  23.561  23.478  1.00  0.00    -0.006 C 
ATOM     12  C   UNL A   1      32.247  22.369  23.168  1.00  0.00     0.047 C 
ATOM     13  C   UNL A   1      34.428  22.389  24.109  1.00  0.00    -0.016 C 
BRANCH  10  14
ATOM     14  N   UNL A   1      32.873  24.271  21.635  1.00  0.00    -0.346 N 
ATOM     15  C   UNL A   1      32.718  25.558  21.160  1.00  0.00     0.254 C 
ATOM     16  O   UNL A   1      32.950  25.773  19.973  1.00  0.00    -0.269 OA
ATOM     17  H   UNL A   1      33.005  23.590  20.936  1.00  0.00     0.164 HD
BRANCH  15  18
ATOM     18  C   UNL A   1      32.199  26.654  22.019  1.00  0.00     0.075 A 
ATOM     19  C   UNL A   1      28.878  28.167  23.077  1.00  0.00     0.044 C 
ATOM     20  C   UNL A   1      30.358  27.954  22.944  1.00  0.00    -0.050 A 
ATOM     21  C   UNL A   1      31.249  28.977  23.278  1.00  0.00     0.006 A 
ATOM     22  C   UNL A   1      30.860  26.752  22.416  1.00  0.00     0.020 A 
ATOM     23  C   UNL A   1      32.610  28.827  23.022  1.00  0.00     0.040 A 
ATOM     24  C   UNL A   1      33.073  27.687  22.369  1.00  0.00     0.135 A 
ATOM     25  F   UNL A   1      34.373  27.644  22.040  1.00  0.00    -0.206 F 
ENDBRANCH  15  18
ENDBRANCH  10  14
ENDBRANCH   6   9
ENDBRANCH   4   5
ENDBRANCH   3   4
ENDBRANCH   2   3
ENDBRANCH   1   2
BRANCH   1  26
ATOM     26  C   UNL A   1      33.101  27.721  26.602  1.00  0.00     0.021 C 
BRANCH  26  27
ATOM     27  C   UNL A   1      34.243  28.651  26.201  1.00  0.00     0.116 C 
BRANCH  27  28
ATOM     28  N   UNL A   1      33.944  30.039  26.513  1.00  0.00    -0.352 N 
ATOM     29  C   UNL A   1      34.525  30.863  27.448  1.00  0.00     0.251 C 
ATOM     30  H   UNL A   1      33.223  30.447  25.979  1.00  0.00     0.163 HD
ATOM     31  O   UNL A   1      33.995  31.929  27.735  1.00  0.00    -0.269 OA
BRANCH  29  32
ATOM     32  C   UNL A   1      35.775  30.439  28.118  1.00  0.00     0.039 A 
ATOM     33  C   UNL A   1      35.693  29.687  29.290  1.00  0.00     0.014 A 
ATOM     34  C   UNL A   1      37.023  30.774  27.581  1.00  0.00     0.014 A 
ATOM     35  C   UNL A   1      36.862  29.207  29.885  1.00  0.00     0.010 A 
ATOM     36  C   UNL A   1      38.182  30.237  28.136  1.00  0.00     0.010 A 
ATOM     37  C   UNL A   1      38.113  29.440  29.289  1.00  0.00    -0.014 A 
BRANCH  37  38
ATOM     38  C   UNL A   1      39.351  28.824  29.839  1.00  0.00     0.031 A 
ATOM     39  C   UNL A   1      40.017  29.409  31.055  1.00  0.00     0.074 A 
ATOM     40  C   UNL A   1      39.909  27.776  29.198  1.00  0.00     0.049 A 
ATOM     41  N   UNL A   1      41.134  29.054  31.635  1.00  0.00    -0.248 NA
ATOM     42  C   UNL A   1      39.353  30.560  31.684  1.00  0.00     0.031 C 
ATOM     43  C   UNL A   1      39.376  27.150  27.986  1.00  0.00     0.029 A 
ATOM     44  N   UNL A   1      41.050  27.060  29.465  1.00  0.00    -0.354 N 
ATOM     45  C   UNL A   1      41.314  29.941  32.691  1.00  0.00     0.074 A 
ATOM     46  C   UNL A   1      40.216  30.883  32.635  1.00  0.00     0.031 C 
ATOM     47  C   UNL A   1      40.175  26.132  27.628  1.00  0.00     0.029 A 
ATOM     48  C   UNL A   1      41.306  26.065  28.548  1.00  0.00     0.049 A 
ATOM     49  H   UNL A   1      41.629  27.240  30.241  1.00  0.00     0.167 HD
ATOM     50  C   UNL A   1      42.294  29.956  33.628  1.00  0.00     0.034 A 
ATOM     51  C   UNL A   1      42.345  25.212  28.443  1.00  0.00     0.034 A 
ATOM     52  C   UNL A   1      43.376  29.001  33.670  1.00  0.00     0.049 A 
ATOM     53  C   UNL A   1      43.442  25.275  29.475  1.00  0.00     0.074 A 
ATOM     54  C   UNL A   1      44.377  28.879  34.619  1.00  0.00     0.029 A 
ATOM     55  N   UNL A   1      43.612  28.017  32.719  1.00  0.00    -0.354 N 
ATOM     56  N   UNL A   1      43.556  26.075  30.511  1.00  0.00    -0.248 NA
ATOM     57  C   UNL A   1      44.546  24.318  29.330  1.00  0.00     0.031 C 
ATOM     58  C   UNL A   1      45.265  27.884  34.195  1.00  0.00     0.029 A 
ATOM     59  C   UNL A   1      44.771  27.321  33.029  1.00  0.00     0.049 A 
ATOM     60  H   UNL A   1      43.041  27.840  31.937  1.00  0.00     0.167 HD
ATOM     61  C   UNL A   1      44.734  25.699  31.151  1.00  0.00     0.074 A 
ATOM     62  C   UNL A   1      45.279  24.587  30.401  1.00  0.00     0.031 C 
ATOM     63  C   UNL A   1      45.315  26.226  32.260  1.00  0.00     0.034 A 
BRANCH  50  64
ATOM     64  C   UNL A   1      42.262  31.055  34.663  1.00  0.00     0.023 A 
ATOM     65  C   UNL A   1      42.875  32.301  34.445  1.00  0.00     0.031 A 
ATOM     66  C   UNL A   1      41.605  30.853  35.891  1.00  0.00     0.131 A 
ATOM     67  C   UNL A   1      42.876  33.270  35.460  1.00  0.00     0.055 A 
ATOM     68  C   UNL A   1      41.539  31.850  36.865  1.00  0.00     0.041 A 
ATOM     69  F   UNL A   1      41.020  29.677  36.167  1.00  0.00    -0.206 F 
ATOM     70  C   UNL A   1      42.188  33.063  36.658  1.00  0.00     0.022 A 
BRANCH  67  71
ATOM     71  S   UNL A   1      43.902  34.749  35.246  1.00  0.00     0.124 S 
ATOM     72  O   UNL A   1      45.249  34.183  35.292  1.00  0.00    -0.237 OA
ATOM     73  O   UNL A   1      43.466  35.252  33.949  1.00  0.00    -0.237 OA
ATOM     74  O   UNL A   1      43.546  35.583  36.392  1.00  0.00    -0.744 OA
ENDBRANCH  67  71
ENDBRANCH  50  64
BRANCH  51  75
ATOM     75  C   UNL A   1      42.423  24.250  27.304  1.00  0.00     0.023 A 
ATOM     76  C   UNL A   1      41.711  23.041  27.324  1.00  0.00     0.031 A 
ATOM     77  C   UNL A   1      43.256  24.504  26.199  1.00  0.00     0.131 A 
ATOM     78  C   UNL A   1      41.884  22.109  26.288  1.00  0.00     0.055 A 
ATOM     79  C   UNL A   1      43.376  23.602  25.141  1.00  0.00     0.041 A 
ATOM     80  F   UNL A   1      43.961  25.645  26.126  1.00  0.00    -0.206 F 
ATOM     81  C   UNL A   1      42.699  22.389  25.189  1.00  0.00     0.022 A 
BRANCH  78  82
ATOM     82  S   UNL A   1      41.108  20.478  26.449  1.00  0.00     0.124 S 
ATOM     83  O   UNL A   1      41.299  20.198  27.867  1.00  0.00    -0.237 OA
ATOM     84  O   UNL A   1      39.739  20.752  26.027  1.00  0.00    -0.237 OA
ATOM     85  O   UNL A   1      41.884  19.641  25.536  1.00  0.00    -0.744 OA
ENDBRANCH  78  82
ENDBRANCH  51  75
BRANCH  63  86
ATOM     86  C   UNL A   1      46.594  25.581  32.738  1.00  0.00     0.023 A 
ATOM     87  C   UNL A   1      47.821  25.807  32.090  1.00  0.00     0.031 A 
ATOM     88  C   UNL A   1      46.584  24.725  33.854  1.00  0.00     0.131 A 
ATOM     89  C   UNL A   1      48.976  25.141  32.527  1.00  0.00     0.055 A 
ATOM     90  C   UNL A   1      47.749  24.118  34.325  1.00  0.00     0.041 A 
ATOM     91  F   UNL A   1      45.441  24.467  34.508  1.00  0.00    -0.206 F 
ATOM     92  C   UNL A   1      48.952  24.315  33.653  1.00  0.00     0.022 A 
BRANCH  89  93
ATOM     93  S   UNL A   1      50.494  25.295  31.546  1.00  0.00     0.124 S 
ATOM     94  O   UNL A   1      51.178  26.395  32.219  1.00  0.00    -0.237 OA
ATOM     95  O   UNL A   1      51.100  23.978  31.699  1.00  0.00    -0.237 OA
ATOM     96  O   UNL A   1      50.004  25.599  30.203  1.00  0.00    -0.744 OA
ENDBRANCH  89  93
ENDBRANCH  63  86
ENDBRANCH  37  38
ENDBRANCH  29  32
ENDBRANCH  27  28
ENDBRANCH  26  27
ENDBRANCH   1  26
TORSDOF 18
ENDMDL
MODEL 3
REMARK VINA RESULT:     -11.5      1.554      7.492
REMARK SMILES Cc1ccc(F)c(C(=O)N[C@@H]2C=C[C@@H](C(=O)NCCCCCCNC(=O)c3ccc(-c4c5nc(c(-c6cc(S(=O)(=O)[O-])ccc6F)c6ccc([nH]6)c(-c6cc(S(=O)(=O)[O-])ccc6F)c6nc(c(-c7cc(S(=O)(=O)[O-])ccc7F)c7ccc4[nH]7)C=C6)C=C5)cc3)C2)c1
REMARK SMILES IDX 21 1 20 2 19 3 18 4 17 5 15 6 16 7 14 9 11 10 12 11 90 12
REMARK SMILES IDX 13 13 10 14 8 15 9 16 7 18 1 19 2 20 3 21 91 22 4 23 5 24
REMARK SMILES IDX 6 25 22 26 23 27 24 28 25 29 26 31 27 32 28 33 89 34 29 35
REMARK SMILES IDX 88 36 30 37 31 38 32 39 82 40 33 41 87 42 81 43 83 44 34 45
REMARK SMILES IDX 86 46 80 47 79 48 35 50 67 51 47 52 66 53 48 54 51 55 65 56
REMARK SMILES IDX 84 57 49 58 50 59 64 61 85 62 52 63 36 64 37 65 45 66 38 67
REMARK SMILES IDX 44 68 46 69 43 70 39 71 40 72 41 73 42 74 68 75 69 76 77 77
REMARK SMILES IDX 70 78 76 79 78 80 75 81 71 82 72 83 73 84 74 85 53 86 54 87
REMARK SMILES IDX 62 88 55 89 61 90 63 91 60 92 56 93 57 94 58 95 59 96
REMARK H PARENT 17 8 10 17 24 30 83 49 51 60
REMARK Flexibility Score: inf
ROOT
ATOM      1  C   UNL A   1      32.952  26.357  25.965  1.00  0.00     0.002 C 
ENDROOT
BRANCH   1   2
ATOM      2  C   UNL A   1      31.760  25.428  26.212  1.00  0.00     0.002 C 
BRANCH   2   3
ATOM      3  C   UNL A   1      32.131  23.961  26.455  1.00  0.00     0.021 C 
BRANCH   3   4
ATOM      4  C   UNL A   1      31.173  22.945  25.833  1.00  0.00     0.116 C 
BRANCH   4   5
ATOM      5  N   UNL A   1      31.649  21.581  25.954  1.00  0.00    -0.356 N 
ATOM      6  C   UNL A   1      32.615  20.892  25.289  1.00  0.00     0.227 C 
ATOM      7  O   UNL A   1      32.889  19.767  25.725  1.00  0.00    -0.274 OA
ATOM      8  H   UNL A   1      31.187  21.056  26.647  1.00  0.00     0.163 HD
BRANCH   6   9
ATOM      9  C   UNL A   1      33.288  21.392  24.002  1.00  0.00     0.103 C 
ATOM     10  C   UNL A   1      32.919  23.607  22.978  1.00  0.00     0.106 C 
ATOM     11  C   UNL A   1      34.314  23.447  23.499  1.00  0.00    -0.006 C 
ATOM     12  C   UNL A   1      32.332  22.198  23.128  1.00  0.00     0.047 C 
ATOM     13  C   UNL A   1      34.491  22.271  24.116  1.00  0.00    -0.016 C 
BRANCH  10  14
ATOM     14  N   UNL A   1      32.930  24.141  21.636  1.00  0.00    -0.346 N 
ATOM     15  C   UNL A   1      32.751  25.431  21.176  1.00  0.00     0.254 C 
ATOM     16  O   UNL A   1      33.001  25.668  19.997  1.00  0.00    -0.269 OA
ATOM     17  H   UNL A   1      33.093  23.474  20.931  1.00  0.00     0.164 HD
BRANCH  15  18
ATOM     18  C   UNL A   1      32.187  26.500  22.041  1.00  0.00     0.075 A 
ATOM     19  C   UNL A   1      28.839  27.601  23.458  1.00  0.00     0.044 C 
ATOM     20  C   UNL A   1      30.306  27.590  23.138  1.00  0.00    -0.050 A 
ATOM     21  C   UNL A   1      31.070  28.749  23.296  1.00  0.00     0.006 A 
ATOM     22  C   UNL A   1      30.910  26.436  22.610  1.00  0.00     0.020 A 
ATOM     23  C   UNL A   1      32.395  28.774  22.868  1.00  0.00     0.040 A 
ATOM     24  C   UNL A   1      32.936  27.667  22.216  1.00  0.00     0.135 A 
ATOM     25  F   UNL A   1      34.175  27.785  21.718  1.00  0.00    -0.206 F 
ENDBRANCH  15  18
ENDBRANCH  10  14
ENDBRANCH   6   9
ENDBRANCH   4   5
ENDBRANCH   3   4
ENDBRANCH   2   3
ENDBRANCH   1   2
BRANCH   1  26
ATOM     26  C   UNL A   1      32.806  27.764  26.552  1.00  0.00     0.021 C 
BRANCH  26  27
ATOM     27  C   UNL A   1      33.793  28.789  25.999  1.00  0.00     0.116 C 
BRANCH  27  28
ATOM     28  N   UNL A   1      33.300  30.149  26.148  1.00  0.00    -0.352 N 
ATOM     29  C   UNL A   1      33.676  31.114  27.053  1.00  0.00     0.251 C 
ATOM     30  H   UNL A   1      32.598  30.417  25.512  1.00  0.00     0.163 HD
ATOM     31  O   UNL A   1      32.996  32.124  27.186  1.00  0.00    -0.269 OA
BRANCH  29  32
ATOM     32  C   UNL A   1      34.889  30.910  27.877  1.00  0.00     0.039 A 
ATOM     33  C   UNL A   1      34.969  29.781  28.694  1.00  0.00     0.014 A 
ATOM     34  C   UNL A   1      35.946  31.824  27.832  1.00  0.00     0.014 A 
ATOM     35  C   UNL A   1      36.142  29.530  29.410  1.00  0.00     0.010 A 
ATOM     36  C   UNL A   1      37.139  31.536  28.491  1.00  0.00     0.010 A 
ATOM     37  C   UNL A   1      37.253  30.381  29.280  1.00  0.00    -0.014 A 
BRANCH  37  38
ATOM     38  C   UNL A   1      38.549  30.055  29.933  1.00  0.00     0.031 A 
ATOM     39  C   UNL A   1      39.492  29.066  29.304  1.00  0.00     0.074 A 
ATOM     40  C   UNL A   1      38.842  30.604  31.131  1.00  0.00     0.049 A 
ATOM     41  N   UNL A   1      40.629  28.606  29.758  1.00  0.00    -0.248 NA
ATOM     42  C   UNL A   1      39.090  28.502  28.007  1.00  0.00     0.031 C 
ATOM     43  C   UNL A   1      37.985  31.544  31.858  1.00  0.00     0.029 A 
ATOM     44  N   UNL A   1      39.930  30.445  31.953  1.00  0.00    -0.354 N 
ATOM     45  C   UNL A   1      41.076  27.692  28.809  1.00  0.00     0.074 A 
ATOM     46  C   UNL A   1      40.058  27.626  27.782  1.00  0.00     0.031 C 
ATOM     47  C   UNL A   1      38.589  31.893  33.005  1.00  0.00     0.029 A 
ATOM     48  C   UNL A   1      39.847  31.163  33.125  1.00  0.00     0.049 A 
ATOM     49  H   UNL A   1      40.697  29.871  31.726  1.00  0.00     0.167 HD
ATOM     50  C   UNL A   1      42.235  26.988  28.792  1.00  0.00     0.034 A 
ATOM     51  C   UNL A   1      40.676  31.211  34.188  1.00  0.00     0.034 A 
ATOM     52  C   UNL A   1      43.241  27.075  29.823  1.00  0.00     0.049 A 
ATOM     53  C   UNL A   1      41.940  30.389  34.160  1.00  0.00     0.074 A 
ATOM     54  C   UNL A   1      44.483  26.464  29.864  1.00  0.00     0.029 A 
ATOM     55  N   UNL A   1      43.119  27.801  31.001  1.00  0.00    -0.354 N 
ATOM     56  N   UNL A   1      42.381  29.586  33.218  1.00  0.00    -0.248 NA
ATOM     57  C   UNL A   1      42.820  30.483  35.332  1.00  0.00     0.031 C 
ATOM     58  C   UNL A   1      45.071  26.749  31.102  1.00  0.00     0.029 A 
ATOM     59  C   UNL A   1      44.238  27.611  31.797  1.00  0.00     0.049 A 
ATOM     60  H   UNL A   1      42.349  28.367  31.236  1.00  0.00     0.167 HD
ATOM     61  C   UNL A   1      43.601  29.098  33.679  1.00  0.00     0.074 A 
ATOM     62  C   UNL A   1      43.837  29.717  34.967  1.00  0.00     0.031 C 
ATOM     63  C   UNL A   1      44.452  28.218  33.091  1.00  0.00     0.034 A 
BRANCH  50  64
ATOM     64  C   UNL A   1      42.464  26.039  27.639  1.00  0.00     0.023 A 
ATOM     65  C   UNL A   1      41.987  24.716  27.659  1.00  0.00     0.031 A 
ATOM     66  C   UNL A   1      43.171  26.465  26.500  1.00  0.00     0.131 A 
ATOM     67  C   UNL A   1      42.279  23.850  26.595  1.00  0.00     0.055 A 
ATOM     68  C   UNL A   1      43.388  25.622  25.409  1.00  0.00     0.041 A 
ATOM     69  F   UNL A   1      43.670  27.709  26.432  1.00  0.00    -0.206 F 
ATOM     70  C   UNL A   1      42.952  24.302  25.457  1.00  0.00     0.022 A 
BRANCH  67  71
ATOM     71  S   UNL A   1      41.884  22.090  26.776  1.00  0.00     0.124 S 
ATOM     72  O   UNL A   1      42.594  21.754  28.009  1.00  0.00    -0.237 OA
ATOM     73  O   UNL A   1      40.429  22.099  26.861  1.00  0.00    -0.237 OA
ATOM     74  O   UNL A   1      42.436  21.487  25.565  1.00  0.00    -0.744 OA
ENDBRANCH  67  71
ENDBRANCH  50  64
BRANCH  51  75
ATOM     75  C   UNL A   1      40.329  32.035  35.383  1.00  0.00     0.023 A 
ATOM     76  C   UNL A   1      39.361  31.608  36.305  1.00  0.00     0.031 A 
ATOM     77  C   UNL A   1      40.924  33.294  35.591  1.00  0.00     0.131 A 
ATOM     78  C   UNL A   1      38.979  32.450  37.361  1.00  0.00     0.055 A 
ATOM     79  C   UNL A   1      40.586  34.100  36.679  1.00  0.00     0.041 A 
ATOM     80  F   UNL A   1      41.856  33.754  34.741  1.00  0.00    -0.206 F 
ATOM     81  C   UNL A   1      39.597  33.686  37.563  1.00  0.00     0.022 A 
BRANCH  78  82
ATOM     82  S   UNL A   1      37.586  31.951  38.410  1.00  0.00     0.124 S 
ATOM     83  O   UNL A   1      37.299  30.614  37.904  1.00  0.00    -0.237 OA
ATOM     84  O   UNL A   1      38.172  32.022  39.744  1.00  0.00    -0.237 OA
ATOM     85  O   UNL A   1      36.567  32.959  38.124  1.00  0.00    -0.744 OA
ENDBRANCH  78  82
ENDBRANCH  51  75
BRANCH  63  86
ATOM     86  C   UNL A   1      45.729  27.897  33.830  1.00  0.00     0.023 A 
ATOM     87  C   UNL A   1      45.814  26.810  34.717  1.00  0.00     0.031 A 
ATOM     88  C   UNL A   1      46.874  28.693  33.649  1.00  0.00     0.131 A 
ATOM     89  C   UNL A   1      46.999  26.581  35.432  1.00  0.00     0.055 A 
ATOM     90  C   UNL A   1      48.071  28.420  34.312  1.00  0.00     0.041 A 
ATOM     91  F   UNL A   1      46.849  29.748  32.820  1.00  0.00    -0.206 F 
ATOM     92  C   UNL A   1      48.134  27.367  35.219  1.00  0.00     0.022 A 
BRANCH  89  93
ATOM     93  S   UNL A   1      47.009  25.299  36.715  1.00  0.00     0.124 S 
ATOM     94  O   UNL A   1      47.339  24.103  35.946  1.00  0.00    -0.237 OA
ATOM     95  O   UNL A   1      48.043  25.776  37.626  1.00  0.00    -0.237 OA
ATOM     96  O   UNL A   1      45.648  25.337  37.248  1.00  0.00    -0.744 OA
ENDBRANCH  89  93
ENDBRANCH  63  86
ENDBRANCH  37  38
ENDBRANCH  29  32
ENDBRANCH  27  28
ENDBRANCH  26  27
ENDBRANCH   1  26
TORSDOF 18
ENDMDL
