MODEL 1
REMARK VINA RESULT:     -11.9      0.000      0.000
REMARK SMILES O=C(NCCCCCCNC(=O)c1ccc(S(=O)(=O)NC[C@H]2CCS(=O)(=O)C2)cc1)c1ccc(-c2c3nc(c(-c4cc(S(=O)(=O)[O-])ccc4F)c4ccc([nH]4)c(-c4cc(S(=O)(=O)[O-])ccc4F)c4nc(c(-c5cc(S(=O)(=O)[O-])ccc5F)c5ccc2[nH]5)C=C4)C=C3)cc1
REMARK SMILES IDX 7 1 6 2 5 3 4 4 3 5 1 6 2 7 31 9 32 10 93 11 33 12 92 13
REMARK SMILES IDX 34 14 35 15 36 16 86 17 37 18 91 19 85 20 87 21 38 22 90 23
REMARK SMILES IDX 84 24 83 25 39 27 71 28 51 29 70 30 52 31 55 32 69 33 88 34
REMARK SMILES IDX 53 35 54 36 68 38 89 39 56 40 40 41 41 42 49 43 42 44 48 45
REMARK SMILES IDX 50 46 47 47 43 48 44 49 45 50 46 51 72 52 73 53 81 54 74 55
REMARK SMILES IDX 80 56 82 57 79 58 75 59 76 60 77 61 78 62 57 63 58 64 66 65
REMARK SMILES IDX 59 66 65 67 67 68 64 69 60 70 61 71 62 72 63 73 8 74 9 75
REMARK SMILES IDX 10 76 11 77 12 79 13 80 14 81 30 82 15 83 29 84 16 85 17 86
REMARK SMILES IDX 18 87 19 88 20 89 21 91 22 92 23 93 28 94 24 95 25 96 26 97
REMARK SMILES IDX 27 98
REMARK H PARENT 3 8 87 26 55 37 10 78 20 90
REMARK Flexibility Score: inf
ROOT
ATOM      1  C   UNL A   1      32.829  29.825  26.025  1.00  0.00     0.002 C 
ENDROOT
BRANCH   1   2
ATOM      2  C   UNL A   1      31.439  30.464  26.046  1.00  0.00     0.002 C 
BRANCH   2   3
ATOM      3  C   UNL A   1      31.383  31.934  26.466  1.00  0.00     0.021 C 
BRANCH   3   4
ATOM      4  C   UNL A   1      32.595  32.441  27.236  1.00  0.00     0.116 C 
BRANCH   4   5
ATOM      5  N   UNL A   1      32.490  33.845  27.593  1.00  0.00    -0.352 N 
ATOM      6  O   UNL A   1      32.885  35.704  28.806  1.00  0.00    -0.269 OA
ATOM      7  C   UNL A   1      33.200  34.549  28.537  1.00  0.00     0.251 C 
ATOM      8  H   UNL A   1      31.818  34.363  27.093  1.00  0.00     0.163 HD
BRANCH   7   9
ATOM      9  C   UNL A   1      34.331  33.900  29.239  1.00  0.00     0.039 A 
ATOM     10  C   UNL A   1      35.651  34.205  28.898  1.00  0.00     0.014 A 
ATOM     11  C   UNL A   1      34.064  32.978  30.256  1.00  0.00     0.014 A 
ATOM     12  C   UNL A   1      36.697  33.501  29.484  1.00  0.00     0.010 A 
ATOM     13  C   UNL A   1      35.122  32.331  30.903  1.00  0.00     0.010 A 
ATOM     14  C   UNL A   1      36.447  32.571  30.508  1.00  0.00    -0.014 A 
BRANCH  14  15
ATOM     15  C   UNL A   1      37.596  31.931  31.199  1.00  0.00     0.031 A 
ATOM     16  C   UNL A   1      38.381  30.825  30.551  1.00  0.00     0.074 A 
ATOM     17  C   UNL A   1      37.944  32.390  32.418  1.00  0.00     0.049 A 
ATOM     18  N   UNL A   1      39.424  30.180  31.009  1.00  0.00    -0.248 NA
ATOM     19  C   UNL A   1      37.937  30.383  29.221  1.00  0.00     0.031 C 
ATOM     20  C   UNL A   1      37.244  33.454  33.145  1.00  0.00     0.029 A 
ATOM     21  N   UNL A   1      38.974  32.044  33.253  1.00  0.00    -0.354 N 
ATOM     22  C   UNL A   1      39.758  29.248  30.032  1.00  0.00     0.074 A 
ATOM     23  C   UNL A   1      38.784  29.393  28.969  1.00  0.00     0.031 C 
ATOM     24  C   UNL A   1      37.892  33.704  34.291  1.00  0.00     0.029 A 
ATOM     25  C   UNL A   1      39.009  32.777  34.416  1.00  0.00     0.049 A 
ATOM     26  H   UNL A   1      39.628  31.339  33.040  1.00  0.00     0.167 HD
ATOM     27  C   UNL A   1      40.787  28.362  30.022  1.00  0.00     0.034 A 
ATOM     28  C   UNL A   1      39.833  32.698  35.478  1.00  0.00     0.034 A 
ATOM     29  C   UNL A   1      41.745  28.229  31.096  1.00  0.00     0.049 A 
ATOM     30  C   UNL A   1      40.940  31.681  35.457  1.00  0.00     0.074 A 
ATOM     31  C   UNL A   1      42.836  27.380  31.179  1.00  0.00     0.029 A 
ATOM     32  N   UNL A   1      41.723  28.957  32.279  1.00  0.00    -0.354 N 
ATOM     33  N   UNL A   1      41.251  30.820  34.514  1.00  0.00    -0.248 NA
ATOM     34  C   UNL A   1      41.807  31.625  36.639  1.00  0.00     0.031 C 
ATOM     35  C   UNL A   1      43.434  27.550  32.433  1.00  0.00     0.029 A 
ATOM     36  C   UNL A   1      42.762  28.556  33.108  1.00  0.00     0.049 A 
ATOM     37  H   UNL A   1      41.066  29.657  32.499  1.00  0.00     0.167 HD
ATOM     38  C   UNL A   1      42.361  30.129  34.987  1.00  0.00     0.074 A 
ATOM     39  C   UNL A   1      42.682  30.697  36.282  1.00  0.00     0.031 C 
ATOM     40  C   UNL A   1      43.052  29.115  34.408  1.00  0.00     0.034 A 
BRANCH  27  41
ATOM     41  C   UNL A   1      40.905  27.441  28.832  1.00  0.00     0.023 A 
ATOM     42  C   UNL A   1      41.871  27.645  27.830  1.00  0.00     0.031 A 
ATOM     43  C   UNL A   1      40.039  26.341  28.695  1.00  0.00     0.131 A 
ATOM     44  C   UNL A   1      41.912  26.798  26.711  1.00  0.00     0.055 A 
ATOM     45  C   UNL A   1      40.129  25.461  27.615  1.00  0.00     0.041 A 
ATOM     46  F   UNL A   1      39.084  26.106  29.609  1.00  0.00    -0.206 F 
ATOM     47  C   UNL A   1      41.064  25.693  26.609  1.00  0.00     0.022 A 
BRANCH  44  48
ATOM     48  S   UNL A   1      43.015  27.227  25.336  1.00  0.00     0.124 S 
ATOM     49  O   UNL A   1      44.212  27.675  26.043  1.00  0.00    -0.237 OA
ATOM     50  O   UNL A   1      43.136  25.962  24.620  1.00  0.00    -0.237 OA
ATOM     51  O   UNL A   1      42.288  28.277  24.627  1.00  0.00    -0.744 OA
ENDBRANCH  44  48
ENDBRANCH  27  41
BRANCH  28  52
ATOM     52  C   UNL A   1      39.620  33.579  36.662  1.00  0.00     0.023 A 
ATOM     53  C   UNL A   1      39.015  33.091  37.830  1.00  0.00     0.031 A 
ATOM     54  C   UNL A   1      39.990  34.936  36.627  1.00  0.00     0.131 A 
ATOM     55  C   UNL A   1      38.756  33.963  38.898  1.00  0.00     0.055 A 
ATOM     56  C   UNL A   1      39.784  35.785  37.714  1.00  0.00     0.041 A 
ATOM     57  F   UNL A   1      40.576  35.452  35.535  1.00  0.00    -0.206 F 
ATOM     58  C   UNL A   1      39.149  35.303  38.854  1.00  0.00     0.022 A 
BRANCH  55  59
ATOM     59  S   UNL A   1      37.812  33.341  40.316  1.00  0.00     0.124 S 
ATOM     60  O   UNL A   1      38.660  32.251  40.784  1.00  0.00    -0.237 OA
ATOM     61  O   UNL A   1      37.749  34.520  41.175  1.00  0.00    -0.237 OA
ATOM     62  O   UNL A   1      36.539  32.934  39.725  1.00  0.00    -0.744 OA
ENDBRANCH  55  59
ENDBRANCH  28  52
BRANCH  40  63
ATOM     63  C   UNL A   1      44.237  28.585  35.175  1.00  0.00     0.023 A 
ATOM     64  C   UNL A   1      44.084  27.628  36.193  1.00  0.00     0.031 A 
ATOM     65  C   UNL A   1      45.529  29.075  34.916  1.00  0.00     0.131 A 
ATOM     66  C   UNL A   1      45.192  27.241  36.960  1.00  0.00     0.055 A 
ATOM     67  C   UNL A   1      46.638  28.641  35.642  1.00  0.00     0.041 A 
ATOM     68  F   UNL A   1      45.731  29.993  33.957  1.00  0.00    -0.206 F 
ATOM     69  C   UNL A   1      46.471  27.730  36.681  1.00  0.00     0.022 A 
BRANCH  66  70
ATOM     70  S   UNL A   1      44.922  26.169  38.399  1.00  0.00     0.124 S 
ATOM     71  O   UNL A   1      43.509  26.396  38.685  1.00  0.00    -0.237 OA
ATOM     72  O   UNL A   1      45.262  24.851  37.874  1.00  0.00    -0.237 OA
ATOM     73  O   UNL A   1      45.850  26.696  39.398  1.00  0.00    -0.744 OA
ENDBRANCH  66  70
ENDBRANCH  40  63
ENDBRANCH  14  15
ENDBRANCH   7   9
ENDBRANCH   4   5
ENDBRANCH   3   4
ENDBRANCH   2   3
ENDBRANCH   1   2
BRANCH   1  74
ATOM     74  C   UNL A   1      33.318  29.334  24.661  1.00  0.00     0.021 C 
BRANCH  74  75
ATOM     75  C   UNL A   1      32.239  28.788  23.736  1.00  0.00     0.116 C 
BRANCH  75  76
ATOM     76  N   UNL A   1      32.778  28.183  22.529  1.00  0.00    -0.352 N 
ATOM     77  C   UNL A   1      33.107  26.871  22.292  1.00  0.00     0.251 C 
ATOM     78  H   UNL A   1      32.930  28.800  21.777  1.00  0.00     0.163 HD
ATOM     79  O   UNL A   1      33.675  26.550  21.253  1.00  0.00    -0.269 OA
BRANCH  77  80
ATOM     80  C   UNL A   1      32.797  25.839  23.309  1.00  0.00     0.039 A 
ATOM     81  C   UNL A   1      31.572  25.168  23.238  1.00  0.00     0.015 A 
ATOM     82  C   UNL A   1      33.711  25.531  24.322  1.00  0.00     0.015 A 
ATOM     83  C   UNL A   1      31.282  24.157  24.158  1.00  0.00     0.022 A 
ATOM     84  C   UNL A   1      33.456  24.473  25.192  1.00  0.00     0.022 A 
ATOM     85  C   UNL A   1      32.233  23.804  25.125  1.00  0.00     0.082 A 
BRANCH  85  86
ATOM     86  S   UNL A   1      31.820  22.516  26.276  1.00  0.00     0.240 S 
ATOM     87  O   UNL A   1      31.809  23.107  27.595  1.00  0.00    -0.207 OA
ATOM     88  O   UNL A   1      30.666  21.833  25.740  1.00  0.00    -0.207 OA
BRANCH  86  89
ATOM     89  N   UNL A   1      33.081  21.411  26.220  1.00  0.00    -0.211 NA
ATOM     90  H   UNL A   1      32.755  20.598  26.743  1.00  0.00     0.141 HD
BRANCH  89  91
ATOM     91  C   UNL A   1      33.663  20.880  24.990  1.00  0.00     0.103 C 
BRANCH  91  92
ATOM     92  C   UNL A   1      33.074  19.545  24.571  1.00  0.00     0.020 C 
ATOM     93  C   UNL A   1      32.477  19.552  23.158  1.00  0.00     0.022 C 
ATOM     94  C   UNL A   1      34.151  18.458  24.545  1.00  0.00     0.142 C 
ATOM     95  C   UNL A   1      32.135  18.098  22.842  1.00  0.00     0.137 C 
ATOM     96  S   UNL A   1      33.417  17.123  23.620  1.00  0.00     0.150 S 
ATOM     97  O   UNL A   1      32.802  16.200  24.551  1.00  0.00    -0.229 OA
ATOM     98  O   UNL A   1      34.361  16.686  22.612  1.00  0.00    -0.229 OA
ENDBRANCH  91  92
ENDBRANCH  89  91
ENDBRANCH  86  89
ENDBRANCH  85  86
ENDBRANCH  77  80
ENDBRANCH  75  76
ENDBRANCH  74  75
ENDBRANCH   1  74
TORSDOF 20
ENDMDL
MODEL 2
REMARK VINA RESULT:     -11.7      1.858      7.692
REMARK SMILES O=C(NCCCCCCNC(=O)c1ccc(S(=O)(=O)NC[C@H]2CCS(=O)(=O)C2)cc1)c1ccc(-c2c3nc(c(-c4cc(S(=O)(=O)[O-])ccc4F)c4ccc([nH]4)c(-c4cc(S(=O)(=O)[O-])ccc4F)c4nc(c(-c5cc(S(=O)(=O)[O-])ccc5F)c5ccc2[nH]5)C=C4)C=C3)cc1
REMARK SMILES IDX 7 1 6 2 5 3 4 4 3 5 1 6 2 7 31 9 32 10 93 11 33 12 92 13
REMARK SMILES IDX 34 14 35 15 36 16 86 17 37 18 91 19 85 20 87 21 38 22 90 23
REMARK SMILES IDX 84 24 83 25 39 27 71 28 51 29 70 30 52 31 55 32 69 33 88 34
REMARK SMILES IDX 53 35 54 36 68 38 89 39 56 40 40 41 41 42 49 43 42 44 48 45
REMARK SMILES IDX 50 46 47 47 43 48 44 49 45 50 46 51 72 52 73 53 81 54 74 55
REMARK SMILES IDX 80 56 82 57 79 58 75 59 76 60 77 61 78 62 57 63 58 64 66 65
REMARK SMILES IDX 59 66 65 67 67 68 64 69 60 70 61 71 62 72 63 73 8 74 9 75
REMARK SMILES IDX 10 76 11 77 12 79 13 80 14 81 30 82 15 83 29 84 16 85 17 86
REMARK SMILES IDX 18 87 19 88 20 89 21 91 22 92 23 93 28 94 24 95 25 96 26 97
REMARK SMILES IDX 27 98
REMARK H PARENT 3 8 87 26 55 37 10 78 20 90
REMARK Flexibility Score: inf
ROOT
ATOM      1  C   UNL A   1      32.882  29.921  25.899  1.00  0.00     0.002 C 
ENDROOT
BRANCH   1   2
ATOM      2  C   UNL A   1      31.519  30.612  25.826  1.00  0.00     0.002 C 
BRANCH   2   3
ATOM      3  C   UNL A   1      31.394  31.930  26.593  1.00  0.00     0.021 C 
BRANCH   3   4
ATOM      4  C   UNL A   1      32.666  32.413  27.275  1.00  0.00     0.116 C 
BRANCH   4   5
ATOM      5  N   UNL A   1      32.620  33.823  27.622  1.00  0.00    -0.352 N 
ATOM      6  O   UNL A   1      33.134  35.682  28.789  1.00  0.00    -0.269 OA
ATOM      7  C   UNL A   1      33.402  34.516  28.515  1.00  0.00     0.251 C 
ATOM      8  H   UNL A   1      31.934  34.355  27.155  1.00  0.00     0.163 HD
BRANCH   7   9
ATOM      9  C   UNL A   1      34.554  33.843  29.158  1.00  0.00     0.039 A 
ATOM     10  C   UNL A   1      35.862  34.232  28.864  1.00  0.00     0.014 A 
ATOM     11  C   UNL A   1      34.318  32.813  30.074  1.00  0.00     0.014 A 
ATOM     12  C   UNL A   1      36.932  33.513  29.385  1.00  0.00     0.010 A 
ATOM     13  C   UNL A   1      35.397  32.145  30.663  1.00  0.00     0.010 A 
ATOM     14  C   UNL A   1      36.713  32.475  30.306  1.00  0.00    -0.014 A 
BRANCH  14  15
ATOM     15  C   UNL A   1      37.882  31.812  30.940  1.00  0.00     0.031 A 
ATOM     16  C   UNL A   1      38.311  32.151  32.340  1.00  0.00     0.074 A 
ATOM     17  C   UNL A   1      38.537  30.865  30.237  1.00  0.00     0.049 A 
ATOM     18  N   UNL A   1      39.292  31.647  33.044  1.00  0.00    -0.248 NA
ATOM     19  C   UNL A   1      37.543  33.193  33.038  1.00  0.00     0.031 C 
ATOM     20  C   UNL A   1      38.212  30.464  28.865  1.00  0.00     0.029 A 
ATOM     21  N   UNL A   1      39.591  30.058  30.575  1.00  0.00    -0.354 N 
ATOM     22  C   UNL A   1      39.271  32.314  34.265  1.00  0.00     0.074 A 
ATOM     23  C   UNL A   1      38.195  33.283  34.190  1.00  0.00     0.031 C 
ATOM     24  C   UNL A   1      39.016  29.457  28.498  1.00  0.00     0.029 A 
ATOM     25  C   UNL A   1      39.959  29.187  29.576  1.00  0.00     0.049 A 
ATOM     26  H   UNL A   1      40.043  30.097  31.449  1.00  0.00     0.167 HD
ATOM     27  C   UNL A   1      40.069  32.127  35.347  1.00  0.00     0.034 A 
ATOM     28  C   UNL A   1      40.957  28.284  29.522  1.00  0.00     0.034 A 
ATOM     29  C   UNL A   1      41.140  31.159  35.399  1.00  0.00     0.049 A 
ATOM     30  C   UNL A   1      41.850  28.127  30.721  1.00  0.00     0.074 A 
ATOM     31  C   UNL A   1      41.996  30.874  36.450  1.00  0.00     0.029 A 
ATOM     32  N   UNL A   1      41.513  30.324  34.352  1.00  0.00    -0.354 N 
ATOM     33  N   UNL A   1      41.802  28.754  31.874  1.00  0.00    -0.248 NA
ATOM     34  C   UNL A   1      42.930  27.139  30.614  1.00  0.00     0.031 C 
ATOM     35  C   UNL A   1      42.920  29.915  36.021  1.00  0.00     0.029 A 
ATOM     36  C   UNL A   1      42.601  29.546  34.724  1.00  0.00     0.049 A 
ATOM     37  H   UNL A   1      41.069  30.288  33.474  1.00  0.00     0.167 HD
ATOM     38  C   UNL A   1      42.839  28.225  32.635  1.00  0.00     0.074 A 
ATOM     39  C   UNL A   1      43.471  27.206  31.821  1.00  0.00     0.031 C 
ATOM     40  C   UNL A   1      43.236  28.552  33.890  1.00  0.00     0.034 A 
BRANCH  27  41
ATOM     41  C   UNL A   1      39.839  33.015  36.546  1.00  0.00     0.023 A 
ATOM     42  C   UNL A   1      39.082  32.586  37.651  1.00  0.00     0.031 A 
ATOM     43  C   UNL A   1      40.386  34.310  36.588  1.00  0.00     0.131 A 
ATOM     44  C   UNL A   1      38.845  33.461  38.723  1.00  0.00     0.055 A 
ATOM     45  C   UNL A   1      40.206  35.152  37.687  1.00  0.00     0.041 A 
ATOM     46  F   UNL A   1      41.102  34.782  35.555  1.00  0.00    -0.206 F 
ATOM     47  C   UNL A   1      39.422  34.733  38.759  1.00  0.00     0.022 A 
BRANCH  44  48
ATOM     48  S   UNL A   1      37.679  32.956  40.017  1.00  0.00     0.124 S 
ATOM     49  O   UNL A   1      36.441  32.798  39.257  1.00  0.00    -0.237 OA
ATOM     50  O   UNL A   1      38.277  31.724  40.520  1.00  0.00    -0.237 OA
ATOM     51  O   UNL A   1      37.690  34.080  40.950  1.00  0.00    -0.744 OA
ENDBRANCH  44  48
ENDBRANCH  27  41
BRANCH  28  52
ATOM     52  C   UNL A   1      41.188  27.491  28.281  1.00  0.00     0.023 A 
ATOM     53  C   UNL A   1      40.970  26.106  28.255  1.00  0.00     0.031 A 
ATOM     54  C   UNL A   1      41.665  28.108  27.110  1.00  0.00     0.131 A 
ATOM     55  C   UNL A   1      41.272  25.374  27.096  1.00  0.00     0.055 A 
ATOM     56  C   UNL A   1      41.908  27.384  25.942  1.00  0.00     0.041 A 
ATOM     57  F   UNL A   1      41.886  29.431  27.080  1.00  0.00    -0.206 F 
ATOM     58  C   UNL A   1      41.726  26.005  25.936  1.00  0.00     0.022 A 
BRANCH  55  59
ATOM     59  S   UNL A   1      41.151  23.566  27.157  1.00  0.00     0.124 S 
ATOM     60  O   UNL A   1      41.746  23.183  25.882  1.00  0.00    -0.237 OA
ATOM     61  O   UNL A   1      41.932  23.252  28.349  1.00  0.00    -0.237 OA
ATOM     62  O   UNL A   1      39.714  23.325  27.274  1.00  0.00    -0.744 OA
ENDBRANCH  55  59
ENDBRANCH  28  52
BRANCH  40  63
ATOM     63  C   UNL A   1      44.396  27.771  34.453  1.00  0.00     0.023 A 
ATOM     64  C   UNL A   1      44.208  26.527  35.081  1.00  0.00     0.031 A 
ATOM     65  C   UNL A   1      45.699  28.296  34.403  1.00  0.00     0.131 A 
ATOM     66  C   UNL A   1      45.292  25.881  35.692  1.00  0.00     0.055 A 
ATOM     67  C   UNL A   1      46.785  27.620  34.959  1.00  0.00     0.041 A 
ATOM     68  F   UNL A   1      45.934  29.482  33.818  1.00  0.00    -0.206 F 
ATOM     69  C   UNL A   1      46.583  26.413  35.622  1.00  0.00     0.022 A 
BRANCH  66  70
ATOM     70  S   UNL A   1      44.976  24.388  36.673  1.00  0.00     0.124 S 
ATOM     71  O   UNL A   1      43.876  23.771  35.940  1.00  0.00    -0.237 OA
ATOM     72  O   UNL A   1      46.257  23.694  36.605  1.00  0.00    -0.237 OA
ATOM     73  O   UNL A   1      44.625  24.913  37.992  1.00  0.00    -0.744 OA
ENDBRANCH  66  70
ENDBRANCH  40  63
ENDBRANCH  14  15
ENDBRANCH   7   9
ENDBRANCH   4   5
ENDBRANCH   3   4
ENDBRANCH   2   3
ENDBRANCH   1   2
BRANCH   1  74
ATOM     74  C   UNL A   1      33.367  29.259  24.608  1.00  0.00     0.021 C 
BRANCH  74  75
ATOM     75  C   UNL A   1      32.271  28.743  23.686  1.00  0.00     0.116 C 
BRANCH  75  76
ATOM     76  N   UNL A   1      32.790  28.136  22.471  1.00  0.00    -0.352 N 
ATOM     77  C   UNL A   1      33.038  26.812  22.204  1.00  0.00     0.251 C 
ATOM     78  H   UNL A   1      32.993  28.761  21.738  1.00  0.00     0.163 HD
ATOM     79  O   UNL A   1      33.601  26.481  21.166  1.00  0.00    -0.269 OA
BRANCH  77  80
ATOM     80  C   UNL A   1      32.645  25.777  23.189  1.00  0.00     0.039 A 
ATOM     81  C   UNL A   1      33.428  25.603  24.334  1.00  0.00     0.015 A 
ATOM     82  C   UNL A   1      31.509  24.986  22.986  1.00  0.00     0.015 A 
ATOM     83  C   UNL A   1      33.046  24.667  25.299  1.00  0.00     0.022 A 
ATOM     84  C   UNL A   1      31.086  24.106  23.979  1.00  0.00     0.022 A 
ATOM     85  C   UNL A   1      31.867  23.930  25.122  1.00  0.00     0.082 A 
BRANCH  85  86
ATOM     86  S   UNL A   1      31.423  22.747  26.371  1.00  0.00     0.240 S 
ATOM     87  O   UNL A   1      31.293  23.467  27.618  1.00  0.00    -0.207 OA
ATOM     88  O   UNL A   1      30.338  21.960  25.832  1.00  0.00    -0.207 OA
BRANCH  86  89
ATOM     89  N   UNL A   1      32.726  21.701  26.515  1.00  0.00    -0.211 NA
ATOM     90  H   UNL A   1      32.505  21.094  27.304  1.00  0.00     0.141 HD
BRANCH  89  91
ATOM     91  C   UNL A   1      33.197  20.812  25.456  1.00  0.00     0.103 C 
BRANCH  91  92
ATOM     92  C   UNL A   1      34.590  21.151  24.957  1.00  0.00     0.020 C 
ATOM     93  C   UNL A   1      34.600  22.131  23.778  1.00  0.00     0.022 C 
ATOM     94  C   UNL A   1      35.410  21.837  26.053  1.00  0.00     0.142 C 
ATOM     95  C   UNL A   1      36.063  22.509  23.561  1.00  0.00     0.137 C 
ATOM     96  S   UNL A   1      36.794  22.558  25.193  1.00  0.00     0.150 S 
ATOM     97  O   UNL A   1      37.901  21.625  25.237  1.00  0.00    -0.229 OA
ATOM     98  O   UNL A   1      36.931  23.937  25.613  1.00  0.00    -0.229 OA
ENDBRANCH  91  92
ENDBRANCH  89  91
ENDBRANCH  86  89
ENDBRANCH  85  86
ENDBRANCH  77  80
ENDBRANCH  75  76
ENDBRANCH  74  75
ENDBRANCH   1  74
TORSDOF 20
ENDMDL
MODEL 3
REMARK VINA RESULT:     -11.5      3.565      8.228
REMARK SMILES O=C(NCCCCCCNC(=O)c1ccc(S(=O)(=O)NC[C@H]2CCS(=O)(=O)C2)cc1)c1ccc(-c2c3nc(c(-c4cc(S(=O)(=O)[O-])ccc4F)c4ccc([nH]4)c(-c4cc(S(=O)(=O)[O-])ccc4F)c4nc(c(-c5cc(S(=O)(=O)[O-])ccc5F)c5ccc2[nH]5)C=C4)C=C3)cc1
REMARK SMILES IDX 7 1 6 2 5 3 4 4 3 5 1 6 2 7 31 9 32 10 93 11 33 12 92 13
REMARK SMILES IDX 34 14 35 15 36 16 86 17 37 18 91 19 85 20 87 21 38 22 90 23
REMARK SMILES IDX 84 24 83 25 39 27 71 28 51 29 70 30 52 31 55 32 69 33 88 34
REMARK SMILES IDX 53 35 54 36 68 38 89 39 56 40 40 41 41 42 49 43 42 44 48 45
REMARK SMILES IDX 50 46 47 47 43 48 44 49 45 50 46 51 72 52 73 53 81 54 74 55
REMARK SMILES IDX 80 56 82 57 79 58 75 59 76 60 77 61 78 62 57 63 58 64 66 65
REMARK SMILES IDX 59 66 65 67 67 68 64 69 60 70 61 71 62 72 63 73 8 74 9 75
REMARK SMILES IDX 10 76 11 77 12 79 13 80 14 81 30 82 15 83 29 84 16 85 17 86
REMARK SMILES IDX 18 87 19 88 20 89 21 91 22 92 23 93 28 94 24 95 25 96 26 97
REMARK SMILES IDX 27 98
REMARK H PARENT 3 8 87 26 55 37 10 78 20 90
REMARK Flexibility Score: inf
ROOT
ATOM      1  C   UNL A   1      34.019  28.011  25.135  1.00  0.00     0.002 C 
ENDROOT
BRANCH   1   2
ATOM      2  C   UNL A   1      33.047  27.933  26.313  1.00  0.00     0.002 C 
BRANCH   2   3
ATOM      3  C   UNL A   1      33.220  28.998  27.397  1.00  0.00     0.021 C 
BRANCH   3   4
ATOM      4  C   UNL A   1      34.285  30.048  27.118  1.00  0.00     0.116 C 
BRANCH   4   5
ATOM      5  N   UNL A   1      34.040  31.300  27.813  1.00  0.00    -0.352 N 
ATOM      6  O   UNL A   1      34.327  32.871  29.404  1.00  0.00    -0.269 OA
ATOM      7  C   UNL A   1      34.758  31.871  28.837  1.00  0.00     0.251 C 
ATOM      8  H   UNL A   1      33.251  31.807  27.512  1.00  0.00     0.163 HD
BRANCH   7   9
ATOM      9  C   UNL A   1      36.040  31.264  29.263  1.00  0.00     0.039 A 
ATOM     10  C   UNL A   1      37.258  31.789  28.826  1.00  0.00     0.014 A 
ATOM     11  C   UNL A   1      36.019  30.157  30.117  1.00  0.00     0.014 A 
ATOM     12  C   UNL A   1      38.445  31.137  29.138  1.00  0.00     0.010 A 
ATOM     13  C   UNL A   1      37.221  29.551  30.499  1.00  0.00     0.010 A 
ATOM     14  C   UNL A   1      38.442  30.023  29.995  1.00  0.00    -0.014 A 
BRANCH  14  15
ATOM     15  C   UNL A   1      39.740  29.427  30.410  1.00  0.00     0.031 A 
ATOM     16  C   UNL A   1      40.466  29.909  31.634  1.00  0.00     0.074 A 
ATOM     17  C   UNL A   1      40.240  28.413  29.675  1.00  0.00     0.049 A 
ATOM     18  N   UNL A   1      41.592  29.479  32.145  1.00  0.00    -0.248 NA
ATOM     19  C   UNL A   1      39.853  31.018  32.380  1.00  0.00     0.031 C 
ATOM     20  C   UNL A   1      39.622  27.873  28.461  1.00  0.00     0.029 A 
ATOM     21  N   UNL A   1      41.361  27.644  29.845  1.00  0.00    -0.354 N 
ATOM     22  C   UNL A   1      41.832  30.269  33.265  1.00  0.00     0.074 A 
ATOM     23  C   UNL A   1      40.746  31.226  33.339  1.00  0.00     0.031 C 
ATOM     24  C   UNL A   1      40.345  26.833  28.023  1.00  0.00     0.029 A 
ATOM     25  C   UNL A   1      41.513  26.674  28.881  1.00  0.00     0.049 A 
ATOM     26  H   UNL A   1      41.997  27.773  30.585  1.00  0.00     0.167 HD
ATOM     27  C   UNL A   1      42.858  30.194  34.150  1.00  0.00     0.034 A 
ATOM     28  C   UNL A   1      42.493  25.770  28.693  1.00  0.00     0.034 A 
ATOM     29  C   UNL A   1      43.935  29.235  34.055  1.00  0.00     0.049 A 
ATOM     30  C   UNL A   1      43.638  25.736  29.667  1.00  0.00     0.074 A 
ATOM     31  C   UNL A   1      45.012  29.058  34.908  1.00  0.00     0.029 A 
ATOM     32  N   UNL A   1      44.080  28.296  33.040  1.00  0.00    -0.354 N 
ATOM     33  N   UNL A   1      43.837  26.479  30.732  1.00  0.00    -0.248 NA
ATOM     34  C   UNL A   1      44.687  24.741  29.418  1.00  0.00     0.031 C 
ATOM     35  C   UNL A   1      45.837  28.059  34.378  1.00  0.00     0.029 A 
ATOM     36  C   UNL A   1      45.242  27.559  33.232  1.00  0.00     0.049 A 
ATOM     37  H   UNL A   1      43.451  28.170  32.294  1.00  0.00     0.167 HD
ATOM     38  C   UNL A   1      45.030  26.030  31.287  1.00  0.00     0.074 A 
ATOM     39  C   UNL A   1      45.485  24.932  30.457  1.00  0.00     0.031 C 
ATOM     40  C   UNL A   1      45.693  26.484  32.380  1.00  0.00     0.034 A 
BRANCH  27  41
ATOM     41  C   UNL A   1      42.886  31.200  35.275  1.00  0.00     0.023 A 
ATOM     42  C   UNL A   1      43.538  32.439  35.144  1.00  0.00     0.031 A 
ATOM     43  C   UNL A   1      42.251  30.917  36.498  1.00  0.00     0.131 A 
ATOM     44  C   UNL A   1      43.589  33.324  36.234  1.00  0.00     0.055 A 
ATOM     45  C   UNL A   1      42.246  31.830  37.555  1.00  0.00     0.041 A 
ATOM     46  F   UNL A   1      41.629  29.743  36.689  1.00  0.00    -0.206 F 
ATOM     47  C   UNL A   1      42.926  33.038  37.429  1.00  0.00     0.022 A 
BRANCH  44  48
ATOM     48  S   UNL A   1      44.629  34.804  36.103  1.00  0.00     0.124 S 
ATOM     49  O   UNL A   1      44.292  35.515  37.334  1.00  0.00    -0.237 OA
ATOM     50  O   UNL A   1      45.974  34.243  36.041  1.00  0.00    -0.237 OA
ATOM     51  O   UNL A   1      44.164  35.445  34.875  1.00  0.00    -0.744 OA
ENDBRANCH  44  48
ENDBRANCH  27  41
BRANCH  28  52
ATOM     52  C   UNL A   1      42.455  24.853  27.518  1.00  0.00     0.023 A 
ATOM     53  C   UNL A   1      41.664  23.694  27.528  1.00  0.00     0.031 A 
ATOM     54  C   UNL A   1      43.241  25.108  26.379  1.00  0.00     0.131 A 
ATOM     55  C   UNL A   1      41.710  22.809  26.439  1.00  0.00     0.055 A 
ATOM     56  C   UNL A   1      43.239  24.255  25.275  1.00  0.00     0.041 A 
ATOM     57  F   UNL A   1      44.013  26.204  26.318  1.00  0.00    -0.206 F 
ATOM     58  C   UNL A   1      42.481  23.088  25.308  1.00  0.00     0.022 A 
BRANCH  55  59
ATOM     59  S   UNL A   1      40.817  21.236  26.563  1.00  0.00     0.124 S 
ATOM     60  O   UNL A   1      41.683  20.341  25.805  1.00  0.00    -0.237 OA
ATOM     61  O   UNL A   1      40.781  21.024  28.007  1.00  0.00    -0.237 OA
ATOM     62  O   UNL A   1      39.526  21.529  25.946  1.00  0.00    -0.744 OA
ENDBRANCH  55  59
ENDBRANCH  28  52
BRANCH  40  63
ATOM     63  C   UNL A   1      46.968  25.764  32.740  1.00  0.00     0.023 A 
ATOM     64  C   UNL A   1      46.975  24.697  33.656  1.00  0.00     0.031 A 
ATOM     65  C   UNL A   1      48.197  26.178  32.197  1.00  0.00     0.131 A 
ATOM     66  C   UNL A   1      48.192  24.125  34.053  1.00  0.00     0.055 A 
ATOM     67  C   UNL A   1      49.399  25.564  32.549  1.00  0.00     0.041 A 
ATOM     68  F   UNL A   1      48.248  27.194  31.320  1.00  0.00    -0.206 F 
ATOM     69  C   UNL A   1      49.403  24.541  33.494  1.00  0.00     0.022 A 
BRANCH  66  70
ATOM     70  S   UNL A   1      48.181  22.899  35.391  1.00  0.00     0.124 S 
ATOM     71  O   UNL A   1      48.314  21.646  34.655  1.00  0.00    -0.237 OA
ATOM     72  O   UNL A   1      49.338  23.297  36.186  1.00  0.00    -0.237 OA
ATOM     73  O   UNL A   1      46.886  23.107  36.036  1.00  0.00    -0.744 OA
ENDBRANCH  66  70
ENDBRANCH  40  63
ENDBRANCH  14  15
ENDBRANCH   7   9
ENDBRANCH   4   5
ENDBRANCH   3   4
ENDBRANCH   2   3
ENDBRANCH   1   2
BRANCH   1  74
ATOM     74  C   UNL A   1      33.574  28.881  23.957  1.00  0.00     0.021 C 
BRANCH  74  75
ATOM     75  C   UNL A   1      33.117  28.123  22.719  1.00  0.00     0.116 C 
BRANCH  75  76
ATOM     76  N   UNL A   1      31.739  28.407  22.355  1.00  0.00    -0.352 N 
ATOM     77  C   UNL A   1      30.597  27.720  22.687  1.00  0.00     0.251 C 
ATOM     78  H   UNL A   1      31.606  29.203  21.790  1.00  0.00     0.163 HD
ATOM     79  O   UNL A   1      29.520  28.026  22.186  1.00  0.00    -0.269 OA
BRANCH  77  80
ATOM     80  C   UNL A   1      30.670  26.587  23.638  1.00  0.00     0.039 A 
ATOM     81  C   UNL A   1      30.176  26.760  24.934  1.00  0.00     0.015 A 
ATOM     82  C   UNL A   1      31.218  25.359  23.251  1.00  0.00     0.015 A 
ATOM     83  C   UNL A   1      30.190  25.688  25.830  1.00  0.00     0.022 A 
ATOM     84  C   UNL A   1      31.165  24.269  24.117  1.00  0.00     0.022 A 
ATOM     85  C   UNL A   1      30.673  24.440  25.412  1.00  0.00     0.082 A 
BRANCH  85  86
ATOM     86  S   UNL A   1      30.677  23.107  26.585  1.00  0.00     0.240 S 
ATOM     87  O   UNL A   1      29.532  23.290  27.447  1.00  0.00    -0.207 OA
ATOM     88  O   UNL A   1      30.873  21.890  25.831  1.00  0.00    -0.207 OA
BRANCH  86  89
ATOM     89  N   UNL A   1      32.058  23.302  27.517  1.00  0.00    -0.211 NA
ATOM     90  H   UNL A   1      31.729  23.601  28.435  1.00  0.00     0.141 HD
BRANCH  89  91
ATOM     91  C   UNL A   1      33.040  22.252  27.774  1.00  0.00     0.103 C 
BRANCH  91  92
ATOM     92  C   UNL A   1      34.286  22.366  26.913  1.00  0.00     0.020 C 
ATOM     93  C   UNL A   1      34.375  21.299  25.815  1.00  0.00     0.022 C 
ATOM     94  C   UNL A   1      34.316  23.705  26.172  1.00  0.00     0.142 C 
ATOM     95  C   UNL A   1      35.559  21.699  24.939  1.00  0.00     0.137 C 
ATOM     96  S   UNL A   1      35.548  23.487  24.904  1.00  0.00     0.150 S 
ATOM     97  O   UNL A   1      36.817  23.972  25.406  1.00  0.00    -0.229 OA
ATOM     98  O   UNL A   1      34.996  23.937  23.642  1.00  0.00    -0.229 OA
ENDBRANCH  91  92
ENDBRANCH  89  91
ENDBRANCH  86  89
ENDBRANCH  85  86
ENDBRANCH  77  80
ENDBRANCH  75  76
ENDBRANCH  74  75
ENDBRANCH   1  74
TORSDOF 20
ENDMDL
