MODEL 1
REMARK VINA RESULT:     -10.5      0.000      0.000
REMARK SMILES [NH3+]CC[C@@H](C(=O)NCCCCCCNC(=O)c1ccc(-c2c3nc(c(-c4cc(S(=O)(=O)[O-])ccc4F)c4ccc([nH]4)c(-c4cc(S(=O)(=O)[O-])ccc4F)c4nc(c(-c5cc(S(=O)(=O)[O-])ccc5F)c5ccc2[nH]5)C=C4)C=C3)cc1)c1ccc(F)cc1
REMARK SMILES IDX 10 1 9 2 8 3 7 4 5 5 6 6 4 8 3 9 2 10 1 11 80 15 81 16 86 17
REMARK SMILES IDX 82 18 85 19 83 20 84 21 11 22 12 23 13 24 14 25 15 26 16 28
REMARK SMILES IDX 17 29 18 30 79 31 19 32 78 33 20 34 21 35 22 36 72 37 23 38
REMARK SMILES IDX 77 39 71 40 73 41 24 42 76 43 70 44 69 45 25 47 57 48 37 49
REMARK SMILES IDX 56 50 38 51 41 52 55 53 74 54 39 55 40 56 54 58 75 59 42 60
REMARK SMILES IDX 26 61 27 62 35 63 28 64 34 65 36 66 33 67 29 68 30 69 31 70
REMARK SMILES IDX 32 71 58 72 59 73 67 74 60 75 66 76 68 77 65 78 61 79 62 80
REMARK SMILES IDX 63 81 64 82 43 83 44 84 52 85 45 86 51 87 53 88 50 89 46 90
REMARK SMILES IDX 47 91 48 92 49 93
REMARK H PARENT 7 7 1 12 1 13 1 14 14 27 73 46 41 57
REMARK Flexibility Score: inf
ROOT
ATOM      1  C   UNL A   1      32.043  29.483  27.206  1.00  0.00     0.002 C 
ENDROOT
BRANCH   1   2
ATOM      2  C   UNL A   1      32.445  28.092  26.703  1.00  0.00     0.021 C 
BRANCH   2   3
ATOM      3  C   UNL A   1      33.901  27.999  26.234  1.00  0.00     0.116 C 
BRANCH   3   4
ATOM      4  N   UNL A   1      34.041  28.683  24.966  1.00  0.00    -0.356 N 
ATOM      5  C   UNL A   1      33.911  28.218  23.693  1.00  0.00     0.227 C 
ATOM      6  O   UNL A   1      34.440  28.904  22.813  1.00  0.00    -0.274 OA
ATOM      7  H   UNL A   1      34.266  29.640  25.036  1.00  0.00     0.163 HD
BRANCH   5   8
ATOM      8  C   UNL A   1      33.089  26.945  23.375  1.00  0.00     0.114 C 
BRANCH   8   9
ATOM      9  C   UNL A   1      33.462  26.273  22.030  1.00  0.00     0.079 C 
BRANCH   9  10
ATOM     10  C   UNL A   1      32.423  25.383  21.347  1.00  0.00     0.259 C 
BRANCH  10  11
ATOM     11  N   UNL A   1      32.186  25.676  19.942  1.00  0.00    -0.358 N 
ATOM     12  H   UNL A   1      33.059  25.973  19.507  1.00  0.00     0.344 HD
ATOM     13  H   UNL A   1      31.495  26.421  19.863  1.00  0.00     0.344 HD
ATOM     14  H   UNL A   1      31.840  24.839  19.474  1.00  0.00     0.344 HD
ENDBRANCH  10  11
ENDBRANCH   9  10
ENDBRANCH   8   9
BRANCH   8  15
ATOM     15  C   UNL A   1      31.593  27.327  23.341  1.00  0.00    -0.035 A 
ATOM     16  C   UNL A   1      30.622  26.483  23.922  1.00  0.00     0.007 A 
ATOM     17  C   UNL A   1      31.163  28.486  22.677  1.00  0.00     0.007 A 
ATOM     18  C   UNL A   1      29.265  26.796  23.856  1.00  0.00     0.039 A 
ATOM     19  C   UNL A   1      29.799  28.795  22.609  1.00  0.00     0.039 A 
ATOM     20  C   UNL A   1      28.866  27.949  23.199  1.00  0.00     0.123 A 
ATOM     21  F   UNL A   1      27.562  28.245  23.123  1.00  0.00    -0.207 F 
ENDBRANCH   8  15
ENDBRANCH   5   8
ENDBRANCH   3   4
ENDBRANCH   2   3
ENDBRANCH   1   2
BRANCH   1  22
ATOM     22  C   UNL A   1      31.399  30.382  26.147  1.00  0.00     0.002 C 
BRANCH  22  23
ATOM     23  C   UNL A   1      31.386  31.877  26.481  1.00  0.00     0.021 C 
BRANCH  23  24
ATOM     24  C   UNL A   1      32.727  32.444  26.943  1.00  0.00     0.116 C 
BRANCH  24  25
ATOM     25  N   UNL A   1      32.584  33.779  27.501  1.00  0.00    -0.352 N 
ATOM     26  C   UNL A   1      33.236  34.354  28.565  1.00  0.00     0.251 C 
ATOM     27  H   UNL A   1      31.926  34.354  27.050  1.00  0.00     0.163 HD
ATOM     28  O   UNL A   1      32.813  35.402  29.040  1.00  0.00    -0.269 OA
BRANCH  26  29
ATOM     29  C   UNL A   1      34.433  33.700  29.138  1.00  0.00     0.039 A 
ATOM     30  C   UNL A   1      35.696  34.211  28.829  1.00  0.00     0.014 A 
ATOM     31  C   UNL A   1      34.313  32.574  29.957  1.00  0.00     0.014 A 
ATOM     32  C   UNL A   1      36.836  33.624  29.386  1.00  0.00     0.010 A 
ATOM     33  C   UNL A   1      35.444  32.032  30.564  1.00  0.00     0.010 A 
ATOM     34  C   UNL A   1      36.718  32.548  30.281  1.00  0.00    -0.014 A 
BRANCH  34  35
ATOM     35  C   UNL A   1      37.915  31.945  30.924  1.00  0.00     0.031 A 
ATOM     36  C   UNL A   1      38.719  30.904  30.193  1.00  0.00     0.074 A 
ATOM     37  C   UNL A   1      38.237  32.287  32.187  1.00  0.00     0.049 A 
ATOM     38  N   UNL A   1      39.743  30.205  30.610  1.00  0.00    -0.248 NA
ATOM     39  C   UNL A   1      38.294  30.587  28.820  1.00  0.00     0.031 C 
ATOM     40  C   UNL A   1      37.509  33.257  33.011  1.00  0.00     0.029 A 
ATOM     41  N   UNL A   1      39.247  31.853  33.007  1.00  0.00    -0.354 N 
ATOM     42  C   UNL A   1      40.072  29.351  29.562  1.00  0.00     0.074 A 
ATOM     43  C   UNL A   1      39.106  29.587  28.510  1.00  0.00     0.031 C 
ATOM     44  C   UNL A   1      38.108  33.354  34.209  1.00  0.00     0.029 A 
ATOM     45  C   UNL A   1      39.232  32.425  34.259  1.00  0.00     0.049 A 
ATOM     46  H   UNL A   1      39.921  31.192  32.726  1.00  0.00     0.167 HD
ATOM     47  C   UNL A   1      41.095  28.464  29.480  1.00  0.00     0.034 A 
ATOM     48  C   UNL A   1      40.024  32.214  35.330  1.00  0.00     0.034 A 
ATOM     49  C   UNL A   1      42.063  28.259  30.531  1.00  0.00     0.049 A 
ATOM     50  C   UNL A   1      41.149  31.214  35.216  1.00  0.00     0.074 A 
ATOM     51  C   UNL A   1      43.183  27.446  30.523  1.00  0.00     0.029 A 
ATOM     52  N   UNL A   1      42.022  28.863  31.781  1.00  0.00    -0.354 N 
ATOM     53  N   UNL A   1      41.487  30.463  34.193  1.00  0.00    -0.248 NA
ATOM     54  C   UNL A   1      42.004  31.044  36.397  1.00  0.00     0.031 C 
ATOM     55  C   UNL A   1      43.778  27.504  31.788  1.00  0.00     0.029 A 
ATOM     56  C   UNL A   1      43.075  28.413  32.563  1.00  0.00     0.049 A 
ATOM     57  H   UNL A   1      41.343  29.515  32.070  1.00  0.00     0.167 HD
ATOM     58  C   UNL A   1      42.616  29.757  34.598  1.00  0.00     0.074 A 
ATOM     59  C   UNL A   1      42.909  30.183  35.952  1.00  0.00     0.031 C 
ATOM     60  C   UNL A   1      43.349  28.843  33.914  1.00  0.00     0.034 A 
BRANCH  47  61
ATOM     61  C   UNL A   1      41.201  27.629  28.226  1.00  0.00     0.023 A 
ATOM     62  C   UNL A   1      40.866  26.263  28.212  1.00  0.00     0.031 A 
ATOM     63  C   UNL A   1      41.655  28.206  27.027  1.00  0.00     0.131 A 
ATOM     64  C   UNL A   1      41.056  25.507  27.045  1.00  0.00     0.055 A 
ATOM     65  C   UNL A   1      41.766  27.466  25.848  1.00  0.00     0.041 A 
ATOM     66  F   UNL A   1      42.008  29.500  26.982  1.00  0.00    -0.206 F 
ATOM     67  C   UNL A   1      41.479  26.105  25.857  1.00  0.00     0.022 A 
BRANCH  64  68
ATOM     68  S   UNL A   1      40.867  23.706  27.139  1.00  0.00     0.124 S 
ATOM     69  O   UNL A   1      39.419  23.555  27.015  1.00  0.00    -0.237 OA
ATOM     70  O   UNL A   1      41.657  23.245  26.003  1.00  0.00    -0.237 OA
ATOM     71  O   UNL A   1      41.412  23.372  28.454  1.00  0.00    -0.744 OA
ENDBRANCH  64  68
ENDBRANCH  47  61
BRANCH  48  72
ATOM     72  C   UNL A   1      39.785  32.945  36.608  1.00  0.00     0.023 A 
ATOM     73  C   UNL A   1      38.891  32.449  37.569  1.00  0.00     0.031 A 
ATOM     74  C   UNL A   1      40.405  34.182  36.862  1.00  0.00     0.131 A 
ATOM     75  C   UNL A   1      38.598  33.209  38.711  1.00  0.00     0.055 A 
ATOM     76  C   UNL A   1      40.154  34.908  38.028  1.00  0.00     0.041 A 
ATOM     77  F   UNL A   1      41.273  34.702  35.979  1.00  0.00    -0.206 F 
ATOM     78  C   UNL A   1      39.232  34.429  38.954  1.00  0.00     0.022 A 
BRANCH  75  79
ATOM     79  S   UNL A   1      37.293  32.626  39.830  1.00  0.00     0.124 S 
ATOM     80  O   UNL A   1      37.247  33.698  40.817  1.00  0.00    -0.237 OA
ATOM     81  O   UNL A   1      36.147  32.529  38.932  1.00  0.00    -0.237 OA
ATOM     82  O   UNL A   1      37.810  31.349  40.317  1.00  0.00    -0.744 OA
ENDBRANCH  75  79
ENDBRANCH  48  72
BRANCH  60  83
ATOM     83  C   UNL A   1      44.568  28.285  34.608  1.00  0.00     0.023 A 
ATOM     84  C   UNL A   1      44.510  27.111  35.379  1.00  0.00     0.031 A 
ATOM     85  C   UNL A   1      45.804  28.947  34.502  1.00  0.00     0.131 A 
ATOM     86  C   UNL A   1      45.651  26.668  36.062  1.00  0.00     0.055 A 
ATOM     87  C   UNL A   1      46.951  28.467  35.134  1.00  0.00     0.041 A 
ATOM     88  F   UNL A   1      45.917  30.073  33.780  1.00  0.00    -0.206 F 
ATOM     89  C   UNL A   1      46.876  27.328  35.931  1.00  0.00     0.022 A 
BRANCH  86  90
ATOM     90  S   UNL A   1      45.495  25.264  37.200  1.00  0.00     0.124 S 
ATOM     91  O   UNL A   1      46.640  24.440  36.825  1.00  0.00    -0.237 OA
ATOM     92  O   UNL A   1      45.575  25.910  38.506  1.00  0.00    -0.237 OA
ATOM     93  O   UNL A   1      44.189  24.697  36.869  1.00  0.00    -0.744 OA
ENDBRANCH  86  90
ENDBRANCH  60  83
ENDBRANCH  34  35
ENDBRANCH  26  29
ENDBRANCH  24  25
ENDBRANCH  23  24
ENDBRANCH  22  23
ENDBRANCH   1  22
TORSDOF 20
ENDMDL
MODEL 2
REMARK VINA RESULT:     -10.4      4.094      9.061
REMARK SMILES [NH3+]CC[C@@H](C(=O)NCCCCCCNC(=O)c1ccc(-c2c3nc(c(-c4cc(S(=O)(=O)[O-])ccc4F)c4ccc([nH]4)c(-c4cc(S(=O)(=O)[O-])ccc4F)c4nc(c(-c5cc(S(=O)(=O)[O-])ccc5F)c5ccc2[nH]5)C=C4)C=C3)cc1)c1ccc(F)cc1
REMARK SMILES IDX 10 1 9 2 8 3 7 4 5 5 6 6 4 8 3 9 2 10 1 11 80 15 81 16 86 17
REMARK SMILES IDX 82 18 85 19 83 20 84 21 11 22 12 23 13 24 14 25 15 26 16 28
REMARK SMILES IDX 17 29 18 30 79 31 19 32 78 33 20 34 21 35 22 36 72 37 23 38
REMARK SMILES IDX 77 39 71 40 73 41 24 42 76 43 70 44 69 45 25 47 57 48 37 49
REMARK SMILES IDX 56 50 38 51 41 52 55 53 74 54 39 55 40 56 54 58 75 59 42 60
REMARK SMILES IDX 26 61 27 62 35 63 28 64 34 65 36 66 33 67 29 68 30 69 31 70
REMARK SMILES IDX 32 71 58 72 59 73 67 74 60 75 66 76 68 77 65 78 61 79 62 80
REMARK SMILES IDX 63 81 64 82 43 83 44 84 52 85 45 86 51 87 53 88 50 89 46 90
REMARK SMILES IDX 47 91 48 92 49 93
REMARK H PARENT 7 7 1 12 1 13 1 14 14 27 73 46 41 57
REMARK Flexibility Score: inf
ROOT
ATOM      1  C   UNL A   1      33.227  26.016  24.546  1.00  0.00     0.002 C 
ENDROOT
BRANCH   1   2
ATOM      2  C   UNL A   1      31.793  25.953  24.009  1.00  0.00     0.021 C 
BRANCH   2   3
ATOM      3  C   UNL A   1      31.344  24.547  23.598  1.00  0.00     0.116 C 
BRANCH   3   4
ATOM      4  N   UNL A   1      31.042  23.775  24.784  1.00  0.00    -0.356 N 
ATOM      5  C   UNL A   1      31.303  22.472  25.080  1.00  0.00     0.227 C 
ATOM      6  O   UNL A   1      30.621  21.977  25.983  1.00  0.00    -0.274 OA
ATOM      7  H   UNL A   1      30.572  24.273  25.492  1.00  0.00     0.163 HD
BRANCH   5   8
ATOM      8  C   UNL A   1      32.436  21.691  24.369  1.00  0.00     0.114 C 
BRANCH   8   9
ATOM      9  C   UNL A   1      32.546  20.207  24.800  1.00  0.00     0.079 C 
BRANCH   9  10
ATOM     10  C   UNL A   1      32.561  19.132  23.712  1.00  0.00     0.259 C 
BRANCH  10  11
ATOM     11  N   UNL A   1      32.153  17.806  24.149  1.00  0.00    -0.358 N 
ATOM     12  H   UNL A   1      32.777  17.486  24.890  1.00  0.00     0.344 HD
ATOM     13  H   UNL A   1      32.201  17.160  23.362  1.00  0.00     0.344 HD
ATOM     14  H   UNL A   1      31.197  17.844  24.502  1.00  0.00     0.344 HD
ENDBRANCH  10  11
ENDBRANCH   9  10
ENDBRANCH   8   9
BRANCH   8  15
ATOM     15  C   UNL A   1      33.777  22.395  24.669  1.00  0.00    -0.035 A 
ATOM     16  C   UNL A   1      34.658  22.741  23.623  1.00  0.00     0.007 A 
ATOM     17  C   UNL A   1      34.175  22.647  25.992  1.00  0.00     0.007 A 
ATOM     18  C   UNL A   1      35.891  23.335  23.887  1.00  0.00     0.039 A 
ATOM     19  C   UNL A   1      35.415  23.240  26.254  1.00  0.00     0.039 A 
ATOM     20  C   UNL A   1      36.259  23.578  25.201  1.00  0.00     0.123 A 
ATOM     21  F   UNL A   1      37.449  24.137  25.459  1.00  0.00    -0.207 F 
ENDBRANCH   8  15
ENDBRANCH   5   8
ENDBRANCH   3   4
ENDBRANCH   2   3
ENDBRANCH   1   2
BRANCH   1  22
ATOM     22  C   UNL A   1      33.339  26.435  26.015  1.00  0.00     0.002 C 
BRANCH  22  23
ATOM     23  C   UNL A   1      33.030  27.909  26.297  1.00  0.00     0.021 C 
BRANCH  23  24
ATOM     24  C   UNL A   1      34.167  28.877  25.976  1.00  0.00     0.116 C 
BRANCH  24  25
ATOM     25  N   UNL A   1      33.898  30.212  26.486  1.00  0.00    -0.352 N 
ATOM     26  C   UNL A   1      34.494  30.885  27.524  1.00  0.00     0.251 C 
ATOM     27  H   UNL A   1      33.186  30.704  26.020  1.00  0.00     0.163 HD
ATOM     28  O   UNL A   1      33.975  31.904  27.965  1.00  0.00    -0.269 OA
BRANCH  26  29
ATOM     29  C   UNL A   1      35.751  30.370  28.112  1.00  0.00     0.039 A 
ATOM     30  C   UNL A   1      35.693  29.649  29.308  1.00  0.00     0.014 A 
ATOM     31  C   UNL A   1      36.984  30.619  27.503  1.00  0.00     0.014 A 
ATOM     32  C   UNL A   1      36.866  29.131  29.863  1.00  0.00     0.010 A 
ATOM     33  C   UNL A   1      38.143  30.046  28.021  1.00  0.00     0.010 A 
ATOM     34  C   UNL A   1      38.097  29.300  29.209  1.00  0.00    -0.014 A 
BRANCH  34  35
ATOM     35  C   UNL A   1      39.348  28.711  29.756  1.00  0.00     0.031 A 
ATOM     36  C   UNL A   1      39.984  29.303  30.986  1.00  0.00     0.074 A 
ATOM     37  C   UNL A   1      39.943  27.690  29.109  1.00  0.00     0.049 A 
ATOM     38  N   UNL A   1      41.112  28.985  31.569  1.00  0.00    -0.248 NA
ATOM     39  C   UNL A   1      39.270  30.418  31.626  1.00  0.00     0.031 C 
ATOM     40  C   UNL A   1      39.441  27.059  27.885  1.00  0.00     0.029 A 
ATOM     41  N   UNL A   1      41.104  27.009  29.376  1.00  0.00    -0.354 N 
ATOM     42  C   UNL A   1      41.254  29.874  32.630  1.00  0.00     0.074 A 
ATOM     43  C   UNL A   1      40.121  30.774  32.577  1.00  0.00     0.031 C 
ATOM     44  C   UNL A   1      40.279  26.075  27.521  1.00  0.00     0.029 A 
ATOM     45  C   UNL A   1      41.400  26.031  28.454  1.00  0.00     0.049 A 
ATOM     46  H   UNL A   1      41.673  27.203  30.156  1.00  0.00     0.167 HD
ATOM     47  C   UNL A   1      42.231  29.924  33.569  1.00  0.00     0.034 A 
ATOM     48  C   UNL A   1      42.462  25.205  28.362  1.00  0.00     0.034 A 
ATOM     49  C   UNL A   1      43.341  29.003  33.619  1.00  0.00     0.049 A 
ATOM     50  C   UNL A   1      43.540  25.287  29.414  1.00  0.00     0.074 A 
ATOM     51  C   UNL A   1      44.342  28.912  34.570  1.00  0.00     0.029 A 
ATOM     52  N   UNL A   1      43.604  28.019  32.674  1.00  0.00    -0.354 N 
ATOM     53  N   UNL A   1      43.625  26.090  30.450  1.00  0.00    -0.248 NA
ATOM     54  C   UNL A   1      44.659  24.345  29.291  1.00  0.00     0.031 C 
ATOM     55  C   UNL A   1      45.247  27.924  34.165  1.00  0.00     0.029 A 
ATOM     56  C   UNL A   1      44.769  27.343  33.001  1.00  0.00     0.049 A 
ATOM     57  H   UNL A   1      43.043  27.830  31.886  1.00  0.00     0.167 HD
ATOM     58  C   UNL A   1      44.789  25.724  31.120  1.00  0.00     0.074 A 
ATOM     59  C   UNL A   1      45.364  24.620  30.379  1.00  0.00     0.031 C 
ATOM     60  C   UNL A   1      45.333  26.248  32.247  1.00  0.00     0.034 A 
BRANCH  47  61
ATOM     61  C   UNL A   1      42.159  31.026  34.598  1.00  0.00     0.023 A 
ATOM     62  C   UNL A   1      42.761  32.280  34.388  1.00  0.00     0.031 A 
ATOM     63  C   UNL A   1      41.485  30.817  35.815  1.00  0.00     0.131 A 
ATOM     64  C   UNL A   1      42.738  33.247  35.405  1.00  0.00     0.055 A 
ATOM     65  C   UNL A   1      41.398  31.812  36.791  1.00  0.00     0.041 A 
ATOM     66  F   UNL A   1      40.908  29.635  36.081  1.00  0.00    -0.206 F 
ATOM     67  C   UNL A   1      42.038  33.031  36.594  1.00  0.00     0.022 A 
BRANCH  64  68
ATOM     68  S   UNL A   1      43.746  34.741  35.203  1.00  0.00     0.124 S 
ATOM     69  O   UNL A   1      42.722  35.782  35.145  1.00  0.00    -0.237 OA
ATOM     70  O   UNL A   1      44.576  34.727  36.402  1.00  0.00    -0.237 OA
ATOM     71  O   UNL A   1      44.458  34.507  33.948  1.00  0.00    -0.744 OA
ENDBRANCH  64  68
ENDBRANCH  47  61
BRANCH  48  72
ATOM     72  C   UNL A   1      42.575  24.235  27.235  1.00  0.00     0.023 A 
ATOM     73  C   UNL A   1      41.956  22.978  27.298  1.00  0.00     0.031 A 
ATOM     74  C   UNL A   1      43.354  24.530  26.100  1.00  0.00     0.131 A 
ATOM     75  C   UNL A   1      42.170  22.039  26.276  1.00  0.00     0.055 A 
ATOM     76  C   UNL A   1      43.516  23.614  25.059  1.00  0.00     0.041 A 
ATOM     77  F   UNL A   1      43.964  25.720  25.985  1.00  0.00    -0.206 F 
ATOM     78  C   UNL A   1      42.935  22.354  25.151  1.00  0.00     0.022 A 
BRANCH  75  79
ATOM     79  S   UNL A   1      41.515  20.361  26.489  1.00  0.00     0.124 S 
ATOM     80  O   UNL A   1      40.080  20.581  26.346  1.00  0.00    -0.237 OA
ATOM     81  O   UNL A   1      42.167  19.642  25.400  1.00  0.00    -0.237 OA
ATOM     82  O   UNL A   1      41.959  19.990  27.831  1.00  0.00    -0.744 OA
ENDBRANCH  75  79
ENDBRANCH  48  72
BRANCH  60  83
ATOM     83  C   UNL A   1      46.588  25.593  32.770  1.00  0.00     0.023 A 
ATOM     84  C   UNL A   1      47.855  25.881  32.232  1.00  0.00     0.031 A 
ATOM     85  C   UNL A   1      46.511  24.656  33.817  1.00  0.00     0.131 A 
ATOM     86  C   UNL A   1      48.985  25.196  32.703  1.00  0.00     0.055 A 
ATOM     87  C   UNL A   1      47.647  24.024  34.322  1.00  0.00     0.041 A 
ATOM     88  F   UNL A   1      45.327  24.341  34.367  1.00  0.00    -0.206 F 
ATOM     89  C   UNL A   1      48.891  24.282  33.756  1.00  0.00     0.022 A 
BRANCH  86  90
ATOM     90  S   UNL A   1      50.570  25.449  31.859  1.00  0.00     0.124 S 
ATOM     91  O   UNL A   1      50.219  26.434  30.840  1.00  0.00    -0.237 OA
ATOM     92  O   UNL A   1      51.427  25.927  32.939  1.00  0.00    -0.237 OA
ATOM     93  O   UNL A   1      50.903  24.121  31.347  1.00  0.00    -0.744 OA
ENDBRANCH  86  90
ENDBRANCH  60  83
ENDBRANCH  34  35
ENDBRANCH  26  29
ENDBRANCH  24  25
ENDBRANCH  23  24
ENDBRANCH  22  23
ENDBRANCH   1  22
TORSDOF 20
ENDMDL
MODEL 3
REMARK VINA RESULT:     -10.2      5.591     10.689
REMARK SMILES [NH3+]CC[C@@H](C(=O)NCCCCCCNC(=O)c1ccc(-c2c3nc(c(-c4cc(S(=O)(=O)[O-])ccc4F)c4ccc([nH]4)c(-c4cc(S(=O)(=O)[O-])ccc4F)c4nc(c(-c5cc(S(=O)(=O)[O-])ccc5F)c5ccc2[nH]5)C=C4)C=C3)cc1)c1ccc(F)cc1
REMARK SMILES IDX 10 1 9 2 8 3 7 4 5 5 6 6 4 8 3 9 2 10 1 11 80 15 81 16 86 17
REMARK SMILES IDX 82 18 85 19 83 20 84 21 11 22 12 23 13 24 14 25 15 26 16 28
REMARK SMILES IDX 17 29 18 30 79 31 19 32 78 33 20 34 21 35 22 36 72 37 23 38
REMARK SMILES IDX 77 39 71 40 73 41 24 42 76 43 70 44 69 45 25 47 57 48 37 49
REMARK SMILES IDX 56 50 38 51 41 52 55 53 74 54 39 55 40 56 54 58 75 59 42 60
REMARK SMILES IDX 26 61 27 62 35 63 28 64 34 65 36 66 33 67 29 68 30 69 31 70
REMARK SMILES IDX 32 71 58 72 59 73 67 74 60 75 66 76 68 77 65 78 61 79 62 80
REMARK SMILES IDX 63 81 64 82 43 83 44 84 52 85 45 86 51 87 53 88 50 89 46 90
REMARK SMILES IDX 47 91 48 92 49 93
REMARK H PARENT 7 7 1 12 1 13 1 14 14 27 73 46 41 57
REMARK Flexibility Score: inf
ROOT
ATOM      1  C   UNL A   1      33.390  22.435  23.732  1.00  0.00     0.002 C 
ENDROOT
BRANCH   1   2
ATOM      2  C   UNL A   1      32.430  23.440  24.378  1.00  0.00     0.021 C 
BRANCH   2   3
ATOM      3  C   UNL A   1      31.223  23.796  23.505  1.00  0.00     0.116 C 
BRANCH   3   4
ATOM      4  N   UNL A   1      31.595  24.842  22.576  1.00  0.00    -0.356 N 
ATOM      5  C   UNL A   1      31.108  26.104  22.427  1.00  0.00     0.227 C 
ATOM      6  O   UNL A   1      31.336  26.645  21.340  1.00  0.00    -0.274 OA
ATOM      7  H   UNL A   1      32.319  24.601  21.952  1.00  0.00     0.163 HD
BRANCH   5   8
ATOM      8  C   UNL A   1      30.376  26.833  23.580  1.00  0.00     0.114 C 
BRANCH   8   9
ATOM      9  C   UNL A   1      29.611  28.106  23.139  1.00  0.00     0.079 C 
BRANCH   9  10
ATOM     10  C   UNL A   1      30.373  29.430  23.085  1.00  0.00     0.259 C 
BRANCH  10  11
ATOM     11  N   UNL A   1      30.917  29.776  21.781  1.00  0.00    -0.358 N 
ATOM     12  H   UNL A   1      30.204  29.631  21.067  1.00  0.00     0.344 HD
ATOM     13  H   UNL A   1      31.723  29.186  21.583  1.00  0.00     0.344 HD
ATOM     14  H   UNL A   1      31.203  30.755  21.781  1.00  0.00     0.344 HD
ENDBRANCH  10  11
ENDBRANCH   9  10
ENDBRANCH   8   9
BRANCH   8  15
ATOM     15  C   UNL A   1      31.419  27.225  24.649  1.00  0.00    -0.035 A 
ATOM     16  C   UNL A   1      31.055  27.322  26.009  1.00  0.00     0.007 A 
ATOM     17  C   UNL A   1      32.733  27.556  24.282  1.00  0.00     0.007 A 
ATOM     18  C   UNL A   1      31.978  27.721  26.974  1.00  0.00     0.039 A 
ATOM     19  C   UNL A   1      33.656  27.961  25.253  1.00  0.00     0.039 A 
ATOM     20  C   UNL A   1      33.271  28.037  26.587  1.00  0.00     0.123 A 
ATOM     21  F   UNL A   1      34.156  28.434  27.511  1.00  0.00    -0.207 F 
ENDBRANCH   8  15
ENDBRANCH   5   8
ENDBRANCH   3   4
ENDBRANCH   2   3
ENDBRANCH   1   2
BRANCH   1  22
ATOM     22  C   UNL A   1      34.866  22.652  24.078  1.00  0.00     0.002 C 
BRANCH  22  23
ATOM     23  C   UNL A   1      35.525  21.516  24.866  1.00  0.00     0.021 C 
BRANCH  23  24
ATOM     24  C   UNL A   1      36.709  21.938  25.735  1.00  0.00     0.116 C 
BRANCH  24  25
ATOM     25  N   UNL A   1      37.670  20.859  25.896  1.00  0.00    -0.352 N 
ATOM     26  C   UNL A   1      39.022  20.924  26.125  1.00  0.00     0.251 C 
ATOM     27  H   UNL A   1      37.297  19.951  25.833  1.00  0.00     0.163 HD
ATOM     28  O   UNL A   1      39.709  19.918  25.992  1.00  0.00    -0.269 OA
BRANCH  26  29
ATOM     29  C   UNL A   1      39.644  22.208  26.517  1.00  0.00     0.039 A 
ATOM     30  C   UNL A   1      40.670  22.202  27.466  1.00  0.00     0.014 A 
ATOM     31  C   UNL A   1      39.203  23.416  25.970  1.00  0.00     0.014 A 
ATOM     32  C   UNL A   1      41.289  23.402  27.826  1.00  0.00     0.010 A 
ATOM     33  C   UNL A   1      39.865  24.603  26.281  1.00  0.00     0.010 A 
ATOM     34  C   UNL A   1      40.911  24.609  27.215  1.00  0.00    -0.014 A 
BRANCH  34  35
ATOM     35  C   UNL A   1      41.593  25.887  27.546  1.00  0.00     0.031 A 
ATOM     36  C   UNL A   1      40.864  26.952  28.322  1.00  0.00     0.074 A 
ATOM     37  C   UNL A   1      42.842  26.114  27.093  1.00  0.00     0.049 A 
ATOM     38  N   UNL A   1      41.255  28.159  28.640  1.00  0.00    -0.248 NA
ATOM     39  C   UNL A   1      39.503  26.622  28.774  1.00  0.00     0.031 C 
ATOM     40  C   UNL A   1      43.635  25.172  26.299  1.00  0.00     0.029 A 
ATOM     41  N   UNL A   1      43.661  27.207  27.221  1.00  0.00    -0.354 N 
ATOM     42  C   UNL A   1      40.183  28.741  29.309  1.00  0.00     0.074 A 
ATOM     43  C   UNL A   1      39.109  27.770  29.306  1.00  0.00     0.031 C 
ATOM     44  C   UNL A   1      44.829  25.723  26.026  1.00  0.00     0.029 A 
ATOM     45  C   UNL A   1      44.875  27.070  26.585  1.00  0.00     0.049 A 
ATOM     46  H   UNL A   1      43.404  28.016  27.721  1.00  0.00     0.167 HD
ATOM     47  C   UNL A   1      40.108  29.967  29.886  1.00  0.00     0.034 A 
ATOM     48  C   UNL A   1      45.899  27.937  26.454  1.00  0.00     0.034 A 
ATOM     49  C   UNL A   1      41.197  30.913  29.899  1.00  0.00     0.049 A 
ATOM     50  C   UNL A   1      45.786  29.298  27.096  1.00  0.00     0.074 A 
ATOM     51  C   UNL A   1      41.258  32.148  30.522  1.00  0.00     0.029 A 
ATOM     52  N   UNL A   1      42.414  30.737  29.254  1.00  0.00    -0.354 N 
ATOM     53  N   UNL A   1      44.790  29.808  27.783  1.00  0.00    -0.248 NA
ATOM     54  C   UNL A   1      46.940  30.194  26.955  1.00  0.00     0.031 C 
ATOM     55  C   UNL A   1      42.479  32.747  30.194  1.00  0.00     0.029 A 
ATOM     56  C   UNL A   1      43.216  31.854  29.432  1.00  0.00     0.049 A 
ATOM     57  H   UNL A   1      42.670  29.935  28.742  1.00  0.00     0.167 HD
ATOM     58  C   UNL A   1      45.213  31.071  28.185  1.00  0.00     0.074 A 
ATOM     59  C   UNL A   1      46.559  31.239  27.676  1.00  0.00     0.031 C 
ATOM     60  C   UNL A   1      44.553  32.008  28.912  1.00  0.00     0.034 A 
BRANCH  47  61
ATOM     61  C   UNL A   1      38.797  30.364  30.521  1.00  0.00     0.023 A 
ATOM     62  C   UNL A   1      37.835  31.123  29.830  1.00  0.00     0.031 A 
ATOM     63  C   UNL A   1      38.508  29.986  31.845  1.00  0.00     0.131 A 
ATOM     64  C   UNL A   1      36.666  31.537  30.487  1.00  0.00     0.055 A 
ATOM     65  C   UNL A   1      37.306  30.335  32.466  1.00  0.00     0.041 A 
ATOM     66  F   UNL A   1      39.394  29.278  32.562  1.00  0.00    -0.206 F 
ATOM     67  C   UNL A   1      36.383  31.127  31.790  1.00  0.00     0.022 A 
BRANCH  64  68
ATOM     68  S   UNL A   1      35.581  32.730  29.655  1.00  0.00     0.124 S 
ATOM     69  O   UNL A   1      36.183  34.001  30.051  1.00  0.00    -0.237 OA
ATOM     70  O   UNL A   1      35.727  32.364  28.251  1.00  0.00    -0.237 OA
ATOM     71  O   UNL A   1      34.267  32.462  30.236  1.00  0.00    -0.744 OA
ENDBRANCH  64  68
ENDBRANCH  47  61
BRANCH  48  72
ATOM     72  C   UNL A   1      47.116  27.563  25.678  1.00  0.00     0.023 A 
ATOM     73  C   UNL A   1      47.242  27.902  24.322  1.00  0.00     0.031 A 
ATOM     74  C   UNL A   1      48.149  26.810  26.267  1.00  0.00     0.131 A 
ATOM     75  C   UNL A   1      48.343  27.442  23.584  1.00  0.00     0.055 A 
ATOM     76  C   UNL A   1      49.272  26.405  25.543  1.00  0.00     0.041 A 
ATOM     77  F   UNL A   1      48.083  26.463  27.562  1.00  0.00    -0.206 F 
ATOM     78  C   UNL A   1      49.366  26.707  24.188  1.00  0.00     0.022 A 
BRANCH  75  79
ATOM     79  S   UNL A   1      48.370  27.733  21.793  1.00  0.00     0.124 S 
ATOM     80  O   UNL A   1      47.040  28.284  21.562  1.00  0.00    -0.237 OA
ATOM     81  O   UNL A   1      49.485  28.664  21.656  1.00  0.00    -0.237 OA
ATOM     82  O   UNL A   1      48.601  26.402  21.236  1.00  0.00    -0.744 OA
ENDBRANCH  75  79
ENDBRANCH  48  72
BRANCH  60  83
ATOM     83  C   UNL A   1      45.306  33.275  29.240  1.00  0.00     0.023 A 
ATOM     84  C   UNL A   1      45.242  34.411  28.414  1.00  0.00     0.031 A 
ATOM     85  C   UNL A   1      46.108  33.340  30.393  1.00  0.00     0.131 A 
ATOM     86  C   UNL A   1      46.012  35.542  28.721  1.00  0.00     0.055 A 
ATOM     87  C   UNL A   1      46.824  34.490  30.726  1.00  0.00     0.041 A 
ATOM     88  F   UNL A   1      46.208  32.284  31.217  1.00  0.00    -0.206 F 
ATOM     89  C   UNL A   1      46.789  35.595  29.881  1.00  0.00     0.022 A 
BRANCH  86  90
ATOM     90  S   UNL A   1      46.056  36.914  27.536  1.00  0.00     0.124 S 
ATOM     91  O   UNL A   1      47.035  36.442  26.561  1.00  0.00    -0.237 OA
ATOM     92  O   UNL A   1      44.674  36.972  27.073  1.00  0.00    -0.237 OA
ATOM     93  O   UNL A   1      46.487  38.053  28.344  1.00  0.00    -0.744 OA
ENDBRANCH  86  90
ENDBRANCH  60  83
ENDBRANCH  34  35
ENDBRANCH  26  29
ENDBRANCH  24  25
ENDBRANCH  23  24
ENDBRANCH  22  23
ENDBRANCH   1  22
TORSDOF 20
ENDMDL
