MODEL 1
REMARK VINA RESULT:      -9.2      0.000      0.000
REMARK SMILES O=C(NCCCCCCNC(=O)[C@H](CO)NC(=O)[C@H](CS)NC(=O)[C@H](Cc1c[nH]c2ccccc12)NC(=O)c1ccc(F)cc1)c1ccc(-c2c3nc(c(-c4cc(S(=O)(=O)[O-])ccc4F)c4ccc([nH]4)c(-c4cc(S(=O)(=O)[O-])ccc4F)c4nc(c(-c5cc(S(=O)(=O)[O-])ccc5F)c5ccc2[nH]5)C=C4)C=C3)cc1
REMARK SMILES IDX 8 1 7 2 6 3 5 4 4 5 3 6 1 7 2 8 46 10 47 11 108 12 48 13
REMARK SMILES IDX 107 14 49 15 50 16 51 17 101 18 52 19 106 20 100 21 102 22
REMARK SMILES IDX 53 23 105 24 99 25 98 26 54 28 86 29 66 30 85 31 67 32 70 33
REMARK SMILES IDX 84 34 103 35 68 36 69 37 83 39 104 40 71 41 55 42 56 43
REMARK SMILES IDX 64 44 57 45 63 46 65 47 62 48 58 49 59 50 60 51 61 52 87 53
REMARK SMILES IDX 88 54 96 55 89 56 95 57 97 58 94 59 90 60 91 61 92 62 93 63
REMARK SMILES IDX 72 64 73 65 81 66 74 67 80 68 82 69 79 70 75 71 76 72 77 73
REMARK SMILES IDX 78 74 9 75 10 76 11 77 12 79 13 80 16 81 17 82 18 84 19 85
REMARK SMILES IDX 22 86 23 87 24 89 25 90 36 91 37 92 38 94 39 95 40 96 45 97
REMARK SMILES IDX 41 98 44 99 42 100 43 101 26 102 27 103 28 104 35 105 29 106
REMARK SMILES IDX 30 107 34 108 31 110 33 111 32 112 20 113 21 114 14 116
REMARK SMILES IDX 15 117
REMARK H PARENT 3 9 102 27 70 38 10 78 16 83 22 88 36 93 29 109 21 115 15 118
REMARK Flexibility Score: inf
ROOT
ATOM      1  C   UNL A   1      39.076  23.510  26.479  1.00  0.00     0.021 C 
ENDROOT
BRANCH   1   2
ATOM      2  C   UNL A   1      40.048  24.678  26.672  1.00  0.00     0.002 C 
BRANCH   2   3
ATOM      3  C   UNL A   1      39.957  25.367  28.034  1.00  0.00     0.002 C 
BRANCH   3   4
ATOM      4  C   UNL A   1      39.428  26.800  27.988  1.00  0.00     0.021 C 
BRANCH   4   5
ATOM      5  C   UNL A   1      40.507  27.856  27.793  1.00  0.00     0.116 C 
BRANCH   5   6
ATOM      6  N   UNL A   1      40.861  28.011  26.389  1.00  0.00    -0.352 N 
ATOM      7  O   UNL A   1      42.261  28.465  24.673  1.00  0.00    -0.269 OA
ATOM      8  C   UNL A   1      42.115  28.092  25.834  1.00  0.00     0.251 C 
ATOM      9  H   UNL A   1      40.107  28.065  25.759  1.00  0.00     0.163 HD
BRANCH   8  10
ATOM     10  C   UNL A   1      43.282  27.727  26.661  1.00  0.00     0.039 A 
ATOM     11  C   UNL A   1      43.945  28.716  27.392  1.00  0.00     0.014 A 
ATOM     12  C   UNL A   1      43.725  26.404  26.692  1.00  0.00     0.014 A 
ATOM     13  C   UNL A   1      45.128  28.408  28.048  1.00  0.00     0.010 A 
ATOM     14  C   UNL A   1      44.862  26.077  27.435  1.00  0.00     0.010 A 
ATOM     15  C   UNL A   1      45.580  27.079  28.107  1.00  0.00    -0.014 A 
BRANCH  15  16
ATOM     16  C   UNL A   1      46.746  26.755  28.966  1.00  0.00     0.031 A 
ATOM     17  C   UNL A   1      48.153  26.880  28.458  1.00  0.00     0.074 A 
ATOM     18  C   UNL A   1      46.510  26.370  30.236  1.00  0.00     0.049 A 
ATOM     19  N   UNL A   1      49.274  26.625  29.082  1.00  0.00    -0.248 NA
ATOM     20  C   UNL A   1      48.328  27.345  27.073  1.00  0.00     0.031 C 
ATOM     21  C   UNL A   1      45.179  26.228  30.834  1.00  0.00     0.029 A 
ATOM     22  N   UNL A   1      47.366  26.057  31.258  1.00  0.00    -0.354 N 
ATOM     23  C   UNL A   1      50.289  26.887  28.169  1.00  0.00     0.074 A 
ATOM     24  C   UNL A   1      49.646  27.292  26.934  1.00  0.00     0.031 C 
ATOM     25  C   UNL A   1      45.310  25.920  32.131  1.00  0.00     0.029 A 
ATOM     26  C   UNL A   1      46.725  25.754  32.436  1.00  0.00     0.049 A 
ATOM     27  H   UNL A   1      48.346  26.049  31.159  1.00  0.00     0.167 HD
ATOM     28  C   UNL A   1      51.629  26.802  28.353  1.00  0.00     0.034 A 
ATOM     29  C   UNL A   1      47.213  25.359  33.627  1.00  0.00     0.034 A 
ATOM     30  C   UNL A   1      52.246  26.395  29.593  1.00  0.00     0.049 A 
ATOM     31  C   UNL A   1      48.696  25.202  33.781  1.00  0.00     0.074 A 
ATOM     32  C   UNL A   1      53.595  26.294  29.888  1.00  0.00     0.029 A 
ATOM     33  N   UNL A   1      51.560  26.016  30.740  1.00  0.00    -0.354 N 
ATOM     34  N   UNL A   1      49.641  25.430  32.899  1.00  0.00    -0.248 NA
ATOM     35  C   UNL A   1      49.181  24.725  35.081  1.00  0.00     0.031 C 
ATOM     36  C   UNL A   1      53.723  25.786  31.184  1.00  0.00     0.029 A 
ATOM     37  C   UNL A   1      52.457  25.647  31.731  1.00  0.00     0.049 A 
ATOM     38  H   UNL A   1      50.580  26.010  30.836  1.00  0.00     0.167 HD
ATOM     39  C   UNL A   1      50.837  25.138  33.544  1.00  0.00     0.074 A 
ATOM     40  C   UNL A   1      50.494  24.724  34.890  1.00  0.00     0.031 C 
ATOM     41  C   UNL A   1      52.103  25.214  33.062  1.00  0.00     0.034 A 
BRANCH  28  42
ATOM     42  C   UNL A   1      52.522  27.116  27.179  1.00  0.00     0.023 A 
ATOM     43  C   UNL A   1      52.986  28.419  26.929  1.00  0.00     0.031 A 
ATOM     44  C   UNL A   1      52.939  26.091  26.311  1.00  0.00     0.131 A 
ATOM     45  C   UNL A   1      53.805  28.670  25.818  1.00  0.00     0.055 A 
ATOM     46  C   UNL A   1      53.807  26.334  25.245  1.00  0.00     0.041 A 
ATOM     47  F   UNL A   1      52.515  24.829  26.491  1.00  0.00    -0.206 F 
ATOM     48  C   UNL A   1      54.238  27.632  24.988  1.00  0.00     0.022 A 
BRANCH  45  49
ATOM     49  S   UNL A   1      54.226  30.387  25.417  1.00  0.00     0.124 S 
ATOM     50  O   UNL A   1      53.573  31.111  26.506  1.00  0.00    -0.237 OA
ATOM     51  O   UNL A   1      55.684  30.371  25.445  1.00  0.00    -0.237 OA
ATOM     52  O   UNL A   1      53.630  30.588  24.098  1.00  0.00    -0.744 OA
ENDBRANCH  45  49
ENDBRANCH  28  42
BRANCH  29  53
ATOM     53  C   UNL A   1      46.272  25.065  34.739  1.00  0.00     0.023 A 
ATOM     54  C   UNL A   1      45.878  26.069  35.635  1.00  0.00     0.031 A 
ATOM     55  C   UNL A   1      45.706  23.784  34.884  1.00  0.00     0.131 A 
ATOM     56  C   UNL A   1      44.947  25.774  36.642  1.00  0.00     0.055 A 
ATOM     57  C   UNL A   1      44.752  23.507  35.861  1.00  0.00     0.041 A 
ATOM     58  F   UNL A   1      46.042  22.796  34.039  1.00  0.00    -0.206 F 
ATOM     59  C   UNL A   1      44.368  24.506  36.751  1.00  0.00     0.022 A 
BRANCH  56  60
ATOM     60  S   UNL A   1      44.500  27.077  37.821  1.00  0.00     0.124 S 
ATOM     61  O   UNL A   1      43.783  26.321  38.841  1.00  0.00    -0.237 OA
ATOM     62  O   UNL A   1      45.805  27.603  38.207  1.00  0.00    -0.237 OA
ATOM     63  O   UNL A   1      43.677  27.987  37.026  1.00  0.00    -0.744 OA
ENDBRANCH  56  60
ENDBRANCH  29  53
BRANCH  41  64
ATOM     64  C   UNL A   1      53.223  24.868  34.007  1.00  0.00     0.023 A 
ATOM     65  C   UNL A   1      53.782  25.824  34.869  1.00  0.00     0.031 A 
ATOM     66  C   UNL A   1      53.702  23.547  34.075  1.00  0.00     0.131 A 
ATOM     67  C   UNL A   1      54.809  25.452  35.749  1.00  0.00     0.055 A 
ATOM     68  C   UNL A   1      54.688  23.172  34.987  1.00  0.00     0.041 A 
ATOM     69  F   UNL A   1      53.200  22.596  33.271  1.00  0.00    -0.206 F 
ATOM     70  C   UNL A   1      55.251  24.128  35.828  1.00  0.00     0.022 A 
BRANCH  67  71
ATOM     71  S   UNL A   1      55.590  26.730  36.770  1.00  0.00     0.124 S 
ATOM     72  O   UNL A   1      56.448  27.407  35.802  1.00  0.00    -0.237 OA
ATOM     73  O   UNL A   1      54.445  27.495  37.251  1.00  0.00    -0.237 OA
ATOM     74  O   UNL A   1      56.297  25.965  37.796  1.00  0.00    -0.744 OA
ENDBRANCH  67  71
ENDBRANCH  41  64
ENDBRANCH  15  16
ENDBRANCH   8  10
ENDBRANCH   5   6
ENDBRANCH   4   5
ENDBRANCH   3   4
ENDBRANCH   2   3
ENDBRANCH   1   2
BRANCH   1  75
ATOM     75  C   UNL A   1      37.640  23.934  26.161  1.00  0.00     0.116 C 
BRANCH  75  76
ATOM     76  N   UNL A   1      37.314  23.681  24.768  1.00  0.00    -0.354 N 
ATOM     77  C   UNL A   1      36.799  22.586  24.143  1.00  0.00     0.244 C 
ATOM     78  H   UNL A   1      37.497  24.440  24.168  1.00  0.00     0.163 HD
ATOM     79  O   UNL A   1      36.598  22.685  22.928  1.00  0.00    -0.273 OA
BRANCH  77  80
ATOM     80  C   UNL A   1      36.396  21.314  24.922  1.00  0.00     0.197 C 
BRANCH  80  81
ATOM     81  N   UNL A   1      35.199  20.711  24.311  1.00  0.00    -0.340 N 
ATOM     82  C   UNL A   1      33.886  20.710  24.650  1.00  0.00     0.244 C 
ATOM     83  H   UNL A   1      35.391  20.205  23.488  1.00  0.00     0.164 HD
ATOM     84  O   UNL A   1      33.199  19.797  24.180  1.00  0.00    -0.273 OA
BRANCH  82  85
ATOM     85  C   UNL A   1      33.322  21.655  25.731  1.00  0.00     0.181 C 
BRANCH  85  86
ATOM     86  N   UNL A   1      31.866  21.583  25.878  1.00  0.00    -0.342 N 
ATOM     87  C   UNL A   1      30.924  22.562  25.842  1.00  0.00     0.243 C 
ATOM     88  H   UNL A   1      31.512  20.676  26.028  1.00  0.00     0.164 HD
ATOM     89  O   UNL A   1      29.774  22.258  26.176  1.00  0.00    -0.273 OA
BRANCH  87  90
ATOM     90  C   UNL A   1      31.270  23.988  25.372  1.00  0.00     0.176 C 
BRANCH  90  91
ATOM     91  N   UNL A   1      30.070  24.414  24.635  1.00  0.00    -0.340 N 
ATOM     92  C   UNL A   1      29.755  25.549  23.936  1.00  0.00     0.251 C 
ATOM     93  H   UNL A   1      29.345  23.748  24.646  1.00  0.00     0.164 HD
ATOM     94  O   UNL A   1      28.607  25.691  23.523  1.00  0.00    -0.269 OA
BRANCH  92  95
ATOM     95  C   UNL A   1      30.763  26.583  23.615  1.00  0.00     0.040 A 
ATOM     96  C   UNL A   1      31.898  26.262  22.866  1.00  0.00     0.017 A 
ATOM     97  C   UNL A   1      30.497  27.926  23.914  1.00  0.00     0.017 A 
ATOM     98  C   UNL A   1      32.788  27.255  22.457  1.00  0.00     0.040 A 
ATOM     99  C   UNL A   1      31.384  28.925  23.498  1.00  0.00     0.040 A 
ATOM    100  C   UNL A   1      32.522  28.579  22.777  1.00  0.00     0.123 A 
ATOM    101  F   UNL A   1      33.368  29.530  22.367  1.00  0.00    -0.207 F 
ENDBRANCH  92  95
ENDBRANCH  90  91
BRANCH  90 102
ATOM    102  C   UNL A   1      31.573  24.858  26.606  1.00  0.00     0.072 C 
BRANCH 102 103
ATOM    103  C   UNL A   1      32.663  25.858  26.367  1.00  0.00    -0.020 A 
ATOM    104  C   UNL A   1      33.891  25.626  25.776  1.00  0.00     0.087 A 
ATOM    105  C   UNL A   1      32.615  27.255  26.682  1.00  0.00     0.003 A 
ATOM    106  N   UNL A   1      34.553  26.824  25.676  1.00  0.00    -0.361 N 
ATOM    107  C   UNL A   1      33.774  27.840  26.174  1.00  0.00     0.046 A 
ATOM    108  C   UNL A   1      31.663  28.087  27.306  1.00  0.00     0.010 A 
ATOM    109  H   UNL A   1      35.456  26.938  25.302  1.00  0.00     0.166 HD
ATOM    110  C   UNL A   1      33.999  29.223  26.207  1.00  0.00     0.026 A 
ATOM    111  C   UNL A   1      31.856  29.471  27.322  1.00  0.00     0.001 A 
ATOM    112  C   UNL A   1      33.005  30.029  26.769  1.00  0.00     0.002 A 
ENDBRANCH 102 103
ENDBRANCH  90 102
ENDBRANCH  87  90
ENDBRANCH  85  86
BRANCH  85 113
ATOM    113  C   UNL A   1      34.021  21.381  27.080  1.00  0.00     0.101 C 
BRANCH 113 114
ATOM    114  S   UNL A   1      33.630  22.609  28.384  1.00  0.00    -0.177 SA
ATOM    115  H   UNL A   1      34.442  23.691  28.245  1.00  0.00     0.102 HD
ENDBRANCH 113 114
ENDBRANCH  85 113
ENDBRANCH  82  85
ENDBRANCH  80  81
BRANCH  80 116
ATOM    116  C   UNL A   1      37.445  20.195  24.957  1.00  0.00     0.191 C 
BRANCH 116 117
ATOM    117  O   UNL A   1      36.843  18.902  25.003  1.00  0.00    -0.394 OA
ATOM    118  H   UNL A   1      36.804  18.597  25.923  1.00  0.00     0.210 HD
ENDBRANCH 116 117
ENDBRANCH  80 116
ENDBRANCH  77  80
ENDBRANCH  75  76
ENDBRANCH   1  75
TORSDOF 28
ENDMDL
MODEL 2
REMARK VINA RESULT:      -9.2      5.482      9.595
REMARK SMILES O=C(NCCCCCCNC(=O)[C@H](CO)NC(=O)[C@H](CS)NC(=O)[C@H](Cc1c[nH]c2ccccc12)NC(=O)c1ccc(F)cc1)c1ccc(-c2c3nc(c(-c4cc(S(=O)(=O)[O-])ccc4F)c4ccc([nH]4)c(-c4cc(S(=O)(=O)[O-])ccc4F)c4nc(c(-c5cc(S(=O)(=O)[O-])ccc5F)c5ccc2[nH]5)C=C4)C=C3)cc1
REMARK SMILES IDX 8 1 7 2 6 3 5 4 4 5 3 6 1 7 2 8 46 10 47 11 108 12 48 13
REMARK SMILES IDX 107 14 49 15 50 16 51 17 101 18 52 19 106 20 100 21 102 22
REMARK SMILES IDX 53 23 105 24 99 25 98 26 54 28 86 29 66 30 85 31 67 32 70 33
REMARK SMILES IDX 84 34 103 35 68 36 69 37 83 39 104 40 71 41 55 42 56 43
REMARK SMILES IDX 64 44 57 45 63 46 65 47 62 48 58 49 59 50 60 51 61 52 87 53
REMARK SMILES IDX 88 54 96 55 89 56 95 57 97 58 94 59 90 60 91 61 92 62 93 63
REMARK SMILES IDX 72 64 73 65 81 66 74 67 80 68 82 69 79 70 75 71 76 72 77 73
REMARK SMILES IDX 78 74 9 75 10 76 11 77 12 79 13 80 16 81 17 82 18 84 19 85
REMARK SMILES IDX 22 86 23 87 24 89 25 90 36 91 37 92 38 94 39 95 40 96 45 97
REMARK SMILES IDX 41 98 44 99 42 100 43 101 26 102 27 103 28 104 35 105 29 106
REMARK SMILES IDX 30 107 34 108 31 110 33 111 32 112 20 113 21 114 14 116
REMARK SMILES IDX 15 117
REMARK H PARENT 3 9 102 27 70 38 10 78 16 83 22 88 36 93 29 109 21 115 15 118
REMARK Flexibility Score: inf
ROOT
ATOM      1  C   UNL A   1      38.193  19.983  25.015  1.00  0.00     0.021 C 
ENDROOT
BRANCH   1   2
ATOM      2  C   UNL A   1      39.415  19.392  25.724  1.00  0.00     0.002 C 
BRANCH   2   3
ATOM      3  C   UNL A   1      40.271  20.411  26.477  1.00  0.00     0.002 C 
BRANCH   3   4
ATOM      4  C   UNL A   1      41.692  20.571  25.937  1.00  0.00     0.021 C 
BRANCH   4   5
ATOM      5  C   UNL A   1      42.650  19.469  26.370  1.00  0.00     0.116 C 
BRANCH   5   6
ATOM      6  N   UNL A   1      43.539  19.073  25.288  1.00  0.00    -0.352 N 
ATOM      7  O   UNL A   1      44.853  19.440  23.485  1.00  0.00    -0.269 OA
ATOM      8  C   UNL A   1      44.345  19.874  24.516  1.00  0.00     0.251 C 
ATOM      9  H   UNL A   1      43.566  18.111  25.083  1.00  0.00     0.163 HD
BRANCH   8  10
ATOM     10  C   UNL A   1      44.582  21.266  24.946  1.00  0.00     0.039 A 
ATOM     11  C   UNL A   1      45.274  21.513  26.134  1.00  0.00     0.014 A 
ATOM     12  C   UNL A   1      44.099  22.324  24.173  1.00  0.00     0.014 A 
ATOM     13  C   UNL A   1      45.367  22.809  26.618  1.00  0.00     0.010 A 
ATOM     14  C   UNL A   1      44.282  23.637  24.613  1.00  0.00     0.010 A 
ATOM     15  C   UNL A   1      44.905  23.888  25.846  1.00  0.00    -0.014 A 
BRANCH  15  16
ATOM     16  C   UNL A   1      45.182  25.272  26.307  1.00  0.00     0.031 A 
ATOM     17  C   UNL A   1      44.139  26.085  27.018  1.00  0.00     0.074 A 
ATOM     18  C   UNL A   1      46.415  25.774  26.098  1.00  0.00     0.049 A 
ATOM     19  N   UNL A   1      44.226  27.309  27.472  1.00  0.00    -0.248 NA
ATOM     20  C   UNL A   1      42.832  25.451  27.244  1.00  0.00     0.031 C 
ATOM     21  C   UNL A   1      47.507  25.061  25.427  1.00  0.00     0.029 A 
ATOM     22  N   UNL A   1      46.971  26.977  26.445  1.00  0.00    -0.354 N 
ATOM     23  C   UNL A   1      42.986  27.599  28.029  1.00  0.00     0.074 A 
ATOM     24  C   UNL A   1      42.153  26.430  27.826  1.00  0.00     0.031 C 
ATOM     25  C   UNL A   1      48.615  25.812  25.470  1.00  0.00     0.029 A 
ATOM     26  C   UNL A   1      48.293  27.092  26.087  1.00  0.00     0.049 A 
ATOM     27  H   UNL A   1      46.471  27.689  26.905  1.00  0.00     0.167 HD
ATOM     28  C   UNL A   1      42.590  28.734  28.655  1.00  0.00     0.034 A 
ATOM     29  C   UNL A   1      49.151  28.122  26.213  1.00  0.00     0.034 A 
ATOM     30  C   UNL A   1      43.438  29.886  28.845  1.00  0.00     0.049 A 
ATOM     31  C   UNL A   1      48.665  29.392  26.844  1.00  0.00     0.074 A 
ATOM     32  C   UNL A   1      43.138  31.078  29.481  1.00  0.00     0.029 A 
ATOM     33  N   UNL A   1      44.748  29.996  28.394  1.00  0.00    -0.354 N 
ATOM     34  N   UNL A   1      47.481  29.659  27.343  1.00  0.00    -0.248 NA
ATOM     35  C   UNL A   1      49.620  30.503  26.919  1.00  0.00     0.031 C 
ATOM     36  C   UNL A   1      44.236  31.933  29.353  1.00  0.00     0.029 A 
ATOM     37  C   UNL A   1      45.255  31.248  28.708  1.00  0.00     0.049 A 
ATOM     38  H   UNL A   1      45.243  29.289  27.921  1.00  0.00     0.167 HD
ATOM     39  C   UNL A   1      47.553  30.967  27.807  1.00  0.00     0.074 A 
ATOM     40  C   UNL A   1      48.898  31.433  27.533  1.00  0.00     0.031 C 
ATOM     41  C   UNL A   1      46.591  31.709  28.411  1.00  0.00     0.034 A 
BRANCH  28  42
ATOM     42  C   UNL A   1      41.166  28.805  29.148  1.00  0.00     0.023 A 
ATOM     43  C   UNL A   1      40.843  28.636  30.506  1.00  0.00     0.031 A 
ATOM     44  C   UNL A   1      40.118  29.075  28.250  1.00  0.00     0.131 A 
ATOM     45  C   UNL A   1      39.504  28.698  30.920  1.00  0.00     0.055 A 
ATOM     46  C   UNL A   1      38.794  29.200  28.677  1.00  0.00     0.041 A 
ATOM     47  F   UNL A   1      40.364  29.230  26.939  1.00  0.00    -0.206 F 
ATOM     48  C   UNL A   1      38.480  29.002  30.019  1.00  0.00     0.022 A 
BRANCH  45  49
ATOM     49  S   UNL A   1      39.105  28.285  32.640  1.00  0.00     0.124 S 
ATOM     50  O   UNL A   1      38.430  29.502  33.085  1.00  0.00    -0.237 OA
ATOM     51  O   UNL A   1      38.262  27.104  32.494  1.00  0.00    -0.237 OA
ATOM     52  O   UNL A   1      40.413  28.046  33.246  1.00  0.00    -0.744 OA
ENDBRANCH  45  49
ENDBRANCH  28  42
BRANCH  29  53
ATOM     53  C   UNL A   1      50.540  27.980  25.703  1.00  0.00     0.023 A 
ATOM     54  C   UNL A   1      50.845  28.241  24.359  1.00  0.00     0.031 A 
ATOM     55  C   UNL A   1      51.594  27.636  26.570  1.00  0.00     0.131 A 
ATOM     56  C   UNL A   1      52.174  28.151  23.919  1.00  0.00     0.055 A 
ATOM     57  C   UNL A   1      52.918  27.586  26.136  1.00  0.00     0.041 A 
ATOM     58  F   UNL A   1      51.351  27.392  27.868  1.00  0.00    -0.206 F 
ATOM     59  C   UNL A   1      53.214  27.843  24.801  1.00  0.00     0.022 A 
BRANCH  56  60
ATOM     60  S   UNL A   1      52.530  28.440  22.165  1.00  0.00     0.124 S 
ATOM     61  O   UNL A   1      52.047  29.804  21.985  1.00  0.00    -0.237 OA
ATOM     62  O   UNL A   1      53.976  28.257  22.111  1.00  0.00    -0.237 OA
ATOM     63  O   UNL A   1      51.750  27.407  21.486  1.00  0.00    -0.744 OA
ENDBRANCH  56  60
ENDBRANCH  29  53
BRANCH  41  64
ATOM     64  C   UNL A   1      46.965  33.101  28.845  1.00  0.00     0.023 A 
ATOM     65  C   UNL A   1      46.648  34.226  28.067  1.00  0.00     0.031 A 
ATOM     66  C   UNL A   1      47.608  33.304  30.080  1.00  0.00     0.131 A 
ATOM     67  C   UNL A   1      46.997  35.506  28.521  1.00  0.00     0.055 A 
ATOM     68  C   UNL A   1      47.906  34.582  30.549  1.00  0.00     0.041 A 
ATOM     69  F   UNL A   1      47.932  32.260  30.860  1.00  0.00    -0.206 F 
ATOM     70  C   UNL A   1      47.605  35.693  29.766  1.00  0.00     0.022 A 
BRANCH  67  71
ATOM     71  S   UNL A   1      46.678  36.931  27.446  1.00  0.00     0.124 S 
ATOM     72  O   UNL A   1      46.739  38.041  28.393  1.00  0.00    -0.237 OA
ATOM     73  O   UNL A   1      47.773  36.853  26.485  1.00  0.00    -0.237 OA
ATOM     74  O   UNL A   1      45.352  36.657  26.896  1.00  0.00    -0.744 OA
ENDBRANCH  67  71
ENDBRANCH  41  64
ENDBRANCH  15  16
ENDBRANCH   8  10
ENDBRANCH   5   6
ENDBRANCH   4   5
ENDBRANCH   3   4
ENDBRANCH   2   3
ENDBRANCH   1   2
BRANCH   1  75
ATOM     75  C   UNL A   1      37.900  21.440  25.379  1.00  0.00     0.116 C 
BRANCH  75  76
ATOM     76  N   UNL A   1      37.404  22.179  24.230  1.00  0.00    -0.354 N 
ATOM     77  C   UNL A   1      36.138  22.434  23.795  1.00  0.00     0.244 C 
ATOM     78  H   UNL A   1      38.110  22.566  23.664  1.00  0.00     0.163 HD
ATOM     79  O   UNL A   1      36.030  23.132  22.782  1.00  0.00    -0.273 OA
BRANCH  77  80
ATOM     80  C   UNL A   1      34.893  21.956  24.576  1.00  0.00     0.197 C 
BRANCH  80  81
ATOM     81  N   UNL A   1      33.671  22.450  23.921  1.00  0.00    -0.340 N 
ATOM     82  C   UNL A   1      32.758  23.397  24.253  1.00  0.00     0.244 C 
ATOM     83  H   UNL A   1      33.475  22.001  23.066  1.00  0.00     0.164 HD
ATOM     84  O   UNL A   1      31.648  23.301  23.719  1.00  0.00    -0.273 OA
BRANCH  82  85
ATOM     85  C   UNL A   1      33.008  24.405  25.394  1.00  0.00     0.181 C 
BRANCH  85  86
ATOM     86  N   UNL A   1      31.782  24.975  25.958  1.00  0.00    -0.342 N 
ATOM     87  C   UNL A   1      31.373  26.268  26.059  1.00  0.00     0.243 C 
ATOM     88  H   UNL A   1      31.151  24.314  26.323  1.00  0.00     0.164 HD
ATOM     89  O   UNL A   1      30.371  26.496  26.744  1.00  0.00    -0.273 OA
BRANCH  87  90
ATOM     90  C   UNL A   1      32.112  27.400  25.320  1.00  0.00     0.176 C 
BRANCH  90  91
ATOM     91  N   UNL A   1      32.311  26.863  23.964  1.00  0.00    -0.340 N 
ATOM     92  C   UNL A   1      31.579  26.942  22.810  1.00  0.00     0.251 C 
ATOM     93  H   UNL A   1      33.139  26.339  23.868  1.00  0.00     0.164 HD
ATOM     94  O   UNL A   1      31.927  26.274  21.841  1.00  0.00    -0.269 OA
BRANCH  92  95
ATOM     95  C   UNL A   1      30.415  27.846  22.673  1.00  0.00     0.040 A 
ATOM     96  C   UNL A   1      29.160  27.467  23.154  1.00  0.00     0.017 A 
ATOM     97  C   UNL A   1      30.607  29.156  22.217  1.00  0.00     0.017 A 
ATOM     98  C   UNL A   1      28.089  28.360  23.139  1.00  0.00     0.040 A 
ATOM     99  C   UNL A   1      29.536  30.058  22.207  1.00  0.00     0.040 A 
ATOM    100  C   UNL A   1      28.288  29.649  22.665  1.00  0.00     0.123 A 
ATOM    101  F   UNL A   1      27.263  30.510  22.669  1.00  0.00    -0.207 F 
ENDBRANCH  92  95
ENDBRANCH  90  91
BRANCH  90 102
ATOM    102  C   UNL A   1      31.240  28.669  25.355  1.00  0.00     0.072 C 
BRANCH 102 103
ATOM    103  C   UNL A   1      31.913  29.827  26.028  1.00  0.00    -0.020 A 
ATOM    104  C   UNL A   1      31.384  31.086  26.245  1.00  0.00     0.087 A 
ATOM    105  C   UNL A   1      33.226  29.827  26.601  1.00  0.00     0.003 A 
ATOM    106  N   UNL A   1      32.296  31.816  26.964  1.00  0.00    -0.361 N 
ATOM    107  C   UNL A   1      33.406  31.053  27.239  1.00  0.00     0.046 A 
ATOM    108  C   UNL A   1      34.259  28.871  26.683  1.00  0.00     0.010 A 
ATOM    109  H   UNL A   1      32.174  32.752  27.244  1.00  0.00     0.166 HD
ATOM    110  C   UNL A   1      34.542  31.347  28.004  1.00  0.00     0.026 A 
ATOM    111  C   UNL A   1      35.387  29.135  27.465  1.00  0.00     0.001 A 
ATOM    112  C   UNL A   1      35.518  30.353  28.124  1.00  0.00     0.002 A 
ENDBRANCH 102 103
ENDBRANCH  90 102
ENDBRANCH  87  90
ENDBRANCH  85  86
BRANCH  85 113
ATOM    113  C   UNL A   1      33.861  23.743  26.498  1.00  0.00     0.101 C 
BRANCH 113 114
ATOM    114  S   UNL A   1      32.904  22.669  27.634  1.00  0.00    -0.177 SA
ATOM    115  H   UNL A   1      32.777  21.431  27.086  1.00  0.00     0.102 HD
ENDBRANCH 113 114
ENDBRANCH  85 113
ENDBRANCH  82  85
ENDBRANCH  80  81
BRANCH  80 116
ATOM    116  C   UNL A   1      34.716  20.435  24.679  1.00  0.00     0.191 C 
BRANCH 116 117
ATOM    117  O   UNL A   1      33.541  20.084  25.407  1.00  0.00    -0.394 OA
ATOM    118  H   UNL A   1      33.157  19.277  25.030  1.00  0.00     0.210 HD
ENDBRANCH 116 117
ENDBRANCH  80 116
ENDBRANCH  77  80
ENDBRANCH  75  76
ENDBRANCH   1  75
TORSDOF 28
ENDMDL
MODEL 3
REMARK VINA RESULT:      -9.0      6.645      8.890
REMARK SMILES O=C(NCCCCCCNC(=O)[C@H](CO)NC(=O)[C@H](CS)NC(=O)[C@H](Cc1c[nH]c2ccccc12)NC(=O)c1ccc(F)cc1)c1ccc(-c2c3nc(c(-c4cc(S(=O)(=O)[O-])ccc4F)c4ccc([nH]4)c(-c4cc(S(=O)(=O)[O-])ccc4F)c4nc(c(-c5cc(S(=O)(=O)[O-])ccc5F)c5ccc2[nH]5)C=C4)C=C3)cc1
REMARK SMILES IDX 8 1 7 2 6 3 5 4 4 5 3 6 1 7 2 8 46 10 47 11 108 12 48 13
REMARK SMILES IDX 107 14 49 15 50 16 51 17 101 18 52 19 106 20 100 21 102 22
REMARK SMILES IDX 53 23 105 24 99 25 98 26 54 28 86 29 66 30 85 31 67 32 70 33
REMARK SMILES IDX 84 34 103 35 68 36 69 37 83 39 104 40 71 41 55 42 56 43
REMARK SMILES IDX 64 44 57 45 63 46 65 47 62 48 58 49 59 50 60 51 61 52 87 53
REMARK SMILES IDX 88 54 96 55 89 56 95 57 97 58 94 59 90 60 91 61 92 62 93 63
REMARK SMILES IDX 72 64 73 65 81 66 74 67 80 68 82 69 79 70 75 71 76 72 77 73
REMARK SMILES IDX 78 74 9 75 10 76 11 77 12 79 13 80 16 81 17 82 18 84 19 85
REMARK SMILES IDX 22 86 23 87 24 89 25 90 36 91 37 92 38 94 39 95 40 96 45 97
REMARK SMILES IDX 41 98 44 99 42 100 43 101 26 102 27 103 28 104 35 105 29 106
REMARK SMILES IDX 30 107 34 108 31 110 33 111 32 112 20 113 21 114 14 116
REMARK SMILES IDX 15 117
REMARK H PARENT 3 9 102 27 70 38 10 78 16 83 22 88 36 93 29 109 21 115 15 118
REMARK Flexibility Score: inf
ROOT
ATOM      1  C   UNL A   1      39.339  21.723  26.108  1.00  0.00     0.021 C 
ENDROOT
BRANCH   1   2
ATOM      2  C   UNL A   1      40.469  22.271  26.985  1.00  0.00     0.002 C 
BRANCH   2   3
ATOM      3  C   UNL A   1      40.220  23.672  27.546  1.00  0.00     0.002 C 
BRANCH   3   4
ATOM      4  C   UNL A   1      41.197  24.738  27.052  1.00  0.00     0.021 C 
BRANCH   4   5
ATOM      5  C   UNL A   1      42.633  24.527  27.511  1.00  0.00     0.116 C 
BRANCH   5   6
ATOM      6  N   UNL A   1      43.559  24.498  26.387  1.00  0.00    -0.352 N 
ATOM      7  O   UNL A   1      44.764  25.415  24.709  1.00  0.00    -0.269 OA
ATOM      8  C   UNL A   1      44.207  25.554  25.796  1.00  0.00     0.251 C 
ATOM      9  H   UNL A   1      43.742  23.610  26.003  1.00  0.00     0.163 HD
BRANCH   8  10
ATOM     10  C   UNL A   1      44.217  26.858  26.487  1.00  0.00     0.039 A 
ATOM     11  C   UNL A   1      45.140  27.089  27.510  1.00  0.00     0.014 A 
ATOM     12  C   UNL A   1      43.294  27.842  26.127  1.00  0.00     0.014 A 
ATOM     13  C   UNL A   1      45.054  28.252  28.262  1.00  0.00     0.010 A 
ATOM     14  C   UNL A   1      43.276  29.054  26.822  1.00  0.00     0.010 A 
ATOM     15  C   UNL A   1      44.146  29.262  27.904  1.00  0.00    -0.014 A 
BRANCH  15  16
ATOM     16  C   UNL A   1      44.204  30.564  28.613  1.00  0.00     0.031 A 
ATOM     17  C   UNL A   1      45.207  31.616  28.241  1.00  0.00     0.074 A 
ATOM     18  C   UNL A   1      43.303  30.793  29.590  1.00  0.00     0.049 A 
ATOM     19  N   UNL A   1      45.389  32.798  28.774  1.00  0.00    -0.248 NA
ATOM     20  C   UNL A   1      46.129  31.306  27.138  1.00  0.00     0.031 C 
ATOM     21  C   UNL A   1      42.275  29.840  30.022  1.00  0.00     0.029 A 
ATOM     22  N   UNL A   1      43.083  31.894  30.374  1.00  0.00    -0.354 N 
ATOM     23  C   UNL A   1      46.449  33.371  28.080  1.00  0.00     0.074 A 
ATOM     24  C   UNL A   1      46.891  32.391  27.108  1.00  0.00     0.031 C 
ATOM     25  C   UNL A   1      41.497  30.421  30.944  1.00  0.00     0.029 A 
ATOM     26  C   UNL A   1      42.021  31.749  31.235  1.00  0.00     0.049 A 
ATOM     27  H   UNL A   1      43.632  32.709  30.327  1.00  0.00     0.167 HD
ATOM     28  C   UNL A   1      46.992  34.602  28.241  1.00  0.00     0.034 A 
ATOM     29  C   UNL A   1      41.533  32.577  32.177  1.00  0.00     0.034 A 
ATOM     30  C   UNL A   1      46.534  35.562  29.218  1.00  0.00     0.049 A 
ATOM     31  C   UNL A   1      42.199  33.904  32.385  1.00  0.00     0.074 A 
ATOM     32  C   UNL A   1      47.005  36.843  29.449  1.00  0.00     0.029 A 
ATOM     33  N   UNL A   1      45.508  35.346  30.129  1.00  0.00    -0.354 N 
ATOM     34  N   UNL A   1      43.217  34.421  31.737  1.00  0.00    -0.248 NA
ATOM     35  C   UNL A   1      41.664  34.755  33.453  1.00  0.00     0.031 C 
ATOM     36  C   UNL A   1      46.315  37.373  30.544  1.00  0.00     0.029 A 
ATOM     37  C   UNL A   1      45.356  36.456  30.946  1.00  0.00     0.049 A 
ATOM     38  H   UNL A   1      44.967  34.525  30.187  1.00  0.00     0.167 HD
ATOM     39  C   UNL A   1      43.436  35.668  32.310  1.00  0.00     0.074 A 
ATOM     40  C   UNL A   1      42.440  35.828  33.352  1.00  0.00     0.031 C 
ATOM     41  C   UNL A   1      44.374  36.596  31.995  1.00  0.00     0.034 A 
BRANCH  28  42
ATOM     42  C   UNL A   1      48.168  34.972  27.372  1.00  0.00     0.023 A 
ATOM     43  C   UNL A   1      49.492  34.732  27.777  1.00  0.00     0.031 A 
ATOM     44  C   UNL A   1      47.960  35.548  26.106  1.00  0.00     0.131 A 
ATOM     45  C   UNL A   1      50.558  35.103  26.942  1.00  0.00     0.055 A 
ATOM     46  C   UNL A   1      49.021  35.856  25.252  1.00  0.00     0.041 A 
ATOM     47  F   UNL A   1      46.717  35.815  25.673  1.00  0.00    -0.206 F 
ATOM     48  C   UNL A   1      50.330  35.641  25.673  1.00  0.00     0.022 A 
BRANCH  45  49
ATOM     49  S   UNL A   1      52.250  34.957  27.575  1.00  0.00     0.124 S 
ATOM     50  O   UNL A   1      52.601  36.357  27.803  1.00  0.00    -0.237 OA
ATOM     51  O   UNL A   1      52.071  34.141  28.771  1.00  0.00    -0.237 OA
ATOM     52  O   UNL A   1      52.970  34.309  26.482  1.00  0.00    -0.744 OA
ENDBRANCH  45  49
ENDBRANCH  28  42
BRANCH  29  53
ATOM     53  C   UNL A   1      40.372  32.144  32.999  1.00  0.00     0.023 A 
ATOM     54  C   UNL A   1      39.071  32.169  32.478  1.00  0.00     0.031 A 
ATOM     55  C   UNL A   1      40.559  31.643  34.301  1.00  0.00     0.131 A 
ATOM     56  C   UNL A   1      38.002  31.703  33.258  1.00  0.00     0.055 A 
ATOM     57  C   UNL A   1      39.499  31.145  35.057  1.00  0.00     0.041 A 
ATOM     58  F   UNL A   1      41.790  31.586  34.835  1.00  0.00    -0.206 F 
ATOM     59  C   UNL A   1      38.209  31.176  34.536  1.00  0.00     0.022 A 
BRANCH  56  60
ATOM     60  S   UNL A   1      36.323  31.799  32.579  1.00  0.00     0.124 S 
ATOM     61  O   UNL A   1      36.035  30.397  32.301  1.00  0.00    -0.237 OA
ATOM     62  O   UNL A   1      35.581  32.402  33.682  1.00  0.00    -0.237 OA
ATOM     63  O   UNL A   1      36.482  32.650  31.402  1.00  0.00    -0.744 OA
ENDBRANCH  56  60
ENDBRANCH  29  53
BRANCH  41  64
ATOM     64  C   UNL A   1      44.353  37.887  32.769  1.00  0.00     0.023 A 
ATOM     65  C   UNL A   1      43.561  38.974  32.366  1.00  0.00     0.031 A 
ATOM     66  C   UNL A   1      45.105  38.011  33.951  1.00  0.00     0.131 A 
ATOM     67  C   UNL A   1      43.556  40.151  33.129  1.00  0.00     0.055 A 
ATOM     68  C   UNL A   1      45.056  39.165  34.732  1.00  0.00     0.041 A 
ATOM     69  F   UNL A   1      45.879  37.000  34.378  1.00  0.00    -0.206 F 
ATOM     70  C   UNL A   1      44.282  40.246  34.320  1.00  0.00     0.022 A 
BRANCH  67  71
ATOM     71  S   UNL A   1      42.613  41.578  32.527  1.00  0.00     0.124 S 
ATOM     72  O   UNL A   1      41.920  42.012  33.737  1.00  0.00    -0.237 OA
ATOM     73  O   UNL A   1      43.662  42.467  32.040  1.00  0.00    -0.237 OA
ATOM     74  O   UNL A   1      41.754  41.010  31.490  1.00  0.00    -0.744 OA
ENDBRANCH  67  71
ENDBRANCH  41  64
ENDBRANCH  15  16
ENDBRANCH   8  10
ENDBRANCH   5   6
ENDBRANCH   4   5
ENDBRANCH   3   4
ENDBRANCH   2   3
ENDBRANCH   1   2
BRANCH   1  75
ATOM     75  C   UNL A   1      38.092  22.609  26.066  1.00  0.00     0.116 C 
BRANCH  75  76
ATOM     76  N   UNL A   1      37.695  22.893  24.697  1.00  0.00    -0.354 N 
ATOM     77  C   UNL A   1      36.527  22.677  24.029  1.00  0.00     0.244 C 
ATOM     78  H   UNL A   1      38.397  23.319  24.154  1.00  0.00     0.163 HD
ATOM     79  O   UNL A   1      36.480  23.063  22.856  1.00  0.00    -0.273 OA
BRANCH  77  80
ATOM     80  C   UNL A   1      35.289  22.067  24.723  1.00  0.00     0.197 C 
BRANCH  80  81
ATOM     81  N   UNL A   1      34.068  22.450  23.996  1.00  0.00    -0.340 N 
ATOM     82  C   UNL A   1      33.059  23.315  24.268  1.00  0.00     0.244 C 
ATOM     83  H   UNL A   1      33.961  21.984  23.135  1.00  0.00     0.164 HD
ATOM     84  O   UNL A   1      31.994  23.121  23.673  1.00  0.00    -0.273 OA
BRANCH  82  85
ATOM     85  C   UNL A   1      33.154  24.345  25.413  1.00  0.00     0.181 C 
BRANCH  85  86
ATOM     86  N   UNL A   1      31.856  24.856  25.858  1.00  0.00    -0.342 N 
ATOM     87  C   UNL A   1      31.421  26.133  26.033  1.00  0.00     0.243 C 
ATOM     88  H   UNL A   1      31.189  24.162  26.063  1.00  0.00     0.164 HD
ATOM     89  O   UNL A   1      30.331  26.290  26.594  1.00  0.00    -0.273 OA
BRANCH  87  90
ATOM     90  C   UNL A   1      32.240  27.333  25.524  1.00  0.00     0.176 C 
BRANCH  90  91
ATOM     91  N   UNL A   1      32.575  26.966  24.138  1.00  0.00    -0.340 N 
ATOM     92  C   UNL A   1      31.893  27.060  22.955  1.00  0.00     0.251 C 
ATOM     93  H   UNL A   1      33.473  26.573  24.043  1.00  0.00     0.164 HD
ATOM     94  O   UNL A   1      32.377  26.546  21.950  1.00  0.00    -0.269 OA
BRANCH  92  95
ATOM     95  C   UNL A   1      30.621  27.806  22.833  1.00  0.00     0.040 A 
ATOM     96  C   UNL A   1      29.423  27.248  23.285  1.00  0.00     0.017 A 
ATOM     97  C   UNL A   1      30.641  29.145  22.423  1.00  0.00     0.017 A 
ATOM     98  C   UNL A   1      28.244  27.992  23.286  1.00  0.00     0.040 A 
ATOM     99  C   UNL A   1      29.460  29.897  22.430  1.00  0.00     0.040 A 
ATOM    100  C   UNL A   1      28.274  29.311  22.858  1.00  0.00     0.123 A 
ATOM    101  F   UNL A   1      27.144  30.028  22.877  1.00  0.00    -0.207 F 
ENDBRANCH  92  95
ENDBRANCH  90  91
BRANCH  90 102
ATOM    102  C   UNL A   1      31.377  28.605  25.630  1.00  0.00     0.072 C 
BRANCH 102 103
ATOM    103  C   UNL A   1      32.102  29.756  26.259  1.00  0.00    -0.020 A 
ATOM    104  C   UNL A   1      31.599  31.019  26.512  1.00  0.00     0.087 A 
ATOM    105  C   UNL A   1      33.449  29.744  26.746  1.00  0.00     0.003 A 
ATOM    106  N   UNL A   1      32.561  31.740  27.171  1.00  0.00    -0.361 N 
ATOM    107  C   UNL A   1      33.680  30.968  27.372  1.00  0.00     0.046 A 
ATOM    108  C   UNL A   1      34.478  28.781  26.759  1.00  0.00     0.010 A 
ATOM    109  H   UNL A   1      32.464  32.676  27.459  1.00  0.00     0.166 HD
ATOM    110  C   UNL A   1      34.866  31.252  28.062  1.00  0.00     0.026 A 
ATOM    111  C   UNL A   1      35.656  29.035  27.466  1.00  0.00     0.001 A 
ATOM    112  C   UNL A   1      35.840  30.250  28.116  1.00  0.00     0.002 A 
ENDBRANCH 102 103
ENDBRANCH  90 102
ENDBRANCH  87  90
ENDBRANCH  85  86
BRANCH  85 113
ATOM    113  C   UNL A   1      33.937  23.737  26.598  1.00  0.00     0.101 C 
BRANCH 113 114
ATOM    114  S   UNL A   1      32.939  22.624  27.657  1.00  0.00    -0.177 SA
ATOM    115  H   UNL A   1      32.533  21.550  26.928  1.00  0.00     0.102 HD
ENDBRANCH 113 114
ENDBRANCH  85 113
ENDBRANCH  82  85
ENDBRANCH  80  81
BRANCH  80 116
ATOM    116  C   UNL A   1      35.257  20.535  24.799  1.00  0.00     0.191 C 
BRANCH 116 117
ATOM    117  O   UNL A   1      34.178  20.065  25.606  1.00  0.00    -0.394 OA
ATOM    118  H   UNL A   1      33.886  20.774  26.200  1.00  0.00     0.210 HD
ENDBRANCH 116 117
ENDBRANCH  80 116
ENDBRANCH  77  80
ENDBRANCH  75  76
ENDBRANCH   1  75
TORSDOF 28
ENDMDL
