MODEL 1
REMARK VINA RESULT:     -11.3      0.000      0.000
REMARK SMILES COc1ccc(C(=O)N2CC[C@@H](C(=O)NCCCCCCNC(=O)c3ccc(-c4c5nc(c(-c6cc(S(=O)(=O)[O-])ccc6F)c6ccc([nH]6)c(-c6cc(S(=O)(=O)[O-])ccc6F)c6nc(c(-c7cc(S(=O)(=O)[O-])ccc7F)c7ccc4[nH]7)C=C6)C=C5)cc3)[C@H]2C)cc1O
REMARK SMILES IDX 18 1 17 2 16 3 15 4 13 5 14 6 12 8 9 9 10 10 88 11 11 12
REMARK SMILES IDX 89 13 7 14 8 15 6 16 3 17 4 18 91 19 5 20 90 21 2 22 1 23
REMARK SMILES IDX 92 24 19 26 20 27 21 28 22 29 23 30 24 32 25 33 26 34 87 35
REMARK SMILES IDX 27 36 86 37 28 38 29 39 30 40 80 41 31 42 85 43 79 44 81 45
REMARK SMILES IDX 32 46 84 47 78 48 77 49 33 51 65 52 45 53 64 54 46 55 49 56
REMARK SMILES IDX 63 57 82 58 47 59 48 60 62 62 83 63 50 64 34 65 35 66 43 67
REMARK SMILES IDX 36 68 42 69 44 70 41 71 37 72 38 73 39 74 40 75 66 76 67 77
REMARK SMILES IDX 75 78 68 79 74 80 76 81 73 82 69 83 70 84 71 85 72 86 51 87
REMARK SMILES IDX 52 88 60 89 53 90 59 91 61 92 58 93 54 94 55 95 56 96 57 97
REMARK H PARENT 15 7 92 25 22 31 81 50 49 61
REMARK Flexibility Score: inf
ROOT
ATOM      1  C   UNL A   1      31.412  29.918  25.537  1.00  0.00     0.002 C 
ENDROOT
BRANCH   1   2
ATOM      2  C   UNL A   1      32.593  29.564  24.631  1.00  0.00     0.021 C 
BRANCH   2   3
ATOM      3  C   UNL A   1      32.246  28.681  23.430  1.00  0.00     0.116 C 
BRANCH   3   4
ATOM      4  N   UNL A   1      30.880  28.203  23.520  1.00  0.00    -0.356 N 
ATOM      5  C   UNL A   1      30.366  26.953  23.628  1.00  0.00     0.225 C 
ATOM      6  O   UNL A   1      29.135  26.851  23.570  1.00  0.00    -0.275 OA
ATOM      7  H   UNL A   1      30.202  28.916  23.499  1.00  0.00     0.163 HD
BRANCH   5   8
ATOM      8  C   UNL A   1      31.208  25.705  23.842  1.00  0.00     0.102 C 
ATOM      9  N   UNL A   1      31.415  23.969  25.464  1.00  0.00    -0.335 N 
ATOM     10  C   UNL A   1      31.213  23.335  24.177  1.00  0.00     0.121 C 
ATOM     11  C   UNL A   1      31.760  25.382  25.249  1.00  0.00     0.094 C 
ATOM     12  C   UNL A   1      30.561  24.411  23.334  1.00  0.00     0.037 C 
ATOM     13  C   UNL A   1      31.423  26.334  26.383  1.00  0.00     0.032 C 
BRANCH   9  14
ATOM     14  C   UNL A   1      32.004  23.205  26.466  1.00  0.00     0.254 C 
ATOM     15  O   UNL A   1      31.493  23.055  27.572  1.00  0.00    -0.269 OA
BRANCH  14  16
ATOM     16  C   UNL A   1      33.360  22.652  26.190  1.00  0.00     0.043 A 
ATOM     17  C   UNL A   1      35.933  21.633  25.622  1.00  0.00     0.160 A 
ATOM     18  C   UNL A   1      35.751  22.958  26.054  1.00  0.00     0.051 A 
ATOM     19  C   UNL A   1      34.800  20.837  25.445  1.00  0.00     0.158 A 
ATOM     20  C   UNL A   1      34.480  23.467  26.339  1.00  0.00     0.018 A 
ATOM     21  C   UNL A   1      33.526  21.350  25.706  1.00  0.00     0.064 A 
BRANCH  17  22
ATOM     22  O   UNL A   1      37.248  21.329  25.425  1.00  0.00    -0.493 OA
ATOM     23  C   UNL A   1      38.263  22.244  25.800  1.00  0.00     0.278 C 
ENDBRANCH  17  22
BRANCH  19  24
ATOM     24  O   UNL A   1      34.807  19.544  25.007  1.00  0.00    -0.504 OA
ATOM     25  H   UNL A   1      34.712  18.841  25.621  1.00  0.00     0.293 HD
ENDBRANCH  19  24
ENDBRANCH  14  16
ENDBRANCH   9  14
ENDBRANCH   5   8
ENDBRANCH   3   4
ENDBRANCH   2   3
ENDBRANCH   1   2
BRANCH   1  26
ATOM     26  C   UNL A   1      31.784  30.589  26.861  1.00  0.00     0.002 C 
BRANCH  26  27
ATOM     27  C   UNL A   1      31.657  32.113  26.873  1.00  0.00     0.021 C 
BRANCH  27  28
ATOM     28  C   UNL A   1      32.953  32.858  27.180  1.00  0.00     0.116 C 
BRANCH  28  29
ATOM     29  N   UNL A   1      32.702  34.152  27.793  1.00  0.00    -0.352 N 
ATOM     30  C   UNL A   1      33.244  34.685  28.937  1.00  0.00     0.251 C 
ATOM     31  H   UNL A   1      32.055  34.726  27.323  1.00  0.00     0.163 HD
ATOM     32  O   UNL A   1      32.750  35.685  29.444  1.00  0.00    -0.269 OA
BRANCH  30  33
ATOM     33  C   UNL A   1      34.416  34.028  29.553  1.00  0.00     0.039 A 
ATOM     34  C   UNL A   1      35.700  34.404  29.154  1.00  0.00     0.014 A 
ATOM     35  C   UNL A   1      34.240  33.044  30.532  1.00  0.00     0.014 A 
ATOM     36  C   UNL A   1      36.811  33.831  29.777  1.00  0.00     0.010 A 
ATOM     37  C   UNL A   1      35.345  32.536  31.205  1.00  0.00     0.010 A 
ATOM     38  C   UNL A   1      36.643  32.915  30.829  1.00  0.00    -0.014 A 
BRANCH  38  39
ATOM     39  C   UNL A   1      37.806  32.309  31.527  1.00  0.00     0.031 A 
ATOM     40  C   UNL A   1      38.532  31.152  30.895  1.00  0.00     0.074 A 
ATOM     41  C   UNL A   1      38.167  32.748  32.748  1.00  0.00     0.049 A 
ATOM     42  N   UNL A   1      39.492  30.408  31.382  1.00  0.00    -0.248 NA
ATOM     43  C   UNL A   1      38.089  30.760  29.550  1.00  0.00     0.031 C 
ATOM     44  C   UNL A   1      37.531  33.851  33.471  1.00  0.00     0.029 A 
ATOM     45  N   UNL A   1      39.153  32.318  33.600  1.00  0.00    -0.354 N 
ATOM     46  C   UNL A   1      39.763  29.456  30.405  1.00  0.00     0.074 A 
ATOM     47  C   UNL A   1      38.805  29.667  29.340  1.00  0.00     0.031 C 
ATOM     48  C   UNL A   1      38.166  34.032  34.641  1.00  0.00     0.029 A 
ATOM     49  C   UNL A   1      39.214  33.025  34.778  1.00  0.00     0.049 A 
ATOM     50  H   UNL A   1      39.760  31.573  33.387  1.00  0.00     0.167 HD
ATOM     51  C   UNL A   1      40.740  28.513  30.382  1.00  0.00     0.034 A 
ATOM     52  C   UNL A   1      40.016  32.872  35.851  1.00  0.00     0.034 A 
ATOM     53  C   UNL A   1      41.685  28.319  31.453  1.00  0.00     0.049 A 
ATOM     54  C   UNL A   1      41.047  31.769  35.839  1.00  0.00     0.074 A 
ATOM     55  C   UNL A   1      42.730  27.414  31.530  1.00  0.00     0.029 A 
ATOM     56  N   UNL A   1      41.699  29.039  32.643  1.00  0.00    -0.354 N 
ATOM     57  N   UNL A   1      41.306  30.889  34.901  1.00  0.00    -0.248 NA
ATOM     58  C   UNL A   1      41.896  31.647  37.031  1.00  0.00     0.031 C 
ATOM     59  C   UNL A   1      43.322  27.532  32.791  1.00  0.00     0.029 A 
ATOM     60  C   UNL A   1      42.711  28.575  33.470  1.00  0.00     0.049 A 
ATOM     61  H   UNL A   1      41.080  29.770  32.866  1.00  0.00     0.167 HD
ATOM     62  C   UNL A   1      42.382  30.139  35.370  1.00  0.00     0.074 A 
ATOM     63  C   UNL A   1      42.719  30.671  36.673  1.00  0.00     0.031 C 
ATOM     64  C   UNL A   1      43.039  29.113  34.770  1.00  0.00     0.034 A 
BRANCH  51  65
ATOM     65  C   UNL A   1      40.799  27.612  29.169  1.00  0.00     0.023 A 
ATOM     66  C   UNL A   1      41.753  27.809  28.154  1.00  0.00     0.031 A 
ATOM     67  C   UNL A   1      39.855  26.586  28.990  1.00  0.00     0.131 A 
ATOM     68  C   UNL A   1      41.674  27.071  26.965  1.00  0.00     0.055 A 
ATOM     69  C   UNL A   1      39.849  25.782  27.846  1.00  0.00     0.041 A 
ATOM     70  F   UNL A   1      38.904  26.361  29.909  1.00  0.00    -0.206 F 
ATOM     71  C   UNL A   1      40.746  26.038  26.814  1.00  0.00     0.022 A 
BRANCH  68  72
ATOM     72  S   UNL A   1      42.663  27.619  25.546  1.00  0.00     0.124 S 
ATOM     73  O   UNL A   1      43.944  27.922  26.182  1.00  0.00    -0.237 OA
ATOM     74  O   UNL A   1      42.643  26.448  24.677  1.00  0.00    -0.237 OA
ATOM     75  O   UNL A   1      41.934  28.782  25.048  1.00  0.00    -0.744 OA
ENDBRANCH  68  72
ENDBRANCH  51  65
BRANCH  52  76
ATOM     76  C   UNL A   1      39.888  33.782  37.025  1.00  0.00     0.023 A 
ATOM     77  C   UNL A   1      40.801  34.829  37.224  1.00  0.00     0.031 A 
ATOM     78  C   UNL A   1      38.878  33.598  37.986  1.00  0.00     0.131 A 
ATOM     79  C   UNL A   1      40.716  35.625  38.376  1.00  0.00     0.055 A 
ATOM     80  C   UNL A   1      38.762  34.428  39.103  1.00  0.00     0.041 A 
ATOM     81  F   UNL A   1      37.977  32.612  37.845  1.00  0.00    -0.206 F 
ATOM     82  C   UNL A   1      39.693  35.441  39.310  1.00  0.00     0.022 A 
BRANCH  79  83
ATOM     83  S   UNL A   1      42.016  36.851  38.681  1.00  0.00     0.124 S 
ATOM     84  O   UNL A   1      42.969  36.080  39.471  1.00  0.00    -0.237 OA
ATOM     85  O   UNL A   1      42.433  37.193  37.324  1.00  0.00    -0.237 OA
ATOM     86  O   UNL A   1      41.319  37.914  39.402  1.00  0.00    -0.744 OA
ENDBRANCH  79  83
ENDBRANCH  52  76
BRANCH  64  87
ATOM     87  C   UNL A   1      44.236  28.541  35.491  1.00  0.00     0.023 A 
ATOM     88  C   UNL A   1      44.116  27.536  36.466  1.00  0.00     0.031 A 
ATOM     89  C   UNL A   1      45.527  29.014  35.186  1.00  0.00     0.131 A 
ATOM     90  C   UNL A   1      45.259  27.069  37.134  1.00  0.00     0.055 A 
ATOM     91  C   UNL A   1      46.665  28.500  35.807  1.00  0.00     0.041 A 
ATOM     92  F   UNL A   1      45.702  29.977  34.268  1.00  0.00    -0.206 F 
ATOM     93  C   UNL A   1      46.534  27.530  36.796  1.00  0.00     0.022 A 
BRANCH  90  94
ATOM     94  S   UNL A   1      45.051  25.912  38.515  1.00  0.00     0.124 S 
ATOM     95  O   UNL A   1      44.321  24.817  37.885  1.00  0.00    -0.237 OA
ATOM     96  O   UNL A   1      46.431  25.624  38.893  1.00  0.00    -0.237 OA
ATOM     97  O   UNL A   1      44.289  26.683  39.496  1.00  0.00    -0.744 OA
ENDBRANCH  90  94
ENDBRANCH  64  87
ENDBRANCH  38  39
ENDBRANCH  30  33
ENDBRANCH  28  29
ENDBRANCH  27  28
ENDBRANCH  26  27
ENDBRANCH   1  26
TORSDOF 20
ENDMDL
MODEL 2
REMARK VINA RESULT:     -11.3      2.870      4.818
REMARK SMILES COc1ccc(C(=O)N2CC[C@@H](C(=O)NCCCCCCNC(=O)c3ccc(-c4c5nc(c(-c6cc(S(=O)(=O)[O-])ccc6F)c6ccc([nH]6)c(-c6cc(S(=O)(=O)[O-])ccc6F)c6nc(c(-c7cc(S(=O)(=O)[O-])ccc7F)c7ccc4[nH]7)C=C6)C=C5)cc3)[C@H]2C)cc1O
REMARK SMILES IDX 18 1 17 2 16 3 15 4 13 5 14 6 12 8 9 9 10 10 88 11 11 12
REMARK SMILES IDX 89 13 7 14 8 15 6 16 3 17 4 18 91 19 5 20 90 21 2 22 1 23
REMARK SMILES IDX 92 24 19 26 20 27 21 28 22 29 23 30 24 32 25 33 26 34 87 35
REMARK SMILES IDX 27 36 86 37 28 38 29 39 30 40 80 41 31 42 85 43 79 44 81 45
REMARK SMILES IDX 32 46 84 47 78 48 77 49 33 51 65 52 45 53 64 54 46 55 49 56
REMARK SMILES IDX 63 57 82 58 47 59 48 60 62 62 83 63 50 64 34 65 35 66 43 67
REMARK SMILES IDX 36 68 42 69 44 70 41 71 37 72 38 73 39 74 40 75 66 76 67 77
REMARK SMILES IDX 75 78 68 79 74 80 76 81 73 82 69 83 70 84 71 85 72 86 51 87
REMARK SMILES IDX 52 88 60 89 53 90 59 91 61 92 58 93 54 94 55 95 56 96 57 97
REMARK H PARENT 15 7 92 25 22 31 81 50 49 61
REMARK Flexibility Score: inf
ROOT
ATOM      1  C   UNL A   1      34.279  25.721  24.767  1.00  0.00     0.002 C 
ENDROOT
BRANCH   1   2
ATOM      2  C   UNL A   1      34.817  24.317  25.048  1.00  0.00     0.021 C 
BRANCH   2   3
ATOM      3  C   UNL A   1      34.613  23.307  23.916  1.00  0.00     0.116 C 
BRANCH   3   4
ATOM      4  N   UNL A   1      34.129  22.043  24.435  1.00  0.00    -0.356 N 
ATOM      5  C   UNL A   1      32.882  21.616  24.754  1.00  0.00     0.225 C 
ATOM      6  O   UNL A   1      32.795  20.504  25.288  1.00  0.00    -0.275 OA
ATOM      7  H   UNL A   1      34.833  21.372  24.582  1.00  0.00     0.163 HD
BRANCH   5   8
ATOM      8  C   UNL A   1      31.615  22.405  24.464  1.00  0.00     0.102 C 
ATOM      9  N   UNL A   1      30.827  24.641  24.724  1.00  0.00    -0.335 N 
ATOM     10  C   UNL A   1      30.647  24.279  23.333  1.00  0.00     0.121 C 
ATOM     11  C   UNL A   1      31.088  23.421  25.503  1.00  0.00     0.094 C 
ATOM     12  C   UNL A   1      31.622  23.141  23.119  1.00  0.00     0.037 C 
ATOM     13  C   UNL A   1      31.878  23.603  26.787  1.00  0.00     0.032 C 
BRANCH   9  14
ATOM     14  C   UNL A   1      30.051  25.685  25.218  1.00  0.00     0.254 C 
ATOM     15  O   UNL A   1      29.577  25.681  26.351  1.00  0.00    -0.269 OA
BRANCH  14  16
ATOM     16  C   UNL A   1      29.714  26.786  24.273  1.00  0.00     0.043 A 
ATOM     17  C   UNL A   1      29.062  28.838  22.443  1.00  0.00     0.160 A 
ATOM     18  C   UNL A   1      28.073  27.995  22.978  1.00  0.00     0.051 A 
ATOM     19  C   UNL A   1      30.389  28.613  22.814  1.00  0.00     0.158 A 
ATOM     20  C   UNL A   1      28.389  26.979  23.886  1.00  0.00     0.018 A 
ATOM     21  C   UNL A   1      30.711  27.583  23.703  1.00  0.00     0.064 A 
BRANCH  17  22
ATOM     22  O   UNL A   1      28.542  29.776  21.601  1.00  0.00    -0.493 OA
ATOM     23  C   UNL A   1      28.532  31.145  21.966  1.00  0.00     0.278 C 
ENDBRANCH  17  22
BRANCH  19  24
ATOM     24  O   UNL A   1      31.464  29.324  22.364  1.00  0.00    -0.504 OA
ATOM     25  H   UNL A   1      32.245  29.371  22.881  1.00  0.00     0.293 HD
ENDBRANCH  19  24
ENDBRANCH  14  16
ENDBRANCH   9  14
ENDBRANCH   5   8
ENDBRANCH   3   4
ENDBRANCH   2   3
ENDBRANCH   1   2
BRANCH   1  26
ATOM     26  C   UNL A   1      33.985  26.567  26.007  1.00  0.00     0.002 C 
BRANCH  26  27
ATOM     27  C   UNL A   1      33.015  27.729  25.785  1.00  0.00     0.021 C 
BRANCH  27  28
ATOM     28  C   UNL A   1      33.648  28.980  25.184  1.00  0.00     0.116 C 
BRANCH  28  29
ATOM     29  N   UNL A   1      33.011  30.195  25.666  1.00  0.00    -0.352 N 
ATOM     30  C   UNL A   1      33.289  30.927  26.795  1.00  0.00     0.251 C 
ATOM     31  H   UNL A   1      32.278  30.541  25.106  1.00  0.00     0.163 HD
ATOM     32  O   UNL A   1      32.505  31.786  27.180  1.00  0.00    -0.269 OA
BRANCH  30  33
ATOM     33  C   UNL A   1      34.534  30.652  27.543  1.00  0.00     0.039 A 
ATOM     34  C   UNL A   1      35.514  31.643  27.629  1.00  0.00     0.014 A 
ATOM     35  C   UNL A   1      34.725  29.414  28.165  1.00  0.00     0.014 A 
ATOM     36  C   UNL A   1      36.664  31.411  28.387  1.00  0.00     0.010 A 
ATOM     37  C   UNL A   1      35.831  29.216  28.983  1.00  0.00     0.010 A 
ATOM     38  C   UNL A   1      36.818  30.207  29.095  1.00  0.00    -0.014 A 
BRANCH  38  39
ATOM     39  C   UNL A   1      38.019  29.943  29.929  1.00  0.00     0.031 A 
ATOM     40  C   UNL A   1      39.115  29.059  29.397  1.00  0.00     0.074 A 
ATOM     41  C   UNL A   1      38.097  30.437  31.180  1.00  0.00     0.049 A 
ATOM     42  N   UNL A   1      40.186  28.610  29.999  1.00  0.00    -0.248 NA
ATOM     43  C   UNL A   1      38.959  28.589  28.013  1.00  0.00     0.031 C 
ATOM     44  C   UNL A   1      37.093  31.294  31.814  1.00  0.00     0.029 A 
ATOM     45  N   UNL A   1      39.062  30.288  32.144  1.00  0.00    -0.354 N 
ATOM     46  C   UNL A   1      40.828  27.799  29.069  1.00  0.00     0.074 A 
ATOM     47  C   UNL A   1      39.978  27.753  27.898  1.00  0.00     0.031 C 
ATOM     48  C   UNL A   1      37.511  31.621  33.047  1.00  0.00     0.029 A 
ATOM     49  C   UNL A   1      38.782  30.954  33.315  1.00  0.00     0.049 A 
ATOM     50  H   UNL A   1      39.877  29.753  32.011  1.00  0.00     0.167 HD
ATOM     51  C   UNL A   1      42.031  27.178  29.168  1.00  0.00     0.034 A 
ATOM     52  C   UNL A   1      39.466  31.010  34.475  1.00  0.00     0.034 A 
ATOM     53  C   UNL A   1      42.864  27.237  30.344  1.00  0.00     0.049 A 
ATOM     54  C   UNL A   1      40.765  30.251  34.594  1.00  0.00     0.074 A 
ATOM     55  C   UNL A   1      44.109  26.668  30.550  1.00  0.00     0.029 A 
ATOM     56  N   UNL A   1      42.535  27.901  31.520  1.00  0.00    -0.354 N 
ATOM     57  N   UNL A   1      41.371  29.505  33.699  1.00  0.00    -0.248 NA
ATOM     58  C   UNL A   1      41.473  30.348  35.876  1.00  0.00     0.031 C 
ATOM     59  C   UNL A   1      44.495  26.919  31.870  1.00  0.00     0.029 A 
ATOM     60  C   UNL A   1      43.536  27.726  32.463  1.00  0.00     0.049 A 
ATOM     61  H   UNL A   1      41.710  28.418  31.663  1.00  0.00     0.167 HD
ATOM     62  C   UNL A   1      42.557  29.083  34.297  1.00  0.00     0.074 A 
ATOM     63  C   UNL A   1      42.576  29.658  35.626  1.00  0.00     0.031 C 
ATOM     64  C   UNL A   1      43.545  28.304  33.788  1.00  0.00     0.034 A 
BRANCH  51  65
ATOM     65  C   UNL A   1      42.485  26.361  27.979  1.00  0.00     0.023 A 
ATOM     66  C   UNL A   1      42.097  25.018  27.820  1.00  0.00     0.031 A 
ATOM     67  C   UNL A   1      43.364  26.905  27.027  1.00  0.00     0.131 A 
ATOM     68  C   UNL A   1      42.670  24.238  26.806  1.00  0.00     0.055 A 
ATOM     69  C   UNL A   1      43.850  26.150  25.956  1.00  0.00     0.041 A 
ATOM     70  F   UNL A   1      43.791  28.173  27.134  1.00  0.00    -0.206 F 
ATOM     71  C   UNL A   1      43.522  24.802  25.854  1.00  0.00     0.022 A 
BRANCH  68  72
ATOM     72  S   UNL A   1      42.447  22.439  26.875  1.00  0.00     0.124 S 
ATOM     73  O   UNL A   1      41.508  22.218  25.776  1.00  0.00    -0.237 OA
ATOM     74  O   UNL A   1      43.803  21.945  26.667  1.00  0.00    -0.237 OA
ATOM     75  O   UNL A   1      41.896  22.213  28.209  1.00  0.00    -0.744 OA
ENDBRANCH  68  72
ENDBRANCH  51  65
BRANCH  52  76
ATOM     76  C   UNL A   1      38.949  31.816  35.618  1.00  0.00     0.023 A 
ATOM     77  C   UNL A   1      38.328  31.194  36.711  1.00  0.00     0.031 A 
ATOM     78  C   UNL A   1      39.034  33.220  35.620  1.00  0.00     0.131 A 
ATOM     79  C   UNL A   1      37.774  31.972  37.740  1.00  0.00     0.055 A 
ATOM     80  C   UNL A   1      38.533  33.988  36.673  1.00  0.00     0.041 A 
ATOM     81  F   UNL A   1      39.621  33.867  34.600  1.00  0.00    -0.206 F 
ATOM     82  C   UNL A   1      37.886  33.364  37.735  1.00  0.00     0.022 A 
BRANCH  79  83
ATOM     83  S   UNL A   1      36.828  31.139  39.042  1.00  0.00     0.124 S 
ATOM     84  O   UNL A   1      37.745  31.222  40.173  1.00  0.00    -0.237 OA
ATOM     85  O   UNL A   1      35.630  31.969  39.123  1.00  0.00    -0.237 OA
ATOM     86  O   UNL A   1      36.617  29.797  38.504  1.00  0.00    -0.744 OA
ENDBRANCH  79  83
ENDBRANCH  52  76
BRANCH  64  87
ATOM     87  C   UNL A   1      44.767  28.082  34.648  1.00  0.00     0.023 A 
ATOM     88  C   UNL A   1      44.873  26.996  35.534  1.00  0.00     0.031 A 
ATOM     89  C   UNL A   1      45.849  28.980  34.570  1.00  0.00     0.131 A 
ATOM     90  C   UNL A   1      46.015  26.861  36.340  1.00  0.00     0.055 A 
ATOM     91  C   UNL A   1      47.007  28.804  35.326  1.00  0.00     0.041 A 
ATOM     92  F   UNL A   1      45.800  30.038  33.746  1.00  0.00    -0.206 F 
ATOM     93  C   UNL A   1      47.090  27.746  36.226  1.00  0.00     0.022 A 
BRANCH  90  94
ATOM     94  S   UNL A   1      46.040  25.562  37.605  1.00  0.00     0.124 S 
ATOM     95  O   UNL A   1      44.894  24.744  37.223  1.00  0.00    -0.237 OA
ATOM     96  O   UNL A   1      47.351  24.954  37.403  1.00  0.00    -0.237 OA
ATOM     97  O   UNL A   1      45.886  26.299  38.858  1.00  0.00    -0.744 OA
ENDBRANCH  90  94
ENDBRANCH  64  87
ENDBRANCH  38  39
ENDBRANCH  30  33
ENDBRANCH  28  29
ENDBRANCH  27  28
ENDBRANCH  26  27
ENDBRANCH   1  26
TORSDOF 20
ENDMDL
MODEL 3
REMARK VINA RESULT:     -11.2      5.696      8.750
REMARK SMILES COc1ccc(C(=O)N2CC[C@@H](C(=O)NCCCCCCNC(=O)c3ccc(-c4c5nc(c(-c6cc(S(=O)(=O)[O-])ccc6F)c6ccc([nH]6)c(-c6cc(S(=O)(=O)[O-])ccc6F)c6nc(c(-c7cc(S(=O)(=O)[O-])ccc7F)c7ccc4[nH]7)C=C6)C=C5)cc3)[C@H]2C)cc1O
REMARK SMILES IDX 18 1 17 2 16 3 15 4 13 5 14 6 12 8 9 9 10 10 88 11 11 12
REMARK SMILES IDX 89 13 7 14 8 15 6 16 3 17 4 18 91 19 5 20 90 21 2 22 1 23
REMARK SMILES IDX 92 24 19 26 20 27 21 28 22 29 23 30 24 32 25 33 26 34 87 35
REMARK SMILES IDX 27 36 86 37 28 38 29 39 30 40 80 41 31 42 85 43 79 44 81 45
REMARK SMILES IDX 32 46 84 47 78 48 77 49 33 51 65 52 45 53 64 54 46 55 49 56
REMARK SMILES IDX 63 57 82 58 47 59 48 60 62 62 83 63 50 64 34 65 35 66 43 67
REMARK SMILES IDX 36 68 42 69 44 70 41 71 37 72 38 73 39 74 40 75 66 76 67 77
REMARK SMILES IDX 75 78 68 79 74 80 76 81 73 82 69 83 70 84 71 85 72 86 51 87
REMARK SMILES IDX 52 88 60 89 53 90 59 91 61 92 58 93 54 94 55 95 56 96 57 97
REMARK H PARENT 15 7 92 25 22 31 81 50 49 61
REMARK Flexibility Score: inf
ROOT
ATOM      1  C   UNL A   1      34.420  21.769  26.855  1.00  0.00     0.002 C 
ENDROOT
BRANCH   1   2
ATOM      2  C   UNL A   1      34.297  23.268  27.137  1.00  0.00     0.021 C 
BRANCH   2   3
ATOM      3  C   UNL A   1      33.064  23.942  26.530  1.00  0.00     0.116 C 
BRANCH   3   4
ATOM      4  N   UNL A   1      33.450  25.046  25.673  1.00  0.00    -0.356 N 
ATOM      5  C   UNL A   1      33.273  25.263  24.347  1.00  0.00     0.225 C 
ATOM      6  O   UNL A   1      33.821  26.264  23.870  1.00  0.00    -0.275 OA
ATOM      7  H   UNL A   1      33.926  25.770  26.139  1.00  0.00     0.163 HD
BRANCH   5   8
ATOM      8  C   UNL A   1      32.429  24.374  23.446  1.00  0.00     0.102 C 
ATOM      9  N   UNL A   1      32.081  22.043  23.088  1.00  0.00    -0.335 N 
ATOM     10  C   UNL A   1      30.784  22.640  23.330  1.00  0.00     0.121 C 
ATOM     11  C   UNL A   1      33.053  23.111  22.811  1.00  0.00     0.094 C 
ATOM     12  C   UNL A   1      31.102  23.925  24.067  1.00  0.00     0.037 C 
ATOM     13  C   UNL A   1      34.504  22.796  23.127  1.00  0.00     0.032 C 
BRANCH   9  14
ATOM     14  C   UNL A   1      32.108  20.824  22.418  1.00  0.00     0.254 C 
ATOM     15  O   UNL A   1      31.773  20.704  21.244  1.00  0.00    -0.269 OA
BRANCH  14  16
ATOM     16  C   UNL A   1      32.460  19.618  23.219  1.00  0.00     0.043 A 
ATOM     17  C   UNL A   1      33.082  17.309  24.725  1.00  0.00     0.160 A 
ATOM     18  C   UNL A   1      33.003  17.267  23.323  1.00  0.00     0.051 A 
ATOM     19  C   UNL A   1      32.810  18.521  25.363  1.00  0.00     0.158 A 
ATOM     20  C   UNL A   1      32.697  18.407  22.571  1.00  0.00     0.018 A 
ATOM     21  C   UNL A   1      32.482  19.656  24.617  1.00  0.00     0.064 A 
BRANCH  17  22
ATOM     22  O   UNL A   1      33.417  16.100  25.261  1.00  0.00    -0.493 OA
ATOM     23  C   UNL A   1      32.419  15.134  25.539  1.00  0.00     0.278 C 
ENDBRANCH  17  22
BRANCH  19  24
ATOM     24  O   UNL A   1      32.820  18.719  26.714  1.00  0.00    -0.504 OA
ATOM     25  H   UNL A   1      32.969  19.577  27.061  1.00  0.00     0.293 HD
ENDBRANCH  19  24
ENDBRANCH  14  16
ENDBRANCH   9  14
ENDBRANCH   5   8
ENDBRANCH   3   4
ENDBRANCH   2   3
ENDBRANCH   1   2
BRANCH   1  26
ATOM     26  C   UNL A   1      35.564  21.373  25.920  1.00  0.00     0.002 C 
BRANCH  26  27
ATOM     27  C   UNL A   1      36.849  22.187  26.087  1.00  0.00     0.021 C 
BRANCH  27  28
ATOM     28  C   UNL A   1      38.006  21.739  25.199  1.00  0.00     0.116 C 
BRANCH  28  29
ATOM     29  N   UNL A   1      38.862  20.774  25.870  1.00  0.00    -0.352 N 
ATOM     30  C   UNL A   1      40.018  20.993  26.580  1.00  0.00     0.251 C 
ATOM     31  H   UNL A   1      38.574  19.835  25.807  1.00  0.00     0.163 HD
ATOM     32  O   UNL A   1      40.744  20.052  26.877  1.00  0.00    -0.269 OA
BRANCH  30  33
ATOM     33  C   UNL A   1      40.378  22.374  26.963  1.00  0.00     0.039 A 
ATOM     34  C   UNL A   1      41.170  22.587  28.093  1.00  0.00     0.014 A 
ATOM     35  C   UNL A   1      39.935  23.457  26.197  1.00  0.00     0.014 A 
ATOM     36  C   UNL A   1      41.566  23.885  28.424  1.00  0.00     0.010 A 
ATOM     37  C   UNL A   1      40.396  24.738  26.481  1.00  0.00     0.010 A 
ATOM     38  C   UNL A   1      41.207  24.968  27.603  1.00  0.00    -0.014 A 
BRANCH  38  39
ATOM     39  C   UNL A   1      41.635  26.356  27.916  1.00  0.00     0.031 A 
ATOM     40  C   UNL A   1      43.033  26.798  27.577  1.00  0.00     0.074 A 
ATOM     41  C   UNL A   1      40.798  27.193  28.559  1.00  0.00     0.049 A 
ATOM     42  N   UNL A   1      43.642  27.919  27.865  1.00  0.00    -0.248 NA
ATOM     43  C   UNL A   1      43.866  25.828  26.851  1.00  0.00     0.031 C 
ATOM     44  C   UNL A   1      39.424  26.877  28.953  1.00  0.00     0.029 A 
ATOM     45  N   UNL A   1      40.981  28.481  28.997  1.00  0.00    -0.354 N 
ATOM     46  C   UNL A   1      44.932  27.787  27.360  1.00  0.00     0.074 A 
ATOM     47  C   UNL A   1      45.036  26.444  26.829  1.00  0.00     0.031 C 
ATOM     48  C   UNL A   1      38.879  27.952  29.544  1.00  0.00     0.029 A 
ATOM     49  C   UNL A   1      39.878  29.014  29.622  1.00  0.00     0.049 A 
ATOM     50  H   UNL A   1      41.823  28.976  28.876  1.00  0.00     0.167 HD
ATOM     51  C   UNL A   1      45.927  28.710  27.313  1.00  0.00     0.034 A 
ATOM     52  C   UNL A   1      39.697  30.217  30.203  1.00  0.00     0.034 A 
ATOM     53  C   UNL A   1      45.802  30.044  27.848  1.00  0.00     0.049 A 
ATOM     54  C   UNL A   1      40.839  31.203  30.209  1.00  0.00     0.074 A 
ATOM     55  C   UNL A   1      46.732  31.068  27.837  1.00  0.00     0.029 A 
ATOM     56  N   UNL A   1      44.678  30.539  28.498  1.00  0.00    -0.354 N 
ATOM     57  N   UNL A   1      42.047  31.073  29.710  1.00  0.00    -0.248 NA
ATOM     58  C   UNL A   1      40.590  32.500  30.851  1.00  0.00     0.031 C 
ATOM     59  C   UNL A   1      46.202  32.151  28.546  1.00  0.00     0.029 A 
ATOM     60  C   UNL A   1      44.904  31.840  28.920  1.00  0.00     0.049 A 
ATOM     61  H   UNL A   1      43.842  30.038  28.639  1.00  0.00     0.167 HD
ATOM     62  C   UNL A   1      42.685  32.292  29.936  1.00  0.00     0.074 A 
ATOM     63  C   UNL A   1      41.727  33.139  30.616  1.00  0.00     0.031 C 
ATOM     64  C   UNL A   1      43.942  32.677  29.600  1.00  0.00     0.034 A 
BRANCH  51  65
ATOM     65  C   UNL A   1      47.235  28.281  26.689  1.00  0.00     0.023 A 
ATOM     66  C   UNL A   1      47.425  28.302  25.295  1.00  0.00     0.031 A 
ATOM     67  C   UNL A   1      48.283  27.785  27.485  1.00  0.00     0.131 A 
ATOM     68  C   UNL A   1      48.580  27.737  24.736  1.00  0.00     0.055 A 
ATOM     69  C   UNL A   1      49.477  27.321  26.926  1.00  0.00     0.041 A 
ATOM     70  F   UNL A   1      48.157  27.717  28.819  1.00  0.00    -0.206 F 
ATOM     71  C   UNL A   1      49.622  27.273  25.543  1.00  0.00     0.022 A 
BRANCH  68  72
ATOM     72  S   UNL A   1      48.610  27.432  22.949  1.00  0.00     0.124 S 
ATOM     73  O   UNL A   1      49.908  27.993  22.577  1.00  0.00    -0.237 OA
ATOM     74  O   UNL A   1      48.496  25.980  22.874  1.00  0.00    -0.237 OA
ATOM     75  O   UNL A   1      47.455  28.177  22.454  1.00  0.00    -0.744 OA
ENDBRANCH  68  72
ENDBRANCH  51  65
BRANCH  52  76
ATOM     76  C   UNL A   1      38.386  30.567  30.823  1.00  0.00     0.023 A 
ATOM     77  C   UNL A   1      37.401  31.240  30.084  1.00  0.00     0.031 A 
ATOM     78  C   UNL A   1      38.112  30.270  32.169  1.00  0.00     0.131 A 
ATOM     79  C   UNL A   1      36.206  31.634  30.705  1.00  0.00     0.055 A 
ATOM     80  C   UNL A   1      36.898  30.614  32.767  1.00  0.00     0.041 A 
ATOM     81  F   UNL A   1      39.018  29.625  32.922  1.00  0.00    -0.206 F 
ATOM     82  C   UNL A   1      35.941  31.312  32.038  1.00  0.00     0.022 A 
BRANCH  79  83
ATOM     83  S   UNL A   1      35.037  32.653  29.766  1.00  0.00     0.124 S 
ATOM     84  O   UNL A   1      34.168  33.156  30.822  1.00  0.00    -0.237 OA
ATOM     85  O   UNL A   1      35.923  33.631  29.141  1.00  0.00    -0.237 OA
ATOM     86  O   UNL A   1      34.418  31.700  28.846  1.00  0.00    -0.744 OA
ENDBRANCH  79  83
ENDBRANCH  52  76
BRANCH  64  87
ATOM     87  C   UNL A   1      44.333  34.104  29.901  1.00  0.00     0.023 A 
ATOM     88  C   UNL A   1      44.045  35.163  29.023  1.00  0.00     0.031 A 
ATOM     89  C   UNL A   1      45.006  34.406  31.101  1.00  0.00     0.131 A 
ATOM     90  C   UNL A   1      44.468  36.465  29.335  1.00  0.00     0.055 A 
ATOM     91  C   UNL A   1      45.366  35.711  31.435  1.00  0.00     0.041 A 
ATOM     92  F   UNL A   1      45.313  33.434  31.975  1.00  0.00    -0.206 F 
ATOM     93  C   UNL A   1      45.108  36.748  30.544  1.00  0.00     0.022 A 
BRANCH  90  94
ATOM     94  S   UNL A   1      44.249  37.773  28.098  1.00  0.00     0.124 S 
ATOM     95  O   UNL A   1      43.885  37.008  26.910  1.00  0.00    -0.237 OA
ATOM     96  O   UNL A   1      43.187  38.583  28.685  1.00  0.00    -0.237 OA
ATOM     97  O   UNL A   1      45.561  38.417  28.044  1.00  0.00    -0.744 OA
ENDBRANCH  90  94
ENDBRANCH  64  87
ENDBRANCH  38  39
ENDBRANCH  30  33
ENDBRANCH  28  29
ENDBRANCH  27  28
ENDBRANCH  26  27
ENDBRANCH   1  26
TORSDOF 20
ENDMDL
