MODEL 1
REMARK VINA RESULT:     -12.1      0.000      0.000
REMARK SMILES O=C(NCCCCCCNC(=O)[C@@]1(Cc2cn3ccccc3n2)CCC[NH2+]C1)c1ccc(-c2c3nc(c(-c4cc(S(=O)(=O)[O-])ccc4F)c4ccc([nH]4)c(-c4cc(S(=O)(=O)[O-])ccc4F)c4nc(c(-c5cc(S(=O)(=O)[O-])ccc5F)c5ccc2[nH]5)C=C4)C=C3)cc1
REMARK SMILES IDX 6 1 5 2 4 3 3 4 1 5 2 6 29 8 30 9 91 10 31 11 90 12 32 13
REMARK SMILES IDX 33 14 34 15 84 16 35 17 89 18 83 19 85 20 36 21 88 22 82 23
REMARK SMILES IDX 81 24 37 26 69 27 49 28 68 29 50 30 53 31 67 32 86 33 51 34
REMARK SMILES IDX 52 35 66 37 87 38 54 39 38 40 39 41 47 42 40 43 46 44 48 45
REMARK SMILES IDX 45 46 41 47 42 48 43 49 44 50 70 51 71 52 79 53 72 54 78 55
REMARK SMILES IDX 80 56 77 57 73 58 74 59 75 60 76 61 55 62 56 63 64 64 57 65
REMARK SMILES IDX 63 66 65 67 62 68 58 69 59 70 60 71 61 72 7 73 8 74 9 75
REMARK SMILES IDX 10 76 11 77 12 79 13 80 24 81 28 82 25 83 27 84 26 85 14 88
REMARK SMILES IDX 15 89 16 90 23 91 17 92 22 93 18 94 21 95 19 96 20 97
REMARK H PARENT 3 7 85 25 53 36 10 78 27 86 27 87
REMARK Flexibility Score: inf
ROOT
ATOM      1  C   UNL A   1      31.911  27.476  26.741  1.00  0.00     0.002 C 
ENDROOT
BRANCH   1   2
ATOM      2  C   UNL A   1      31.677  28.988  26.752  1.00  0.00     0.021 C 
BRANCH   2   3
ATOM      3  C   UNL A   1      32.837  29.780  26.167  1.00  0.00     0.116 C 
BRANCH   3   4
ATOM      4  N   UNL A   1      32.649  31.205  26.381  1.00  0.00    -0.352 N 
ATOM      5  O   UNL A   1      32.824  33.115  27.567  1.00  0.00    -0.269 OA
ATOM      6  C   UNL A   1      33.292  32.021  27.277  1.00  0.00     0.251 C 
ATOM      7  H   UNL A   1      31.975  31.641  25.811  1.00  0.00     0.163 HD
BRANCH   6   8
ATOM      8  C   UNL A   1      34.563  31.561  27.869  1.00  0.00     0.039 A 
ATOM      9  C   UNL A   1      35.631  32.456  27.994  1.00  0.00     0.014 A 
ATOM     10  C   UNL A   1      34.678  30.249  28.328  1.00  0.00     0.014 A 
ATOM     11  C   UNL A   1      36.847  32.014  28.494  1.00  0.00     0.010 A 
ATOM     12  C   UNL A   1      35.874  29.830  28.914  1.00  0.00     0.010 A 
ATOM     13  C   UNL A   1      36.964  30.713  29.003  1.00  0.00    -0.014 A 
BRANCH  13  14
ATOM     14  C   UNL A   1      38.189  30.341  29.749  1.00  0.00     0.031 A 
ATOM     15  C   UNL A   1      39.171  29.357  29.189  1.00  0.00     0.074 A 
ATOM     16  C   UNL A   1      38.384  30.905  30.958  1.00  0.00     0.049 A 
ATOM     17  N   UNL A   1      40.257  28.882  29.738  1.00  0.00    -0.248 NA
ATOM     18  C   UNL A   1      38.897  28.830  27.843  1.00  0.00     0.031 C 
ATOM     19  C   UNL A   1      37.481  31.875  31.588  1.00  0.00     0.029 A 
ATOM     20  N   UNL A   1      39.391  30.753  31.875  1.00  0.00    -0.354 N 
ATOM     21  C   UNL A   1      40.788  27.983  28.821  1.00  0.00     0.074 A 
ATOM     22  C   UNL A   1      39.892  27.968  27.682  1.00  0.00     0.031 C 
ATOM     23  C   UNL A   1      37.985  32.247  32.771  1.00  0.00     0.029 A 
ATOM     24  C   UNL A   1      39.196  31.481  33.028  1.00  0.00     0.049 A 
ATOM     25  H   UNL A   1      40.177  30.180  31.725  1.00  0.00     0.167 HD
ATOM     26  C   UNL A   1      41.917  27.240  28.932  1.00  0.00     0.034 A 
ATOM     27  C   UNL A   1      39.886  31.491  34.184  1.00  0.00     0.034 A 
ATOM     28  C   UNL A   1      42.790  27.283  30.082  1.00  0.00     0.049 A 
ATOM     29  C   UNL A   1      41.099  30.607  34.297  1.00  0.00     0.074 A 
ATOM     30  C   UNL A   1      43.995  26.629  30.269  1.00  0.00     0.029 A 
ATOM     31  N   UNL A   1      42.543  27.998  31.247  1.00  0.00    -0.354 N 
ATOM     32  N   UNL A   1      41.618  29.805  33.397  1.00  0.00    -0.248 NA
ATOM     33  C   UNL A   1      41.815  30.626  35.578  1.00  0.00     0.031 C 
ATOM     34  C   UNL A   1      44.427  26.873  31.576  1.00  0.00     0.029 A 
ATOM     35  C   UNL A   1      43.542  27.754  32.177  1.00  0.00     0.049 A 
ATOM     36  H   UNL A   1      41.770  28.592  31.392  1.00  0.00     0.167 HD
ATOM     37  C   UNL A   1      42.735  29.236  34.001  1.00  0.00     0.074 A 
ATOM     38  C   UNL A   1      42.826  29.808  35.329  1.00  0.00     0.031 C 
ATOM     39  C   UNL A   1      43.606  28.321  33.503  1.00  0.00     0.034 A 
BRANCH  26  40
ATOM     40  C   UNL A   1      42.247  26.277  27.819  1.00  0.00     0.023 A 
ATOM     41  C   UNL A   1      41.682  24.993  27.746  1.00  0.00     0.031 A 
ATOM     42  C   UNL A   1      43.129  26.668  26.794  1.00  0.00     0.131 A 
ATOM     43  C   UNL A   1      42.037  24.131  26.696  1.00  0.00     0.055 A 
ATOM     44  C   UNL A   1      43.425  25.832  25.716  1.00  0.00     0.041 A 
ATOM     45  F   UNL A   1      43.718  27.874  26.824  1.00  0.00    -0.206 F 
ATOM     46  C   UNL A   1      42.884  24.551  25.668  1.00  0.00     0.022 A 
BRANCH  43  47
ATOM     47  S   UNL A   1      41.462  22.411  26.749  1.00  0.00     0.124 S 
ATOM     48  O   UNL A   1      42.156  21.832  25.602  1.00  0.00    -0.237 OA
ATOM     49  O   UNL A   1      41.915  21.967  28.062  1.00  0.00    -0.237 OA
ATOM     50  O   UNL A   1      40.013  22.529  26.596  1.00  0.00    -0.744 OA
ENDBRANCH  43  47
ENDBRANCH  26  40
BRANCH  27  51
ATOM     51  C   UNL A   1      39.411  32.304  35.340  1.00  0.00     0.023 A 
ATOM     52  C   UNL A   1      39.797  33.643  35.493  1.00  0.00     0.031 A 
ATOM     53  C   UNL A   1      38.600  31.734  36.340  1.00  0.00     0.131 A 
ATOM     54  C   UNL A   1      39.423  34.350  36.646  1.00  0.00     0.055 A 
ATOM     55  C   UNL A   1      38.171  32.464  37.450  1.00  0.00     0.041 A 
ATOM     56  F   UNL A   1      38.201  30.455  36.248  1.00  0.00    -0.206 F 
ATOM     57  C   UNL A   1      38.599  33.776  37.616  1.00  0.00     0.022 A 
BRANCH  54  58
ATOM     58  S   UNL A   1      40.134  35.996  36.917  1.00  0.00     0.124 S 
ATOM     59  O   UNL A   1      41.543  35.679  37.127  1.00  0.00    -0.237 OA
ATOM     60  O   UNL A   1      39.809  36.674  35.668  1.00  0.00    -0.237 OA
ATOM     61  O   UNL A   1      39.421  36.484  38.096  1.00  0.00    -0.744 OA
ENDBRANCH  54  58
ENDBRANCH  27  51
BRANCH  39  62
ATOM     62  C   UNL A   1      44.748  27.912  34.399  1.00  0.00     0.023 A 
ATOM     63  C   UNL A   1      44.597  26.912  35.373  1.00  0.00     0.031 A 
ATOM     64  C   UNL A   1      46.003  28.532  34.273  1.00  0.00     0.131 A 
ATOM     65  C   UNL A   1      45.671  26.592  36.217  1.00  0.00     0.055 A 
ATOM     66  C   UNL A   1      47.086  28.166  35.071  1.00  0.00     0.041 A 
ATOM     67  F   UNL A   1      46.200  29.500  33.362  1.00  0.00    -0.206 F 
ATOM     68  C   UNL A   1      46.921  27.198  36.058  1.00  0.00     0.022 A 
BRANCH  65  69
ATOM     69  S   UNL A   1      45.393  25.429  37.579  1.00  0.00     0.124 S 
ATOM     70  O   UNL A   1      45.256  24.161  36.870  1.00  0.00    -0.237 OA
ATOM     71  O   UNL A   1      46.604  25.585  38.378  1.00  0.00    -0.237 OA
ATOM     72  O   UNL A   1      44.169  25.923  38.208  1.00  0.00    -0.744 OA
ENDBRANCH  65  69
ENDBRANCH  39  62
ENDBRANCH  13  14
ENDBRANCH   6   8
ENDBRANCH   3   4
ENDBRANCH   2   3
ENDBRANCH   1   2
BRANCH   1  73
ATOM     73  C   UNL A   1      31.197  26.726  25.606  1.00  0.00     0.002 C 
BRANCH  73  74
ATOM     74  C   UNL A   1      30.153  25.708  26.073  1.00  0.00     0.021 C 
BRANCH  74  75
ATOM     75  C   UNL A   1      30.565  24.265  25.784  1.00  0.00     0.116 C 
BRANCH  75  76
ATOM     76  N   UNL A   1      31.238  23.677  26.927  1.00  0.00    -0.355 N 
ATOM     77  C   UNL A   1      32.426  23.074  27.159  1.00  0.00     0.232 C 
ATOM     78  H   UNL A   1      30.690  23.730  27.742  1.00  0.00     0.163 HD
ATOM     79  O   UNL A   1      32.533  22.628  28.313  1.00  0.00    -0.274 OA
BRANCH  77  80
ATOM     80  C   UNL A   1      33.604  22.897  26.156  1.00  0.00     0.104 C 
ATOM     81  C   UNL A   1      34.077  24.338  25.815  1.00  0.00     0.029 C 
ATOM     82  C   UNL A   1      34.724  22.201  26.974  1.00  0.00     0.277 C 
ATOM     83  C   UNL A   1      35.489  24.407  25.242  1.00  0.00     0.063 C 
ATOM     84  N   UNL A   1      36.048  22.228  26.348  1.00  0.00    -0.345 N 
ATOM     85  C   UNL A   1      36.492  23.587  26.050  1.00  0.00     0.260 C 
ATOM     86  H   UNL A   1      36.719  21.795  26.982  1.00  0.00     0.346 HD
ATOM     87  H   UNL A   1      35.986  21.720  25.466  1.00  0.00     0.346 HD
BRANCH  80  88
ATOM     88  C   UNL A   1      33.215  22.105  24.894  1.00  0.00     0.080 C 
BRANCH  88  89
ATOM     89  C   UNL A   1      33.282  20.620  24.862  1.00  0.00     0.061 A 
ATOM     90  C   UNL A   1      32.275  19.696  25.034  1.00  0.00     0.116 A 
ATOM     91  N   UNL A   1      34.462  19.989  24.525  1.00  0.00    -0.234 NA
ATOM     92  N   UNL A   1      32.883  18.473  24.968  1.00  0.00    -0.307 N 
ATOM     93  C   UNL A   1      34.198  18.700  24.583  1.00  0.00     0.136 A 
ATOM     94  C   UNL A   1      32.364  17.212  25.240  1.00  0.00     0.093 A 
ATOM     95  C   UNL A   1      35.014  17.556  24.364  1.00  0.00     0.048 A 
ATOM     96  C   UNL A   1      33.158  16.136  25.099  1.00  0.00     0.018 A 
ATOM     97  C   UNL A   1      34.519  16.328  24.617  1.00  0.00     0.005 A 
ENDBRANCH  88  89
ENDBRANCH  80  88
ENDBRANCH  77  80
ENDBRANCH  75  76
ENDBRANCH  74  75
ENDBRANCH  73  74
ENDBRANCH   1  73
TORSDOF 18
ENDMDL
MODEL 2
REMARK VINA RESULT:     -12.0      1.933      2.283
REMARK SMILES O=C(NCCCCCCNC(=O)[C@@]1(Cc2cn3ccccc3n2)CCC[NH2+]C1)c1ccc(-c2c3nc(c(-c4cc(S(=O)(=O)[O-])ccc4F)c4ccc([nH]4)c(-c4cc(S(=O)(=O)[O-])ccc4F)c4nc(c(-c5cc(S(=O)(=O)[O-])ccc5F)c5ccc2[nH]5)C=C4)C=C3)cc1
REMARK SMILES IDX 6 1 5 2 4 3 3 4 1 5 2 6 29 8 30 9 91 10 31 11 90 12 32 13
REMARK SMILES IDX 33 14 34 15 84 16 35 17 89 18 83 19 85 20 36 21 88 22 82 23
REMARK SMILES IDX 81 24 37 26 69 27 49 28 68 29 50 30 53 31 67 32 86 33 51 34
REMARK SMILES IDX 52 35 66 37 87 38 54 39 38 40 39 41 47 42 40 43 46 44 48 45
REMARK SMILES IDX 45 46 41 47 42 48 43 49 44 50 70 51 71 52 79 53 72 54 78 55
REMARK SMILES IDX 80 56 77 57 73 58 74 59 75 60 76 61 55 62 56 63 64 64 57 65
REMARK SMILES IDX 63 66 65 67 62 68 58 69 59 70 60 71 61 72 7 73 8 74 9 75
REMARK SMILES IDX 10 76 11 77 12 79 13 80 24 81 28 82 25 83 27 84 26 85 14 88
REMARK SMILES IDX 15 89 16 90 23 91 17 92 22 93 18 94 21 95 19 96 20 97
REMARK H PARENT 3 7 85 25 53 36 10 78 27 86 27 87
REMARK Flexibility Score: inf
ROOT
ATOM      1  C   UNL A   1      31.981  27.566  26.927  1.00  0.00     0.002 C 
ENDROOT
BRANCH   1   2
ATOM      2  C   UNL A   1      31.842  29.090  26.930  1.00  0.00     0.021 C 
BRANCH   2   3
ATOM      3  C   UNL A   1      33.101  29.808  26.465  1.00  0.00     0.116 C 
BRANCH   3   4
ATOM      4  N   UNL A   1      33.000  31.238  26.709  1.00  0.00    -0.352 N 
ATOM      5  O   UNL A   1      33.339  33.115  27.911  1.00  0.00    -0.269 OA
ATOM      6  C   UNL A   1      33.733  32.004  27.579  1.00  0.00     0.251 C 
ATOM      7  H   UNL A   1      32.318  31.717  26.185  1.00  0.00     0.163 HD
BRANCH   6   8
ATOM      8  C   UNL A   1      35.010  31.469  28.092  1.00  0.00     0.039 A 
ATOM      9  C   UNL A   1      36.160  32.263  28.043  1.00  0.00     0.014 A 
ATOM     10  C   UNL A   1      35.051  30.191  28.650  1.00  0.00     0.014 A 
ATOM     11  C   UNL A   1      37.374  31.744  28.468  1.00  0.00     0.010 A 
ATOM     12  C   UNL A   1      36.256  29.704  29.160  1.00  0.00     0.010 A 
ATOM     13  C   UNL A   1      37.424  30.481  29.074  1.00  0.00    -0.014 A 
BRANCH  13  14
ATOM     14  C   UNL A   1      38.677  30.050  29.736  1.00  0.00     0.031 A 
ATOM     15  C   UNL A   1      39.567  29.015  29.117  1.00  0.00     0.074 A 
ATOM     16  C   UNL A   1      38.984  30.608  30.924  1.00  0.00     0.049 A 
ATOM     17  N   UNL A   1      40.663  28.487  29.593  1.00  0.00    -0.248 NA
ATOM     18  C   UNL A   1      39.173  28.497  27.797  1.00  0.00     0.031 C 
ATOM     19  C   UNL A   1      38.177  31.625  31.608  1.00  0.00     0.029 A 
ATOM     20  N   UNL A   1      40.044  30.409  31.771  1.00  0.00    -0.354 N 
ATOM     21  C   UNL A   1      41.083  27.559  28.648  1.00  0.00     0.074 A 
ATOM     22  C   UNL A   1      40.110  27.585  27.574  1.00  0.00     0.031 C 
ATOM     23  C   UNL A   1      38.781  31.976  32.750  1.00  0.00     0.029 A 
ATOM     24  C   UNL A   1      39.967  31.150  32.928  1.00  0.00     0.049 A 
ATOM     25  H   UNL A   1      40.787  29.796  31.571  1.00  0.00     0.167 HD
ATOM     26  C   UNL A   1      42.178  26.760  28.686  1.00  0.00     0.034 A 
ATOM     27  C   UNL A   1      40.735  31.131  34.034  1.00  0.00     0.034 A 
ATOM     28  C   UNL A   1      43.130  26.763  29.772  1.00  0.00     0.049 A 
ATOM     29  C   UNL A   1      41.906  30.186  34.070  1.00  0.00     0.074 A 
ATOM     30  C   UNL A   1      44.310  26.050  29.880  1.00  0.00     0.029 A 
ATOM     31  N   UNL A   1      43.001  27.495  30.947  1.00  0.00    -0.354 N 
ATOM     32  N   UNL A   1      42.321  29.354  33.142  1.00  0.00    -0.248 NA
ATOM     33  C   UNL A   1      42.710  30.173  35.297  1.00  0.00     0.031 C 
ATOM     34  C   UNL A   1      44.844  26.276  31.152  1.00  0.00     0.029 A 
ATOM     35  C   UNL A   1      44.048  27.204  31.807  1.00  0.00     0.049 A 
ATOM     36  H   UNL A   1      42.271  28.127  31.140  1.00  0.00     0.167 HD
ATOM     37  C   UNL A   1      43.447  28.732  33.671  1.00  0.00     0.074 A 
ATOM     38  C   UNL A   1      43.659  29.303  34.985  1.00  0.00     0.031 C 
ATOM     39  C   UNL A   1      44.233  27.772  33.121  1.00  0.00     0.034 A 
BRANCH  26  40
ATOM     40  C   UNL A   1      42.380  25.776  27.560  1.00  0.00     0.023 A 
ATOM     41  C   UNL A   1      41.758  24.517  27.543  1.00  0.00     0.031 A 
ATOM     42  C   UNL A   1      43.196  26.124  26.467  1.00  0.00     0.131 A 
ATOM     43  C   UNL A   1      41.995  23.634  26.477  1.00  0.00     0.055 A 
ATOM     44  C   UNL A   1      43.372  25.270  25.377  1.00  0.00     0.041 A 
ATOM     45  F   UNL A   1      43.834  27.304  26.439  1.00  0.00    -0.206 F 
ATOM     46  C   UNL A   1      42.777  24.013  25.383  1.00  0.00     0.022 A 
BRANCH  43  47
ATOM     47  S   UNL A   1      41.355  21.941  26.591  1.00  0.00     0.124 S 
ATOM     48  O   UNL A   1      39.961  22.125  26.197  1.00  0.00    -0.237 OA
ATOM     49  O   UNL A   1      42.198  21.220  25.643  1.00  0.00    -0.237 OA
ATOM     50  O   UNL A   1      41.558  21.591  27.996  1.00  0.00    -0.744 OA
ENDBRANCH  43  47
ENDBRANCH  26  40
BRANCH  27  51
ATOM     51  C   UNL A   1      40.383  31.971  35.214  1.00  0.00     0.023 A 
ATOM     52  C   UNL A   1      39.415  31.555  36.137  1.00  0.00     0.031 A 
ATOM     53  C   UNL A   1      40.978  33.232  35.407  1.00  0.00     0.131 A 
ATOM     54  C   UNL A   1      39.027  32.414  37.177  1.00  0.00     0.055 A 
ATOM     55  C   UNL A   1      40.641  34.053  36.484  1.00  0.00     0.041 A 
ATOM     56  F   UNL A   1      41.911  33.684  34.553  1.00  0.00    -0.206 F 
ATOM     57  C   UNL A   1      39.645  33.652  37.367  1.00  0.00     0.022 A 
BRANCH  54  58
ATOM     58  S   UNL A   1      37.612  31.938  38.207  1.00  0.00     0.124 S 
ATOM     59  O   UNL A   1      36.621  32.940  37.830  1.00  0.00    -0.237 OA
ATOM     60  O   UNL A   1      37.353  30.577  37.753  1.00  0.00    -0.237 OA
ATOM     61  O   UNL A   1      38.130  32.054  39.569  1.00  0.00    -0.744 OA
ENDBRANCH  54  58
ENDBRANCH  27  51
BRANCH  39  62
ATOM     62  C   UNL A   1      45.412  27.309  33.938  1.00  0.00     0.023 A 
ATOM     63  C   UNL A   1      46.664  27.942  33.851  1.00  0.00     0.031 A 
ATOM     64  C   UNL A   1      45.280  26.219  34.817  1.00  0.00     0.131 A 
ATOM     65  C   UNL A   1      47.747  27.451  34.594  1.00  0.00     0.055 A 
ATOM     66  C   UNL A   1      46.344  25.775  35.601  1.00  0.00     0.041 A 
ATOM     67  F   UNL A   1      44.108  25.573  34.933  1.00  0.00    -0.206 F 
ATOM     68  C   UNL A   1      47.590  26.385  35.484  1.00  0.00     0.022 A 
BRANCH  65  69
ATOM     69  S   UNL A   1      49.387  28.174  34.324  1.00  0.00     0.124 S 
ATOM     70  O   UNL A   1      50.069  27.113  33.590  1.00  0.00    -0.237 OA
ATOM     71  O   UNL A   1      49.078  29.379  33.562  1.00  0.00    -0.237 OA
ATOM     72  O   UNL A   1      49.885  28.410  35.679  1.00  0.00    -0.744 OA
ENDBRANCH  65  69
ENDBRANCH  39  62
ENDBRANCH  13  14
ENDBRANCH   6   8
ENDBRANCH   3   4
ENDBRANCH   2   3
ENDBRANCH   1   2
BRANCH   1  73
ATOM     73  C   UNL A   1      31.305  26.865  25.739  1.00  0.00     0.002 C 
BRANCH  73  74
ATOM     74  C   UNL A   1      30.219  25.857  26.128  1.00  0.00     0.021 C 
BRANCH  74  75
ATOM     75  C   UNL A   1      30.594  24.419  25.769  1.00  0.00     0.116 C 
BRANCH  75  76
ATOM     76  N   UNL A   1      31.214  23.747  26.896  1.00  0.00    -0.355 N 
ATOM     77  C   UNL A   1      32.369  23.081  27.121  1.00  0.00     0.232 C 
ATOM     78  H   UNL A   1      30.650  23.784  27.701  1.00  0.00     0.163 HD
ATOM     79  O   UNL A   1      32.431  22.576  28.254  1.00  0.00    -0.274 OA
BRANCH  77  80
ATOM     80  C   UNL A   1      33.561  22.902  26.136  1.00  0.00     0.104 C 
ATOM     81  C   UNL A   1      34.007  24.343  25.760  1.00  0.00     0.029 C 
ATOM     82  C   UNL A   1      34.687  22.253  26.984  1.00  0.00     0.277 C 
ATOM     83  C   UNL A   1      35.423  24.426  25.198  1.00  0.00     0.063 C 
ATOM     84  N   UNL A   1      36.016  22.291  26.371  1.00  0.00    -0.345 N 
ATOM     85  C   UNL A   1      36.435  23.651  26.039  1.00  0.00     0.260 C 
ATOM     86  H   UNL A   1      36.690  21.891  27.023  1.00  0.00     0.346 HD
ATOM     87  H   UNL A   1      35.975  21.758  25.502  1.00  0.00     0.346 HD
BRANCH  80  88
ATOM     88  C   UNL A   1      33.202  22.068  24.892  1.00  0.00     0.080 C 
BRANCH  88  89
ATOM     89  C   UNL A   1      33.390  20.593  24.870  1.00  0.00     0.061 A 
ATOM     90  C   UNL A   1      34.516  19.860  24.560  1.00  0.00     0.116 A 
ATOM     91  N   UNL A   1      32.377  19.760  25.298  1.00  0.00    -0.234 NA
ATOM     92  N   UNL A   1      34.134  18.550  24.637  1.00  0.00    -0.307 N 
ATOM     93  C   UNL A   1      32.847  18.538  25.161  1.00  0.00     0.136 A 
ATOM     94  C   UNL A   1      34.827  17.403  24.263  1.00  0.00     0.093 A 
ATOM     95  C   UNL A   1      32.265  17.265  25.414  1.00  0.00     0.048 A 
ATOM     96  C   UNL A   1      34.246  16.204  24.440  1.00  0.00     0.018 A 
ATOM     97  C   UNL A   1      32.931  16.147  25.063  1.00  0.00     0.005 A 
ENDBRANCH  88  89
ENDBRANCH  80  88
ENDBRANCH  77  80
ENDBRANCH  75  76
ENDBRANCH  74  75
ENDBRANCH  73  74
ENDBRANCH   1  73
TORSDOF 18
ENDMDL
MODEL 3
REMARK VINA RESULT:     -11.9      5.226     10.430
REMARK SMILES O=C(NCCCCCCNC(=O)[C@@]1(Cc2cn3ccccc3n2)CCC[NH2+]C1)c1ccc(-c2c3nc(c(-c4cc(S(=O)(=O)[O-])ccc4F)c4ccc([nH]4)c(-c4cc(S(=O)(=O)[O-])ccc4F)c4nc(c(-c5cc(S(=O)(=O)[O-])ccc5F)c5ccc2[nH]5)C=C4)C=C3)cc1
REMARK SMILES IDX 6 1 5 2 4 3 3 4 1 5 2 6 29 8 30 9 91 10 31 11 90 12 32 13
REMARK SMILES IDX 33 14 34 15 84 16 35 17 89 18 83 19 85 20 36 21 88 22 82 23
REMARK SMILES IDX 81 24 37 26 69 27 49 28 68 29 50 30 53 31 67 32 86 33 51 34
REMARK SMILES IDX 52 35 66 37 87 38 54 39 38 40 39 41 47 42 40 43 46 44 48 45
REMARK SMILES IDX 45 46 41 47 42 48 43 49 44 50 70 51 71 52 79 53 72 54 78 55
REMARK SMILES IDX 80 56 77 57 73 58 74 59 75 60 76 61 55 62 56 63 64 64 57 65
REMARK SMILES IDX 63 66 65 67 62 68 58 69 59 70 60 71 61 72 7 73 8 74 9 75
REMARK SMILES IDX 10 76 11 77 12 79 13 80 24 81 28 82 25 83 27 84 26 85 14 88
REMARK SMILES IDX 15 89 16 90 23 91 17 92 22 93 18 94 21 95 19 96 20 97
REMARK H PARENT 3 7 85 25 53 36 10 78 27 86 27 87
REMARK Flexibility Score: inf
ROOT
ATOM      1  C   UNL A   1      34.530  22.038  24.720  1.00  0.00     0.002 C 
ENDROOT
BRANCH   1   2
ATOM      2  C   UNL A   1      34.819  22.899  25.952  1.00  0.00     0.021 C 
BRANCH   2   3
ATOM      3  C   UNL A   1      36.298  23.210  26.134  1.00  0.00     0.116 C 
BRANCH   3   4
ATOM      4  N   UNL A   1      37.090  21.991  26.091  1.00  0.00    -0.352 N 
ATOM      5  O   UNL A   1      38.975  20.814  25.708  1.00  0.00    -0.269 OA
ATOM      6  C   UNL A   1      38.456  21.868  26.055  1.00  0.00     0.251 C 
ATOM      7  H   UNL A   1      36.583  21.148  26.087  1.00  0.00     0.163 HD
BRANCH   6   8
ATOM      8  C   UNL A   1      39.283  23.022  26.458  1.00  0.00     0.039 A 
ATOM      9  C   UNL A   1      39.195  24.219  25.740  1.00  0.00     0.014 A 
ATOM     10  C   UNL A   1      40.120  22.920  27.569  1.00  0.00     0.014 A 
ATOM     11  C   UNL A   1      40.012  25.287  26.076  1.00  0.00     0.010 A 
ATOM     12  C   UNL A   1      40.876  24.026  27.961  1.00  0.00     0.010 A 
ATOM     13  C   UNL A   1      40.823  25.217  27.217  1.00  0.00    -0.014 A 
BRANCH  13  14
ATOM     14  C   UNL A   1      41.500  26.446  27.695  1.00  0.00     0.031 A 
ATOM     15  C   UNL A   1      40.749  27.506  28.443  1.00  0.00     0.074 A 
ATOM     16  C   UNL A   1      42.813  26.587  27.422  1.00  0.00     0.049 A 
ATOM     17  N   UNL A   1      41.179  28.661  28.877  1.00  0.00    -0.248 NA
ATOM     18  C   UNL A   1      39.332  27.242  28.735  1.00  0.00     0.031 C 
ATOM     19  C   UNL A   1      43.630  25.606  26.697  1.00  0.00     0.029 A 
ATOM     20  N   UNL A   1      43.694  27.596  27.711  1.00  0.00    -0.354 N 
ATOM     21  C   UNL A   1      40.084  29.276  29.473  1.00  0.00     0.074 A 
ATOM     22  C   UNL A   1      38.964  28.369  29.331  1.00  0.00     0.031 C 
ATOM     23  C   UNL A   1      44.891  26.050  26.621  1.00  0.00     0.029 A 
ATOM     24  C   UNL A   1      44.957  27.381  27.208  1.00  0.00     0.049 A 
ATOM     25  H   UNL A   1      43.448  28.396  28.228  1.00  0.00     0.167 HD
ATOM     26  C   UNL A   1      40.032  30.489  30.077  1.00  0.00     0.034 A 
ATOM     27  C   UNL A   1      46.036  28.185  27.176  1.00  0.00     0.034 A 
ATOM     28  C   UNL A   1      41.171  31.367  30.205  1.00  0.00     0.049 A 
ATOM     29  C   UNL A   1      45.924  29.551  27.799  1.00  0.00     0.074 A 
ATOM     30  C   UNL A   1      41.247  32.584  30.859  1.00  0.00     0.029 A 
ATOM     31  N   UNL A   1      42.424  31.138  29.649  1.00  0.00    -0.354 N 
ATOM     32  N   UNL A   1      44.896  30.095  28.409  1.00  0.00    -0.248 NA
ATOM     33  C   UNL A   1      47.111  30.411  27.728  1.00  0.00     0.031 C 
ATOM     34  C   UNL A   1      42.511  33.132  30.621  1.00  0.00     0.029 A 
ATOM     35  C   UNL A   1      43.259  32.217  29.896  1.00  0.00     0.049 A 
ATOM     36  H   UNL A   1      42.681  30.327  29.152  1.00  0.00     0.167 HD
ATOM     37  C   UNL A   1      45.321  31.357  28.809  1.00  0.00     0.074 A 
ATOM     38  C   UNL A   1      46.704  31.481  28.395  1.00  0.00     0.031 C 
ATOM     39  C   UNL A   1      44.631  32.328  29.459  1.00  0.00     0.034 A 
BRANCH  26  40
ATOM     40  C   UNL A   1      38.697  30.970  30.591  1.00  0.00     0.023 A 
ATOM     41  C   UNL A   1      37.728  31.539  29.747  1.00  0.00     0.031 A 
ATOM     42  C   UNL A   1      38.381  30.827  31.955  1.00  0.00     0.131 A 
ATOM     43  C   UNL A   1      36.509  31.984  30.283  1.00  0.00     0.055 A 
ATOM     44  C   UNL A   1      37.140  31.208  32.469  1.00  0.00     0.041 A 
ATOM     45  F   UNL A   1      39.275  30.312  32.813  1.00  0.00    -0.206 F 
ATOM     46  C   UNL A   1      36.199  31.799  31.632  1.00  0.00     0.022 A 
BRANCH  43  47
ATOM     47  S   UNL A   1      35.374  32.909  29.212  1.00  0.00     0.124 S 
ATOM     48  O   UNL A   1      35.560  32.233  27.930  1.00  0.00    -0.237 OA
ATOM     49  O   UNL A   1      34.086  32.702  29.863  1.00  0.00    -0.237 OA
ATOM     50  O   UNL A   1      35.888  34.277  29.267  1.00  0.00    -0.744 OA
ENDBRANCH  43  47
ENDBRANCH  26  40
BRANCH  27  51
ATOM     51  C   UNL A   1      47.280  27.755  26.475  1.00  0.00     0.023 A 
ATOM     52  C   UNL A   1      47.439  27.950  25.097  1.00  0.00     0.031 A 
ATOM     53  C   UNL A   1      48.310  27.093  27.170  1.00  0.00     0.131 A 
ATOM     54  C   UNL A   1      48.572  27.438  24.446  1.00  0.00     0.055 A 
ATOM     55  C   UNL A   1      49.468  26.650  26.530  1.00  0.00     0.041 A 
ATOM     56  F   UNL A   1      48.211  26.877  28.492  1.00  0.00    -0.206 F 
ATOM     57  C   UNL A   1      49.596  26.806  25.155  1.00  0.00     0.022 A 
BRANCH  54  58
ATOM     58  S   UNL A   1      48.631  27.506  22.635  1.00  0.00     0.124 S 
ATOM     59  O   UNL A   1      48.639  26.088  22.286  1.00  0.00    -0.237 OA
ATOM     60  O   UNL A   1      47.408  28.236  22.320  1.00  0.00    -0.237 OA
ATOM     61  O   UNL A   1      49.874  28.223  22.361  1.00  0.00    -0.744 OA
ENDBRANCH  54  58
ENDBRANCH  27  51
BRANCH  39  62
ATOM     62  C   UNL A   1      45.381  33.595  29.784  1.00  0.00     0.023 A 
ATOM     63  C   UNL A   1      45.423  34.676  28.887  1.00  0.00     0.031 A 
ATOM     64  C   UNL A   1      46.061  33.721  31.008  1.00  0.00     0.131 A 
ATOM     65  C   UNL A   1      46.170  35.819  29.208  1.00  0.00     0.055 A 
ATOM     66  C   UNL A   1      46.749  34.885  31.348  1.00  0.00     0.041 A 
ATOM     67  F   UNL A   1      46.059  32.716  31.898  1.00  0.00    -0.206 F 
ATOM     68  C   UNL A   1      46.816  35.939  30.441  1.00  0.00     0.022 A 
BRANCH  65  69
ATOM     69  S   UNL A   1      46.353  37.119  27.957  1.00  0.00     0.124 S 
ATOM     70  O   UNL A   1      47.756  36.982  27.580  1.00  0.00    -0.237 OA
ATOM     71  O   UNL A   1      45.380  36.721  26.945  1.00  0.00    -0.237 OA
ATOM     72  O   UNL A   1      46.023  38.343  28.684  1.00  0.00    -0.744 OA
ENDBRANCH  65  69
ENDBRANCH  39  62
ENDBRANCH  13  14
ENDBRANCH   6   8
ENDBRANCH   3   4
ENDBRANCH   2   3
ENDBRANCH   1   2
BRANCH   1  73
ATOM     73  C   UNL A   1      33.308  22.481  23.903  1.00  0.00     0.002 C 
BRANCH  73  74
ATOM     74  C   UNL A   1      33.639  23.326  22.669  1.00  0.00     0.021 C 
BRANCH  74  75
ATOM     75  C   UNL A   1      32.630  24.449  22.434  1.00  0.00     0.116 C 
BRANCH  75  76
ATOM     76  N   UNL A   1      33.292  25.657  21.979  1.00  0.00    -0.355 N 
ATOM     77  C   UNL A   1      33.437  26.923  22.433  1.00  0.00     0.232 C 
ATOM     78  H   UNL A   1      33.753  25.521  21.121  1.00  0.00     0.163 HD
ATOM     79  O   UNL A   1      34.029  27.666  21.632  1.00  0.00    -0.274 OA
BRANCH  77  80
ATOM     80  C   UNL A   1      32.950  27.496  23.795  1.00  0.00     0.104 C 
ATOM     81  C   UNL A   1      33.690  26.667  24.882  1.00  0.00     0.029 C 
ATOM     82  C   UNL A   1      33.499  28.947  23.838  1.00  0.00     0.277 C 
ATOM     83  C   UNL A   1      33.740  27.341  26.249  1.00  0.00     0.063 C 
ATOM     84  N   UNL A   1      33.458  29.580  25.158  1.00  0.00    -0.345 N 
ATOM     85  C   UNL A   1      34.173  28.803  26.168  1.00  0.00     0.260 C 
ATOM     86  H   UNL A   1      33.885  30.504  25.092  1.00  0.00     0.346 HD
ATOM     87  H   UNL A   1      32.481  29.640  25.445  1.00  0.00     0.346 HD
BRANCH  80  88
ATOM     88  C   UNL A   1      31.420  27.438  23.969  1.00  0.00     0.080 C 
BRANCH  88  89
ATOM     89  C   UNL A   1      30.545  28.535  23.478  1.00  0.00     0.061 A 
ATOM     90  C   UNL A   1      29.753  28.583  22.351  1.00  0.00     0.116 A 
ATOM     91  N   UNL A   1      30.363  29.669  24.242  1.00  0.00    -0.234 NA
ATOM     92  N   UNL A   1      29.206  29.836  22.340  1.00  0.00    -0.307 N 
ATOM     93  C   UNL A   1      29.547  30.433  23.547  1.00  0.00     0.136 A 
ATOM     94  C   UNL A   1      28.466  30.468  21.347  1.00  0.00     0.093 A 
ATOM     95  C   UNL A   1      29.013  31.726  23.801  1.00  0.00     0.048 A 
ATOM     96  C   UNL A   1      28.020  31.718  21.562  1.00  0.00     0.018 A 
ATOM     97  C   UNL A   1      28.287  32.346  22.849  1.00  0.00     0.005 A 
ENDBRANCH  88  89
ENDBRANCH  80  88
ENDBRANCH  77  80
ENDBRANCH  75  76
ENDBRANCH  74  75
ENDBRANCH  73  74
ENDBRANCH   1  73
TORSDOF 18
ENDMDL
