MODEL 1
REMARK VINA RESULT:     -12.5      0.000      0.000
REMARK SMILES CC1(C)S[C@@H]2[C@H]([NH2+]Cn3nnc4ccccc43)C(=O)N2[C@@H]1C(=O)NCCCCCCNC(=O)c1ccc(-c2c3nc(c(-c4cc(S(=O)(=O)[O-])ccc4F)c4ccc([nH]4)c(-c4cc(S(=O)(=O)[O-])ccc4F)c4nc(c(-c5cc(S(=O)(=O)[O-])ccc5F)c5ccc2[nH]5)C=C4)C=C3)cc1
REMARK SMILES IDX 27 1 26 2 25 3 24 4 22 5 23 6 21 8 1 9 2 10 3 11 4 12 5 13
REMARK SMILES IDX 20 14 6 15 18 16 19 17 7 18 8 21 9 22 10 23 17 24 11 25
REMARK SMILES IDX 12 26 16 27 13 28 15 29 14 30 28 31 29 32 30 33 31 34 32 35
REMARK SMILES IDX 33 37 34 38 35 39 96 40 36 41 95 42 37 43 38 44 39 45 89 46
REMARK SMILES IDX 40 47 94 48 88 49 90 50 41 51 93 52 87 53 86 54 42 56 74 57
REMARK SMILES IDX 54 58 73 59 55 60 58 61 72 62 91 63 56 64 57 65 71 67 92 68
REMARK SMILES IDX 59 69 43 70 44 71 52 72 45 73 51 74 53 75 50 76 46 77 47 78
REMARK SMILES IDX 48 79 49 80 75 81 76 82 84 83 77 84 83 85 85 86 82 87 78 88
REMARK SMILES IDX 79 89 80 90 81 91 60 92 61 93 69 94 62 95 68 96 70 97 67 98
REMARK SMILES IDX 63 99 64 100 65 101 66 102
REMARK H PARENT 24 7 7 19 7 20 31 36 90 55 58 66
REMARK Flexibility Score: inf
ROOT
ATOM      1  C   UNL A   1      36.456  23.762  24.303  1.00  0.00     0.002 C 
ENDROOT
BRANCH   1   2
ATOM      2  C   UNL A   1      35.382  24.226  25.293  1.00  0.00     0.021 C 
BRANCH   2   3
ATOM      3  C   UNL A   1      34.010  24.534  24.693  1.00  0.00     0.116 C 
BRANCH   3   4
ATOM      4  N   UNL A   1      34.058  24.877  23.282  1.00  0.00    -0.354 N 
ATOM      5  C   UNL A   1      33.359  25.799  22.558  1.00  0.00     0.244 C 
ATOM      6  O   UNL A   1      33.799  26.065  21.431  1.00  0.00    -0.273 OA
ATOM      7  H   UNL A   1      34.707  24.353  22.759  1.00  0.00     0.163 HD
BRANCH   5   8
ATOM      8  C   UNL A   1      32.172  26.629  23.107  1.00  0.00     0.191 C 
ATOM      9  C   UNL A   1      34.069  28.122  24.140  1.00  0.00     0.026 C 
ATOM     10  C   UNL A   1      32.573  27.940  23.867  1.00  0.00     0.042 C 
ATOM     11  C   UNL A   1      32.038  29.198  23.165  1.00  0.00     0.026 C 
ATOM     12  S   UNL A   1      31.646  27.920  25.516  1.00  0.00    -0.121 SA
ATOM     13  C   UNL A   1      30.459  26.689  24.935  1.00  0.00     0.213 C 
ATOM     14  N   UNL A   1      31.297  25.934  24.019  1.00  0.00    -0.306 N 
ATOM     15  C   UNL A   1      30.023  25.310  25.526  1.00  0.00     0.307 C 
ATOM     16  C   UNL A   1      30.591  24.804  24.107  1.00  0.00     0.285 C 
ATOM     17  O   UNL A   1      30.541  23.829  23.388  1.00  0.00    -0.268 OA
BRANCH  15  18
ATOM     18  N   UNL A   1      30.689  24.683  26.701  1.00  0.00    -0.315 N 
ATOM     19  H   UNL A   1      30.284  25.088  27.545  1.00  0.00     0.348 HD
ATOM     20  H   UNL A   1      31.686  24.870  26.595  1.00  0.00     0.348 HD
BRANCH  18  21
ATOM     21  C   UNL A   1      30.558  23.241  26.788  1.00  0.00     0.415 C 
BRANCH  21  22
ATOM     22  N   UNL A   1      31.823  22.528  26.931  1.00  0.00    -0.194 N 
ATOM     23  N   UNL A   1      32.637  22.638  27.995  1.00  0.00    -0.061 NA
ATOM     24  C   UNL A   1      32.319  21.659  25.986  1.00  0.00     0.095 A 
ATOM     25  N   UNL A   1      33.704  21.881  27.748  1.00  0.00    -0.130 NA
ATOM     26  C   UNL A   1      33.527  21.261  26.535  1.00  0.00     0.113 A 
ATOM     27  C   UNL A   1      31.836  21.187  24.757  1.00  0.00     0.030 A 
ATOM     28  C   UNL A   1      34.305  20.327  25.837  1.00  0.00     0.032 A 
ATOM     29  C   UNL A   1      32.612  20.232  24.098  1.00  0.00     0.002 A 
ATOM     30  C   UNL A   1      33.824  19.801  24.630  1.00  0.00     0.002 A 
ENDBRANCH  21  22
ENDBRANCH  18  21
ENDBRANCH  15  18
ENDBRANCH   5   8
ENDBRANCH   3   4
ENDBRANCH   2   3
ENDBRANCH   1   2
BRANCH   1  31
ATOM     31  C   UNL A   1      36.424  22.279  23.903  1.00  0.00     0.002 C 
BRANCH  31  32
ATOM     32  C   UNL A   1      37.473  21.366  24.551  1.00  0.00     0.021 C 
BRANCH  32  33
ATOM     33  C   UNL A   1      38.186  21.914  25.786  1.00  0.00     0.116 C 
BRANCH  33  34
ATOM     34  N   UNL A   1      39.629  21.951  25.679  1.00  0.00    -0.352 N 
ATOM     35  C   UNL A   1      40.634  22.636  26.306  1.00  0.00     0.251 C 
ATOM     36  H   UNL A   1      39.968  21.334  24.991  1.00  0.00     0.163 HD
ATOM     37  O   UNL A   1      41.778  22.246  26.049  1.00  0.00    -0.269 OA
BRANCH  35  38
ATOM     38  C   UNL A   1      40.473  23.840  27.173  1.00  0.00     0.039 A 
ATOM     39  C   UNL A   1      39.331  24.628  27.296  1.00  0.00     0.014 A 
ATOM     40  C   UNL A   1      41.616  24.219  27.904  1.00  0.00     0.014 A 
ATOM     41  C   UNL A   1      39.384  25.836  28.003  1.00  0.00     0.010 A 
ATOM     42  C   UNL A   1      41.666  25.414  28.618  1.00  0.00     0.010 A 
ATOM     43  C   UNL A   1      40.574  26.271  28.593  1.00  0.00    -0.014 A 
BRANCH  43  44
ATOM     44  C   UNL A   1      40.624  27.626  29.159  1.00  0.00     0.031 A 
ATOM     45  C   UNL A   1      41.589  28.580  28.535  1.00  0.00     0.074 A 
ATOM     46  C   UNL A   1      39.802  28.048  30.145  1.00  0.00     0.049 A 
ATOM     47  N   UNL A   1      42.614  29.160  29.075  1.00  0.00    -0.248 NA
ATOM     48  C   UNL A   1      41.434  28.857  27.102  1.00  0.00     0.031 C 
ATOM     49  C   UNL A   1      38.614  27.379  30.686  1.00  0.00     0.029 A 
ATOM     50  N   UNL A   1      39.804  29.241  30.809  1.00  0.00    -0.354 N 
ATOM     51  C   UNL A   1      43.153  29.999  28.095  1.00  0.00     0.074 A 
ATOM     52  C   UNL A   1      42.457  29.681  26.872  1.00  0.00     0.031 C 
ATOM     53  C   UNL A   1      37.882  28.269  31.394  1.00  0.00     0.029 A 
ATOM     54  C   UNL A   1      38.628  29.511  31.497  1.00  0.00     0.049 A 
ATOM     55  H   UNL A   1      40.572  29.856  30.800  1.00  0.00     0.167 HD
ATOM     56  C   UNL A   1      44.037  31.000  28.383  1.00  0.00     0.034 A 
ATOM     57  C   UNL A   1      38.257  30.695  32.047  1.00  0.00     0.034 A 
ATOM     58  C   UNL A   1      44.574  30.867  29.708  1.00  0.00     0.049 A 
ATOM     59  C   UNL A   1      39.471  31.525  32.227  1.00  0.00     0.074 A 
ATOM     60  C   UNL A   1      45.377  29.942  30.343  1.00  0.00     0.029 A 
ATOM     61  N   UNL A   1      44.029  31.637  30.703  1.00  0.00    -0.354 N 
ATOM     62  N   UNL A   1      40.403  31.279  33.100  1.00  0.00    -0.248 NA
ATOM     63  C   UNL A   1      39.846  32.407  31.134  1.00  0.00     0.031 C 
ATOM     64  C   UNL A   1      44.887  29.889  31.677  1.00  0.00     0.029 A 
ATOM     65  C   UNL A   1      43.854  30.822  31.791  1.00  0.00     0.049 A 
ATOM     66  H   UNL A   1      43.805  32.594  30.647  1.00  0.00     0.167 HD
ATOM     67  C   UNL A   1      41.581  31.579  32.434  1.00  0.00     0.074 A 
ATOM     68  C   UNL A   1      41.172  32.369  31.273  1.00  0.00     0.031 C 
ATOM     69  C   UNL A   1      42.746  30.927  32.718  1.00  0.00     0.034 A 
BRANCH  56  70
ATOM     70  C   UNL A   1      44.234  32.255  27.565  1.00  0.00     0.023 A 
ATOM     71  C   UNL A   1      43.669  33.492  27.926  1.00  0.00     0.031 A 
ATOM     72  C   UNL A   1      45.175  32.294  26.513  1.00  0.00     0.131 A 
ATOM     73  C   UNL A   1      44.010  34.678  27.260  1.00  0.00     0.055 A 
ATOM     74  C   UNL A   1      45.567  33.488  25.893  1.00  0.00     0.041 A 
ATOM     75  F   UNL A   1      45.787  31.177  26.088  1.00  0.00    -0.206 F 
ATOM     76  C   UNL A   1      44.982  34.691  26.265  1.00  0.00     0.022 A 
BRANCH  73  77
ATOM     77  S   UNL A   1      43.195  36.240  27.692  1.00  0.00     0.124 S 
ATOM     78  O   UNL A   1      42.277  35.818  28.744  1.00  0.00    -0.237 OA
ATOM     79  O   UNL A   1      44.328  37.053  28.129  1.00  0.00    -0.237 OA
ATOM     80  O   UNL A   1      42.579  36.660  26.438  1.00  0.00    -0.744 OA
ENDBRANCH  73  77
ENDBRANCH  56  70
BRANCH  57  81
ATOM     81  C   UNL A   1      36.918  31.323  31.936  1.00  0.00     0.023 A 
ATOM     82  C   UNL A   1      36.364  31.550  30.663  1.00  0.00     0.031 A 
ATOM     83  C   UNL A   1      36.347  32.009  33.022  1.00  0.00     0.131 A 
ATOM     84  C   UNL A   1      35.334  32.484  30.492  1.00  0.00     0.055 A 
ATOM     85  C   UNL A   1      35.304  32.927  32.853  1.00  0.00     0.041 A 
ATOM     86  F   UNL A   1      36.850  31.863  34.258  1.00  0.00    -0.206 F 
ATOM     87  C   UNL A   1      34.804  33.182  31.578  1.00  0.00     0.022 A 
BRANCH  84  88
ATOM     88  S   UNL A   1      34.738  32.884  28.827  1.00  0.00     0.124 S 
ATOM     89  O   UNL A   1      35.968  33.279  28.144  1.00  0.00    -0.237 OA
ATOM     90  O   UNL A   1      34.165  31.611  28.406  1.00  0.00    -0.237 OA
ATOM     91  O   UNL A   1      33.786  33.967  29.058  1.00  0.00    -0.744 OA
ENDBRANCH  84  88
ENDBRANCH  57  81
BRANCH  69  92
ATOM     92  C   UNL A   1      42.816  30.033  33.936  1.00  0.00     0.023 A 
ATOM     93  C   UNL A   1      43.533  30.519  35.044  1.00  0.00     0.031 A 
ATOM     94  C   UNL A   1      42.432  28.678  33.956  1.00  0.00     0.131 A 
ATOM     95  C   UNL A   1      43.892  29.661  36.089  1.00  0.00     0.055 A 
ATOM     96  C   UNL A   1      42.724  27.842  35.040  1.00  0.00     0.041 A 
ATOM     97  F   UNL A   1      41.851  28.096  32.900  1.00  0.00    -0.206 F 
ATOM     98  C   UNL A   1      43.475  28.327  36.105  1.00  0.00     0.022 A 
BRANCH  95  99
ATOM     99  S   UNL A   1      45.062  30.207  37.359  1.00  0.00     0.124 S 
ATOM    100  O   UNL A   1      46.242  29.400  37.059  1.00  0.00    -0.237 OA
ATOM    101  O   UNL A   1      45.190  31.634  37.068  1.00  0.00    -0.237 OA
ATOM    102  O   UNL A   1      44.391  29.893  38.617  1.00  0.00    -0.744 OA
ENDBRANCH  95  99
ENDBRANCH  69  92
ENDBRANCH  43  44
ENDBRANCH  35  38
ENDBRANCH  33  34
ENDBRANCH  32  33
ENDBRANCH  31  32
ENDBRANCH   1  31
TORSDOF 19
ENDMDL
MODEL 2
REMARK VINA RESULT:     -12.3      1.349      3.591
REMARK SMILES CC1(C)S[C@@H]2[C@H]([NH2+]Cn3nnc4ccccc43)C(=O)N2[C@@H]1C(=O)NCCCCCCNC(=O)c1ccc(-c2c3nc(c(-c4cc(S(=O)(=O)[O-])ccc4F)c4ccc([nH]4)c(-c4cc(S(=O)(=O)[O-])ccc4F)c4nc(c(-c5cc(S(=O)(=O)[O-])ccc5F)c5ccc2[nH]5)C=C4)C=C3)cc1
REMARK SMILES IDX 27 1 26 2 25 3 24 4 22 5 23 6 21 8 1 9 2 10 3 11 4 12 5 13
REMARK SMILES IDX 20 14 6 15 18 16 19 17 7 18 8 21 9 22 10 23 17 24 11 25
REMARK SMILES IDX 12 26 16 27 13 28 15 29 14 30 28 31 29 32 30 33 31 34 32 35
REMARK SMILES IDX 33 37 34 38 35 39 96 40 36 41 95 42 37 43 38 44 39 45 89 46
REMARK SMILES IDX 40 47 94 48 88 49 90 50 41 51 93 52 87 53 86 54 42 56 74 57
REMARK SMILES IDX 54 58 73 59 55 60 58 61 72 62 91 63 56 64 57 65 71 67 92 68
REMARK SMILES IDX 59 69 43 70 44 71 52 72 45 73 51 74 53 75 50 76 46 77 47 78
REMARK SMILES IDX 48 79 49 80 75 81 76 82 84 83 77 84 83 85 85 86 82 87 78 88
REMARK SMILES IDX 79 89 80 90 81 91 60 92 61 93 69 94 62 95 68 96 70 97 67 98
REMARK SMILES IDX 63 99 64 100 65 101 66 102
REMARK H PARENT 24 7 7 19 7 20 31 36 90 55 58 66
REMARK Flexibility Score: inf
ROOT
ATOM      1  C   UNL A   1      35.856  19.513  24.996  1.00  0.00     0.002 C 
ENDROOT
BRANCH   1   2
ATOM      2  C   UNL A   1      34.574  18.809  24.537  1.00  0.00     0.021 C 
BRANCH   2   3
ATOM      3  C   UNL A   1      33.272  19.331  25.145  1.00  0.00     0.116 C 
BRANCH   3   4
ATOM      4  N   UNL A   1      32.461  20.093  24.212  1.00  0.00    -0.354 N 
ATOM      5  C   UNL A   1      32.343  21.438  24.016  1.00  0.00     0.244 C 
ATOM      6  O   UNL A   1      31.786  21.798  22.970  1.00  0.00    -0.273 OA
ATOM      7  H   UNL A   1      31.900  19.544  23.619  1.00  0.00     0.163 HD
BRANCH   5   8
ATOM      8  C   UNL A   1      32.989  22.517  24.922  1.00  0.00     0.191 C 
ATOM      9  C   UNL A   1      30.604  22.608  26.019  1.00  0.00     0.026 C 
ATOM     10  C   UNL A   1      32.067  23.060  26.068  1.00  0.00     0.042 C 
ATOM     11  C   UNL A   1      32.637  22.749  27.461  1.00  0.00     0.026 C 
ATOM     12  S   UNL A   1      32.130  24.949  25.972  1.00  0.00    -0.121 SA
ATOM     13  C   UNL A   1      33.643  24.935  24.985  1.00  0.00     0.213 C 
ATOM     14  N   UNL A   1      33.458  23.700  24.243  1.00  0.00    -0.306 N 
ATOM     15  C   UNL A   1      33.992  25.597  23.614  1.00  0.00     0.307 C 
ATOM     16  C   UNL A   1      34.228  24.057  23.213  1.00  0.00     0.285 C 
ATOM     17  O   UNL A   1      34.767  23.401  22.347  1.00  0.00    -0.268 OA
BRANCH  15  18
ATOM     18  N   UNL A   1      32.984  26.294  22.768  1.00  0.00    -0.315 N 
ATOM     19  H   UNL A   1      32.064  26.138  23.182  1.00  0.00     0.348 HD
ATOM     20  H   UNL A   1      33.081  25.902  21.831  1.00  0.00     0.348 HD
BRANCH  18  21
ATOM     21  C   UNL A   1      33.176  27.724  22.629  1.00  0.00     0.415 C 
BRANCH  21  22
ATOM     22  N   UNL A   1      32.376  28.533  23.542  1.00  0.00    -0.194 N 
ATOM     23  N   UNL A   1      31.153  29.011  23.254  1.00  0.00    -0.061 NA
ATOM     24  C   UNL A   1      32.789  28.890  24.805  1.00  0.00     0.095 A 
ATOM     25  N   UNL A   1      30.761  29.732  24.303  1.00  0.00    -0.130 NA
ATOM     26  C   UNL A   1      31.735  29.662  25.269  1.00  0.00     0.113 A 
ATOM     27  C   UNL A   1      33.934  28.611  25.564  1.00  0.00     0.030 A 
ATOM     28  C   UNL A   1      31.805  30.179  26.570  1.00  0.00     0.032 A 
ATOM     29  C   UNL A   1      33.965  29.108  26.869  1.00  0.00     0.002 A 
ATOM     30  C   UNL A   1      32.915  29.874  27.369  1.00  0.00     0.002 A 
ENDBRANCH  21  22
ENDBRANCH  18  21
ENDBRANCH  15  18
ENDBRANCH   5   8
ENDBRANCH   3   4
ENDBRANCH   2   3
ENDBRANCH   1   2
BRANCH   1  31
ATOM     31  C   UNL A   1      35.939  21.024  24.735  1.00  0.00     0.002 C 
BRANCH  31  32
ATOM     32  C   UNL A   1      37.342  21.618  24.557  1.00  0.00     0.021 C 
BRANCH  32  33
ATOM     33  C   UNL A   1      37.898  22.422  25.732  1.00  0.00     0.116 C 
BRANCH  33  34
ATOM     34  N   UNL A   1      39.053  21.829  26.372  1.00  0.00    -0.352 N 
ATOM     35  C   UNL A   1      40.038  22.276  27.210  1.00  0.00     0.251 C 
ATOM     36  H   UNL A   1      39.152  20.875  26.152  1.00  0.00     0.163 HD
ATOM     37  O   UNL A   1      40.761  21.397  27.691  1.00  0.00    -0.269 OA
BRANCH  35  38
ATOM     38  C   UNL A   1      40.362  23.703  27.507  1.00  0.00     0.039 A 
ATOM     39  C   UNL A   1      41.512  24.182  28.128  1.00  0.00     0.014 A 
ATOM     40  C   UNL A   1      39.372  24.637  27.143  1.00  0.00     0.014 A 
ATOM     41  C   UNL A   1      41.596  25.526  28.512  1.00  0.00     0.010 A 
ATOM     42  C   UNL A   1      39.460  25.977  27.513  1.00  0.00     0.010 A 
ATOM     43  C   UNL A   1      40.535  26.406  28.280  1.00  0.00    -0.014 A 
BRANCH  43  44
ATOM     44  C   UNL A   1      40.597  27.752  28.865  1.00  0.00     0.031 A 
ATOM     45  C   UNL A   1      41.631  28.678  28.312  1.00  0.00     0.074 A 
ATOM     46  C   UNL A   1      39.730  28.194  29.803  1.00  0.00     0.049 A 
ATOM     47  N   UNL A   1      42.640  29.216  28.922  1.00  0.00    -0.248 NA
ATOM     48  C   UNL A   1      41.575  28.975  26.876  1.00  0.00     0.031 C 
ATOM     49  C   UNL A   1      38.488  27.562  30.261  1.00  0.00     0.029 A 
ATOM     50  N   UNL A   1      39.732  29.379  30.480  1.00  0.00    -0.354 N 
ATOM     51  C   UNL A   1      43.268  30.045  27.988  1.00  0.00     0.074 A 
ATOM     52  C   UNL A   1      42.638  29.764  26.720  1.00  0.00     0.031 C 
ATOM     53  C   UNL A   1      37.745  28.471  30.933  1.00  0.00     0.029 A 
ATOM     54  C   UNL A   1      38.526  29.685  31.097  1.00  0.00     0.049 A 
ATOM     55  H   UNL A   1      40.520  29.966  30.526  1.00  0.00     0.167 HD
ATOM     56  C   UNL A   1      44.167  31.011  28.342  1.00  0.00     0.034 A 
ATOM     57  C   UNL A   1      38.163  30.875  31.638  1.00  0.00     0.034 A 
ATOM     58  C   UNL A   1      44.616  30.845  29.695  1.00  0.00     0.049 A 
ATOM     59  C   UNL A   1      39.392  31.659  31.902  1.00  0.00     0.074 A 
ATOM     60  C   UNL A   1      45.345  29.886  30.367  1.00  0.00     0.029 A 
ATOM     61  N   UNL A   1      44.037  31.625  30.665  1.00  0.00    -0.354 N 
ATOM     62  N   UNL A   1      40.259  31.372  32.828  1.00  0.00    -0.248 NA
ATOM     63  C   UNL A   1      39.865  32.539  30.845  1.00  0.00     0.031 C 
ATOM     64  C   UNL A   1      44.771  29.838  31.668  1.00  0.00     0.029 A 
ATOM     65  C   UNL A   1      43.767  30.805  31.729  1.00  0.00     0.049 A 
ATOM     66  H   UNL A   1      43.851  32.589  30.606  1.00  0.00     0.167 HD
ATOM     67  C   UNL A   1      41.486  31.636  32.240  1.00  0.00     0.074 A 
ATOM     68  C   UNL A   1      41.178  32.452  31.066  1.00  0.00     0.031 C 
ATOM     69  C   UNL A   1      42.607  30.941  32.588  1.00  0.00     0.034 A 
BRANCH  56  70
ATOM     70  C   UNL A   1      44.457  32.266  27.552  1.00  0.00     0.023 A 
ATOM     71  C   UNL A   1      43.807  33.488  27.805  1.00  0.00     0.031 A 
ATOM     72  C   UNL A   1      45.554  32.327  26.665  1.00  0.00     0.131 A 
ATOM     73  C   UNL A   1      44.218  34.680  27.190  1.00  0.00     0.055 A 
ATOM     74  C   UNL A   1      46.008  33.528  26.104  1.00  0.00     0.041 A 
ATOM     75  F   UNL A   1      46.258  31.225  26.357  1.00  0.00    -0.206 F 
ATOM     76  C   UNL A   1      45.337  34.715  26.364  1.00  0.00     0.022 A 
BRANCH  73  77
ATOM     77  S   UNL A   1      43.300  36.219  27.468  1.00  0.00     0.124 S 
ATOM     78  O   UNL A   1      44.314  37.229  27.184  1.00  0.00    -0.237 OA
ATOM     79  O   UNL A   1      42.227  36.105  26.482  1.00  0.00    -0.237 OA
ATOM     80  O   UNL A   1      42.875  36.114  28.860  1.00  0.00    -0.744 OA
ENDBRANCH  73  77
ENDBRANCH  56  70
BRANCH  57  81
ATOM     81  C   UNL A   1      36.856  31.551  31.452  1.00  0.00     0.023 A 
ATOM     82  C   UNL A   1      36.442  31.913  30.157  1.00  0.00     0.031 A 
ATOM     83  C   UNL A   1      36.190  32.151  32.535  1.00  0.00     0.131 A 
ATOM     84  C   UNL A   1      35.456  32.890  29.973  1.00  0.00     0.055 A 
ATOM     85  C   UNL A   1      35.189  33.112  32.350  1.00  0.00     0.041 A 
ATOM     86  F   UNL A   1      36.559  31.875  33.797  1.00  0.00    -0.206 F 
ATOM     87  C   UNL A   1      34.830  33.500  31.062  1.00  0.00     0.022 A 
BRANCH  84  88
ATOM     88  S   UNL A   1      35.045  33.461  28.302  1.00  0.00     0.124 S 
ATOM     89  O   UNL A   1      33.686  32.952  28.126  1.00  0.00    -0.237 OA
ATOM     90  O   UNL A   1      35.161  34.907  28.448  1.00  0.00    -0.237 OA
ATOM     91  O   UNL A   1      36.056  32.820  27.465  1.00  0.00    -0.744 OA
ENDBRANCH  84  88
ENDBRANCH  57  81
BRANCH  69  92
ATOM     92  C   UNL A   1      42.570  30.032  33.797  1.00  0.00     0.023 A 
ATOM     93  C   UNL A   1      43.283  30.454  34.934  1.00  0.00     0.031 A 
ATOM     94  C   UNL A   1      42.088  28.710  33.788  1.00  0.00     0.131 A 
ATOM     95  C   UNL A   1      43.543  29.562  35.979  1.00  0.00     0.055 A 
ATOM     96  C   UNL A   1      42.281  27.844  34.871  1.00  0.00     0.041 A 
ATOM     97  F   UNL A   1      41.501  28.181  32.706  1.00  0.00    -0.206 F 
ATOM     98  C   UNL A   1      43.029  28.263  35.965  1.00  0.00     0.022 A 
BRANCH  95  99
ATOM     99  S   UNL A   1      44.706  30.009  37.294  1.00  0.00     0.124 S 
ATOM    100  O   UNL A   1      45.419  28.753  37.515  1.00  0.00    -0.237 OA
ATOM    101  O   UNL A   1      45.489  31.071  36.665  1.00  0.00    -0.237 OA
ATOM    102  O   UNL A   1      43.849  30.444  38.392  1.00  0.00    -0.744 OA
ENDBRANCH  95  99
ENDBRANCH  69  92
ENDBRANCH  43  44
ENDBRANCH  35  38
ENDBRANCH  33  34
ENDBRANCH  32  33
ENDBRANCH  31  32
ENDBRANCH   1  31
TORSDOF 19
ENDMDL
MODEL 3
REMARK VINA RESULT:     -12.1      3.437      8.386
REMARK SMILES CC1(C)S[C@@H]2[C@H]([NH2+]Cn3nnc4ccccc43)C(=O)N2[C@@H]1C(=O)NCCCCCCNC(=O)c1ccc(-c2c3nc(c(-c4cc(S(=O)(=O)[O-])ccc4F)c4ccc([nH]4)c(-c4cc(S(=O)(=O)[O-])ccc4F)c4nc(c(-c5cc(S(=O)(=O)[O-])ccc5F)c5ccc2[nH]5)C=C4)C=C3)cc1
REMARK SMILES IDX 27 1 26 2 25 3 24 4 22 5 23 6 21 8 1 9 2 10 3 11 4 12 5 13
REMARK SMILES IDX 20 14 6 15 18 16 19 17 7 18 8 21 9 22 10 23 17 24 11 25
REMARK SMILES IDX 12 26 16 27 13 28 15 29 14 30 28 31 29 32 30 33 31 34 32 35
REMARK SMILES IDX 33 37 34 38 35 39 96 40 36 41 95 42 37 43 38 44 39 45 89 46
REMARK SMILES IDX 40 47 94 48 88 49 90 50 41 51 93 52 87 53 86 54 42 56 74 57
REMARK SMILES IDX 54 58 73 59 55 60 58 61 72 62 91 63 56 64 57 65 71 67 92 68
REMARK SMILES IDX 59 69 43 70 44 71 52 72 45 73 51 74 53 75 50 76 46 77 47 78
REMARK SMILES IDX 48 79 49 80 75 81 76 82 84 83 77 84 83 85 85 86 82 87 78 88
REMARK SMILES IDX 79 89 80 90 81 91 60 92 61 93 69 94 62 95 68 96 70 97 67 98
REMARK SMILES IDX 63 99 64 100 65 101 66 102
REMARK H PARENT 24 7 7 19 7 20 31 36 90 55 58 66
REMARK Flexibility Score: inf
ROOT
ATOM      1  C   UNL A   1      34.827  29.474  27.688  1.00  0.00     0.002 C 
ENDROOT
BRANCH   1   2
ATOM      2  C   UNL A   1      34.055  28.675  26.633  1.00  0.00     0.021 C 
BRANCH   2   3
ATOM      3  C   UNL A   1      32.530  28.762  26.714  1.00  0.00     0.116 C 
BRANCH   3   4
ATOM      4  N   UNL A   1      31.882  27.469  26.843  1.00  0.00    -0.354 N 
ATOM      5  C   UNL A   1      31.875  26.381  26.019  1.00  0.00     0.244 C 
ATOM      6  O   UNL A   1      31.465  25.319  26.507  1.00  0.00    -0.273 OA
ATOM      7  H   UNL A   1      31.358  27.357  27.669  1.00  0.00     0.163 HD
BRANCH   5   8
ATOM      8  C   UNL A   1      32.480  26.358  24.593  1.00  0.00     0.191 C 
ATOM      9  C   UNL A   1      30.214  27.505  23.924  1.00  0.00     0.026 C 
ATOM     10  C   UNL A   1      31.617  27.065  23.492  1.00  0.00     0.042 C 
ATOM     11  C   UNL A   1      32.346  28.269  22.875  1.00  0.00     0.026 C 
ATOM     12  S   UNL A   1      31.463  25.849  22.052  1.00  0.00    -0.121 SA
ATOM     13  C   UNL A   1      32.869  24.866  22.617  1.00  0.00     0.213 C 
ATOM     14  N   UNL A   1      32.750  25.047  24.054  1.00  0.00    -0.306 N 
ATOM     15  C   UNL A   1      33.012  23.339  22.916  1.00  0.00     0.307 C 
ATOM     16  C   UNL A   1      33.377  23.912  24.375  1.00  0.00     0.285 C 
ATOM     17  O   UNL A   1      33.900  23.547  25.405  1.00  0.00    -0.268 OA
BRANCH  15  18
ATOM     18  N   UNL A   1      31.858  22.398  22.909  1.00  0.00    -0.315 N 
ATOM     19  H   UNL A   1      31.200  22.712  22.196  1.00  0.00     0.348 HD
ATOM     20  H   UNL A   1      31.474  22.412  23.854  1.00  0.00     0.348 HD
BRANCH  18  21
ATOM     21  C   UNL A   1      32.191  21.014  22.632  1.00  0.00     0.415 C 
BRANCH  21  22
ATOM     22  N   UNL A   1      32.324  20.176  23.819  1.00  0.00    -0.194 N 
ATOM     23  N   UNL A   1      32.035  20.582  25.067  1.00  0.00    -0.061 NA
ATOM     24  C   UNL A   1      32.760  18.871  23.786  1.00  0.00     0.095 A 
ATOM     25  N   UNL A   1      32.321  19.569  25.882  1.00  0.00    -0.130 NA
ATOM     26  C   UNL A   1      32.751  18.507  25.123  1.00  0.00     0.113 A 
ATOM     27  C   UNL A   1      33.132  18.001  22.752  1.00  0.00     0.030 A 
ATOM     28  C   UNL A   1      33.117  17.198  25.464  1.00  0.00     0.032 A 
ATOM     29  C   UNL A   1      33.459  16.693  23.113  1.00  0.00     0.002 A 
ATOM     30  C   UNL A   1      33.446  16.292  24.446  1.00  0.00     0.002 A 
ENDBRANCH  21  22
ENDBRANCH  18  21
ENDBRANCH  15  18
ENDBRANCH   5   8
ENDBRANCH   3   4
ENDBRANCH   2   3
ENDBRANCH   1   2
BRANCH   1  31
ATOM     31  C   UNL A   1      35.025  30.971  27.405  1.00  0.00     0.002 C 
BRANCH  31  32
ATOM     32  C   UNL A   1      33.942  31.922  27.928  1.00  0.00     0.021 C 
BRANCH  32  33
ATOM     33  C   UNL A   1      34.407  33.045  28.854  1.00  0.00     0.116 C 
BRANCH  33  34
ATOM     34  N   UNL A   1      34.484  32.677  30.252  1.00  0.00    -0.352 N 
ATOM     35  C   UNL A   1      35.384  32.003  31.033  1.00  0.00     0.251 C 
ATOM     36  H   UNL A   1      33.702  32.986  30.763  1.00  0.00     0.163 HD
ATOM     37  O   UNL A   1      35.169  32.055  32.249  1.00  0.00    -0.269 OA
BRANCH  35  38
ATOM     38  C   UNL A   1      36.515  31.159  30.546  1.00  0.00     0.039 A 
ATOM     39  C   UNL A   1      36.586  29.769  30.577  1.00  0.00     0.014 A 
ATOM     40  C   UNL A   1      37.625  31.865  30.041  1.00  0.00     0.014 A 
ATOM     41  C   UNL A   1      37.786  29.120  30.260  1.00  0.00     0.010 A 
ATOM     42  C   UNL A   1      38.815  31.220  29.714  1.00  0.00     0.010 A 
ATOM     43  C   UNL A   1      38.927  29.849  29.910  1.00  0.00    -0.014 A 
BRANCH  43  44
ATOM     44  C   UNL A   1      40.203  29.136  29.769  1.00  0.00     0.031 A 
ATOM     45  C   UNL A   1      40.952  28.846  31.028  1.00  0.00     0.074 A 
ATOM     46  C   UNL A   1      40.671  28.681  28.587  1.00  0.00     0.049 A 
ATOM     47  N   UNL A   1      42.124  29.269  31.385  1.00  0.00    -0.248 NA
ATOM     48  C   UNL A   1      40.270  28.046  32.053  1.00  0.00     0.031 C 
ATOM     49  C   UNL A   1      39.969  28.603  27.301  1.00  0.00     0.029 A 
ATOM     50  N   UNL A   1      41.868  28.084  28.312  1.00  0.00    -0.354 N 
ATOM     51  C   UNL A   1      42.401  28.669  32.617  1.00  0.00     0.074 A 
ATOM     52  C   UNL A   1      41.178  28.024  33.029  1.00  0.00     0.031 C 
ATOM     53  C   UNL A   1      40.647  27.778  26.470  1.00  0.00     0.029 A 
ATOM     54  C   UNL A   1      41.904  27.410  27.098  1.00  0.00     0.049 A 
ATOM     55  H   UNL A   1      42.639  28.128  28.923  1.00  0.00     0.167 HD
ATOM     56  C   UNL A   1      43.658  28.621  33.150  1.00  0.00     0.034 A 
ATOM     57  C   UNL A   1      42.860  26.549  26.670  1.00  0.00     0.034 A 
ATOM     58  C   UNL A   1      44.553  29.519  32.477  1.00  0.00     0.049 A 
ATOM     59  C   UNL A   1      44.089  26.786  27.463  1.00  0.00     0.074 A 
ATOM     60  C   UNL A   1      44.636  30.889  32.342  1.00  0.00     0.029 A 
ATOM     61  N   UNL A   1      45.395  28.996  31.528  1.00  0.00    -0.354 N 
ATOM     62  N   UNL A   1      44.834  27.848  27.359  1.00  0.00    -0.248 NA
ATOM     63  C   UNL A   1      44.257  26.014  28.683  1.00  0.00     0.031 C 
ATOM     64  C   UNL A   1      45.124  31.096  31.022  1.00  0.00     0.029 A 
ATOM     65  C   UNL A   1      45.361  29.844  30.452  1.00  0.00     0.049 A 
ATOM     66  H   UNL A   1      45.922  28.169  31.605  1.00  0.00     0.167 HD
ATOM     67  C   UNL A   1      45.206  28.132  28.663  1.00  0.00     0.074 A 
ATOM     68  C   UNL A   1      44.915  26.914  29.417  1.00  0.00     0.031 C 
ATOM     69  C   UNL A   1      45.447  29.412  29.071  1.00  0.00     0.034 A 
BRANCH  56  70
ATOM     70  C   UNL A   1      44.156  27.575  34.121  1.00  0.00     0.023 A 
ATOM     71  C   UNL A   1      43.861  26.207  33.978  1.00  0.00     0.031 A 
ATOM     72  C   UNL A   1      45.125  27.895  35.097  1.00  0.00     0.131 A 
ATOM     73  C   UNL A   1      44.480  25.234  34.777  1.00  0.00     0.055 A 
ATOM     74  C   UNL A   1      45.793  26.919  35.848  1.00  0.00     0.041 A 
ATOM     75  F   UNL A   1      45.495  29.168  35.316  1.00  0.00    -0.206 F 
ATOM     76  C   UNL A   1      45.470  25.578  35.691  1.00  0.00     0.022 A 
BRANCH  73  77
ATOM     77  S   UNL A   1      44.008  23.490  34.628  1.00  0.00     0.124 S 
ATOM     78  O   UNL A   1      42.556  23.560  34.742  1.00  0.00    -0.237 OA
ATOM     79  O   UNL A   1      44.523  23.158  33.301  1.00  0.00    -0.237 OA
ATOM     80  O   UNL A   1      44.707  22.853  35.740  1.00  0.00    -0.744 OA
ENDBRANCH  73  77
ENDBRANCH  56  70
BRANCH  57  81
ATOM     81  C   UNL A   1      42.620  25.239  26.017  1.00  0.00     0.023 A 
ATOM     82  C   UNL A   1      41.597  24.402  26.498  1.00  0.00     0.031 A 
ATOM     83  C   UNL A   1      43.589  24.660  25.178  1.00  0.00     0.131 A 
ATOM     84  C   UNL A   1      41.602  23.033  26.205  1.00  0.00     0.055 A 
ATOM     85  C   UNL A   1      43.580  23.295  24.868  1.00  0.00     0.041 A 
ATOM     86  F   UNL A   1      44.611  25.395  24.711  1.00  0.00    -0.206 F 
ATOM     87  C   UNL A   1      42.592  22.469  25.398  1.00  0.00     0.022 A 
BRANCH  84  88
ATOM     88  S   UNL A   1      40.369  21.939  26.961  1.00  0.00     0.124 S 
ATOM     89  O   UNL A   1      40.516  20.716  26.175  1.00  0.00    -0.237 OA
ATOM     90  O   UNL A   1      40.846  21.864  28.336  1.00  0.00    -0.237 OA
ATOM     91  O   UNL A   1      39.112  22.653  26.759  1.00  0.00    -0.744 OA
ENDBRANCH  84  88
ENDBRANCH  57  81
BRANCH  69  92
ATOM     92  C   UNL A   1      45.543  30.513  28.039  1.00  0.00     0.023 A 
ATOM     93  C   UNL A   1      46.835  30.937  27.677  1.00  0.00     0.031 A 
ATOM     94  C   UNL A   1      44.458  31.297  27.604  1.00  0.00     0.131 A 
ATOM     95  C   UNL A   1      47.017  32.124  26.960  1.00  0.00     0.055 A 
ATOM     96  C   UNL A   1      44.640  32.442  26.819  1.00  0.00     0.041 A 
ATOM     97  F   UNL A   1      43.203  31.042  27.995  1.00  0.00    -0.206 F 
ATOM     98  C   UNL A   1      45.926  32.872  26.511  1.00  0.00     0.022 A 
BRANCH  95  99
ATOM     99  S   UNL A   1      48.676  32.822  26.755  1.00  0.00     0.124 S 
ATOM    100  O   UNL A   1      48.884  33.503  28.031  1.00  0.00    -0.237 OA
ATOM    101  O   UNL A   1      49.490  31.627  26.544  1.00  0.00    -0.237 OA
ATOM    102  O   UNL A   1      48.551  33.695  25.592  1.00  0.00    -0.744 OA
ENDBRANCH  95  99
ENDBRANCH  69  92
ENDBRANCH  43  44
ENDBRANCH  35  38
ENDBRANCH  33  34
ENDBRANCH  32  33
ENDBRANCH  31  32
ENDBRANCH   1  31
TORSDOF 19
ENDMDL
