MODEL 1
REMARK VINA RESULT:     -11.9      0.000      0.000
REMARK SMILES C[C@@H](C(=O)NCCCCCCNC(=O)c1ccc(-c2c3nc(c(-c4cc(S(=O)(=O)[O-])ccc4F)c4ccc([nH]4)c(-c4cc(S(=O)(=O)[O-])ccc4F)c4nc(c(-c5cc(S(=O)(=O)[O-])ccc5F)c5ccc2[nH]5)C=C4)C=C3)cc1)c1ccc(C[C@H]2CCC[C@H]2O)cc1
REMARK SMILES IDX 8 1 7 2 6 3 5 4 3 5 4 6 2 8 1 9 78 10 79 11 90 12 80 13
REMARK SMILES IDX 89 14 81 15 82 16 83 17 84 18 87 19 85 20 86 21 88 22 9 24
REMARK SMILES IDX 10 25 11 26 12 27 13 28 14 30 15 31 16 32 77 33 17 34 76 35
REMARK SMILES IDX 18 36 19 37 20 38 70 39 21 40 75 41 69 42 71 43 22 44 74 45
REMARK SMILES IDX 68 46 67 47 23 49 55 50 35 51 54 52 36 53 39 54 53 55 72 56
REMARK SMILES IDX 37 57 38 58 52 60 73 61 40 62 24 63 25 64 33 65 26 66 32 67
REMARK SMILES IDX 34 68 31 69 27 70 28 71 29 72 30 73 56 74 57 75 65 76 58 77
REMARK SMILES IDX 64 78 66 79 63 80 59 81 60 82 61 83 62 84 41 85 42 86 50 87
REMARK SMILES IDX 43 88 49 89 51 90 48 91 44 92 45 93 46 94 47 95
REMARK H PARENT 5 7 88 23 12 29 71 48 39 59
REMARK Flexibility Score: inf
ROOT
ATOM      1  C   UNL A   1      34.759  24.180  23.615  1.00  0.00     0.002 C 
ENDROOT
BRANCH   1   2
ATOM      2  C   UNL A   1      34.576  25.121  24.814  1.00  0.00     0.021 C 
BRANCH   2   3
ATOM      3  C   UNL A   1      33.193  25.774  24.880  1.00  0.00     0.116 C 
BRANCH   3   4
ATOM      4  N   UNL A   1      32.782  26.211  23.564  1.00  0.00    -0.356 N 
ATOM      5  C   UNL A   1      31.662  25.902  22.849  1.00  0.00     0.227 C 
ATOM      6  O   UNL A   1      31.627  26.307  21.683  1.00  0.00    -0.274 OA
ATOM      7  H   UNL A   1      33.405  26.826  23.116  1.00  0.00     0.163 HD
BRANCH   5   8
ATOM      8  C   UNL A   1      30.500  25.138  23.518  1.00  0.00     0.105 C 
ATOM      9  C   UNL A   1      29.890  25.894  24.705  1.00  0.00     0.023 C 
BRANCH   8  10
ATOM     10  C   UNL A   1      30.952  23.746  23.949  1.00  0.00    -0.036 A 
ATOM     11  C   UNL A   1      30.855  23.342  25.288  1.00  0.00     0.005 A 
ATOM     12  C   UNL A   1      31.555  22.876  23.029  1.00  0.00     0.005 A 
ATOM     13  C   UNL A   1      31.368  22.118  25.702  1.00  0.00     0.004 A 
ATOM     14  C   UNL A   1      32.105  21.664  23.457  1.00  0.00     0.004 A 
ATOM     15  C   UNL A   1      32.061  21.301  24.808  1.00  0.00    -0.048 A 
BRANCH  15  16
ATOM     16  C   UNL A   1      32.803  20.094  25.321  1.00  0.00     0.041 C 
BRANCH  16  17
ATOM     17  C   UNL A   1      33.329  19.099  24.267  1.00  0.00     0.022 C 
ATOM     18  C   UNL A   1      34.629  18.362  24.631  1.00  0.00     0.007 C 
ATOM     19  C   UNL A   1      32.393  17.995  23.745  1.00  0.00     0.117 C 
ATOM     20  C   UNL A   1      34.583  17.025  23.885  1.00  0.00     0.003 C 
ATOM     21  C   UNL A   1      33.351  17.084  22.987  1.00  0.00     0.032 C 
BRANCH  19  22
ATOM     22  O   UNL A   1      31.741  17.221  24.734  1.00  0.00    -0.393 OA
ATOM     23  H   UNL A   1      30.836  17.549  24.857  1.00  0.00     0.210 HD
ENDBRANCH  19  22
ENDBRANCH  16  17
ENDBRANCH  15  16
ENDBRANCH   8  10
ENDBRANCH   5   8
ENDBRANCH   3   4
ENDBRANCH   2   3
ENDBRANCH   1   2
BRANCH   1  24
ATOM     24  C   UNL A   1      36.026  23.319  23.659  1.00  0.00     0.002 C 
BRANCH  24  25
ATOM     25  C   UNL A   1      35.862  21.970  24.364  1.00  0.00     0.021 C 
BRANCH  25  26
ATOM     26  C   UNL A   1      36.477  21.911  25.760  1.00  0.00     0.116 C 
BRANCH  26  27
ATOM     27  N   UNL A   1      37.557  20.940  25.834  1.00  0.00    -0.352 N 
ATOM     28  C   UNL A   1      38.897  21.144  26.064  1.00  0.00     0.251 C 
ATOM     29  H   UNL A   1      37.291  20.001  25.702  1.00  0.00     0.163 HD
ATOM     30  O   UNL A   1      39.697  20.238  25.873  1.00  0.00    -0.269 OA
BRANCH  28  31
ATOM     31  C   UNL A   1      39.364  22.475  26.514  1.00  0.00     0.039 A 
ATOM     32  C   UNL A   1      40.426  22.551  27.418  1.00  0.00     0.014 A 
ATOM     33  C   UNL A   1      38.767  23.642  26.027  1.00  0.00     0.014 A 
ATOM     34  C   UNL A   1      40.945  23.800  27.769  1.00  0.00     0.010 A 
ATOM     35  C   UNL A   1      39.329  24.881  26.327  1.00  0.00     0.010 A 
ATOM     36  C   UNL A   1      40.433  24.972  27.187  1.00  0.00    -0.014 A 
BRANCH  36  37
ATOM     37  C   UNL A   1      41.070  26.295  27.423  1.00  0.00     0.031 A 
ATOM     38  C   UNL A   1      42.444  26.584  26.882  1.00  0.00     0.074 A 
ATOM     39  C   UNL A   1      40.442  27.199  28.204  1.00  0.00     0.049 A 
ATOM     40  N   UNL A   1      43.203  27.630  27.077  1.00  0.00    -0.248 NA
ATOM     41  C   UNL A   1      43.052  25.551  26.029  1.00  0.00     0.031 C 
ATOM     42  C   UNL A   1      39.122  27.015  28.814  1.00  0.00     0.029 A 
ATOM     43  N   UNL A   1      40.832  28.441  28.641  1.00  0.00    -0.354 N 
ATOM     44  C   UNL A   1      44.387  27.376  26.393  1.00  0.00     0.074 A 
ATOM     45  C   UNL A   1      44.255  26.059  25.805  1.00  0.00     0.031 C 
ATOM     46  C   UNL A   1      38.813  28.103  29.536  1.00  0.00     0.029 A 
ATOM     47  C   UNL A   1      39.931  29.039  29.493  1.00  0.00     0.049 A 
ATOM     48  H   UNL A   1      41.679  28.865  28.369  1.00  0.00     0.167 HD
ATOM     49  C   UNL A   1      45.475  28.173  26.264  1.00  0.00     0.034 A 
ATOM     50  C   UNL A   1      40.008  30.191  30.191  1.00  0.00     0.034 A 
ATOM     51  C   UNL A   1      45.575  29.492  26.839  1.00  0.00     0.049 A 
ATOM     52  C   UNL A   1      41.250  31.039  30.056  1.00  0.00     0.074 A 
ATOM     53  C   UNL A   1      46.589  30.421  26.679  1.00  0.00     0.029 A 
ATOM     54  N   UNL A   1      44.646  30.061  27.700  1.00  0.00    -0.354 N 
ATOM     55  N   UNL A   1      42.321  30.822  29.327  1.00  0.00    -0.248 NA
ATOM     56  C   UNL A   1      41.295  32.286  30.832  1.00  0.00     0.031 C 
ATOM     57  C   UNL A   1      46.318  31.510  27.513  1.00  0.00     0.029 A 
ATOM     58  C   UNL A   1      45.094  31.301  28.127  1.00  0.00     0.049 A 
ATOM     59  H   UNL A   1      43.796  29.644  27.968  1.00  0.00     0.167 HD
ATOM     60  C   UNL A   1      43.154  31.917  29.543  1.00  0.00     0.074 A 
ATOM     61  C   UNL A   1      42.453  32.803  30.447  1.00  0.00     0.031 C 
ATOM     62  C   UNL A   1      44.389  32.168  29.040  1.00  0.00     0.034 A 
BRANCH  49  63
ATOM     63  C   UNL A   1      46.662  27.639  25.502  1.00  0.00     0.023 A 
ATOM     64  C   UNL A   1      46.929  28.013  24.175  1.00  0.00     0.031 A 
ATOM     65  C   UNL A   1      47.564  26.763  26.135  1.00  0.00     0.131 A 
ATOM     66  C   UNL A   1      48.044  27.480  23.509  1.00  0.00     0.055 A 
ATOM     67  C   UNL A   1      48.708  26.291  25.491  1.00  0.00     0.041 A 
ATOM     68  F   UNL A   1      47.347  26.354  27.395  1.00  0.00    -0.206 F 
ATOM     69  C   UNL A   1      48.950  26.643  24.167  1.00  0.00     0.022 A 
BRANCH  66  70
ATOM     70  S   UNL A   1      48.242  27.816  21.738  1.00  0.00     0.124 S 
ATOM     71  O   UNL A   1      46.933  28.367  21.395  1.00  0.00    -0.237 OA
ATOM     72  O   UNL A   1      49.356  28.756  21.718  1.00  0.00    -0.237 OA
ATOM     73  O   UNL A   1      48.525  26.500  21.169  1.00  0.00    -0.744 OA
ENDBRANCH  66  70
ENDBRANCH  49  63
BRANCH  50  74
ATOM     74  C   UNL A   1      38.913  30.596  31.124  1.00  0.00     0.023 A 
ATOM     75  C   UNL A   1      37.820  31.353  30.674  1.00  0.00     0.031 A 
ATOM     76  C   UNL A   1      38.984  30.298  32.497  1.00  0.00     0.131 A 
ATOM     77  C   UNL A   1      36.881  31.843  31.596  1.00  0.00     0.055 A 
ATOM     78  C   UNL A   1      38.010  30.729  33.399  1.00  0.00     0.041 A 
ATOM     79  F   UNL A   1      40.008  29.579  32.986  1.00  0.00    -0.206 F 
ATOM     80  C   UNL A   1      36.960  31.522  32.952  1.00  0.00     0.022 A 
BRANCH  77  81
ATOM     81  S   UNL A   1      35.627  33.017  31.013  1.00  0.00     0.124 S 
ATOM     82  O   UNL A   1      34.414  32.478  31.618  1.00  0.00    -0.237 OA
ATOM     83  O   UNL A   1      36.114  34.278  31.564  1.00  0.00    -0.237 OA
ATOM     84  O   UNL A   1      35.704  32.902  29.559  1.00  0.00    -0.744 OA
ENDBRANCH  77  81
ENDBRANCH  50  74
BRANCH  62  85
ATOM     85  C   UNL A   1      45.045  33.466  29.439  1.00  0.00     0.023 A 
ATOM     86  C   UNL A   1      44.712  34.682  28.819  1.00  0.00     0.031 A 
ATOM     87  C   UNL A   1      46.009  33.488  30.463  1.00  0.00     0.131 A 
ATOM     88  C   UNL A   1      45.365  35.862  29.199  1.00  0.00     0.055 A 
ATOM     89  C   UNL A   1      46.612  34.675  30.880  1.00  0.00     0.041 A 
ATOM     90  F   UNL A   1      46.369  32.355  31.089  1.00  0.00    -0.206 F 
ATOM     91  C   UNL A   1      46.298  35.870  30.240  1.00  0.00     0.022 A 
BRANCH  88  92
ATOM     92  S   UNL A   1      45.031  37.382  28.268  1.00  0.00     0.124 S 
ATOM     93  O   UNL A   1      45.915  38.340  28.922  1.00  0.00    -0.237 OA
ATOM     94  O   UNL A   1      45.396  37.004  26.907  1.00  0.00    -0.237 OA
ATOM     95  O   UNL A   1      43.602  37.609  28.483  1.00  0.00    -0.744 OA
ENDBRANCH  88  92
ENDBRANCH  62  85
ENDBRANCH  36  37
ENDBRANCH  28  31
ENDBRANCH  26  27
ENDBRANCH  25  26
ENDBRANCH  24  25
ENDBRANCH   1  24
TORSDOF 20
ENDMDL
MODEL 2
REMARK VINA RESULT:     -11.8      1.633      7.571
REMARK SMILES C[C@@H](C(=O)NCCCCCCNC(=O)c1ccc(-c2c3nc(c(-c4cc(S(=O)(=O)[O-])ccc4F)c4ccc([nH]4)c(-c4cc(S(=O)(=O)[O-])ccc4F)c4nc(c(-c5cc(S(=O)(=O)[O-])ccc5F)c5ccc2[nH]5)C=C4)C=C3)cc1)c1ccc(C[C@H]2CCC[C@H]2O)cc1
REMARK SMILES IDX 8 1 7 2 6 3 5 4 3 5 4 6 2 8 1 9 78 10 79 11 90 12 80 13
REMARK SMILES IDX 89 14 81 15 82 16 83 17 84 18 87 19 85 20 86 21 88 22 9 24
REMARK SMILES IDX 10 25 11 26 12 27 13 28 14 30 15 31 16 32 77 33 17 34 76 35
REMARK SMILES IDX 18 36 19 37 20 38 70 39 21 40 75 41 69 42 71 43 22 44 74 45
REMARK SMILES IDX 68 46 67 47 23 49 55 50 35 51 54 52 36 53 39 54 53 55 72 56
REMARK SMILES IDX 37 57 38 58 52 60 73 61 40 62 24 63 25 64 33 65 26 66 32 67
REMARK SMILES IDX 34 68 31 69 27 70 28 71 29 72 30 73 56 74 57 75 65 76 58 77
REMARK SMILES IDX 64 78 66 79 63 80 59 81 60 82 61 83 62 84 41 85 42 86 50 87
REMARK SMILES IDX 43 88 49 89 51 90 48 91 44 92 45 93 46 94 47 95
REMARK H PARENT 5 7 88 23 12 29 71 48 39 59
REMARK Flexibility Score: inf
ROOT
ATOM      1  C   UNL A   1      34.834  24.100  23.692  1.00  0.00     0.002 C 
ENDROOT
BRANCH   1   2
ATOM      2  C   UNL A   1      34.680  24.957  24.957  1.00  0.00     0.021 C 
BRANCH   2   3
ATOM      3  C   UNL A   1      33.499  25.929  24.903  1.00  0.00     0.116 C 
BRANCH   3   4
ATOM      4  N   UNL A   1      33.143  26.211  23.530  1.00  0.00    -0.356 N 
ATOM      5  C   UNL A   1      32.044  25.835  22.816  1.00  0.00     0.227 C 
ATOM      6  O   UNL A   1      32.059  26.097  21.609  1.00  0.00    -0.274 OA
ATOM      7  H   UNL A   1      33.794  26.758  23.035  1.00  0.00     0.163 HD
BRANCH   5   8
ATOM      8  C   UNL A   1      30.844  25.173  23.526  1.00  0.00     0.105 C 
ATOM      9  C   UNL A   1      30.322  25.996  24.711  1.00  0.00     0.023 C 
BRANCH   8  10
ATOM     10  C   UNL A   1      31.201  23.759  23.976  1.00  0.00    -0.036 A 
ATOM     11  C   UNL A   1      31.137  23.399  25.329  1.00  0.00     0.005 A 
ATOM     12  C   UNL A   1      31.685  22.820  23.055  1.00  0.00     0.005 A 
ATOM     13  C   UNL A   1      31.567  22.147  25.754  1.00  0.00     0.004 A 
ATOM     14  C   UNL A   1      32.154  21.577  23.491  1.00  0.00     0.004 A 
ATOM     15  C   UNL A   1      32.147  21.253  24.853  1.00  0.00    -0.048 A 
BRANCH  15  16
ATOM     16  C   UNL A   1      32.810  20.002  25.366  1.00  0.00     0.041 C 
BRANCH  16  17
ATOM     17  C   UNL A   1      33.361  19.021  24.311  1.00  0.00     0.022 C 
ATOM     18  C   UNL A   1      34.685  18.324  24.668  1.00  0.00     0.007 C 
ATOM     19  C   UNL A   1      32.455  17.889  23.795  1.00  0.00     0.117 C 
ATOM     20  C   UNL A   1      34.675  16.986  23.924  1.00  0.00     0.003 C 
ATOM     21  C   UNL A   1      33.436  17.006  23.033  1.00  0.00     0.032 C 
BRANCH  19  22
ATOM     22  O   UNL A   1      31.832  17.097  24.788  1.00  0.00    -0.393 OA
ATOM     23  H   UNL A   1      32.178  16.191  24.744  1.00  0.00     0.210 HD
ENDBRANCH  19  22
ENDBRANCH  16  17
ENDBRANCH  15  16
ENDBRANCH   8  10
ENDBRANCH   5   8
ENDBRANCH   3   4
ENDBRANCH   2   3
ENDBRANCH   1   2
BRANCH   1  24
ATOM     24  C   UNL A   1      36.103  23.242  23.644  1.00  0.00     0.002 C 
BRANCH  24  25
ATOM     25  C   UNL A   1      35.957  21.843  24.250  1.00  0.00     0.021 C 
BRANCH  25  26
ATOM     26  C   UNL A   1      36.584  21.688  25.633  1.00  0.00     0.116 C 
BRANCH  26  27
ATOM     27  N   UNL A   1      37.601  20.649  25.652  1.00  0.00    -0.352 N 
ATOM     28  C   UNL A   1      38.944  20.750  25.928  1.00  0.00     0.251 C 
ATOM     29  H   UNL A   1      37.282  19.742  25.437  1.00  0.00     0.163 HD
ATOM     30  O   UNL A   1      39.693  19.814  25.681  1.00  0.00    -0.269 OA
BRANCH  28  31
ATOM     31  C   UNL A   1      39.478  22.008  26.496  1.00  0.00     0.039 A 
ATOM     32  C   UNL A   1      40.456  21.942  27.491  1.00  0.00     0.014 A 
ATOM     33  C   UNL A   1      39.027  23.248  26.031  1.00  0.00     0.014 A 
ATOM     34  C   UNL A   1      41.044  23.120  27.960  1.00  0.00     0.010 A 
ATOM     35  C   UNL A   1      39.662  24.414  26.452  1.00  0.00     0.010 A 
ATOM     36  C   UNL A   1      40.687  24.362  27.408  1.00  0.00    -0.014 A 
BRANCH  36  37
ATOM     37  C   UNL A   1      41.408  25.609  27.777  1.00  0.00     0.031 A 
ATOM     38  C   UNL A   1      40.678  26.735  28.457  1.00  0.00     0.074 A 
ATOM     39  C   UNL A   1      42.700  25.756  27.414  1.00  0.00     0.049 A 
ATOM     40  N   UNL A   1      41.106  27.933  28.755  1.00  0.00    -0.248 NA
ATOM     41  C   UNL A   1      39.277  26.487  28.831  1.00  0.00     0.031 C 
ATOM     42  C   UNL A   1      43.500  24.745  26.718  1.00  0.00     0.029 A 
ATOM     43  N   UNL A   1      43.562  26.815  27.555  1.00  0.00    -0.354 N 
ATOM     44  C   UNL A   1      40.025  28.593  29.330  1.00  0.00     0.074 A 
ATOM     45  C   UNL A   1      38.911  27.669  29.307  1.00  0.00     0.031 C 
ATOM     46  C   UNL A   1      44.733  25.230  26.501  1.00  0.00     0.029 A 
ATOM     47  C   UNL A   1      44.798  26.605  26.986  1.00  0.00     0.049 A 
ATOM     48  H   UNL A   1      43.319  27.648  28.021  1.00  0.00     0.167 HD
ATOM     49  C   UNL A   1      39.975  29.850  29.834  1.00  0.00     0.034 A 
ATOM     50  C   UNL A   1      45.853  27.433  26.837  1.00  0.00     0.034 A 
ATOM     51  C   UNL A   1      41.104  30.747  29.867  1.00  0.00     0.049 A 
ATOM     52  C   UNL A   1      45.752  28.839  27.375  1.00  0.00     0.074 A 
ATOM     53  C   UNL A   1      41.186  32.000  30.450  1.00  0.00     0.029 A 
ATOM     54  N   UNL A   1      42.336  30.501  29.276  1.00  0.00    -0.354 N 
ATOM     55  N   UNL A   1      44.749  29.413  28.000  1.00  0.00    -0.248 NA
ATOM     56  C   UNL A   1      46.922  29.710  27.193  1.00  0.00     0.031 C 
ATOM     57  C   UNL A   1      42.433  32.547  30.134  1.00  0.00     0.029 A 
ATOM     58  C   UNL A   1      43.162  31.604  29.428  1.00  0.00     0.049 A 
ATOM     59  H   UNL A   1      42.586  29.668  28.816  1.00  0.00     0.167 HD
ATOM     60  C   UNL A   1      45.179  30.703  28.303  1.00  0.00     0.074 A 
ATOM     61  C   UNL A   1      46.537  30.815  27.816  1.00  0.00     0.031 C 
ATOM     62  C   UNL A   1      44.511  31.705  28.925  1.00  0.00     0.034 A 
BRANCH  49  63
ATOM     63  C   UNL A   1      38.654  30.352  30.362  1.00  0.00     0.023 A 
ATOM     64  C   UNL A   1      37.776  31.115  29.575  1.00  0.00     0.031 A 
ATOM     65  C   UNL A   1      38.254  30.028  31.672  1.00  0.00     0.131 A 
ATOM     66  C   UNL A   1      36.562  31.565  30.118  1.00  0.00     0.055 A 
ATOM     67  C   UNL A   1      37.016  30.418  32.182  1.00  0.00     0.041 A 
ATOM     68  F   UNL A   1      39.062  29.319  32.476  1.00  0.00    -0.206 F 
ATOM     69  C   UNL A   1      36.164  31.199  31.407  1.00  0.00     0.022 A 
BRANCH  66  70
ATOM     70  S   UNL A   1      35.552  32.720  29.152  1.00  0.00     0.124 S 
ATOM     71  O   UNL A   1      35.582  32.101  27.828  1.00  0.00    -0.237 OA
ATOM     72  O   UNL A   1      34.272  32.679  29.848  1.00  0.00    -0.237 OA
ATOM     73  O   UNL A   1      36.280  33.983  29.257  1.00  0.00    -0.744 OA
ENDBRANCH  66  70
ENDBRANCH  49  63
BRANCH  50  74
ATOM     74  C   UNL A   1      47.078  26.989  26.104  1.00  0.00     0.023 A 
ATOM     75  C   UNL A   1      48.115  26.314  26.766  1.00  0.00     0.031 A 
ATOM     76  C   UNL A   1      47.263  27.304  24.745  1.00  0.00     0.131 A 
ATOM     77  C   UNL A   1      49.314  26.037  26.091  1.00  0.00     0.055 A 
ATOM     78  C   UNL A   1      48.430  26.964  24.060  1.00  0.00     0.041 A 
ATOM     79  F   UNL A   1      46.306  27.951  24.060  1.00  0.00    -0.206 F 
ATOM     80  C   UNL A   1      49.472  26.342  24.738  1.00  0.00     0.022 A 
BRANCH  77  81
ATOM     81  S   UNL A   1      50.715  25.389  27.044  1.00  0.00     0.124 S 
ATOM     82  O   UNL A   1      51.637  24.997  25.983  1.00  0.00    -0.237 OA
ATOM     83  O   UNL A   1      51.104  26.550  27.837  1.00  0.00    -0.237 OA
ATOM     84  O   UNL A   1      50.129  24.285  27.800  1.00  0.00    -0.744 OA
ENDBRANCH  77  81
ENDBRANCH  50  74
BRANCH  62  85
ATOM     85  C   UNL A   1      45.253  33.001  29.138  1.00  0.00     0.023 A 
ATOM     86  C   UNL A   1      45.112  34.085  28.253  1.00  0.00     0.031 A 
ATOM     87  C   UNL A   1      46.103  33.159  30.247  1.00  0.00     0.131 A 
ATOM     88  C   UNL A   1      45.841  35.263  28.470  1.00  0.00     0.055 A 
ATOM     89  C   UNL A   1      46.778  34.355  30.492  1.00  0.00     0.041 A 
ATOM     90  F   UNL A   1      46.278  32.156  31.123  1.00  0.00    -0.206 F 
ATOM     91  C   UNL A   1      46.657  35.413  29.595  1.00  0.00     0.022 A 
BRANCH  88  92
ATOM     92  S   UNL A   1      45.762  36.578  27.224  1.00  0.00     0.124 S 
ATOM     93  O   UNL A   1      46.601  36.037  26.160  1.00  0.00    -0.237 OA
ATOM     94  O   UNL A   1      44.334  36.652  26.934  1.00  0.00    -0.237 OA
ATOM     95  O   UNL A   1      46.313  37.741  27.918  1.00  0.00    -0.744 OA
ENDBRANCH  88  92
ENDBRANCH  62  85
ENDBRANCH  36  37
ENDBRANCH  28  31
ENDBRANCH  26  27
ENDBRANCH  25  26
ENDBRANCH  24  25
ENDBRANCH   1  24
TORSDOF 20
ENDMDL
MODEL 3
REMARK VINA RESULT:     -11.5      2.149      8.628
REMARK SMILES C[C@@H](C(=O)NCCCCCCNC(=O)c1ccc(-c2c3nc(c(-c4cc(S(=O)(=O)[O-])ccc4F)c4ccc([nH]4)c(-c4cc(S(=O)(=O)[O-])ccc4F)c4nc(c(-c5cc(S(=O)(=O)[O-])ccc5F)c5ccc2[nH]5)C=C4)C=C3)cc1)c1ccc(C[C@H]2CCC[C@H]2O)cc1
REMARK SMILES IDX 8 1 7 2 6 3 5 4 3 5 4 6 2 8 1 9 78 10 79 11 90 12 80 13
REMARK SMILES IDX 89 14 81 15 82 16 83 17 84 18 87 19 85 20 86 21 88 22 9 24
REMARK SMILES IDX 10 25 11 26 12 27 13 28 14 30 15 31 16 32 77 33 17 34 76 35
REMARK SMILES IDX 18 36 19 37 20 38 70 39 21 40 75 41 69 42 71 43 22 44 74 45
REMARK SMILES IDX 68 46 67 47 23 49 55 50 35 51 54 52 36 53 39 54 53 55 72 56
REMARK SMILES IDX 37 57 38 58 52 60 73 61 40 62 24 63 25 64 33 65 26 66 32 67
REMARK SMILES IDX 34 68 31 69 27 70 28 71 29 72 30 73 56 74 57 75 65 76 58 77
REMARK SMILES IDX 64 78 66 79 63 80 59 81 60 82 61 83 62 84 41 85 42 86 50 87
REMARK SMILES IDX 43 88 49 89 51 90 48 91 44 92 45 93 46 94 47 95
REMARK H PARENT 5 7 88 23 12 29 71 48 39 59
REMARK Flexibility Score: inf
ROOT
ATOM      1  C   UNL A   1      33.883  21.966  24.907  1.00  0.00     0.002 C 
ENDROOT
BRANCH   1   2
ATOM      2  C   UNL A   1      32.541  21.379  24.449  1.00  0.00     0.021 C 
BRANCH   2   3
ATOM      3  C   UNL A   1      31.441  22.426  24.260  1.00  0.00     0.116 C 
BRANCH   3   4
ATOM      4  N   UNL A   1      31.087  23.016  25.532  1.00  0.00    -0.356 N 
ATOM      5  C   UNL A   1      31.436  24.221  26.066  1.00  0.00     0.227 C 
ATOM      6  O   UNL A   1      31.106  24.416  27.240  1.00  0.00    -0.274 OA
ATOM      7  H   UNL A   1      30.503  22.462  26.099  1.00  0.00     0.163 HD
BRANCH   5   8
ATOM      8  C   UNL A   1      32.153  25.277  25.199  1.00  0.00     0.105 C 
ATOM      9  C   UNL A   1      33.292  25.988  25.941  1.00  0.00     0.023 C 
BRANCH   8  10
ATOM     10  C   UNL A   1      31.153  26.294  24.657  1.00  0.00    -0.036 A 
ATOM     11  C   UNL A   1      29.830  25.924  24.384  1.00  0.00     0.005 A 
ATOM     12  C   UNL A   1      31.564  27.596  24.339  1.00  0.00     0.005 A 
ATOM     13  C   UNL A   1      28.948  26.818  23.787  1.00  0.00     0.004 A 
ATOM     14  C   UNL A   1      30.687  28.479  23.702  1.00  0.00     0.004 A 
ATOM     15  C   UNL A   1      29.386  28.077  23.374  1.00  0.00    -0.048 A 
BRANCH  15  16
ATOM     16  C   UNL A   1      28.486  28.941  22.530  1.00  0.00     0.041 C 
BRANCH  16  17
ATOM     17  C   UNL A   1      28.839  30.440  22.444  1.00  0.00     0.022 C 
ATOM     18  C   UNL A   1      28.389  31.162  21.163  1.00  0.00     0.007 C 
ATOM     19  C   UNL A   1      28.411  31.377  23.587  1.00  0.00     0.117 C 
ATOM     20  C   UNL A   1      28.182  32.629  21.552  1.00  0.00     0.003 C 
ATOM     21  C   UNL A   1      28.669  32.757  22.992  1.00  0.00     0.032 C 
BRANCH  19  22
ATOM     22  O   UNL A   1      27.048  31.310  23.963  1.00  0.00    -0.393 OA
ATOM     23  H   UNL A   1      26.543  30.858  23.268  1.00  0.00     0.210 HD
ENDBRANCH  19  22
ENDBRANCH  16  17
ENDBRANCH  15  16
ENDBRANCH   8  10
ENDBRANCH   5   8
ENDBRANCH   3   4
ENDBRANCH   2   3
ENDBRANCH   1   2
BRANCH   1  24
ATOM     24  C   UNL A   1      34.862  22.300  23.777  1.00  0.00     0.002 C 
BRANCH  24  25
ATOM     25  C   UNL A   1      36.285  22.633  24.234  1.00  0.00     0.021 C 
BRANCH  25  26
ATOM     26  C   UNL A   1      36.604  22.202  25.663  1.00  0.00     0.116 C 
BRANCH  26  27
ATOM     27  N   UNL A   1      37.633  21.176  25.701  1.00  0.00    -0.352 N 
ATOM     28  C   UNL A   1      38.965  21.289  26.025  1.00  0.00     0.251 C 
ATOM     29  H   UNL A   1      37.334  20.269  25.459  1.00  0.00     0.163 HD
ATOM     30  O   UNL A   1      39.734  20.367  25.790  1.00  0.00    -0.269 OA
BRANCH  28  31
ATOM     31  C   UNL A   1      39.462  22.544  26.633  1.00  0.00     0.039 A 
ATOM     32  C   UNL A   1      40.406  22.473  27.659  1.00  0.00     0.014 A 
ATOM     33  C   UNL A   1      39.011  23.786  26.174  1.00  0.00     0.014 A 
ATOM     34  C   UNL A   1      40.961  23.650  28.169  1.00  0.00     0.010 A 
ATOM     35  C   UNL A   1      39.614  24.953  26.636  1.00  0.00     0.010 A 
ATOM     36  C   UNL A   1      40.607  24.896  27.626  1.00  0.00    -0.014 A 
BRANCH  36  37
ATOM     37  C   UNL A   1      41.298  26.146  28.041  1.00  0.00     0.031 A 
ATOM     38  C   UNL A   1      40.535  27.241  28.734  1.00  0.00     0.074 A 
ATOM     39  C   UNL A   1      42.594  26.325  27.709  1.00  0.00     0.049 A 
ATOM     40  N   UNL A   1      40.935  28.439  29.070  1.00  0.00    -0.248 NA
ATOM     41  C   UNL A   1      39.130  26.960  29.072  1.00  0.00     0.031 C 
ATOM     42  C   UNL A   1      43.427  25.346  27.005  1.00  0.00     0.029 A 
ATOM     43  N   UNL A   1      43.434  27.394  27.895  1.00  0.00    -0.354 N 
ATOM     44  C   UNL A   1      39.831  29.066  29.639  1.00  0.00     0.074 A 
ATOM     45  C   UNL A   1      38.734  28.123  29.570  1.00  0.00     0.031 C 
ATOM     46  C   UNL A   1      44.654  25.857  26.826  1.00  0.00     0.029 A 
ATOM     47  C   UNL A   1      44.686  27.220  27.346  1.00  0.00     0.049 A 
ATOM     48  H   UNL A   1      43.167  28.211  28.376  1.00  0.00     0.167 HD
ATOM     49  C   UNL A   1      39.748  30.308  30.173  1.00  0.00     0.034 A 
ATOM     50  C   UNL A   1      45.728  28.070  27.240  1.00  0.00     0.034 A 
ATOM     51  C   UNL A   1      40.860  31.223  30.252  1.00  0.00     0.049 A 
ATOM     52  C   UNL A   1      45.591  29.460  27.811  1.00  0.00     0.074 A 
ATOM     53  C   UNL A   1      40.908  32.462  30.868  1.00  0.00     0.029 A 
ATOM     54  N   UNL A   1      42.108  31.014  29.681  1.00  0.00    -0.354 N 
ATOM     55  N   UNL A   1      44.565  30.000  28.429  1.00  0.00    -0.248 NA
ATOM     56  C   UNL A   1      46.749  30.355  27.675  1.00  0.00     0.031 C 
ATOM     57  C   UNL A   1      42.150  33.039  30.592  1.00  0.00     0.029 A 
ATOM     58  C   UNL A   1      42.911  32.127  29.878  1.00  0.00     0.049 A 
ATOM     59  H   UNL A   1      42.382  30.197  29.206  1.00  0.00     0.167 HD
ATOM     60  C   UNL A   1      44.966  31.289  28.773  1.00  0.00     0.074 A 
ATOM     61  C   UNL A   1      46.332  31.437  28.318  1.00  0.00     0.031 C 
ATOM     62  C   UNL A   1      44.268  32.264  29.406  1.00  0.00     0.034 A 
BRANCH  49  63
ATOM     63  C   UNL A   1      38.407  30.774  30.686  1.00  0.00     0.023 A 
ATOM     64  C   UNL A   1      37.422  31.297  29.833  1.00  0.00     0.031 A 
ATOM     65  C   UNL A   1      38.102  30.658  32.054  1.00  0.00     0.131 A 
ATOM     66  C   UNL A   1      36.194  31.725  30.363  1.00  0.00     0.055 A 
ATOM     67  C   UNL A   1      36.854  31.019  32.564  1.00  0.00     0.041 A 
ATOM     68  F   UNL A   1      39.014  30.184  32.919  1.00  0.00    -0.206 F 
ATOM     69  C   UNL A   1      35.894  31.564  31.718  1.00  0.00     0.022 A 
BRANCH  66  70
ATOM     70  S   UNL A   1      35.029  32.587  29.273  1.00  0.00     0.124 S 
ATOM     71  O   UNL A   1      34.117  33.195  30.239  1.00  0.00    -0.237 OA
ATOM     72  O   UNL A   1      35.897  33.507  28.547  1.00  0.00    -0.237 OA
ATOM     73  O   UNL A   1      34.449  31.511  28.471  1.00  0.00    -0.744 OA
ENDBRANCH  66  70
ENDBRANCH  49  63
BRANCH  50  74
ATOM     74  C   UNL A   1      46.975  27.666  26.522  1.00  0.00     0.023 A 
ATOM     75  C   UNL A   1      47.158  27.963  25.163  1.00  0.00     0.031 A 
ATOM     76  C   UNL A   1      47.968  26.905  27.167  1.00  0.00     0.131 A 
ATOM     77  C   UNL A   1      48.270  27.448  24.477  1.00  0.00     0.055 A 
ATOM     78  C   UNL A   1      49.106  26.454  26.497  1.00  0.00     0.041 A 
ATOM     79  F   UNL A   1      47.845  26.586  28.466  1.00  0.00    -0.206 F 
ATOM     80  C   UNL A   1      49.253  26.710  25.138  1.00  0.00     0.022 A 
BRANCH  77  81
ATOM     81  S   UNL A   1      48.344  27.648  22.675  1.00  0.00     0.124 S 
ATOM     82  O   UNL A   1      48.441  26.262  22.229  1.00  0.00    -0.237 OA
ATOM     83  O   UNL A   1      47.083  28.327  22.394  1.00  0.00    -0.237 OA
ATOM     84  O   UNL A   1      49.545  28.455  22.472  1.00  0.00    -0.744 OA
ENDBRANCH  77  81
ENDBRANCH  50  74
BRANCH  62  85
ATOM     85  C   UNL A   1      44.982  33.567  29.666  1.00  0.00     0.023 A 
ATOM     86  C   UNL A   1      44.888  34.650  28.775  1.00  0.00     0.031 A 
ATOM     87  C   UNL A   1      45.757  33.732  30.828  1.00  0.00     0.131 A 
ATOM     88  C   UNL A   1      45.590  35.835  29.039  1.00  0.00     0.055 A 
ATOM     89  C   UNL A   1      46.404  34.934  31.116  1.00  0.00     0.041 A 
ATOM     90  F   UNL A   1      45.885  32.729  31.713  1.00  0.00    -0.206 F 
ATOM     91  C   UNL A   1      46.331  35.991  30.213  1.00  0.00     0.022 A 
BRANCH  88  92
ATOM     92  S   UNL A   1      45.579  37.150  27.790  1.00  0.00     0.124 S 
ATOM     93  O   UNL A   1      46.741  36.806  26.978  1.00  0.00    -0.237 OA
ATOM     94  O   UNL A   1      44.279  36.968  27.153  1.00  0.00    -0.237 OA
ATOM     95  O   UNL A   1      45.714  38.374  28.580  1.00  0.00    -0.744 OA
ENDBRANCH  88  92
ENDBRANCH  62  85
ENDBRANCH  36  37
ENDBRANCH  28  31
ENDBRANCH  26  27
ENDBRANCH  25  26
ENDBRANCH  24  25
ENDBRANCH   1  24
TORSDOF 20
ENDMDL
