MODEL 1
REMARK VINA RESULT:     -11.9      0.000      0.000
REMARK SMILES Cc1cc(C(=O)NCCCCCCNC(=O)c2ccc(-c3c4nc(c(-c5cc(S(=O)(=O)[O-])ccc5F)c5ccc([nH]5)c(-c5cc(S(=O)(=O)[O-])ccc5F)c5nc(c(-c6cc(S(=O)(=O)[O-])ccc6F)c6ccc3[nH]6)C=C5)C=C4)cc2)ccc1NC(=O)c1ccc(=O)n(CCOc2ccccc2)n1
REMARK SMILES IDX 9 1 8 2 7 3 5 4 6 5 4 7 1 8 2 9 3 10 82 11 81 12 80 13 83 14
REMARK SMILES IDX 84 15 85 17 86 18 87 19 101 20 88 21 91 22 89 23 90 24 92 25
REMARK SMILES IDX 93 26 94 27 95 28 96 29 100 30 97 31 99 32 98 33 10 34 11 35
REMARK SMILES IDX 12 36 13 37 14 38 15 39 16 41 17 42 18 43 79 44 19 45 78 46
REMARK SMILES IDX 20 47 21 48 22 49 72 50 23 51 77 52 71 53 73 54 24 55 76 56
REMARK SMILES IDX 70 57 69 58 25 60 57 61 37 62 56 63 38 64 41 65 55 66 74 67
REMARK SMILES IDX 39 68 40 69 54 71 75 72 42 73 26 74 27 75 35 76 28 77 34 78
REMARK SMILES IDX 36 79 33 80 29 81 30 82 31 83 32 84 58 85 59 86 67 87 60 88
REMARK SMILES IDX 66 89 68 90 65 91 61 92 62 93 63 94 64 95 43 96 44 97 52 98
REMARK SMILES IDX 45 99 51 100 53 101 50 102 46 103 47 104 48 105 49 106
REMARK H PARENT 7 6 83 16 14 40 73 59 41 70
REMARK Flexibility Score: inf
ROOT
ATOM      1  C   UNL A   1      39.656  22.244  26.301  1.00  0.00     0.021 C 
ENDROOT
BRANCH   1   2
ATOM      2  C   UNL A   1      38.382  21.558  25.803  1.00  0.00     0.116 C 
BRANCH   2   3
ATOM      3  N   UNL A   1      37.880  22.141  24.563  1.00  0.00    -0.352 N 
ATOM      4  C   UNL A   1      36.645  22.644  24.225  1.00  0.00     0.251 C 
ATOM      5  O   UNL A   1      36.513  23.297  23.192  1.00  0.00    -0.269 OA
ATOM      6  H   UNL A   1      38.545  22.181  23.837  1.00  0.00     0.163 HD
BRANCH   4   7
ATOM      7  C   UNL A   1      35.461  22.459  25.103  1.00  0.00     0.040 A 
ATOM      8  C   UNL A   1      32.360  20.264  25.138  1.00  0.00     0.046 C 
ATOM      9  C   UNL A   1      33.277  21.399  25.499  1.00  0.00    -0.027 A 
ATOM     10  C   UNL A   1      34.470  21.532  24.748  1.00  0.00     0.019 A 
ATOM     11  C   UNL A   1      33.061  22.275  26.575  1.00  0.00     0.044 A 
ATOM     12  C   UNL A   1      34.161  22.991  27.047  1.00  0.00     0.027 A 
ATOM     13  C   UNL A   1      35.348  23.097  26.325  1.00  0.00     0.016 A 
BRANCH  11  14
ATOM     14  N   UNL A   1      31.770  22.428  27.134  1.00  0.00    -0.320 N 
ATOM     15  C   UNL A   1      30.768  23.336  26.817  1.00  0.00     0.276 C 
ATOM     16  H   UNL A   1      31.550  21.796  27.857  1.00  0.00     0.170 HD
ATOM     17  O   UNL A   1      29.681  23.327  27.386  1.00  0.00    -0.267 OA
BRANCH  15  18
ATOM     18  C   UNL A   1      31.003  24.353  25.718  1.00  0.00     0.149 A 
ATOM     19  C   UNL A   1      30.805  23.847  24.345  1.00  0.00     0.042 A 
ATOM     20  N   UNL A   1      31.303  25.582  26.023  1.00  0.00    -0.164 NA
ATOM     21  C   UNL A   1      30.464  24.775  23.450  1.00  0.00     0.076 A 
ATOM     22  N   UNL A   1      31.177  26.500  24.982  1.00  0.00    -0.226 N 
ATOM     23  C   UNL A   1      30.434  26.203  23.845  1.00  0.00     0.266 A 
ATOM     24  O   UNL A   1      29.845  27.017  23.142  1.00  0.00    -0.268 OA
BRANCH  22  25
ATOM     25  C   UNL A   1      31.651  27.865  25.214  1.00  0.00     0.190 C 
BRANCH  25  26
ATOM     26  C   UNL A   1      32.860  27.903  26.170  1.00  0.00     0.253 C 
BRANCH  26  27
ATOM     27  O   UNL A   1      32.677  28.861  27.234  1.00  0.00    -0.492 OA
BRANCH  27  28
ATOM     28  C   UNL A   1      33.779  29.650  27.414  1.00  0.00     0.119 A 
ATOM     29  C   UNL A   1      33.669  31.029  27.562  1.00  0.00     0.046 A 
ATOM     30  C   UNL A   1      35.035  29.058  27.367  1.00  0.00     0.046 A 
ATOM     31  C   UNL A   1      34.823  31.793  27.771  1.00  0.00     0.004 A 
ATOM     32  C   UNL A   1      36.179  29.803  27.638  1.00  0.00     0.004 A 
ATOM     33  C   UNL A   1      36.072  31.173  27.849  1.00  0.00     0.000 A 
ENDBRANCH  27  28
ENDBRANCH  26  27
ENDBRANCH  25  26
ENDBRANCH  22  25
ENDBRANCH  15  18
ENDBRANCH  11  14
ENDBRANCH   4   7
ENDBRANCH   2   3
ENDBRANCH   1   2
BRANCH   1  34
ATOM     34  C   UNL A   1      40.506  21.421  27.281  1.00  0.00     0.002 C 
BRANCH  34  35
ATOM     35  C   UNL A   1      40.841  19.979  26.864  1.00  0.00     0.002 C 
BRANCH  35  36
ATOM     36  C   UNL A   1      42.310  19.696  26.544  1.00  0.00     0.021 C 
BRANCH  36  37
ATOM     37  C   UNL A   1      42.883  20.560  25.422  1.00  0.00     0.116 C 
BRANCH  37  38
ATOM     38  N   UNL A   1      44.289  20.910  25.603  1.00  0.00    -0.352 N 
ATOM     39  C   UNL A   1      44.843  22.071  26.126  1.00  0.00     0.251 C 
ATOM     40  H   UNL A   1      44.935  20.225  25.315  1.00  0.00     0.163 HD
ATOM     41  O   UNL A   1      46.042  22.249  26.153  1.00  0.00    -0.269 OA
BRANCH  39  42
ATOM     42  C   UNL A   1      43.934  23.051  26.778  1.00  0.00     0.039 A 
ATOM     43  C   UNL A   1      43.765  24.286  26.141  1.00  0.00     0.014 A 
ATOM     44  C   UNL A   1      43.453  22.850  28.067  1.00  0.00     0.014 A 
ATOM     45  C   UNL A   1      43.330  25.384  26.881  1.00  0.00     0.010 A 
ATOM     46  C   UNL A   1      43.106  23.953  28.826  1.00  0.00     0.010 A 
ATOM     47  C   UNL A   1      43.109  25.228  28.250  1.00  0.00    -0.014 A 
BRANCH  47  48
ATOM     48  C   UNL A   1      43.017  26.357  29.173  1.00  0.00     0.031 A 
ATOM     49  C   UNL A   1      41.843  27.248  29.176  1.00  0.00     0.074 A 
ATOM     50  C   UNL A   1      44.011  26.572  30.064  1.00  0.00     0.049 A 
ATOM     51  N   UNL A   1      41.852  28.461  29.620  1.00  0.00    -0.248 NA
ATOM     52  C   UNL A   1      40.552  26.845  28.630  1.00  0.00     0.031 C 
ATOM     53  C   UNL A   1      44.005  27.487  31.201  1.00  0.00     0.029 A 
ATOM     54  N   UNL A   1      45.342  26.186  29.936  1.00  0.00    -0.354 N 
ATOM     55  C   UNL A   1      40.554  28.907  29.659  1.00  0.00     0.074 A 
ATOM     56  C   UNL A   1      39.786  27.881  28.990  1.00  0.00     0.031 C 
ATOM     57  C   UNL A   1      45.272  27.814  31.497  1.00  0.00     0.029 A 
ATOM     58  C   UNL A   1      46.123  27.227  30.478  1.00  0.00     0.049 A 
ATOM     59  H   UNL A   1      45.675  25.347  29.542  1.00  0.00     0.167 HD
ATOM     60  C   UNL A   1      40.249  30.042  30.348  1.00  0.00     0.034 A 
ATOM     61  C   UNL A   1      47.018  27.898  29.695  1.00  0.00     0.034 A 
ATOM     62  C   UNL A   1      41.434  30.689  30.907  1.00  0.00     0.049 A 
ATOM     63  C   UNL A   1      46.723  29.379  29.548  1.00  0.00     0.074 A 
ATOM     64  C   UNL A   1      42.031  30.709  32.157  1.00  0.00     0.029 A 
ATOM     65  N   UNL A   1      42.348  31.256  30.038  1.00  0.00    -0.354 N 
ATOM     66  N   UNL A   1      45.687  29.983  30.063  1.00  0.00    -0.248 NA
ATOM     67  C   UNL A   1      47.533  30.276  28.722  1.00  0.00     0.031 C 
ATOM     68  C   UNL A   1      43.337  31.264  32.013  1.00  0.00     0.029 A 
ATOM     69  C   UNL A   1      43.520  31.598  30.684  1.00  0.00     0.049 A 
ATOM     70  H   UNL A   1      42.184  31.398  29.078  1.00  0.00     0.167 HD
ATOM     71  C   UNL A   1      45.642  31.275  29.608  1.00  0.00     0.074 A 
ATOM     72  C   UNL A   1      46.823  31.414  28.775  1.00  0.00     0.031 C 
ATOM     73  C   UNL A   1      44.619  32.132  29.897  1.00  0.00     0.034 A 
BRANCH  60  74
ATOM     74  C   UNL A   1      38.841  30.443  30.712  1.00  0.00     0.023 A 
ATOM     75  C   UNL A   1      38.435  31.779  30.519  1.00  0.00     0.031 A 
ATOM     76  C   UNL A   1      37.874  29.585  31.268  1.00  0.00     0.131 A 
ATOM     77  C   UNL A   1      37.179  32.231  30.960  1.00  0.00     0.055 A 
ATOM     78  C   UNL A   1      36.651  30.047  31.768  1.00  0.00     0.041 A 
ATOM     79  F   UNL A   1      38.054  28.257  31.305  1.00  0.00    -0.206 F 
ATOM     80  C   UNL A   1      36.302  31.383  31.629  1.00  0.00     0.022 A 
BRANCH  77  81
ATOM     81  S   UNL A   1      36.701  33.950  30.636  1.00  0.00     0.124 S 
ATOM     82  O   UNL A   1      35.244  33.868  30.610  1.00  0.00    -0.237 OA
ATOM     83  O   UNL A   1      37.288  34.652  31.771  1.00  0.00    -0.237 OA
ATOM     84  O   UNL A   1      37.323  34.237  29.344  1.00  0.00    -0.744 OA
ENDBRANCH  77  81
ENDBRANCH  60  74
BRANCH  61  85
ATOM     85  C   UNL A   1      47.641  27.021  28.657  1.00  0.00     0.023 A 
ATOM     86  C   UNL A   1      47.027  27.004  27.384  1.00  0.00     0.031 A 
ATOM     87  C   UNL A   1      48.962  26.565  28.751  1.00  0.00     0.131 A 
ATOM     88  C   UNL A   1      47.787  26.737  26.239  1.00  0.00     0.055 A 
ATOM     89  C   UNL A   1      49.688  26.201  27.610  1.00  0.00     0.041 A 
ATOM     90  F   UNL A   1      49.615  26.584  29.921  1.00  0.00    -0.206 F 
ATOM     91  C   UNL A   1      49.118  26.337  26.342  1.00  0.00     0.022 A 
BRANCH  88  92
ATOM     92  S   UNL A   1      47.109  27.229  24.622  1.00  0.00     0.124 S 
ATOM     93  O   UNL A   1      45.797  26.594  24.635  1.00  0.00    -0.237 OA
ATOM     94  O   UNL A   1      47.111  28.690  24.704  1.00  0.00    -0.237 OA
ATOM     95  O   UNL A   1      48.067  26.681  23.665  1.00  0.00    -0.744 OA
ENDBRANCH  88  92
ENDBRANCH  61  85
BRANCH  73  96
ATOM     96  C   UNL A   1      44.592  33.554  29.411  1.00  0.00     0.023 A 
ATOM     97  C   UNL A   1      43.738  33.957  28.371  1.00  0.00     0.031 A 
ATOM     98  C   UNL A   1      45.464  34.536  29.926  1.00  0.00     0.131 A 
ATOM     99  C   UNL A   1      43.715  35.293  27.940  1.00  0.00     0.055 A 
ATOM    100  C   UNL A   1      45.501  35.843  29.434  1.00  0.00     0.041 A 
ATOM    101  F   UNL A   1      46.283  34.278  30.957  1.00  0.00    -0.206 F 
ATOM    102  C   UNL A   1      44.612  36.235  28.444  1.00  0.00     0.022 A 
BRANCH  99 103
ATOM    103  S   UNL A   1      42.423  35.802  26.778  1.00  0.00     0.124 S 
ATOM    104  O   UNL A   1      42.690  37.225  26.606  1.00  0.00    -0.237 OA
ATOM    105  O   UNL A   1      42.716  34.957  25.623  1.00  0.00    -0.237 OA
ATOM    106  O   UNL A   1      41.181  35.481  27.478  1.00  0.00    -0.744 OA
ENDBRANCH  99 103
ENDBRANCH  73  96
ENDBRANCH  47  48
ENDBRANCH  39  42
ENDBRANCH  37  38
ENDBRANCH  36  37
ENDBRANCH  35  36
ENDBRANCH  34  35
ENDBRANCH   1  34
TORSDOF 22
ENDMDL
MODEL 2
REMARK VINA RESULT:     -11.9      1.690      2.075
REMARK SMILES Cc1cc(C(=O)NCCCCCCNC(=O)c2ccc(-c3c4nc(c(-c5cc(S(=O)(=O)[O-])ccc5F)c5ccc([nH]5)c(-c5cc(S(=O)(=O)[O-])ccc5F)c5nc(c(-c6cc(S(=O)(=O)[O-])ccc6F)c6ccc3[nH]6)C=C5)C=C4)cc2)ccc1NC(=O)c1ccc(=O)n(CCOc2ccccc2)n1
REMARK SMILES IDX 9 1 8 2 7 3 5 4 6 5 4 7 1 8 2 9 3 10 82 11 81 12 80 13 83 14
REMARK SMILES IDX 84 15 85 17 86 18 87 19 101 20 88 21 91 22 89 23 90 24 92 25
REMARK SMILES IDX 93 26 94 27 95 28 96 29 100 30 97 31 99 32 98 33 10 34 11 35
REMARK SMILES IDX 12 36 13 37 14 38 15 39 16 41 17 42 18 43 79 44 19 45 78 46
REMARK SMILES IDX 20 47 21 48 22 49 72 50 23 51 77 52 71 53 73 54 24 55 76 56
REMARK SMILES IDX 70 57 69 58 25 60 57 61 37 62 56 63 38 64 41 65 55 66 74 67
REMARK SMILES IDX 39 68 40 69 54 71 75 72 42 73 26 74 27 75 35 76 28 77 34 78
REMARK SMILES IDX 36 79 33 80 29 81 30 82 31 83 32 84 58 85 59 86 67 87 60 88
REMARK SMILES IDX 66 89 68 90 65 91 61 92 62 93 63 94 64 95 43 96 44 97 52 98
REMARK SMILES IDX 45 99 51 100 53 101 50 102 46 103 47 104 48 105 49 106
REMARK H PARENT 7 6 83 16 14 40 73 59 41 70
REMARK Flexibility Score: inf
ROOT
ATOM      1  C   UNL A   1      39.686  22.375  26.496  1.00  0.00     0.021 C 
ENDROOT
BRANCH   1   2
ATOM      2  C   UNL A   1      38.588  21.490  25.900  1.00  0.00     0.116 C 
BRANCH   2   3
ATOM      3  N   UNL A   1      38.087  22.001  24.627  1.00  0.00    -0.352 N 
ATOM      4  C   UNL A   1      36.850  22.478  24.259  1.00  0.00     0.251 C 
ATOM      5  O   UNL A   1      36.719  23.073  23.191  1.00  0.00    -0.269 OA
ATOM      6  H   UNL A   1      38.754  22.004  23.902  1.00  0.00     0.163 HD
BRANCH   4   7
ATOM      7  C   UNL A   1      35.665  22.337  25.142  1.00  0.00     0.040 A 
ATOM      8  C   UNL A   1      32.557  20.155  25.273  1.00  0.00     0.046 C 
ATOM      9  C   UNL A   1      33.477  21.303  25.583  1.00  0.00    -0.027 A 
ATOM     10  C   UNL A   1      34.671  21.398  24.828  1.00  0.00     0.019 A 
ATOM     11  C   UNL A   1      33.263  22.227  26.618  1.00  0.00     0.044 A 
ATOM     12  C   UNL A   1      34.364  22.961  27.059  1.00  0.00     0.027 A 
ATOM     13  C   UNL A   1      35.553  23.030  26.334  1.00  0.00     0.016 A 
BRANCH  11  14
ATOM     14  N   UNL A   1      31.972  22.409  27.168  1.00  0.00    -0.320 N 
ATOM     15  C   UNL A   1      30.972  23.304  26.808  1.00  0.00     0.276 C 
ATOM     16  H   UNL A   1      31.749  21.813  27.919  1.00  0.00     0.170 HD
ATOM     17  O   UNL A   1      29.884  23.325  27.375  1.00  0.00    -0.267 OA
BRANCH  15  18
ATOM     18  C   UNL A   1      31.211  24.269  25.662  1.00  0.00     0.149 A 
ATOM     19  C   UNL A   1      30.653  23.845  24.362  1.00  0.00     0.042 A 
ATOM     20  N   UNL A   1      31.822  25.397  25.879  1.00  0.00    -0.164 NA
ATOM     21  C   UNL A   1      30.359  24.843  23.527  1.00  0.00     0.076 A 
ATOM     22  N   UNL A   1      31.704  26.341  24.861  1.00  0.00    -0.226 N 
ATOM     23  C   UNL A   1      30.714  26.236  23.891  1.00  0.00     0.266 A 
ATOM     24  O   UNL A   1      30.194  27.171  23.294  1.00  0.00    -0.268 OA
BRANCH  22  25
ATOM     25  C   UNL A   1      32.498  27.566  24.970  1.00  0.00     0.190 C 
BRANCH  25  26
ATOM     26  C   UNL A   1      32.733  27.974  26.437  1.00  0.00     0.253 C 
BRANCH  26  27
ATOM     27  O   UNL A   1      34.138  28.073  26.752  1.00  0.00    -0.492 OA
BRANCH  27  28
ATOM     28  C   UNL A   1      34.482  29.319  27.196  1.00  0.00     0.119 A 
ATOM     29  C   UNL A   1      35.772  29.605  27.633  1.00  0.00     0.046 A 
ATOM     30  C   UNL A   1      33.492  30.290  27.284  1.00  0.00     0.046 A 
ATOM     31  C   UNL A   1      36.085  30.902  28.054  1.00  0.00     0.004 A 
ATOM     32  C   UNL A   1      33.812  31.598  27.641  1.00  0.00     0.004 A 
ATOM     33  C   UNL A   1      35.114  31.906  28.019  1.00  0.00     0.000 A 
ENDBRANCH  27  28
ENDBRANCH  26  27
ENDBRANCH  25  26
ENDBRANCH  22  25
ENDBRANCH  15  18
ENDBRANCH  11  14
ENDBRANCH   4   7
ENDBRANCH   2   3
ENDBRANCH   1   2
BRANCH   1  34
ATOM     34  C   UNL A   1      40.698  21.650  27.396  1.00  0.00     0.002 C 
BRANCH  34  35
ATOM     35  C   UNL A   1      41.024  20.191  27.035  1.00  0.00     0.002 C 
BRANCH  35  36
ATOM     36  C   UNL A   1      42.494  19.885  26.739  1.00  0.00     0.021 C 
BRANCH  36  37
ATOM     37  C   UNL A   1      43.061  20.643  25.540  1.00  0.00     0.116 C 
BRANCH  37  38
ATOM     38  N   UNL A   1      44.471  20.996  25.676  1.00  0.00    -0.352 N 
ATOM     39  C   UNL A   1      45.037  22.177  26.138  1.00  0.00     0.251 C 
ATOM     40  H   UNL A   1      45.110  20.299  25.403  1.00  0.00     0.163 HD
ATOM     41  O   UNL A   1      46.237  22.354  26.132  1.00  0.00    -0.269 OA
BRANCH  39  42
ATOM     42  C   UNL A   1      44.143  23.185  26.767  1.00  0.00     0.039 A 
ATOM     43  C   UNL A   1      43.819  24.314  26.005  1.00  0.00     0.014 A 
ATOM     44  C   UNL A   1      43.828  23.133  28.121  1.00  0.00     0.014 A 
ATOM     45  C   UNL A   1      43.397  25.476  26.650  1.00  0.00     0.010 A 
ATOM     46  C   UNL A   1      43.495  24.307  28.772  1.00  0.00     0.010 A 
ATOM     47  C   UNL A   1      43.344  25.492  28.044  1.00  0.00    -0.014 A 
BRANCH  47  48
ATOM     48  C   UNL A   1      43.282  26.727  28.822  1.00  0.00     0.031 A 
ATOM     49  C   UNL A   1      42.014  27.461  28.989  1.00  0.00     0.074 A 
ATOM     50  C   UNL A   1      44.397  27.192  29.428  1.00  0.00     0.049 A 
ATOM     51  N   UNL A   1      41.934  28.718  29.272  1.00  0.00    -0.248 NA
ATOM     52  C   UNL A   1      40.713  26.828  28.808  1.00  0.00     0.031 C 
ATOM     53  C   UNL A   1      44.495  28.259  30.418  1.00  0.00     0.029 A 
ATOM     54  N   UNL A   1      45.714  26.954  29.042  1.00  0.00    -0.354 N 
ATOM     55  C   UNL A   1      40.621  29.006  29.556  1.00  0.00     0.074 A 
ATOM     56  C   UNL A   1      39.893  27.806  29.209  1.00  0.00     0.031 C 
ATOM     57  C   UNL A   1      45.732  28.777  30.372  1.00  0.00     0.029 A 
ATOM     58  C   UNL A   1      46.426  28.150  29.261  1.00  0.00     0.049 A 
ATOM     59  H   UNL A   1      46.078  26.112  28.684  1.00  0.00     0.167 HD
ATOM     60  C   UNL A   1      40.302  30.187  30.156  1.00  0.00     0.034 A 
ATOM     61  C   UNL A   1      47.022  28.800  28.219  1.00  0.00     0.034 A 
ATOM     62  C   UNL A   1      41.467  31.047  30.346  1.00  0.00     0.049 A 
ATOM     63  C   UNL A   1      46.483  30.195  27.968  1.00  0.00     0.074 A 
ATOM     64  C   UNL A   1      42.306  31.326  31.413  1.00  0.00     0.029 A 
ATOM     65  N   UNL A   1      42.080  31.584  29.228  1.00  0.00    -0.354 N 
ATOM     66  N   UNL A   1      45.501  30.741  28.633  1.00  0.00    -0.248 NA
ATOM     67  C   UNL A   1      46.954  31.049  26.877  1.00  0.00     0.031 C 
ATOM     68  C   UNL A   1      43.453  32.007  30.906  1.00  0.00     0.029 A 
ATOM     69  C   UNL A   1      43.297  32.158  29.541  1.00  0.00     0.049 A 
ATOM     70  H   UNL A   1      41.696  31.560  28.322  1.00  0.00     0.167 HD
ATOM     71  C   UNL A   1      45.166  31.934  28.050  1.00  0.00     0.074 A 
ATOM     72  C   UNL A   1      46.108  32.089  26.957  1.00  0.00     0.031 C 
ATOM     73  C   UNL A   1      44.110  32.696  28.463  1.00  0.00     0.034 A 
BRANCH  60  74
ATOM     74  C   UNL A   1      38.960  30.464  30.785  1.00  0.00     0.023 A 
ATOM     75  C   UNL A   1      38.408  31.758  30.686  1.00  0.00     0.031 A 
ATOM     76  C   UNL A   1      38.195  29.529  31.507  1.00  0.00     0.131 A 
ATOM     77  C   UNL A   1      37.225  32.101  31.363  1.00  0.00     0.055 A 
ATOM     78  C   UNL A   1      37.053  29.886  32.235  1.00  0.00     0.041 A 
ATOM     79  F   UNL A   1      38.494  28.222  31.496  1.00  0.00    -0.206 F 
ATOM     80  C   UNL A   1      36.568  31.184  32.177  1.00  0.00     0.022 A 
BRANCH  77  81
ATOM     81  S   UNL A   1      36.545  33.770  31.152  1.00  0.00     0.124 S 
ATOM     82  O   UNL A   1      37.065  34.468  32.323  1.00  0.00    -0.237 OA
ATOM     83  O   UNL A   1      37.100  34.167  29.863  1.00  0.00    -0.237 OA
ATOM     84  O   UNL A   1      35.099  33.549  31.159  1.00  0.00    -0.744 OA
ENDBRANCH  77  81
ENDBRANCH  60  74
BRANCH  61  85
ATOM     85  C   UNL A   1      47.536  27.859  27.177  1.00  0.00     0.023 A 
ATOM     86  C   UNL A   1      48.816  27.301  27.397  1.00  0.00     0.031 A 
ATOM     87  C   UNL A   1      46.694  27.220  26.258  1.00  0.00     0.131 A 
ATOM     88  C   UNL A   1      49.136  26.043  26.870  1.00  0.00     0.055 A 
ATOM     89  C   UNL A   1      47.062  26.011  25.654  1.00  0.00     0.041 A 
ATOM     90  F   UNL A   1      45.456  27.678  26.026  1.00  0.00    -0.206 F 
ATOM     91  C   UNL A   1      48.264  25.391  25.999  1.00  0.00     0.022 A 
BRANCH  88  92
ATOM     92  S   UNL A   1      50.546  25.143  27.587  1.00  0.00     0.124 S 
ATOM     93  O   UNL A   1      51.290  24.743  26.399  1.00  0.00    -0.237 OA
ATOM     94  O   UNL A   1      51.183  26.158  28.426  1.00  0.00    -0.237 OA
ATOM     95  O   UNL A   1      49.918  24.056  28.334  1.00  0.00    -0.744 OA
ENDBRANCH  88  92
ENDBRANCH  61  85
BRANCH  73  96
ATOM     96  C   UNL A   1      43.766  34.016  27.831  1.00  0.00     0.023 A 
ATOM     97  C   UNL A   1      43.664  35.189  28.595  1.00  0.00     0.031 A 
ATOM     98  C   UNL A   1      43.466  34.130  26.457  1.00  0.00     0.131 A 
ATOM     99  C   UNL A   1      43.357  36.416  27.985  1.00  0.00     0.055 A 
ATOM    100  C   UNL A   1      43.074  35.335  25.869  1.00  0.00     0.041 A 
ATOM    101  F   UNL A   1      43.585  33.085  25.623  1.00  0.00    -0.206 F 
ATOM    102  C   UNL A   1      43.032  36.493  26.630  1.00  0.00     0.022 A 
BRANCH  99 103
ATOM    103  S   UNL A   1      43.486  37.927  28.974  1.00  0.00     0.124 S 
ATOM    104  O   UNL A   1      43.542  37.413  30.337  1.00  0.00    -0.237 OA
ATOM    105  O   UNL A   1      44.725  38.509  28.463  1.00  0.00    -0.237 OA
ATOM    106  O   UNL A   1      42.272  38.667  28.637  1.00  0.00    -0.744 OA
ENDBRANCH  99 103
ENDBRANCH  73  96
ENDBRANCH  47  48
ENDBRANCH  39  42
ENDBRANCH  37  38
ENDBRANCH  36  37
ENDBRANCH  35  36
ENDBRANCH  34  35
ENDBRANCH   1  34
TORSDOF 22
ENDMDL
MODEL 3
REMARK VINA RESULT:     -11.9      2.031      2.859
REMARK SMILES Cc1cc(C(=O)NCCCCCCNC(=O)c2ccc(-c3c4nc(c(-c5cc(S(=O)(=O)[O-])ccc5F)c5ccc([nH]5)c(-c5cc(S(=O)(=O)[O-])ccc5F)c5nc(c(-c6cc(S(=O)(=O)[O-])ccc6F)c6ccc3[nH]6)C=C5)C=C4)cc2)ccc1NC(=O)c1ccc(=O)n(CCOc2ccccc2)n1
REMARK SMILES IDX 9 1 8 2 7 3 5 4 6 5 4 7 1 8 2 9 3 10 82 11 81 12 80 13 83 14
REMARK SMILES IDX 84 15 85 17 86 18 87 19 101 20 88 21 91 22 89 23 90 24 92 25
REMARK SMILES IDX 93 26 94 27 95 28 96 29 100 30 97 31 99 32 98 33 10 34 11 35
REMARK SMILES IDX 12 36 13 37 14 38 15 39 16 41 17 42 18 43 79 44 19 45 78 46
REMARK SMILES IDX 20 47 21 48 22 49 72 50 23 51 77 52 71 53 73 54 24 55 76 56
REMARK SMILES IDX 70 57 69 58 25 60 57 61 37 62 56 63 38 64 41 65 55 66 74 67
REMARK SMILES IDX 39 68 40 69 54 71 75 72 42 73 26 74 27 75 35 76 28 77 34 78
REMARK SMILES IDX 36 79 33 80 29 81 30 82 31 83 32 84 58 85 59 86 67 87 60 88
REMARK SMILES IDX 66 89 68 90 65 91 61 92 62 93 63 94 64 95 43 96 44 97 52 98
REMARK SMILES IDX 45 99 51 100 53 101 50 102 46 103 47 104 48 105 49 106
REMARK H PARENT 7 6 83 16 14 40 73 59 41 70
REMARK Flexibility Score: inf
ROOT
ATOM      1  C   UNL A   1      39.599  23.255  27.045  1.00  0.00     0.021 C 
ENDROOT
BRANCH   1   2
ATOM      2  C   UNL A   1      38.273  23.779  26.487  1.00  0.00     0.116 C 
BRANCH   2   3
ATOM      3  N   UNL A   1      38.083  23.434  25.082  1.00  0.00    -0.352 N 
ATOM      4  C   UNL A   1      36.960  23.067  24.376  1.00  0.00     0.251 C 
ATOM      5  O   UNL A   1      36.991  23.046  23.147  1.00  0.00    -0.269 OA
ATOM      6  H   UNL A   1      38.906  23.469  24.541  1.00  0.00     0.163 HD
BRANCH   4   7
ATOM      7  C   UNL A   1      35.683  22.738  25.059  1.00  0.00     0.040 A 
ATOM      8  C   UNL A   1      32.280  21.378  24.053  1.00  0.00     0.046 C 
ATOM      9  C   UNL A   1      33.329  22.042  24.902  1.00  0.00    -0.027 A 
ATOM     10  C   UNL A   1      34.594  22.268  24.309  1.00  0.00     0.019 A 
ATOM     11  C   UNL A   1      33.154  22.372  26.255  1.00  0.00     0.044 A 
ATOM     12  C   UNL A   1      34.303  22.584  27.016  1.00  0.00     0.027 A 
ATOM     13  C   UNL A   1      35.557  22.776  26.436  1.00  0.00     0.016 A 
BRANCH  11  14
ATOM     14  N   UNL A   1      31.857  22.499  26.806  1.00  0.00    -0.320 N 
ATOM     15  C   UNL A   1      30.973  23.570  26.757  1.00  0.00     0.276 C 
ATOM     16  H   UNL A   1      31.532  21.711  27.299  1.00  0.00     0.170 HD
ATOM     17  O   UNL A   1      29.861  23.517  27.272  1.00  0.00    -0.267 OA
BRANCH  15  18
ATOM     18  C   UNL A   1      31.373  24.835  26.022  1.00  0.00     0.149 A 
ATOM     19  C   UNL A   1      32.500  25.576  26.623  1.00  0.00     0.042 A 
ATOM     20  N   UNL A   1      30.766  25.165  24.920  1.00  0.00    -0.164 NA
ATOM     21  C   UNL A   1      33.202  26.319  25.765  1.00  0.00     0.076 A 
ATOM     22  N   UNL A   1      31.408  26.140  24.159  1.00  0.00    -0.226 N 
ATOM     23  C   UNL A   1      32.749  26.445  24.360  1.00  0.00     0.266 A 
ATOM     24  O   UNL A   1      33.524  26.861  23.506  1.00  0.00    -0.268 OA
BRANCH  22  25
ATOM     25  C   UNL A   1      30.701  26.671  22.992  1.00  0.00     0.190 C 
BRANCH  25  26
ATOM     26  C   UNL A   1      30.089  28.059  23.269  1.00  0.00     0.253 C 
BRANCH  26  27
ATOM     27  O   UNL A   1      29.474  28.623  22.092  1.00  0.00    -0.492 OA
BRANCH  27  28
ATOM     28  C   UNL A   1      29.092  29.922  22.280  1.00  0.00     0.119 A 
ATOM     29  C   UNL A   1      29.283  30.566  23.499  1.00  0.00     0.046 A 
ATOM     30  C   UNL A   1      28.427  30.575  21.250  1.00  0.00     0.046 A 
ATOM     31  C   UNL A   1      28.900  31.905  23.637  1.00  0.00     0.004 A 
ATOM     32  C   UNL A   1      28.103  31.925  21.360  1.00  0.00     0.004 A 
ATOM     33  C   UNL A   1      28.348  32.594  22.554  1.00  0.00     0.000 A 
ENDBRANCH  27  28
ENDBRANCH  26  27
ENDBRANCH  25  26
ENDBRANCH  22  25
ENDBRANCH  15  18
ENDBRANCH  11  14
ENDBRANCH   4   7
ENDBRANCH   2   3
ENDBRANCH   1   2
BRANCH   1  34
ATOM     34  C   UNL A   1      39.970  21.824  26.624  1.00  0.00     0.002 C 
BRANCH  34  35
ATOM     35  C   UNL A   1      40.897  21.044  27.571  1.00  0.00     0.002 C 
BRANCH  35  36
ATOM     36  C   UNL A   1      42.047  20.282  26.909  1.00  0.00     0.021 C 
BRANCH  36  37
ATOM     37  C   UNL A   1      42.718  21.035  25.761  1.00  0.00     0.116 C 
BRANCH  37  38
ATOM     38  N   UNL A   1      44.106  21.400  26.025  1.00  0.00    -0.352 N 
ATOM     39  C   UNL A   1      44.615  22.571  26.572  1.00  0.00     0.251 C 
ATOM     40  H   UNL A   1      44.776  20.721  25.782  1.00  0.00     0.163 HD
ATOM     41  O   UNL A   1      45.809  22.762  26.670  1.00  0.00    -0.269 OA
BRANCH  39  42
ATOM     42  C   UNL A   1      43.658  23.545  27.160  1.00  0.00     0.039 A 
ATOM     43  C   UNL A   1      43.375  24.694  26.410  1.00  0.00     0.014 A 
ATOM     44  C   UNL A   1      43.239  23.445  28.482  1.00  0.00     0.014 A 
ATOM     45  C   UNL A   1      42.885  25.828  27.055  1.00  0.00     0.010 A 
ATOM     46  C   UNL A   1      42.837  24.592  29.141  1.00  0.00     0.010 A 
ATOM     47  C   UNL A   1      42.723  25.799  28.441  1.00  0.00    -0.014 A 
BRANCH  47  48
ATOM     48  C   UNL A   1      42.580  27.007  29.249  1.00  0.00     0.031 A 
ATOM     49  C   UNL A   1      41.362  27.835  29.174  1.00  0.00     0.074 A 
ATOM     50  C   UNL A   1      43.565  27.358  30.105  1.00  0.00     0.049 A 
ATOM     51  N   UNL A   1      41.312  29.084  29.498  1.00  0.00    -0.248 NA
ATOM     52  C   UNL A   1      40.091  27.317  28.683  1.00  0.00     0.031 C 
ATOM     53  C   UNL A   1      43.519  28.379  31.146  1.00  0.00     0.029 A 
ATOM     54  N   UNL A   1      44.914  27.028  30.003  1.00  0.00    -0.354 N 
ATOM     55  C   UNL A   1      39.994  29.468  29.504  1.00  0.00     0.074 A 
ATOM     56  C   UNL A   1      39.275  28.343  28.947  1.00  0.00     0.031 C 
ATOM     57  C   UNL A   1      44.769  28.796  31.397  1.00  0.00     0.029 A 
ATOM     58  C   UNL A   1      45.644  28.154  30.432  1.00  0.00     0.049 A 
ATOM     59  H   UNL A   1      45.287  26.172  29.690  1.00  0.00     0.167 HD
ATOM     60  C   UNL A   1      39.635  30.649  30.081  1.00  0.00     0.034 A 
ATOM     61  C   UNL A   1      46.500  28.789  29.579  1.00  0.00     0.034 A 
ATOM     62  C   UNL A   1      40.789  31.405  30.563  1.00  0.00     0.049 A 
ATOM     63  C   UNL A   1      46.130  30.231  29.290  1.00  0.00     0.074 A 
ATOM     64  C   UNL A   1      41.389  31.578  31.799  1.00  0.00     0.029 A 
ATOM     65  N   UNL A   1      41.669  31.928  29.634  1.00  0.00    -0.354 N 
ATOM     66  N   UNL A   1      45.068  30.831  29.753  1.00  0.00    -0.248 NA
ATOM     67  C   UNL A   1      46.891  31.081  28.372  1.00  0.00     0.031 C 
ATOM     68  C   UNL A   1      42.665  32.180  31.589  1.00  0.00     0.029 A 
ATOM     69  C   UNL A   1      42.826  32.390  30.232  1.00  0.00     0.049 A 
ATOM     70  H   UNL A   1      41.494  31.967  28.666  1.00  0.00     0.167 HD
ATOM     71  C   UNL A   1      44.956  32.068  29.173  1.00  0.00     0.074 A 
ATOM     72  C   UNL A   1      46.124  32.183  28.320  1.00  0.00     0.031 C 
ATOM     73  C   UNL A   1      43.893  32.898  29.385  1.00  0.00     0.034 A 
BRANCH  60  74
ATOM     74  C   UNL A   1      38.211  31.013  30.417  1.00  0.00     0.023 A 
ATOM     75  C   UNL A   1      37.364  31.492  29.397  1.00  0.00     0.031 A 
ATOM     76  C   UNL A   1      37.638  30.942  31.700  1.00  0.00     0.131 A 
ATOM     77  C   UNL A   1      36.072  31.965  29.682  1.00  0.00     0.055 A 
ATOM     78  C   UNL A   1      36.377  31.474  31.998  1.00  0.00     0.041 A 
ATOM     79  F   UNL A   1      38.257  30.310  32.709  1.00  0.00    -0.206 F 
ATOM     80  C   UNL A   1      35.590  32.004  30.986  1.00  0.00     0.022 A 
BRANCH  77  81
ATOM     81  S   UNL A   1      35.018  32.521  28.314  1.00  0.00     0.124 S 
ATOM     82  O   UNL A   1      35.898  33.437  27.596  1.00  0.00    -0.237 OA
ATOM     83  O   UNL A   1      34.703  31.267  27.640  1.00  0.00    -0.237 OA
ATOM     84  O   UNL A   1      33.890  33.158  28.993  1.00  0.00    -0.744 OA
ENDBRANCH  77  81
ENDBRANCH  60  74
BRANCH  61  85
ATOM     85  C   UNL A   1      47.162  27.845  28.626  1.00  0.00     0.023 A 
ATOM     86  C   UNL A   1      46.552  27.684  27.362  1.00  0.00     0.031 A 
ATOM     87  C   UNL A   1      48.501  27.455  28.761  1.00  0.00     0.131 A 
ATOM     88  C   UNL A   1      47.325  27.344  26.245  1.00  0.00     0.055 A 
ATOM     89  C   UNL A   1      49.244  27.017  27.658  1.00  0.00     0.041 A 
ATOM     90  F   UNL A   1      49.149  27.611  29.923  1.00  0.00    -0.206 F 
ATOM     91  C   UNL A   1      48.672  27.010  26.384  1.00  0.00     0.022 A 
BRANCH  88  92
ATOM     92  S   UNL A   1      46.632  27.654  24.590  1.00  0.00     0.124 S 
ATOM     93  O   UNL A   1      45.269  27.156  24.732  1.00  0.00    -0.237 OA
ATOM     94  O   UNL A   1      46.769  29.103  24.451  1.00  0.00    -0.237 OA
ATOM     95  O   UNL A   1      47.498  26.881  23.703  1.00  0.00    -0.744 OA
ENDBRANCH  88  92
ENDBRANCH  61  85
BRANCH  73  96
ATOM     96  C   UNL A   1      43.792  34.262  28.762  1.00  0.00     0.023 A 
ATOM     97  C   UNL A   1      43.923  35.430  29.531  1.00  0.00     0.031 A 
ATOM     98  C   UNL A   1      43.497  34.438  27.394  1.00  0.00     0.131 A 
ATOM     99  C   UNL A   1      43.842  36.696  28.929  1.00  0.00     0.055 A 
ATOM    100  C   UNL A   1      43.328  35.698  26.816  1.00  0.00     0.041 A 
ATOM    101  F   UNL A   1      43.405  33.394  26.555  1.00  0.00    -0.206 F 
ATOM    102  C   UNL A   1      43.516  36.840  27.581  1.00  0.00     0.022 A 
BRANCH  99 103
ATOM    103  S   UNL A   1      44.268  38.150  29.920  1.00  0.00     0.124 S 
ATOM    104  O   UNL A   1      45.724  38.172  29.847  1.00  0.00    -0.237 OA
ATOM    105  O   UNL A   1      43.580  39.214  29.192  1.00  0.00    -0.237 OA
ATOM    106  O   UNL A   1      43.715  37.846  31.237  1.00  0.00    -0.744 OA
ENDBRANCH  99 103
ENDBRANCH  73  96
ENDBRANCH  47  48
ENDBRANCH  39  42
ENDBRANCH  37  38
ENDBRANCH  36  37
ENDBRANCH  35  36
ENDBRANCH  34  35
ENDBRANCH   1  34
TORSDOF 22
ENDMDL
