MODEL 1
REMARK VINA RESULT:     -10.6      0.000      0.000
REMARK SMILES CCOc1cccc(OCC)c1-c1ccc([C@@H](C)C(=O)NCCCCCCNC(=O)c2ccc(-c3c4nc(c(-c5cc(S(=O)(=O)[O-])ccc5F)c5ccc([nH]5)c(-c5cc(S(=O)(=O)[O-])ccc5F)c5nc(c(-c6cc(S(=O)(=O)[O-])ccc6F)c6ccc3[nH]6)C=C5)C=C4)cc2)cc1F
REMARK SMILES IDX 24 1 23 2 22 3 21 4 19 5 20 6 17 8 18 9 16 10 13 11 14 12
REMARK SMILES IDX 95 13 15 14 94 15 96 16 12 17 4 18 5 19 6 20 8 21 7 22 3 23
REMARK SMILES IDX 2 24 1 25 9 26 10 27 11 28 25 29 26 30 27 31 28 32 29 33
REMARK SMILES IDX 30 35 31 36 32 37 93 38 33 39 92 40 34 41 35 42 36 43 86 44
REMARK SMILES IDX 37 45 91 46 85 47 87 48 38 49 90 50 84 51 83 52 39 54 71 55
REMARK SMILES IDX 51 56 70 57 52 58 55 59 69 60 88 61 53 62 54 63 68 65 89 66
REMARK SMILES IDX 56 67 40 68 41 69 49 70 42 71 48 72 50 73 47 74 43 75 44 76
REMARK SMILES IDX 45 77 46 78 72 79 73 80 81 81 74 82 80 83 82 84 79 85 75 86
REMARK SMILES IDX 76 87 77 88 78 89 57 90 58 91 66 92 59 93 65 94 67 95 64 96
REMARK SMILES IDX 60 97 61 98 62 99 63 100
REMARK H PARENT 21 7 28 34 87 53 55 64
REMARK Flexibility Score: inf
ROOT
ATOM      1  C   UNL A   1      32.716  27.095  23.045  1.00  0.00     0.002 C 
ENDROOT
BRANCH   1   2
ATOM      2  C   UNL A   1      31.364  26.639  22.500  1.00  0.00     0.021 C 
BRANCH   2   3
ATOM      3  C   UNL A   1      30.174  26.815  23.464  1.00  0.00     0.116 C 
BRANCH   3   4
ATOM      4  N   UNL A   1      30.621  26.953  24.843  1.00  0.00    -0.356 N 
ATOM      5  C   UNL A   1      30.765  26.094  25.891  1.00  0.00     0.227 C 
ATOM      6  O   UNL A   1      31.108  26.621  26.960  1.00  0.00    -0.274 OA
ATOM      7  H   UNL A   1      30.878  27.875  25.069  1.00  0.00     0.163 HD
BRANCH   5   8
ATOM      8  C   UNL A   1      30.546  24.565  25.845  1.00  0.00     0.105 C 
ATOM      9  C   UNL A   1      29.573  24.028  26.889  1.00  0.00     0.023 C 
BRANCH   8  10
ATOM     10  C   UNL A   1      31.829  23.757  25.744  1.00  0.00    -0.033 A 
ATOM     11  C   UNL A   1      34.143  22.137  25.393  1.00  0.00     0.025 A 
ATOM     12  C   UNL A   1      33.615  22.893  24.351  1.00  0.00     0.012 A 
ATOM     13  C   UNL A   1      33.478  22.193  26.624  1.00  0.00     0.131 A 
ATOM     14  C   UNL A   1      32.562  23.763  24.566  1.00  0.00     0.005 A 
ATOM     15  C   UNL A   1      32.315  22.965  26.792  1.00  0.00     0.044 A 
ATOM     16  F   UNL A   1      33.919  21.473  27.667  1.00  0.00    -0.206 F 
BRANCH  11  17
ATOM     17  C   UNL A   1      35.283  21.264  25.089  1.00  0.00     0.069 A 
ATOM     18  C   UNL A   1      36.580  21.843  25.163  1.00  0.00     0.130 A 
ATOM     19  C   UNL A   1      37.745  21.086  25.018  1.00  0.00     0.047 A 
ATOM     20  C   UNL A   1      37.647  19.718  24.820  1.00  0.00     0.008 A 
ATOM     21  C   UNL A   1      35.199  19.869  24.868  1.00  0.00     0.130 A 
ATOM     22  C   UNL A   1      36.388  19.125  24.734  1.00  0.00     0.047 A 
BRANCH  18  23
ATOM     23  O   UNL A   1      36.706  23.205  25.303  1.00  0.00    -0.493 OA
BRANCH  23  24
ATOM     24  C   UNL A   1      37.277  23.595  26.557  1.00  0.00     0.226 C 
ATOM     25  C   UNL A   1      38.512  24.443  26.297  1.00  0.00     0.049 C 
ENDBRANCH  23  24
ENDBRANCH  18  23
BRANCH  21  26
ATOM     26  O   UNL A   1      34.119  19.041  24.706  1.00  0.00    -0.493 OA
BRANCH  26  27
ATOM     27  C   UNL A   1      34.189  17.633  24.549  1.00  0.00     0.226 C 
ATOM     28  C   UNL A   1      33.202  16.925  25.469  1.00  0.00     0.049 C 
ENDBRANCH  26  27
ENDBRANCH  21  26
ENDBRANCH  11  17
ENDBRANCH   8  10
ENDBRANCH   5   8
ENDBRANCH   3   4
ENDBRANCH   2   3
ENDBRANCH   1   2
BRANCH   1  29
ATOM     29  C   UNL A   1      33.053  28.565  22.776  1.00  0.00     0.002 C 
BRANCH  29  30
ATOM     30  C   UNL A   1      33.822  29.287  23.889  1.00  0.00     0.021 C 
BRANCH  30  31
ATOM     31  C   UNL A   1      33.209  29.174  25.284  1.00  0.00     0.116 C 
BRANCH  31  32
ATOM     32  N   UNL A   1      32.706  30.455  25.757  1.00  0.00    -0.352 N 
ATOM     33  C   UNL A   1      33.090  31.196  26.843  1.00  0.00     0.251 C 
ATOM     34  H   UNL A   1      31.984  30.848  25.215  1.00  0.00     0.163 HD
ATOM     35  O   UNL A   1      32.365  32.120  27.231  1.00  0.00    -0.269 OA
BRANCH  33  36
ATOM     36  C   UNL A   1      34.349  30.895  27.555  1.00  0.00     0.039 A 
ATOM     37  C   UNL A   1      35.305  31.902  27.710  1.00  0.00     0.014 A 
ATOM     38  C   UNL A   1      34.604  29.608  28.041  1.00  0.00     0.014 A 
ATOM     39  C   UNL A   1      36.490  31.635  28.402  1.00  0.00     0.010 A 
ATOM     40  C   UNL A   1      35.753  29.362  28.788  1.00  0.00     0.010 A 
ATOM     41  C   UNL A   1      36.712  30.371  28.972  1.00  0.00    -0.014 A 
BRANCH  41  42
ATOM     42  C   UNL A   1      37.941  30.083  29.758  1.00  0.00     0.031 A 
ATOM     43  C   UNL A   1      38.965  29.114  29.231  1.00  0.00     0.074 A 
ATOM     44  C   UNL A   1      38.101  30.641  30.975  1.00  0.00     0.049 A 
ATOM     45  N   UNL A   1      40.057  28.670  29.799  1.00  0.00    -0.248 NA
ATOM     46  C   UNL A   1      38.709  28.547  27.898  1.00  0.00     0.031 C 
ATOM     47  C   UNL A   1      37.163  31.572  31.607  1.00  0.00     0.029 A 
ATOM     48  N   UNL A   1      39.106  30.505  31.900  1.00  0.00    -0.354 N 
ATOM     49  C   UNL A   1      40.608  27.759  28.903  1.00  0.00     0.074 A 
ATOM     50  C   UNL A   1      39.698  27.674  27.782  1.00  0.00     0.031 C 
ATOM     51  C   UNL A   1      37.650  31.942  32.802  1.00  0.00     0.029 A 
ATOM     52  C   UNL A   1      38.907  31.242  33.046  1.00  0.00     0.049 A 
ATOM     53  H   UNL A   1      39.894  29.933  31.758  1.00  0.00     0.167 HD
ATOM     54  C   UNL A   1      41.774  27.072  29.001  1.00  0.00     0.034 A 
ATOM     55  C   UNL A   1      39.646  31.334  34.169  1.00  0.00     0.034 A 
ATOM     56  C   UNL A   1      42.678  27.183  30.120  1.00  0.00     0.049 A 
ATOM     57  C   UNL A   1      40.925  30.538  34.266  1.00  0.00     0.074 A 
ATOM     58  C   UNL A   1      43.916  26.587  30.291  1.00  0.00     0.029 A 
ATOM     59  N   UNL A   1      42.438  27.930  31.267  1.00  0.00    -0.354 N 
ATOM     60  N   UNL A   1      41.459  29.721  33.388  1.00  0.00    -0.248 NA
ATOM     61  C   UNL A   1      41.701  30.683  35.503  1.00  0.00     0.031 C 
ATOM     62  C   UNL A   1      44.388  26.913  31.568  1.00  0.00     0.029 A 
ATOM     63  C   UNL A   1      43.486  27.781  32.163  1.00  0.00     0.049 A 
ATOM     64  H   UNL A   1      41.641  28.486  31.421  1.00  0.00     0.167 HD
ATOM     65  C   UNL A   1      42.654  29.285  33.953  1.00  0.00     0.074 A 
ATOM     66  C   UNL A   1      42.764  29.937  35.242  1.00  0.00     0.031 C 
ATOM     67  C   UNL A   1      43.579  28.428  33.450  1.00  0.00     0.034 A 
BRANCH  54  68
ATOM     68  C   UNL A   1      42.117  26.116  27.881  1.00  0.00     0.023 A 
ATOM     69  C   UNL A   1      41.744  24.761  27.920  1.00  0.00     0.031 A 
ATOM     70  C   UNL A   1      42.852  26.561  26.768  1.00  0.00     0.131 A 
ATOM     71  C   UNL A   1      42.176  23.884  26.913  1.00  0.00     0.055 A 
ATOM     72  C   UNL A   1      43.204  25.700  25.724  1.00  0.00     0.041 A 
ATOM     73  F   UNL A   1      43.256  27.837  26.680  1.00  0.00    -0.206 F 
ATOM     74  C   UNL A   1      42.880  24.350  25.802  1.00  0.00     0.022 A 
BRANCH  71  75
ATOM     75  S   UNL A   1      41.934  22.103  27.155  1.00  0.00     0.124 S 
ATOM     76  O   UNL A   1      42.845  21.830  28.265  1.00  0.00    -0.237 OA
ATOM     77  O   UNL A   1      40.511  22.014  27.459  1.00  0.00    -0.237 OA
ATOM     78  O   UNL A   1      42.338  21.525  25.874  1.00  0.00    -0.744 OA
ENDBRANCH  71  75
ENDBRANCH  54  68
BRANCH  55  79
ATOM     79  C   UNL A   1      39.208  32.207  35.295  1.00  0.00     0.023 A 
ATOM     80  C   UNL A   1      39.656  33.533  35.394  1.00  0.00     0.031 A 
ATOM     81  C   UNL A   1      38.369  31.716  36.312  1.00  0.00     0.131 A 
ATOM     82  C   UNL A   1      39.303  34.310  36.509  1.00  0.00     0.055 A 
ATOM     83  C   UNL A   1      37.977  32.510  37.391  1.00  0.00     0.041 A 
ATOM     84  F   UNL A   1      37.908  30.457  36.264  1.00  0.00    -0.206 F 
ATOM     85  C   UNL A   1      38.455  33.812  37.501  1.00  0.00     0.022 A 
BRANCH  82  86
ATOM     86  S   UNL A   1      40.039  35.958  36.685  1.00  0.00     0.124 S 
ATOM     87  O   UNL A   1      39.694  36.575  35.409  1.00  0.00    -0.237 OA
ATOM     88  O   UNL A   1      39.345  36.477  37.858  1.00  0.00    -0.237 OA
ATOM     89  O   UNL A   1      41.461  35.676  36.877  1.00  0.00    -0.744 OA
ENDBRANCH  82  86
ENDBRANCH  55  79
BRANCH  67  90
ATOM     90  C   UNL A   1      44.818  28.192  34.281  1.00  0.00     0.023 A 
ATOM     91  C   UNL A   1      44.910  27.123  35.190  1.00  0.00     0.031 A 
ATOM     92  C   UNL A   1      45.920  29.059  34.166  1.00  0.00     0.131 A 
ATOM     93  C   UNL A   1      46.055  26.982  35.990  1.00  0.00     0.055 A 
ATOM     94  C   UNL A   1      47.081  28.876  34.918  1.00  0.00     0.041 A 
ATOM     95  F   UNL A   1      45.886  30.098  33.317  1.00  0.00    -0.206 F 
ATOM     96  C   UNL A   1      47.148  27.840  35.846  1.00  0.00     0.022 A 
BRANCH  93  97
ATOM     97  S   UNL A   1      46.060  25.716  37.289  1.00  0.00     0.124 S 
ATOM     98  O   UNL A   1      46.284  24.495  36.521  1.00  0.00    -0.237 OA
ATOM     99  O   UNL A   1      47.165  26.146  38.140  1.00  0.00    -0.237 OA
ATOM    100  O   UNL A   1      44.733  25.837  37.890  1.00  0.00    -0.744 OA
ENDBRANCH  93  97
ENDBRANCH  67  90
ENDBRANCH  41  42
ENDBRANCH  33  36
ENDBRANCH  31  32
ENDBRANCH  30  31
ENDBRANCH  29  30
ENDBRANCH   1  29
TORSDOF 22
ENDMDL
MODEL 2
REMARK VINA RESULT:     -10.2      0.821      7.707
REMARK SMILES CCOc1cccc(OCC)c1-c1ccc([C@@H](C)C(=O)NCCCCCCNC(=O)c2ccc(-c3c4nc(c(-c5cc(S(=O)(=O)[O-])ccc5F)c5ccc([nH]5)c(-c5cc(S(=O)(=O)[O-])ccc5F)c5nc(c(-c6cc(S(=O)(=O)[O-])ccc6F)c6ccc3[nH]6)C=C5)C=C4)cc2)cc1F
REMARK SMILES IDX 24 1 23 2 22 3 21 4 19 5 20 6 17 8 18 9 16 10 13 11 14 12
REMARK SMILES IDX 95 13 15 14 94 15 96 16 12 17 4 18 5 19 6 20 8 21 7 22 3 23
REMARK SMILES IDX 2 24 1 25 9 26 10 27 11 28 25 29 26 30 27 31 28 32 29 33
REMARK SMILES IDX 30 35 31 36 32 37 93 38 33 39 92 40 34 41 35 42 36 43 86 44
REMARK SMILES IDX 37 45 91 46 85 47 87 48 38 49 90 50 84 51 83 52 39 54 71 55
REMARK SMILES IDX 51 56 70 57 52 58 55 59 69 60 88 61 53 62 54 63 68 65 89 66
REMARK SMILES IDX 56 67 40 68 41 69 49 70 42 71 48 72 50 73 47 74 43 75 44 76
REMARK SMILES IDX 45 77 46 78 72 79 73 80 81 81 74 82 80 83 82 84 79 85 75 86
REMARK SMILES IDX 76 87 77 88 78 89 57 90 58 91 66 92 59 93 65 94 67 95 64 96
REMARK SMILES IDX 60 97 61 98 62 99 63 100
REMARK H PARENT 21 7 28 34 87 53 55 64
REMARK Flexibility Score: inf
ROOT
ATOM      1  C   UNL A   1      32.276  27.420  22.286  1.00  0.00     0.002 C 
ENDROOT
BRANCH   1   2
ATOM      2  C   UNL A   1      30.877  27.928  22.628  1.00  0.00     0.021 C 
BRANCH   2   3
ATOM      3  C   UNL A   1      30.059  27.019  23.567  1.00  0.00     0.116 C 
BRANCH   3   4
ATOM      4  N   UNL A   1      30.547  27.093  24.938  1.00  0.00    -0.356 N 
ATOM      5  C   UNL A   1      30.645  26.204  25.965  1.00  0.00     0.227 C 
ATOM      6  O   UNL A   1      31.052  26.679  27.036  1.00  0.00    -0.274 OA
ATOM      7  H   UNL A   1      30.881  27.986  25.175  1.00  0.00     0.163 HD
BRANCH   5   8
ATOM      8  C   UNL A   1      30.305  24.697  25.895  1.00  0.00     0.105 C 
ATOM      9  C   UNL A   1      29.240  24.238  26.884  1.00  0.00     0.023 C 
BRANCH   8  10
ATOM     10  C   UNL A   1      31.520  23.788  25.851  1.00  0.00    -0.033 A 
ATOM     11  C   UNL A   1      33.688  21.954  25.639  1.00  0.00     0.025 A 
ATOM     12  C   UNL A   1      33.110  22.536  24.515  1.00  0.00     0.012 A 
ATOM     13  C   UNL A   1      33.148  22.297  26.884  1.00  0.00     0.131 A 
ATOM     14  C   UNL A   1      32.137  23.511  24.639  1.00  0.00     0.005 A 
ATOM     15  C   UNL A   1      32.055  23.175  26.992  1.00  0.00     0.044 A 
ATOM     16  F   UNL A   1      33.642  21.757  28.010  1.00  0.00    -0.206 F 
BRANCH  11  17
ATOM     17  C   UNL A   1      34.739  20.953  25.421  1.00  0.00     0.069 A 
ATOM     18  C   UNL A   1      34.323  19.650  25.034  1.00  0.00     0.130 A 
ATOM     19  C   UNL A   1      35.230  18.650  24.677  1.00  0.00     0.047 A 
ATOM     20  C   UNL A   1      36.587  18.935  24.672  1.00  0.00     0.008 A 
ATOM     21  C   UNL A   1      36.127  21.223  25.428  1.00  0.00     0.130 A 
ATOM     22  C   UNL A   1      37.024  20.202  25.055  1.00  0.00     0.047 A 
BRANCH  18  23
ATOM     23  O   UNL A   1      32.987  19.323  25.083  1.00  0.00    -0.493 OA
BRANCH  23  24
ATOM     24  C   UNL A   1      32.664  18.145  24.337  1.00  0.00     0.226 C 
ATOM     25  C   UNL A   1      32.291  18.542  22.918  1.00  0.00     0.049 C 
ENDBRANCH  23  24
ENDBRANCH  18  23
BRANCH  21  26
ATOM     26  O   UNL A   1      36.831  22.342  25.788  1.00  0.00    -0.493 OA
BRANCH  26  27
ATOM     27  C   UNL A   1      37.262  23.356  24.894  1.00  0.00     0.226 C 
ATOM     28  C   UNL A   1      36.683  23.148  23.501  1.00  0.00     0.049 C 
ENDBRANCH  26  27
ENDBRANCH  21  26
ENDBRANCH  11  17
ENDBRANCH   8  10
ENDBRANCH   5   8
ENDBRANCH   3   4
ENDBRANCH   2   3
ENDBRANCH   1   2
BRANCH   1  29
ATOM     29  C   UNL A   1      33.320  27.621  23.389  1.00  0.00     0.002 C 
BRANCH  29  30
ATOM     30  C   UNL A   1      33.407  29.036  23.974  1.00  0.00     0.021 C 
BRANCH  30  31
ATOM     31  C   UNL A   1      33.212  29.127  25.487  1.00  0.00     0.116 C 
BRANCH  31  32
ATOM     32  N   UNL A   1      32.892  30.483  25.908  1.00  0.00    -0.352 N 
ATOM     33  C   UNL A   1      33.419  31.227  26.930  1.00  0.00     0.251 C 
ATOM     34  H   UNL A   1      32.196  30.934  25.377  1.00  0.00     0.163 HD
ATOM     35  O   UNL A   1      32.832  32.252  27.297  1.00  0.00    -0.269 OA
BRANCH  33  36
ATOM     36  C   UNL A   1      34.668  30.810  27.601  1.00  0.00     0.039 A 
ATOM     37  C   UNL A   1      35.685  31.749  27.797  1.00  0.00     0.014 A 
ATOM     38  C   UNL A   1      34.852  29.484  28.007  1.00  0.00     0.014 A 
ATOM     39  C   UNL A   1      36.861  31.372  28.450  1.00  0.00     0.010 A 
ATOM     40  C   UNL A   1      35.996  29.127  28.717  1.00  0.00     0.010 A 
ATOM     41  C   UNL A   1      37.015  30.065  28.943  1.00  0.00    -0.014 A 
BRANCH  41  42
ATOM     42  C   UNL A   1      38.236  29.659  29.688  1.00  0.00     0.031 A 
ATOM     43  C   UNL A   1      38.516  30.235  31.051  1.00  0.00     0.074 A 
ATOM     44  C   UNL A   1      39.124  28.826  29.110  1.00  0.00     0.049 A 
ATOM     45  N   UNL A   1      39.560  30.070  31.822  1.00  0.00    -0.248 NA
ATOM     46  C   UNL A   1      37.498  31.139  31.603  1.00  0.00     0.031 C 
ATOM     47  C   UNL A   1      38.979  28.226  27.781  1.00  0.00     0.029 A 
ATOM     48  N   UNL A   1      40.327  28.341  29.562  1.00  0.00    -0.354 N 
ATOM     49  C   UNL A   1      39.334  30.864  32.942  1.00  0.00     0.074 A 
ATOM     50  C   UNL A   1      38.080  31.552  32.719  1.00  0.00     0.031 C 
ATOM     51  C   UNL A   1      40.036  27.436  27.538  1.00  0.00     0.029 A 
ATOM     52  C   UNL A   1      40.958  27.507  28.667  1.00  0.00     0.049 A 
ATOM     53  H   UNL A   1      40.703  28.570  30.442  1.00  0.00     0.167 HD
ATOM     54  C   UNL A   1      40.093  30.993  34.059  1.00  0.00     0.034 A 
ATOM     55  C   UNL A   1      42.149  26.880  28.743  1.00  0.00     0.034 A 
ATOM     56  C   UNL A   1      41.333  30.285  34.270  1.00  0.00     0.049 A 
ATOM     57  C   UNL A   1      42.989  27.062  29.983  1.00  0.00     0.074 A 
ATOM     58  C   UNL A   1      42.147  30.287  35.390  1.00  0.00     0.029 A 
ATOM     59  N   UNL A   1      41.947  29.457  33.339  1.00  0.00    -0.354 N 
ATOM     60  N   UNL A   1      42.737  27.774  31.056  1.00  0.00    -0.248 NA
ATOM     61  C   UNL A   1      44.271  26.347  30.023  1.00  0.00     0.031 C 
ATOM     62  C   UNL A   1      43.285  29.523  35.108  1.00  0.00     0.029 A 
ATOM     63  C   UNL A   1      43.146  28.974  33.843  1.00  0.00     0.049 A 
ATOM     64  H   UNL A   1      41.584  29.243  32.449  1.00  0.00     0.167 HD
ATOM     65  C   UNL A   1      43.812  27.562  31.914  1.00  0.00     0.074 A 
ATOM     66  C   UNL A   1      44.709  26.649  31.236  1.00  0.00     0.031 C 
ATOM     67  C   UNL A   1      44.036  28.072  33.153  1.00  0.00     0.034 A 
BRANCH  54  68
ATOM     68  C   UNL A   1      39.617  31.959  35.120  1.00  0.00     0.023 A 
ATOM     69  C   UNL A   1      40.089  33.282  35.184  1.00  0.00     0.031 A 
ATOM     70  C   UNL A   1      38.698  31.543  36.099  1.00  0.00     0.131 A 
ATOM     71  C   UNL A   1      39.705  34.114  36.248  1.00  0.00     0.055 A 
ATOM     72  C   UNL A   1      38.252  32.404  37.105  1.00  0.00     0.041 A 
ATOM     73  F   UNL A   1      38.226  30.287  36.104  1.00  0.00    -0.206 F 
ATOM     74  C   UNL A   1      38.769  33.692  37.194  1.00  0.00     0.022 A 
BRANCH  71  75
ATOM     75  S   UNL A   1      40.563  35.697  36.462  1.00  0.00     0.124 S 
ATOM     76  O   UNL A   1      41.855  35.419  35.837  1.00  0.00    -0.237 OA
ATOM     77  O   UNL A   1      39.696  36.627  35.749  1.00  0.00    -0.237 OA
ATOM     78  O   UNL A   1      40.608  35.869  37.913  1.00  0.00    -0.744 OA
ENDBRANCH  71  75
ENDBRANCH  54  68
BRANCH  55  79
ATOM     79  C   UNL A   1      42.628  26.024  27.620  1.00  0.00     0.023 A 
ATOM     80  C   UNL A   1      42.171  24.705  27.476  1.00  0.00     0.031 A 
ATOM     81  C   UNL A   1      43.580  26.496  26.700  1.00  0.00     0.131 A 
ATOM     82  C   UNL A   1      42.700  23.887  26.465  1.00  0.00     0.055 A 
ATOM     83  C   UNL A   1      44.064  25.695  25.663  1.00  0.00     0.041 A 
ATOM     84  F   UNL A   1      44.047  27.751  26.788  1.00  0.00    -0.206 F 
ATOM     85  C   UNL A   1      43.633  24.377  25.549  1.00  0.00     0.022 A 
BRANCH  82  86
ATOM     86  S   UNL A   1      42.210  22.141  26.418  1.00  0.00     0.124 S 
ATOM     87  O   UNL A   1      43.051  21.626  25.344  1.00  0.00    -0.237 OA
ATOM     88  O   UNL A   1      42.544  21.696  27.766  1.00  0.00    -0.237 OA
ATOM     89  O   UNL A   1      40.780  22.198  26.118  1.00  0.00    -0.744 OA
ENDBRANCH  82  86
ENDBRANCH  55  79
BRANCH  67  90
ATOM     90  C   UNL A   1      45.279  27.606  33.872  1.00  0.00     0.023 A 
ATOM     91  C   UNL A   1      45.278  26.465  34.694  1.00  0.00     0.031 A 
ATOM     92  C   UNL A   1      46.482  28.323  33.739  1.00  0.00     0.131 A 
ATOM     93  C   UNL A   1      46.441  26.108  35.396  1.00  0.00     0.055 A 
ATOM     94  C   UNL A   1      47.650  27.927  34.389  1.00  0.00     0.041 A 
ATOM     95  F   UNL A   1      46.540  29.423  32.971  1.00  0.00    -0.206 F 
ATOM     96  C   UNL A   1      47.631  26.821  35.234  1.00  0.00     0.022 A 
BRANCH  93  97
ATOM     97  S   UNL A   1      46.351  24.752  36.598  1.00  0.00     0.124 S 
ATOM     98  O   UNL A   1      45.220  25.157  37.427  1.00  0.00    -0.237 OA
ATOM     99  O   UNL A   1      46.131  23.590  35.743  1.00  0.00    -0.237 OA
ATOM    100  O   UNL A   1      47.653  24.795  37.261  1.00  0.00    -0.744 OA
ENDBRANCH  93  97
ENDBRANCH  67  90
ENDBRANCH  41  42
ENDBRANCH  33  36
ENDBRANCH  31  32
ENDBRANCH  30  31
ENDBRANCH  29  30
ENDBRANCH   1  29
TORSDOF 22
ENDMDL
MODEL 3
REMARK VINA RESULT:     -10.2      1.412      2.399
REMARK SMILES CCOc1cccc(OCC)c1-c1ccc([C@@H](C)C(=O)NCCCCCCNC(=O)c2ccc(-c3c4nc(c(-c5cc(S(=O)(=O)[O-])ccc5F)c5ccc([nH]5)c(-c5cc(S(=O)(=O)[O-])ccc5F)c5nc(c(-c6cc(S(=O)(=O)[O-])ccc6F)c6ccc3[nH]6)C=C5)C=C4)cc2)cc1F
REMARK SMILES IDX 24 1 23 2 22 3 21 4 19 5 20 6 17 8 18 9 16 10 13 11 14 12
REMARK SMILES IDX 95 13 15 14 94 15 96 16 12 17 4 18 5 19 6 20 8 21 7 22 3 23
REMARK SMILES IDX 2 24 1 25 9 26 10 27 11 28 25 29 26 30 27 31 28 32 29 33
REMARK SMILES IDX 30 35 31 36 32 37 93 38 33 39 92 40 34 41 35 42 36 43 86 44
REMARK SMILES IDX 37 45 91 46 85 47 87 48 38 49 90 50 84 51 83 52 39 54 71 55
REMARK SMILES IDX 51 56 70 57 52 58 55 59 69 60 88 61 53 62 54 63 68 65 89 66
REMARK SMILES IDX 56 67 40 68 41 69 49 70 42 71 48 72 50 73 47 74 43 75 44 76
REMARK SMILES IDX 45 77 46 78 72 79 73 80 81 81 74 82 80 83 82 84 79 85 75 86
REMARK SMILES IDX 76 87 77 88 78 89 57 90 58 91 66 92 59 93 65 94 67 95 64 96
REMARK SMILES IDX 60 97 61 98 62 99 63 100
REMARK H PARENT 21 7 28 34 87 53 55 64
REMARK Flexibility Score: inf
ROOT
ATOM      1  C   UNL A   1      32.282  27.410  22.246  1.00  0.00     0.002 C 
ENDROOT
BRANCH   1   2
ATOM      2  C   UNL A   1      30.898  27.946  22.608  1.00  0.00     0.021 C 
BRANCH   2   3
ATOM      3  C   UNL A   1      30.068  27.045  23.544  1.00  0.00     0.116 C 
BRANCH   3   4
ATOM      4  N   UNL A   1      30.552  27.114  24.916  1.00  0.00    -0.356 N 
ATOM      5  C   UNL A   1      30.637  26.225  25.944  1.00  0.00     0.227 C 
ATOM      6  O   UNL A   1      31.046  26.695  27.016  1.00  0.00    -0.274 OA
ATOM      7  H   UNL A   1      30.896  28.004  25.155  1.00  0.00     0.163 HD
BRANCH   5   8
ATOM      8  C   UNL A   1      30.279  24.722  25.874  1.00  0.00     0.105 C 
ATOM      9  C   UNL A   1      29.212  24.274  26.866  1.00  0.00     0.023 C 
BRANCH   8  10
ATOM     10  C   UNL A   1      31.484  23.799  25.826  1.00  0.00    -0.033 A 
ATOM     11  C   UNL A   1      33.631  21.942  25.603  1.00  0.00     0.025 A 
ATOM     12  C   UNL A   1      33.064  22.542  24.483  1.00  0.00     0.012 A 
ATOM     13  C   UNL A   1      33.090  22.279  26.850  1.00  0.00     0.131 A 
ATOM     14  C   UNL A   1      32.103  23.527  24.613  1.00  0.00     0.005 A 
ATOM     15  C   UNL A   1      32.008  23.168  26.962  1.00  0.00     0.044 A 
ATOM     16  F   UNL A   1      33.574  21.722  27.972  1.00  0.00    -0.206 F 
BRANCH  11  17
ATOM     17  C   UNL A   1      34.671  20.931  25.379  1.00  0.00     0.069 A 
ATOM     18  C   UNL A   1      34.241  19.633  24.992  1.00  0.00     0.130 A 
ATOM     19  C   UNL A   1      35.137  18.625  24.629  1.00  0.00     0.047 A 
ATOM     20  C   UNL A   1      36.496  18.896  24.618  1.00  0.00     0.008 A 
ATOM     21  C   UNL A   1      36.062  21.188  25.380  1.00  0.00     0.130 A 
ATOM     22  C   UNL A   1      36.948  20.158  25.002  1.00  0.00     0.047 A 
BRANCH  18  23
ATOM     23  O   UNL A   1      32.902  19.319  25.047  1.00  0.00    -0.493 OA
BRANCH  23  24
ATOM     24  C   UNL A   1      32.566  18.139  24.310  1.00  0.00     0.226 C 
ATOM     25  C   UNL A   1      32.155  18.534  22.900  1.00  0.00     0.049 C 
ENDBRANCH  23  24
ENDBRANCH  18  23
BRANCH  21  26
ATOM     26  O   UNL A   1      36.779  22.299  25.738  1.00  0.00    -0.493 OA
BRANCH  26  27
ATOM     27  C   UNL A   1      37.232  23.301  24.842  1.00  0.00     0.226 C 
ATOM     28  C   UNL A   1      36.647  23.102  23.449  1.00  0.00     0.049 C 
ENDBRANCH  26  27
ENDBRANCH  21  26
ENDBRANCH  11  17
ENDBRANCH   8  10
ENDBRANCH   5   8
ENDBRANCH   3   4
ENDBRANCH   2   3
ENDBRANCH   1   2
BRANCH   1  29
ATOM     29  C   UNL A   1      33.325  27.520  23.362  1.00  0.00     0.002 C 
BRANCH  29  30
ATOM     30  C   UNL A   1      33.499  28.914  23.976  1.00  0.00     0.021 C 
BRANCH  30  31
ATOM     31  C   UNL A   1      33.249  28.998  25.481  1.00  0.00     0.116 C 
BRANCH  31  32
ATOM     32  N   UNL A   1      32.785  30.319  25.877  1.00  0.00    -0.352 N 
ATOM     33  C   UNL A   1      33.206  31.120  26.905  1.00  0.00     0.251 C 
ATOM     34  H   UNL A   1      32.062  30.693  25.323  1.00  0.00     0.163 HD
ATOM     35  O   UNL A   1      32.511  32.085  27.244  1.00  0.00    -0.269 OA
BRANCH  33  36
ATOM     36  C   UNL A   1      34.471  30.835  27.614  1.00  0.00     0.039 A 
ATOM     37  C   UNL A   1      35.437  31.840  27.721  1.00  0.00     0.014 A 
ATOM     38  C   UNL A   1      34.722  29.565  28.145  1.00  0.00     0.014 A 
ATOM     39  C   UNL A   1      36.627  31.589  28.409  1.00  0.00     0.010 A 
ATOM     40  C   UNL A   1      35.878  29.338  28.887  1.00  0.00     0.010 A 
ATOM     41  C   UNL A   1      36.846  30.346  29.023  1.00  0.00    -0.014 A 
BRANCH  41  42
ATOM     42  C   UNL A   1      38.082  30.077  29.806  1.00  0.00     0.031 A 
ATOM     43  C   UNL A   1      39.137  29.153  29.258  1.00  0.00     0.074 A 
ATOM     44  C   UNL A   1      38.223  30.611  31.035  1.00  0.00     0.049 A 
ATOM     45  N   UNL A   1      40.242  28.730  29.818  1.00  0.00    -0.248 NA
ATOM     46  C   UNL A   1      38.901  28.611  27.912  1.00  0.00     0.031 C 
ATOM     47  C   UNL A   1      37.255  31.496  31.687  1.00  0.00     0.029 A 
ATOM     48  N   UNL A   1      39.230  30.484  31.960  1.00  0.00    -0.354 N 
ATOM     49  C   UNL A   1      40.822  27.858  28.903  1.00  0.00     0.074 A 
ATOM     50  C   UNL A   1      39.917  27.772  27.777  1.00  0.00     0.031 C 
ATOM     51  C   UNL A   1      37.727  31.854  32.892  1.00  0.00     0.029 A 
ATOM     52  C   UNL A   1      39.005  31.187  33.122  1.00  0.00     0.049 A 
ATOM     53  H   UNL A   1      40.035  29.940  31.807  1.00  0.00     0.167 HD
ATOM     54  C   UNL A   1      42.009  27.205  28.987  1.00  0.00     0.034 A 
ATOM     55  C   UNL A   1      39.739  31.275  34.249  1.00  0.00     0.034 A 
ATOM     56  C   UNL A   1      42.906  27.318  30.111  1.00  0.00     0.049 A 
ATOM     57  C   UNL A   1      41.042  30.516  34.330  1.00  0.00     0.074 A 
ATOM     58  C   UNL A   1      44.162  26.757  30.271  1.00  0.00     0.029 A 
ATOM     59  N   UNL A   1      42.641  28.030  31.274  1.00  0.00    -0.354 N 
ATOM     60  N   UNL A   1      41.603  29.738  33.435  1.00  0.00    -0.248 NA
ATOM     61  C   UNL A   1      41.811  30.657  35.573  1.00  0.00     0.031 C 
ATOM     62  C   UNL A   1      44.621  27.066  31.557  1.00  0.00     0.029 A 
ATOM     63  C   UNL A   1      43.692  27.891  32.170  1.00  0.00     0.049 A 
ATOM     64  H   UNL A   1      41.827  28.557  31.440  1.00  0.00     0.167 HD
ATOM     65  C   UNL A   1      42.809  29.326  33.993  1.00  0.00     0.074 A 
ATOM     66  C   UNL A   1      42.897  29.950  35.297  1.00  0.00     0.031 C 
ATOM     67  C   UNL A   1      43.762  28.510  33.472  1.00  0.00     0.034 A 
BRANCH  54  68
ATOM     68  C   UNL A   1      42.383  26.288  27.845  1.00  0.00     0.023 A 
ATOM     69  C   UNL A   1      41.963  24.946  27.801  1.00  0.00     0.031 A 
ATOM     70  C   UNL A   1      43.197  26.753  26.797  1.00  0.00     0.131 A 
ATOM     71  C   UNL A   1      42.422  24.099  26.781  1.00  0.00     0.055 A 
ATOM     72  C   UNL A   1      43.579  25.927  25.737  1.00  0.00     0.041 A 
ATOM     73  F   UNL A   1      43.648  28.017  26.791  1.00  0.00    -0.206 F 
ATOM     74  C   UNL A   1      43.205  24.587  25.734  1.00  0.00     0.022 A 
BRANCH  71  75
ATOM     75  S   UNL A   1      42.106  22.320  26.927  1.00  0.00     0.124 S 
ATOM     76  O   UNL A   1      41.954  22.165  28.372  1.00  0.00    -0.237 OA
ATOM     77  O   UNL A   1      40.895  22.146  26.134  1.00  0.00    -0.237 OA
ATOM     78  O   UNL A   1      43.312  21.711  26.368  1.00  0.00    -0.744 OA
ENDBRANCH  71  75
ENDBRANCH  54  68
BRANCH  55  79
ATOM     79  C   UNL A   1      39.272  32.106  35.395  1.00  0.00     0.023 A 
ATOM     80  C   UNL A   1      39.742  33.417  35.572  1.00  0.00     0.031 A 
ATOM     81  C   UNL A   1      38.381  31.590  36.353  1.00  0.00     0.131 A 
ATOM     82  C   UNL A   1      39.359  34.151  36.706  1.00  0.00     0.055 A 
ATOM     83  C   UNL A   1      37.960  32.344  37.450  1.00  0.00     0.041 A 
ATOM     84  F   UNL A   1      37.896  30.345  36.229  1.00  0.00    -0.206 F 
ATOM     85  C   UNL A   1      38.460  33.629  37.638  1.00  0.00     0.022 A 
BRANCH  82  86
ATOM     86  S   UNL A   1      40.120  35.773  36.985  1.00  0.00     0.124 S 
ATOM     87  O   UNL A   1      39.554  36.149  38.276  1.00  0.00    -0.237 OA
ATOM     88  O   UNL A   1      41.542  35.446  36.978  1.00  0.00    -0.237 OA
ATOM     89  O   UNL A   1      39.659  36.565  35.847  1.00  0.00    -0.744 OA
ENDBRANCH  82  86
ENDBRANCH  55  79
BRANCH  67  90
ATOM     90  C   UNL A   1      45.006  28.293  34.300  1.00  0.00     0.023 A 
ATOM     91  C   UNL A   1      46.129  29.132  34.189  1.00  0.00     0.031 A 
ATOM     92  C   UNL A   1      45.070  27.220  35.208  1.00  0.00     0.131 A 
ATOM     93  C   UNL A   1      47.288  28.851  34.930  1.00  0.00     0.055 A 
ATOM     94  C   UNL A   1      46.202  26.984  35.989  1.00  0.00     0.041 A 
ATOM     95  F   UNL A   1      44.029  26.384  35.352  1.00  0.00    -0.206 F 
ATOM     96  C   UNL A   1      47.325  27.794  35.843  1.00  0.00     0.022 A 
BRANCH  93  97
ATOM     97  S   UNL A   1      48.781  29.831  34.617  1.00  0.00     0.124 S 
ATOM     98  O   UNL A   1      48.925  29.710  33.169  1.00  0.00    -0.237 OA
ATOM     99  O   UNL A   1      48.399  31.150  35.111  1.00  0.00    -0.237 OA
ATOM    100  O   UNL A   1      49.810  29.150  35.402  1.00  0.00    -0.744 OA
ENDBRANCH  93  97
ENDBRANCH  67  90
ENDBRANCH  41  42
ENDBRANCH  33  36
ENDBRANCH  31  32
ENDBRANCH  30  31
ENDBRANCH  29  30
ENDBRANCH   1  29
TORSDOF 22
ENDMDL
