MODEL 1
REMARK VINA RESULT:     -12.8      0.000      0.000
REMARK SMILES Cc1cccc(OCC(=O)Nc2cc(C(=O)NCCCCCCNC(=O)c3ccc(-c4c5nc(c(-c6cc(S(=O)(=O)[O-])ccc6F)c6ccc([nH]6)c(-c6cc(S(=O)(=O)[O-])ccc6F)c6nc(c(-c7cc(S(=O)(=O)[O-])ccc7F)c7ccc4[nH]7)C=C6)C=C5)cc3)c(Cl)cc2Cl)c1
REMARK SMILES IDX 20 1 19 2 18 3 17 4 15 5 16 6 14 8 12 9 13 10 93 11 92 12
REMARK SMILES IDX 94 13 90 14 91 15 11 16 9 17 10 18 8 20 7 21 6 22 1 23 2 24
REMARK SMILES IDX 3 25 95 26 4 27 5 28 21 29 22 30 23 31 24 32 25 33 26 35
REMARK SMILES IDX 27 36 28 37 89 38 29 39 88 40 30 41 31 42 32 43 82 44 33 45
REMARK SMILES IDX 87 46 81 47 83 48 34 49 86 50 80 51 79 52 35 54 67 55 47 56
REMARK SMILES IDX 66 57 48 58 51 59 65 60 84 61 49 62 50 63 64 65 85 66 52 67
REMARK SMILES IDX 36 68 37 69 45 70 38 71 44 72 46 73 43 74 39 75 40 76 41 77
REMARK SMILES IDX 42 78 68 79 69 80 77 81 70 82 76 83 78 84 75 85 71 86 72 87
REMARK SMILES IDX 73 88 74 89 53 90 54 91 62 92 55 93 61 94 63 95 60 96 56 97
REMARK SMILES IDX 57 98 58 99 59 100
REMARK H PARENT 17 7 11 19 24 34 83 53 51 64
REMARK Flexibility Score: inf
ROOT
ATOM      1  C   UNL A   1      32.136  29.459  25.468  1.00  0.00     0.002 C 
ENDROOT
BRANCH   1   2
ATOM      2  C   UNL A   1      33.393  29.194  24.614  1.00  0.00     0.021 C 
BRANCH   2   3
ATOM      3  C   UNL A   1      33.340  29.187  23.087  1.00  0.00     0.116 C 
BRANCH   3   4
ATOM      4  N   UNL A   1      33.828  27.991  22.435  1.00  0.00    -0.352 N 
ATOM      5  C   UNL A   1      33.368  26.694  22.515  1.00  0.00     0.252 C 
ATOM      6  O   UNL A   1      33.803  25.867  21.715  1.00  0.00    -0.269 OA
ATOM      7  H   UNL A   1      34.606  28.124  21.847  1.00  0.00     0.163 HD
BRANCH   5   8
ATOM      8  C   UNL A   1      32.362  26.249  23.528  1.00  0.00     0.060 A 
ATOM      9  C   UNL A   1      31.795  25.083  25.613  1.00  0.00     0.061 A 
ATOM     10  C   UNL A   1      32.740  25.477  24.655  1.00  0.00     0.043 A 
ATOM     11  C   UNL A   1      30.466  25.539  25.462  1.00  0.00     0.066 A 
ATOM     12  C   UNL A   1      30.089  26.338  24.387  1.00  0.00     0.044 A 
ATOM     13  Cl  UNL A   1      29.245  25.152  26.633  1.00  0.00    -0.082 Cl
ATOM     14  C   UNL A   1      31.027  26.681  23.412  1.00  0.00     0.055 A 
ATOM     15  Cl  UNL A   1      30.424  27.611  22.082  1.00  0.00    -0.083 Cl
BRANCH   9  16
ATOM     16  N   UNL A   1      32.036  24.232  26.713  1.00  0.00    -0.322 N 
ATOM     17  C   UNL A   1      32.411  22.941  26.914  1.00  0.00     0.262 C 
ATOM     18  O   UNL A   1      32.478  22.559  28.090  1.00  0.00    -0.271 OA
ATOM     19  H   UNL A   1      31.892  24.700  27.567  1.00  0.00     0.170 HD
BRANCH  17  20
ATOM     20  C   UNL A   1      32.850  22.007  25.791  1.00  0.00     0.329 C 
BRANCH  20  21
ATOM     21  O   UNL A   1      33.736  22.504  24.808  1.00  0.00    -0.484 OA
BRANCH  21  22
ATOM     22  C   UNL A   1      35.066  22.241  24.974  1.00  0.00     0.120 A 
ATOM     23  C   UNL A   1      37.793  19.593  24.969  1.00  0.00     0.044 C 
ATOM     24  C   UNL A   1      37.090  20.915  25.004  1.00  0.00    -0.047 A 
ATOM     25  C   UNL A   1      37.836  22.063  25.296  1.00  0.00     0.003 A 
ATOM     26  C   UNL A   1      35.697  21.010  24.832  1.00  0.00     0.049 A 
ATOM     27  C   UNL A   1      37.201  23.276  25.505  1.00  0.00     0.004 A 
ATOM     28  C   UNL A   1      35.825  23.340  25.365  1.00  0.00     0.046 A 
ENDBRANCH  21  22
ENDBRANCH  20  21
ENDBRANCH  17  20
ENDBRANCH   9  16
ENDBRANCH   5   8
ENDBRANCH   3   4
ENDBRANCH   2   3
ENDBRANCH   1   2
BRANCH   1  29
ATOM     29  C   UNL A   1      32.198  29.790  26.966  1.00  0.00     0.002 C 
BRANCH  29  30
ATOM     30  C   UNL A   1      32.995  31.016  27.435  1.00  0.00     0.021 C 
BRANCH  30  31
ATOM     31  C   UNL A   1      34.529  30.895  27.433  1.00  0.00     0.116 C 
BRANCH  31  32
ATOM     32  N   UNL A   1      35.176  31.648  28.518  1.00  0.00    -0.352 N 
ATOM     33  C   UNL A   1      36.284  31.321  29.291  1.00  0.00     0.251 C 
ATOM     34  H   UNL A   1      34.762  32.516  28.728  1.00  0.00     0.163 HD
ATOM     35  O   UNL A   1      36.735  32.066  30.138  1.00  0.00    -0.269 OA
BRANCH  33  36
ATOM     36  C   UNL A   1      36.984  30.051  28.998  1.00  0.00     0.039 A 
ATOM     37  C   UNL A   1      37.101  29.111  30.028  1.00  0.00     0.014 A 
ATOM     38  C   UNL A   1      37.697  29.908  27.816  1.00  0.00     0.014 A 
ATOM     39  C   UNL A   1      38.136  28.178  29.984  1.00  0.00     0.010 A 
ATOM     40  C   UNL A   1      38.753  29.019  27.802  1.00  0.00     0.010 A 
ATOM     41  C   UNL A   1      39.034  28.227  28.921  1.00  0.00    -0.014 A 
BRANCH  41  42
ATOM     42  C   UNL A   1      40.388  27.678  28.986  1.00  0.00     0.031 A 
ATOM     43  C   UNL A   1      40.697  26.304  28.552  1.00  0.00     0.074 A 
ATOM     44  C   UNL A   1      41.402  28.484  29.373  1.00  0.00     0.049 A 
ATOM     45  N   UNL A   1      41.722  25.628  28.953  1.00  0.00    -0.248 NA
ATOM     46  C   UNL A   1      39.838  25.560  27.645  1.00  0.00     0.031 C 
ATOM     47  C   UNL A   1      42.837  28.242  29.242  1.00  0.00     0.029 A 
ATOM     48  N   UNL A   1      41.316  29.589  30.209  1.00  0.00    -0.354 N 
ATOM     49  C   UNL A   1      41.825  24.507  28.162  1.00  0.00     0.074 A 
ATOM     50  C   UNL A   1      40.585  24.474  27.419  1.00  0.00     0.031 C 
ATOM     51  C   UNL A   1      43.487  28.985  30.151  1.00  0.00     0.029 A 
ATOM     52  C   UNL A   1      42.484  29.620  30.985  1.00  0.00     0.049 A 
ATOM     53  H   UNL A   1      40.573  30.233  30.249  1.00  0.00     0.167 HD
ATOM     54  C   UNL A   1      43.004  23.818  28.125  1.00  0.00     0.034 A 
ATOM     55  C   UNL A   1      42.422  29.531  32.346  1.00  0.00     0.034 A 
ATOM     56  C   UNL A   1      43.988  24.367  29.063  1.00  0.00     0.049 A 
ATOM     57  C   UNL A   1      43.168  28.346  32.914  1.00  0.00     0.074 A 
ATOM     58  C   UNL A   1      45.109  25.167  28.898  1.00  0.00     0.029 A 
ATOM     59  N   UNL A   1      43.744  24.321  30.433  1.00  0.00    -0.354 N 
ATOM     60  N   UNL A   1      43.552  27.311  32.221  1.00  0.00    -0.248 NA
ATOM     61  C   UNL A   1      43.522  28.238  34.324  1.00  0.00     0.031 C 
ATOM     62  C   UNL A   1      45.517  25.627  30.177  1.00  0.00     0.029 A 
ATOM     63  C   UNL A   1      44.659  25.093  31.124  1.00  0.00     0.049 A 
ATOM     64  H   UNL A   1      43.017  23.806  30.854  1.00  0.00     0.167 HD
ATOM     65  C   UNL A   1      44.164  26.399  33.050  1.00  0.00     0.074 A 
ATOM     66  C   UNL A   1      44.145  27.048  34.350  1.00  0.00     0.031 C 
ATOM     67  C   UNL A   1      44.612  25.191  32.581  1.00  0.00     0.034 A 
BRANCH  54  68
ATOM     68  C   UNL A   1      43.380  22.834  27.028  1.00  0.00     0.023 A 
ATOM     69  C   UNL A   1      42.816  21.538  27.036  1.00  0.00     0.031 A 
ATOM     70  C   UNL A   1      44.303  23.072  25.993  1.00  0.00     0.131 A 
ATOM     71  C   UNL A   1      43.252  20.535  26.147  1.00  0.00     0.055 A 
ATOM     72  C   UNL A   1      44.784  22.061  25.147  1.00  0.00     0.041 A 
ATOM     73  F   UNL A   1      44.737  24.304  25.703  1.00  0.00    -0.206 F 
ATOM     74  C   UNL A   1      44.270  20.777  25.232  1.00  0.00     0.022 A 
BRANCH  71  75
ATOM     75  S   UNL A   1      42.467  18.899  26.200  1.00  0.00     0.124 S 
ATOM     76  O   UNL A   1      42.580  18.546  27.612  1.00  0.00    -0.237 OA
ATOM     77  O   UNL A   1      41.123  19.186  25.710  1.00  0.00    -0.237 OA
ATOM     78  O   UNL A   1      43.292  18.098  25.298  1.00  0.00    -0.744 OA
ENDBRANCH  71  75
ENDBRANCH  54  68
BRANCH  55  79
ATOM     79  C   UNL A   1      41.179  30.128  32.918  1.00  0.00     0.023 A 
ATOM     80  C   UNL A   1      41.073  31.534  32.886  1.00  0.00     0.031 A 
ATOM     81  C   UNL A   1      40.004  29.384  33.088  1.00  0.00     0.131 A 
ATOM     82  C   UNL A   1      39.815  32.148  32.839  1.00  0.00     0.055 A 
ATOM     83  C   UNL A   1      38.751  30.008  33.120  1.00  0.00     0.041 A 
ATOM     84  F   UNL A   1      40.037  28.043  33.094  1.00  0.00    -0.206 F 
ATOM     85  C   UNL A   1      38.648  31.391  32.946  1.00  0.00     0.022 A 
BRANCH  82  86
ATOM     86  S   UNL A   1      39.722  33.895  32.340  1.00  0.00     0.124 S 
ATOM     87  O   UNL A   1      40.149  33.838  30.947  1.00  0.00    -0.237 OA
ATOM     88  O   UNL A   1      38.315  34.220  32.560  1.00  0.00    -0.237 OA
ATOM     89  O   UNL A   1      40.640  34.564  33.257  1.00  0.00    -0.744 OA
ENDBRANCH  82  86
ENDBRANCH  55  79
BRANCH  67  90
ATOM     90  C   UNL A   1      45.128  24.023  33.414  1.00  0.00     0.023 A 
ATOM     91  C   UNL A   1      46.421  23.947  33.950  1.00  0.00     0.031 A 
ATOM     92  C   UNL A   1      44.283  22.931  33.745  1.00  0.00     0.131 A 
ATOM     93  C   UNL A   1      46.854  22.829  34.693  1.00  0.00     0.055 A 
ATOM     94  C   UNL A   1      44.692  21.850  34.536  1.00  0.00     0.041 A 
ATOM     95  F   UNL A   1      43.008  22.867  33.332  1.00  0.00    -0.206 F 
ATOM     96  C   UNL A   1      45.992  21.786  35.005  1.00  0.00     0.022 A 
BRANCH  93  97
ATOM     97  S   UNL A   1      48.593  22.760  35.203  1.00  0.00     0.124 S 
ATOM     98  O   UNL A   1      48.659  23.830  36.195  1.00  0.00    -0.237 OA
ATOM     99  O   UNL A   1      48.710  21.404  35.730  1.00  0.00    -0.237 OA
ATOM    100  O   UNL A   1      49.328  23.013  33.966  1.00  0.00    -0.744 OA
ENDBRANCH  93  97
ENDBRANCH  67  90
ENDBRANCH  41  42
ENDBRANCH  33  36
ENDBRANCH  31  32
ENDBRANCH  30  31
ENDBRANCH  29  30
ENDBRANCH   1  29
TORSDOF 20
ENDMDL
MODEL 2
REMARK VINA RESULT:     -12.6      1.560      3.991
REMARK SMILES Cc1cccc(OCC(=O)Nc2cc(C(=O)NCCCCCCNC(=O)c3ccc(-c4c5nc(c(-c6cc(S(=O)(=O)[O-])ccc6F)c6ccc([nH]6)c(-c6cc(S(=O)(=O)[O-])ccc6F)c6nc(c(-c7cc(S(=O)(=O)[O-])ccc7F)c7ccc4[nH]7)C=C6)C=C5)cc3)c(Cl)cc2Cl)c1
REMARK SMILES IDX 20 1 19 2 18 3 17 4 15 5 16 6 14 8 12 9 13 10 93 11 92 12
REMARK SMILES IDX 94 13 90 14 91 15 11 16 9 17 10 18 8 20 7 21 6 22 1 23 2 24
REMARK SMILES IDX 3 25 95 26 4 27 5 28 21 29 22 30 23 31 24 32 25 33 26 35
REMARK SMILES IDX 27 36 28 37 89 38 29 39 88 40 30 41 31 42 32 43 82 44 33 45
REMARK SMILES IDX 87 46 81 47 83 48 34 49 86 50 80 51 79 52 35 54 67 55 47 56
REMARK SMILES IDX 66 57 48 58 51 59 65 60 84 61 49 62 50 63 64 65 85 66 52 67
REMARK SMILES IDX 36 68 37 69 45 70 38 71 44 72 46 73 43 74 39 75 40 76 41 77
REMARK SMILES IDX 42 78 68 79 69 80 77 81 70 82 76 83 78 84 75 85 71 86 72 87
REMARK SMILES IDX 73 88 74 89 53 90 54 91 62 92 55 93 61 94 63 95 60 96 56 97
REMARK SMILES IDX 57 98 58 99 59 100
REMARK H PARENT 17 7 11 19 24 34 83 53 51 64
REMARK Flexibility Score: inf
ROOT
ATOM      1  C   UNL A   1      32.411  28.799  25.807  1.00  0.00     0.002 C 
ENDROOT
BRANCH   1   2
ATOM      2  C   UNL A   1      31.918  27.541  26.552  1.00  0.00     0.021 C 
BRANCH   2   3
ATOM      3  C   UNL A   1      30.777  26.682  26.009  1.00  0.00     0.116 C 
BRANCH   3   4
ATOM      4  N   UNL A   1      30.529  25.436  26.703  1.00  0.00    -0.352 N 
ATOM      5  C   UNL A   1      31.255  24.265  26.697  1.00  0.00     0.252 C 
ATOM      6  O   UNL A   1      30.976  23.397  27.523  1.00  0.00    -0.269 OA
ATOM      7  H   UNL A   1      29.720  25.425  27.263  1.00  0.00     0.163 HD
BRANCH   5   8
ATOM      8  C   UNL A   1      32.368  24.002  25.733  1.00  0.00     0.060 A 
ATOM      9  C   UNL A   1      33.433  24.348  23.548  1.00  0.00     0.061 A 
ATOM     10  C   UNL A   1      32.375  24.580  24.438  1.00  0.00     0.043 A 
ATOM     11  C   UNL A   1      34.530  23.583  24.005  1.00  0.00     0.066 A 
ATOM     12  C   UNL A   1      34.561  23.051  25.290  1.00  0.00     0.044 A 
ATOM     13  Cl  UNL A   1      35.911  23.300  22.992  1.00  0.00    -0.082 Cl
ATOM     14  C   UNL A   1      33.479  23.243  26.149  1.00  0.00     0.055 A 
ATOM     15  Cl  UNL A   1      33.595  22.468  27.692  1.00  0.00    -0.083 Cl
BRANCH   9  16
ATOM     16  N   UNL A   1      33.497  24.782  22.206  1.00  0.00    -0.322 N 
ATOM     17  C   UNL A   1      32.724  25.502  21.351  1.00  0.00     0.262 C 
ATOM     18  O   UNL A   1      33.148  25.633  20.195  1.00  0.00    -0.271 OA
ATOM     19  H   UNL A   1      34.327  24.481  21.771  1.00  0.00     0.170 HD
BRANCH  17  20
ATOM     20  C   UNL A   1      31.452  26.230  21.776  1.00  0.00     0.329 C 
BRANCH  20  21
ATOM     21  O   UNL A   1      31.574  27.490  22.406  1.00  0.00    -0.484 OA
BRANCH  21  22
ATOM     22  C   UNL A   1      30.443  28.251  22.506  1.00  0.00     0.120 A 
ATOM     23  C   UNL A   1      28.868  31.665  21.948  1.00  0.00     0.044 C 
ATOM     24  C   UNL A   1      29.045  30.209  22.253  1.00  0.00    -0.047 A 
ATOM     25  C   UNL A   1      27.955  29.494  22.763  1.00  0.00     0.003 A 
ATOM     26  C   UNL A   1      30.294  29.577  22.115  1.00  0.00     0.049 A 
ATOM     27  C   UNL A   1      28.119  28.195  23.216  1.00  0.00     0.004 A 
ATOM     28  C   UNL A   1      29.366  27.604  23.103  1.00  0.00     0.046 A 
ENDBRANCH  21  22
ENDBRANCH  20  21
ENDBRANCH  17  20
ENDBRANCH   9  16
ENDBRANCH   5   8
ENDBRANCH   3   4
ENDBRANCH   2   3
ENDBRANCH   1   2
BRANCH   1  29
ATOM     29  C   UNL A   1      32.017  30.223  26.223  1.00  0.00     0.002 C 
BRANCH  29  30
ATOM     30  C   UNL A   1      32.782  30.918  27.359  1.00  0.00     0.021 C 
BRANCH  30  31
ATOM     31  C   UNL A   1      34.308  30.721  27.396  1.00  0.00     0.116 C 
BRANCH  31  32
ATOM     32  N   UNL A   1      34.983  31.574  28.386  1.00  0.00    -0.352 N 
ATOM     33  C   UNL A   1      36.122  31.328  29.144  1.00  0.00     0.251 C 
ATOM     34  H   UNL A   1      34.565  32.453  28.534  1.00  0.00     0.163 HD
ATOM     35  O   UNL A   1      36.592  32.151  29.905  1.00  0.00    -0.269 OA
BRANCH  33  36
ATOM     36  C   UNL A   1      36.828  30.044  28.940  1.00  0.00     0.039 A 
ATOM     37  C   UNL A   1      37.008  29.208  30.048  1.00  0.00     0.014 A 
ATOM     38  C   UNL A   1      37.486  29.797  27.744  1.00  0.00     0.014 A 
ATOM     39  C   UNL A   1      38.054  28.288  30.043  1.00  0.00     0.010 A 
ATOM     40  C   UNL A   1      38.556  28.924  27.764  1.00  0.00     0.010 A 
ATOM     41  C   UNL A   1      38.901  28.245  28.938  1.00  0.00    -0.014 A 
BRANCH  41  42
ATOM     42  C   UNL A   1      40.265  27.721  28.990  1.00  0.00     0.031 A 
ATOM     43  C   UNL A   1      40.593  26.349  28.562  1.00  0.00     0.074 A 
ATOM     44  C   UNL A   1      41.270  28.547  29.357  1.00  0.00     0.049 A 
ATOM     45  N   UNL A   1      41.635  25.695  28.956  1.00  0.00    -0.248 NA
ATOM     46  C   UNL A   1      39.736  25.583  27.672  1.00  0.00     0.031 C 
ATOM     47  C   UNL A   1      42.707  28.330  29.210  1.00  0.00     0.029 A 
ATOM     48  N   UNL A   1      41.174  29.658  30.187  1.00  0.00    -0.354 N 
ATOM     49  C   UNL A   1      41.748  24.570  28.171  1.00  0.00     0.074 A 
ATOM     50  C   UNL A   1      40.499  24.509  27.445  1.00  0.00     0.031 C 
ATOM     51  C   UNL A   1      43.355  29.092  30.105  1.00  0.00     0.029 A 
ATOM     52  C   UNL A   1      42.351  29.715  30.948  1.00  0.00     0.049 A 
ATOM     53  H   UNL A   1      40.420  30.289  30.231  1.00  0.00     0.167 HD
ATOM     54  C   UNL A   1      42.939  23.901  28.124  1.00  0.00     0.034 A 
ATOM     55  C   UNL A   1      42.308  29.636  32.310  1.00  0.00     0.034 A 
ATOM     56  C   UNL A   1      43.924  24.475  29.046  1.00  0.00     0.049 A 
ATOM     57  C   UNL A   1      43.082  28.469  32.877  1.00  0.00     0.074 A 
ATOM     58  C   UNL A   1      45.028  25.293  28.860  1.00  0.00     0.029 A 
ATOM     59  N   UNL A   1      43.698  24.435  30.419  1.00  0.00    -0.354 N 
ATOM     60  N   UNL A   1      43.476  27.435  32.187  1.00  0.00    -0.248 NA
ATOM     61  C   UNL A   1      43.456  28.378  34.283  1.00  0.00     0.031 C 
ATOM     62  C   UNL A   1      45.444  25.770  30.130  1.00  0.00     0.029 A 
ATOM     63  C   UNL A   1      44.609  25.229  31.092  1.00  0.00     0.049 A 
ATOM     64  H   UNL A   1      42.986  23.911  30.853  1.00  0.00     0.167 HD
ATOM     65  C   UNL A   1      44.114  26.541  33.015  1.00  0.00     0.074 A 
ATOM     66  C   UNL A   1      44.100  27.199  34.310  1.00  0.00     0.031 C 
ATOM     67  C   UNL A   1      44.578  25.337  32.549  1.00  0.00     0.034 A 
BRANCH  54  68
ATOM     68  C   UNL A   1      43.318  22.916  27.030  1.00  0.00     0.023 A 
ATOM     69  C   UNL A   1      42.753  21.620  27.038  1.00  0.00     0.031 A 
ATOM     70  C   UNL A   1      44.245  23.152  25.998  1.00  0.00     0.131 A 
ATOM     71  C   UNL A   1      43.192  20.615  26.152  1.00  0.00     0.055 A 
ATOM     72  C   UNL A   1      44.729  22.140  25.156  1.00  0.00     0.041 A 
ATOM     73  F   UNL A   1      44.681  24.383  25.709  1.00  0.00    -0.206 F 
ATOM     74  C   UNL A   1      44.214  20.856  25.240  1.00  0.00     0.022 A 
BRANCH  71  75
ATOM     75  S   UNL A   1      42.406  18.980  26.205  1.00  0.00     0.124 S 
ATOM     76  O   UNL A   1      43.251  18.200  25.307  1.00  0.00    -0.237 OA
ATOM     77  O   UNL A   1      42.485  18.646  27.623  1.00  0.00    -0.237 OA
ATOM     78  O   UNL A   1      41.055  19.237  25.709  1.00  0.00    -0.744 OA
ENDBRANCH  71  75
ENDBRANCH  54  68
BRANCH  55  79
ATOM     79  C   UNL A   1      41.062  30.215  32.893  1.00  0.00     0.023 A 
ATOM     80  C   UNL A   1      40.976  31.622  32.945  1.00  0.00     0.031 A 
ATOM     81  C   UNL A   1      39.874  29.480  32.995  1.00  0.00     0.131 A 
ATOM     82  C   UNL A   1      39.728  32.256  32.911  1.00  0.00     0.055 A 
ATOM     83  C   UNL A   1      38.629  30.119  33.040  1.00  0.00     0.041 A 
ATOM     84  F   UNL A   1      39.889  28.141  32.919  1.00  0.00    -0.206 F 
ATOM     85  C   UNL A   1      38.548  31.511  32.949  1.00  0.00     0.022 A 
BRANCH  82  86
ATOM     86  S   UNL A   1      39.669  34.031  32.518  1.00  0.00     0.124 S 
ATOM     87  O   UNL A   1      38.422  34.138  31.770  1.00  0.00    -0.237 OA
ATOM     88  O   UNL A   1      39.672  34.655  33.839  1.00  0.00    -0.237 OA
ATOM     89  O   UNL A   1      40.890  34.254  31.749  1.00  0.00    -0.744 OA
ENDBRANCH  82  86
ENDBRANCH  55  79
BRANCH  67  90
ATOM     90  C   UNL A   1      45.125  24.185  33.385  1.00  0.00     0.023 A 
ATOM     91  C   UNL A   1      46.437  24.119  33.875  1.00  0.00     0.031 A 
ATOM     92  C   UNL A   1      44.294  23.099  33.766  1.00  0.00     0.131 A 
ATOM     93  C   UNL A   1      46.898  23.016  34.622  1.00  0.00     0.055 A 
ATOM     94  C   UNL A   1      44.733  22.033  34.561  1.00  0.00     0.041 A 
ATOM     95  F   UNL A   1      43.005  23.027  33.401  1.00  0.00    -0.206 F 
ATOM     96  C   UNL A   1      46.049  21.978  34.984  1.00  0.00     0.022 A 
BRANCH  93  97
ATOM     97  S   UNL A   1      48.654  22.957  35.069  1.00  0.00     0.124 S 
ATOM     98  O   UNL A   1      49.127  24.258  34.605  1.00  0.00    -0.237 OA
ATOM     99  O   UNL A   1      48.601  22.785  36.518  1.00  0.00    -0.237 OA
ATOM    100  O   UNL A   1      49.164  21.808  34.325  1.00  0.00    -0.744 OA
ENDBRANCH  93  97
ENDBRANCH  67  90
ENDBRANCH  41  42
ENDBRANCH  33  36
ENDBRANCH  31  32
ENDBRANCH  30  31
ENDBRANCH  29  30
ENDBRANCH   1  29
TORSDOF 20
ENDMDL
MODEL 3
REMARK VINA RESULT:     -12.4      2.819      3.953
REMARK SMILES Cc1cccc(OCC(=O)Nc2cc(C(=O)NCCCCCCNC(=O)c3ccc(-c4c5nc(c(-c6cc(S(=O)(=O)[O-])ccc6F)c6ccc([nH]6)c(-c6cc(S(=O)(=O)[O-])ccc6F)c6nc(c(-c7cc(S(=O)(=O)[O-])ccc7F)c7ccc4[nH]7)C=C6)C=C5)cc3)c(Cl)cc2Cl)c1
REMARK SMILES IDX 20 1 19 2 18 3 17 4 15 5 16 6 14 8 12 9 13 10 93 11 92 12
REMARK SMILES IDX 94 13 90 14 91 15 11 16 9 17 10 18 8 20 7 21 6 22 1 23 2 24
REMARK SMILES IDX 3 25 95 26 4 27 5 28 21 29 22 30 23 31 24 32 25 33 26 35
REMARK SMILES IDX 27 36 28 37 89 38 29 39 88 40 30 41 31 42 32 43 82 44 33 45
REMARK SMILES IDX 87 46 81 47 83 48 34 49 86 50 80 51 79 52 35 54 67 55 47 56
REMARK SMILES IDX 66 57 48 58 51 59 65 60 84 61 49 62 50 63 64 65 85 66 52 67
REMARK SMILES IDX 36 68 37 69 45 70 38 71 44 72 46 73 43 74 39 75 40 76 41 77
REMARK SMILES IDX 42 78 68 79 69 80 77 81 70 82 76 83 78 84 75 85 71 86 72 87
REMARK SMILES IDX 73 88 74 89 53 90 54 91 62 92 55 93 61 94 63 95 60 96 56 97
REMARK SMILES IDX 57 98 58 99 59 100
REMARK H PARENT 17 7 11 19 24 34 83 53 51 64
REMARK Flexibility Score: inf
ROOT
ATOM      1  C   UNL A   1      32.487  29.201  27.291  1.00  0.00     0.002 C 
ENDROOT
BRANCH   1   2
ATOM      2  C   UNL A   1      31.745  29.561  25.987  1.00  0.00     0.021 C 
BRANCH   2   3
ATOM      3  C   UNL A   1      32.370  29.316  24.614  1.00  0.00     0.116 C 
BRANCH   3   4
ATOM      4  N   UNL A   1      31.456  29.292  23.492  1.00  0.00    -0.352 N 
ATOM      5  C   UNL A   1      30.934  28.218  22.803  1.00  0.00     0.252 C 
ATOM      6  O   UNL A   1      30.013  28.419  22.014  1.00  0.00    -0.269 OA
ATOM      7  H   UNL A   1      31.165  30.176  23.173  1.00  0.00     0.163 HD
BRANCH   5   8
ATOM      8  C   UNL A   1      31.436  26.819  22.976  1.00  0.00     0.060 A 
ATOM      9  C   UNL A   1      31.167  24.542  23.853  1.00  0.00     0.061 A 
ATOM     10  C   UNL A   1      30.702  25.858  23.715  1.00  0.00     0.043 A 
ATOM     11  C   UNL A   1      32.351  24.181  23.172  1.00  0.00     0.066 A 
ATOM     12  C   UNL A   1      33.057  25.101  22.402  1.00  0.00     0.044 A 
ATOM     13  Cl  UNL A   1      32.965  22.559  23.237  1.00  0.00    -0.082 Cl
ATOM     14  C   UNL A   1      32.614  26.421  22.315  1.00  0.00     0.055 A 
ATOM     15  Cl  UNL A   1      33.615  27.492  21.395  1.00  0.00    -0.083 Cl
BRANCH   9  16
ATOM     16  N   UNL A   1      30.578  23.534  24.647  1.00  0.00    -0.322 N 
ATOM     17  C   UNL A   1      30.793  22.967  25.863  1.00  0.00     0.262 C 
ATOM     18  O   UNL A   1      30.031  22.047  26.189  1.00  0.00    -0.271 OA
ATOM     19  H   UNL A   1      29.801  23.132  24.196  1.00  0.00     0.170 HD
BRANCH  17  20
ATOM     20  C   UNL A   1      31.828  23.480  26.860  1.00  0.00     0.329 C 
BRANCH  20  21
ATOM     21  O   UNL A   1      32.883  22.618  27.240  1.00  0.00    -0.484 OA
BRANCH  21  22
ATOM     22  C   UNL A   1      34.046  22.702  26.527  1.00  0.00     0.120 A 
ATOM     23  C   UNL A   1      37.013  20.815  25.083  1.00  0.00     0.044 C 
ATOM     24  C   UNL A   1      36.030  21.901  25.398  1.00  0.00    -0.047 A 
ATOM     25  C   UNL A   1      36.315  23.206  24.978  1.00  0.00     0.003 A 
ATOM     26  C   UNL A   1      34.881  21.649  26.169  1.00  0.00     0.049 A 
ATOM     27  C   UNL A   1      35.523  24.263  25.392  1.00  0.00     0.004 A 
ATOM     28  C   UNL A   1      34.415  23.997  26.180  1.00  0.00     0.046 A 
ENDBRANCH  21  22
ENDBRANCH  20  21
ENDBRANCH  17  20
ENDBRANCH   9  16
ENDBRANCH   5   8
ENDBRANCH   3   4
ENDBRANCH   2   3
ENDBRANCH   1   2
BRANCH   1  29
ATOM     29  C   UNL A   1      34.014  29.072  27.374  1.00  0.00     0.002 C 
BRANCH  29  30
ATOM     30  C   UNL A   1      34.819  30.117  28.160  1.00  0.00     0.021 C 
BRANCH  30  31
ATOM     31  C   UNL A   1      34.930  31.522  27.542  1.00  0.00     0.116 C 
BRANCH  31  32
ATOM     32  N   UNL A   1      34.026  32.505  28.158  1.00  0.00    -0.352 N 
ATOM     33  C   UNL A   1      34.250  33.386  29.210  1.00  0.00     0.251 C 
ATOM     34  H   UNL A   1      33.124  32.546  27.765  1.00  0.00     0.163 HD
ATOM     35  O   UNL A   1      33.410  34.176  29.593  1.00  0.00    -0.269 OA
BRANCH  33  36
ATOM     36  C   UNL A   1      35.599  33.410  29.818  1.00  0.00     0.039 A 
ATOM     37  C   UNL A   1      36.634  34.017  29.098  1.00  0.00     0.014 A 
ATOM     38  C   UNL A   1      35.864  32.652  30.949  1.00  0.00     0.014 A 
ATOM     39  C   UNL A   1      37.952  33.641  29.352  1.00  0.00     0.010 A 
ATOM     40  C   UNL A   1      37.165  32.240  31.160  1.00  0.00     0.010 A 
ATOM     41  C   UNL A   1      38.192  32.653  30.304  1.00  0.00    -0.014 A 
BRANCH  41  42
ATOM     42  C   UNL A   1      39.403  31.834  30.325  1.00  0.00     0.031 A 
ATOM     43  C   UNL A   1      39.465  30.510  29.680  1.00  0.00     0.074 A 
ATOM     44  C   UNL A   1      40.527  32.344  30.877  1.00  0.00     0.049 A 
ATOM     45  N   UNL A   1      40.306  29.585  30.000  1.00  0.00    -0.248 NA
ATOM     46  C   UNL A   1      38.540  30.110  28.632  1.00  0.00     0.031 C 
ATOM     47  C   UNL A   1      41.892  31.835  30.759  1.00  0.00     0.029 A 
ATOM     48  N   UNL A   1      40.603  33.299  31.883  1.00  0.00    -0.354 N 
ATOM     49  C   UNL A   1      40.241  28.604  29.037  1.00  0.00     0.074 A 
ATOM     50  C   UNL A   1      39.072  28.942  28.254  1.00  0.00     0.031 C 
ATOM     51  C   UNL A   1      42.612  32.278  31.803  1.00  0.00     0.029 A 
ATOM     52  C   UNL A   1      41.698  32.967  32.695  1.00  0.00     0.049 A 
ATOM     53  H   UNL A   1      40.001  34.068  32.002  1.00  0.00     0.167 HD
ATOM     54  C   UNL A   1      41.260  27.700  28.928  1.00  0.00     0.034 A 
ATOM     55  C   UNL A   1      41.525  32.682  34.018  1.00  0.00     0.034 A 
ATOM     56  C   UNL A   1      42.265  27.883  29.979  1.00  0.00     0.049 A 
ATOM     57  C   UNL A   1      41.982  31.295  34.408  1.00  0.00     0.074 A 
ATOM     58  C   UNL A   1      43.531  28.450  29.990  1.00  0.00     0.029 A 
ATOM     59  N   UNL A   1      41.923  27.674  31.313  1.00  0.00    -0.354 N 
ATOM     60  N   UNL A   1      42.202  30.324  33.566  1.00  0.00    -0.248 NA
ATOM     61  C   UNL A   1      42.210  30.898  35.791  1.00  0.00     0.031 C 
ATOM     62  C   UNL A   1      43.932  28.611  31.341  1.00  0.00     0.029 A 
ATOM     63  C   UNL A   1      42.923  28.125  32.155  1.00  0.00     0.049 A 
ATOM     64  H   UNL A   1      41.082  27.262  31.615  1.00  0.00     0.167 HD
ATOM     65  C   UNL A   1      42.563  29.188  34.253  1.00  0.00     0.074 A 
ATOM     66  C   UNL A   1      42.583  29.616  35.641  1.00  0.00     0.031 C 
ATOM     67  C   UNL A   1      42.796  28.002  33.606  1.00  0.00     0.034 A 
BRANCH  54  68
ATOM     68  C   UNL A   1      41.509  26.844  27.697  1.00  0.00     0.023 A 
ATOM     69  C   UNL A   1      41.623  25.442  27.838  1.00  0.00     0.031 A 
ATOM     70  C   UNL A   1      41.693  27.324  26.386  1.00  0.00     0.131 A 
ATOM     71  C   UNL A   1      42.018  24.619  26.765  1.00  0.00     0.055 A 
ATOM     72  C   UNL A   1      42.145  26.517  25.331  1.00  0.00     0.041 A 
ATOM     73  F   UNL A   1      41.382  28.579  26.044  1.00  0.00    -0.206 F 
ATOM     74  C   UNL A   1      42.327  25.157  25.521  1.00  0.00     0.022 A 
BRANCH  71  75
ATOM     75  S   UNL A   1      42.123  22.824  27.015  1.00  0.00     0.124 S 
ATOM     76  O   UNL A   1      41.702  22.304  25.718  1.00  0.00    -0.237 OA
ATOM     77  O   UNL A   1      43.529  22.643  27.359  1.00  0.00    -0.237 OA
ATOM     78  O   UNL A   1      41.186  22.579  28.110  1.00  0.00    -0.744 OA
ENDBRANCH  71  75
ENDBRANCH  54  68
BRANCH  55  79
ATOM     79  C   UNL A   1      40.389  33.425  34.637  1.00  0.00     0.023 A 
ATOM     80  C   UNL A   1      39.446  32.664  35.360  1.00  0.00     0.031 A 
ATOM     81  C   UNL A   1      40.441  34.804  34.875  1.00  0.00     0.131 A 
ATOM     82  C   UNL A   1      38.724  33.245  36.410  1.00  0.00     0.055 A 
ATOM     83  C   UNL A   1      39.658  35.397  35.874  1.00  0.00     0.041 A 
ATOM     84  F   UNL A   1      41.338  35.575  34.241  1.00  0.00    -0.206 F 
ATOM     85  C   UNL A   1      38.831  34.610  36.679  1.00  0.00     0.022 A 
BRANCH  82  86
ATOM     86  S   UNL A   1      37.883  32.149  37.593  1.00  0.00     0.124 S 
ATOM     87  O   UNL A   1      38.760  32.223  38.755  1.00  0.00    -0.237 OA
ATOM     88  O   UNL A   1      36.573  32.780  37.745  1.00  0.00    -0.237 OA
ATOM     89  O   UNL A   1      37.849  30.862  36.905  1.00  0.00    -0.744 OA
ENDBRANCH  82  86
ENDBRANCH  55  79
BRANCH  67  90
ATOM     90  C   UNL A   1      43.011  26.637  34.250  1.00  0.00     0.023 A 
ATOM     91  C   UNL A   1      44.194  25.891  34.139  1.00  0.00     0.031 A 
ATOM     92  C   UNL A   1      42.011  26.047  35.066  1.00  0.00     0.131 A 
ATOM     93  C   UNL A   1      44.330  24.621  34.736  1.00  0.00     0.055 A 
ATOM     94  C   UNL A   1      42.169  24.813  35.711  1.00  0.00     0.041 A 
ATOM     95  F   UNL A   1      40.834  26.647  35.294  1.00  0.00    -0.206 F 
ATOM     96  C   UNL A   1      43.331  24.083  35.537  1.00  0.00     0.022 A 
BRANCH  93  97
ATOM     97  S   UNL A   1      45.839  23.672  34.397  1.00  0.00     0.124 S 
ATOM     98  O   UNL A   1      46.458  23.610  35.718  1.00  0.00    -0.237 OA
ATOM     99  O   UNL A   1      45.306  22.411  33.890  1.00  0.00    -0.237 OA
ATOM    100  O   UNL A   1      46.548  24.488  33.415  1.00  0.00    -0.744 OA
ENDBRANCH  93  97
ENDBRANCH  67  90
ENDBRANCH  41  42
ENDBRANCH  33  36
ENDBRANCH  31  32
ENDBRANCH  30  31
ENDBRANCH  29  30
ENDBRANCH   1  29
TORSDOF 20
ENDMDL
