MODEL 1
REMARK VINA RESULT:     -10.4      0.000      0.000
REMARK SMILES O=C(CSc1nnc(-c2ccncc2)s1)Nc1cccc(C(=O)NCCCCCCNC(=O)c2ccc(-c3c4nc(c(-c5cc(S(=O)(=O)[O-])ccc5F)c5ccc([nH]5)c(-c5cc(S(=O)(=O)[O-])ccc5F)c5nc(c(-c6cc(S(=O)(=O)[O-])ccc6F)c6ccc3[nH]6)C=C5)C=C4)cc2)c1
REMARK SMILES IDX 26 1 25 2 24 3 22 4 23 5 21 7 17 8 18 9 97 10 19 11 20 12
REMARK SMILES IDX 16 13 1 14 2 15 3 17 4 18 5 19 6 20 15 21 7 22 8 23 9 24
REMARK SMILES IDX 10 25 14 26 11 27 13 28 12 29 27 30 28 31 29 32 30 33 31 34
REMARK SMILES IDX 32 35 33 37 34 38 35 39 96 40 36 41 95 42 37 43 38 44 39 45
REMARK SMILES IDX 89 46 40 47 94 48 88 49 90 50 41 51 93 52 87 53 86 54 42 56
REMARK SMILES IDX 74 57 54 58 73 59 55 60 58 61 72 62 91 63 56 64 57 65 71 67
REMARK SMILES IDX 92 68 59 69 43 70 44 71 52 72 45 73 51 74 53 75 50 76 46 77
REMARK SMILES IDX 47 78 48 79 49 80 75 81 76 82 84 83 77 84 83 85 85 86 82 87
REMARK SMILES IDX 78 88 79 89 80 90 81 91 60 92 61 93 69 94 62 95 68 96 70 97
REMARK SMILES IDX 67 98 63 99 64 100 65 101 66 102
REMARK H PARENT 24 6 16 16 31 36 90 55 58 66
REMARK Flexibility Score: inf
ROOT
ATOM      1  C   UNL A   1      39.568  23.548  26.499  1.00  0.00     0.021 C 
ENDROOT
BRANCH   1   2
ATOM      2  C   UNL A   1      38.092  23.795  26.214  1.00  0.00     0.116 C 
BRANCH   2   3
ATOM      3  N   UNL A   1      37.280  22.586  26.147  1.00  0.00    -0.352 N 
ATOM      4  C   UNL A   1      36.048  22.370  25.564  1.00  0.00     0.251 C 
ATOM      5  O   UNL A   1      35.521  21.263  25.661  1.00  0.00    -0.269 OA
ATOM      6  H   UNL A   1      37.673  21.799  26.589  1.00  0.00     0.163 HD
BRANCH   4   7
ATOM      7  C   UNL A   1      35.311  23.469  24.882  1.00  0.00     0.041 A 
ATOM      8  C   UNL A   1      34.092  25.558  25.015  1.00  0.00     0.041 A 
ATOM      9  C   UNL A   1      33.612  25.349  23.718  1.00  0.00     0.026 A 
ATOM     10  C   UNL A   1      35.037  24.675  25.528  1.00  0.00     0.040 A 
ATOM     11  C   UNL A   1      34.012  24.223  22.989  1.00  0.00     0.003 A 
ATOM     12  C   UNL A   1      34.834  23.264  23.584  1.00  0.00     0.014 A 
BRANCH   8  13
ATOM     13  N   UNL A   1      33.522  26.594  25.784  1.00  0.00    -0.325 N 
ATOM     14  O   UNL A   1      31.635  25.536  26.646  1.00  0.00    -0.274 OA
ATOM     15  C   UNL A   1      32.344  26.535  26.517  1.00  0.00     0.234 C 
ATOM     16  H   UNL A   1      34.010  27.449  25.803  1.00  0.00     0.169 HD
BRANCH  15  17
ATOM     17  C   UNL A   1      31.832  27.865  27.053  1.00  0.00     0.177 C 
BRANCH  17  18
ATOM     18  S   UNL A   1      31.686  29.197  25.837  1.00  0.00    -0.084 SA
BRANCH  18  19
ATOM     19  C   UNL A   1      32.594  30.457  26.630  1.00  0.00     0.175 A 
ATOM     20  N   UNL A   1      32.074  31.636  26.883  1.00  0.00    -0.131 NA
ATOM     21  S   UNL A   1      34.173  30.231  27.243  1.00  0.00    -0.086 S 
ATOM     22  N   UNL A   1      32.915  32.420  27.642  1.00  0.00    -0.137 NA
ATOM     23  C   UNL A   1      34.057  31.816  27.904  1.00  0.00     0.148 A 
BRANCH  23  24
ATOM     24  C   UNL A   1      35.097  32.346  28.779  1.00  0.00     0.015 A 
ATOM     25  C   UNL A   1      36.452  32.267  28.455  1.00  0.00     0.031 A 
ATOM     26  C   UNL A   1      34.725  32.958  29.979  1.00  0.00     0.031 A 
ATOM     27  C   UNL A   1      37.371  32.782  29.353  1.00  0.00     0.111 A 
ATOM     28  C   UNL A   1      35.719  33.434  30.814  1.00  0.00     0.111 A 
ATOM     29  N   UNL A   1      37.035  33.353  30.529  1.00  0.00    -0.265 NA
ENDBRANCH  23  24
ENDBRANCH  18  19
ENDBRANCH  17  18
ENDBRANCH  15  17
ENDBRANCH   8  13
ENDBRANCH   4   7
ENDBRANCH   2   3
ENDBRANCH   1   2
BRANCH   1  30
ATOM     30  C   UNL A   1      39.906  22.259  27.247  1.00  0.00     0.002 C 
BRANCH  30  31
ATOM     31  C   UNL A   1      41.386  22.030  27.566  1.00  0.00     0.002 C 
BRANCH  31  32
ATOM     32  C   UNL A   1      41.921  20.616  27.326  1.00  0.00     0.021 C 
BRANCH  32  33
ATOM     33  C   UNL A   1      41.744  20.072  25.913  1.00  0.00     0.116 C 
BRANCH  33  34
ATOM     34  N   UNL A   1      42.950  19.447  25.395  1.00  0.00    -0.352 N 
ATOM     35  C   UNL A   1      44.152  20.023  25.051  1.00  0.00     0.251 C 
ATOM     36  H   UNL A   1      42.900  18.471  25.275  1.00  0.00     0.163 HD
ATOM     37  O   UNL A   1      45.007  19.361  24.479  1.00  0.00    -0.269 OA
BRANCH  35  38
ATOM     38  C   UNL A   1      44.390  21.454  25.352  1.00  0.00     0.039 A 
ATOM     39  C   UNL A   1      43.900  22.424  24.474  1.00  0.00     0.014 A 
ATOM     40  C   UNL A   1      45.085  21.836  26.502  1.00  0.00     0.014 A 
ATOM     41  C   UNL A   1      44.046  23.779  24.785  1.00  0.00     0.010 A 
ATOM     42  C   UNL A   1      45.167  23.183  26.845  1.00  0.00     0.010 A 
ATOM     43  C   UNL A   1      44.646  24.170  25.993  1.00  0.00    -0.014 A 
BRANCH  43  44
ATOM     44  C   UNL A   1      44.758  25.600  26.387  1.00  0.00     0.031 A 
ATOM     45  C   UNL A   1      46.094  26.289  26.315  1.00  0.00     0.074 A 
ATOM     46  C   UNL A   1      43.688  26.250  26.886  1.00  0.00     0.049 A 
ATOM     47  N   UNL A   1      46.443  27.471  26.753  1.00  0.00    -0.248 NA
ATOM     48  C   UNL A   1      47.191  25.527  25.698  1.00  0.00     0.031 C 
ATOM     49  C   UNL A   1      42.344  25.685  27.022  1.00  0.00     0.029 A 
ATOM     50  N   UNL A   1      43.564  27.521  27.392  1.00  0.00    -0.354 N 
ATOM     51  C   UNL A   1      47.802  27.590  26.482  1.00  0.00     0.074 A 
ATOM     52  C   UNL A   1      48.222  26.334  25.896  1.00  0.00     0.031 C 
ATOM     53  C   UNL A   1      41.531  26.608  27.559  1.00  0.00     0.029 A 
ATOM     54  C   UNL A   1      42.303  27.810  27.863  1.00  0.00     0.049 A 
ATOM     55  H   UNL A   1      44.308  28.166  27.416  1.00  0.00     0.167 HD
ATOM     56  C   UNL A   1      48.619  28.653  26.685  1.00  0.00     0.034 A 
ATOM     57  C   UNL A   1      41.830  28.906  28.490  1.00  0.00     0.034 A 
ATOM     58  C   UNL A   1      48.178  29.902  27.259  1.00  0.00     0.049 A 
ATOM     59  C   UNL A   1      42.767  30.061  28.749  1.00  0.00     0.074 A 
ATOM     60  C   UNL A   1      48.909  31.058  27.470  1.00  0.00     0.029 A 
ATOM     61  N   UNL A   1      46.893  30.156  27.722  1.00  0.00    -0.354 N 
ATOM     62  N   UNL A   1      44.044  30.168  28.463  1.00  0.00    -0.248 NA
ATOM     63  C   UNL A   1      42.199  31.244  29.410  1.00  0.00     0.031 C 
ATOM     64  C   UNL A   1      48.089  31.982  28.125  1.00  0.00     0.029 A 
ATOM     65  C   UNL A   1      46.821  31.438  28.246  1.00  0.00     0.049 A 
ATOM     66  H   UNL A   1      46.143  29.519  27.683  1.00  0.00     0.167 HD
ATOM     67  C   UNL A   1      44.419  31.445  28.871  1.00  0.00     0.074 A 
ATOM     68  C   UNL A   1      43.234  32.070  29.421  1.00  0.00     0.031 C 
ATOM     69  C   UNL A   1      45.631  32.050  28.790  1.00  0.00     0.034 A 
BRANCH  56  70
ATOM     70  C   UNL A   1      50.074  28.496  26.311  1.00  0.00     0.023 A 
ATOM     71  C   UNL A   1      50.550  28.839  25.035  1.00  0.00     0.031 A 
ATOM     72  C   UNL A   1      50.994  27.970  27.236  1.00  0.00     0.131 A 
ATOM     73  C   UNL A   1      51.885  28.578  24.691  1.00  0.00     0.055 A 
ATOM     74  C   UNL A   1      52.342  27.796  26.916  1.00  0.00     0.041 A 
ATOM     75  F   UNL A   1      50.595  27.603  28.464  1.00  0.00    -0.206 F 
ATOM     76  C   UNL A   1      52.792  28.084  25.631  1.00  0.00     0.022 A 
BRANCH  73  77
ATOM     77  S   UNL A   1      52.379  28.746  22.953  1.00  0.00     0.124 S 
ATOM     78  O   UNL A   1      51.279  29.540  22.411  1.00  0.00    -0.237 OA
ATOM     79  O   UNL A   1      53.667  29.423  23.056  1.00  0.00    -0.237 OA
ATOM     80  O   UNL A   1      52.434  27.365  22.478  1.00  0.00    -0.744 OA
ENDBRANCH  73  77
ENDBRANCH  56  70
BRANCH  57  81
ATOM     81  C   UNL A   1      40.408  28.966  28.940  1.00  0.00     0.023 A 
ATOM     82  C   UNL A   1      40.076  28.881  30.301  1.00  0.00     0.031 A 
ATOM     83  C   UNL A   1      39.354  29.060  28.011  1.00  0.00     0.131 A 
ATOM     84  C   UNL A   1      38.729  28.839  30.693  1.00  0.00     0.055 A 
ATOM     85  C   UNL A   1      38.017  29.081  28.411  1.00  0.00     0.041 A 
ATOM     86  F   UNL A   1      39.613  29.142  26.696  1.00  0.00    -0.206 F 
ATOM     87  C   UNL A   1      37.698  28.956  29.759  1.00  0.00     0.022 A 
BRANCH  84  88
ATOM     88  S   UNL A   1      38.342  28.530  32.438  1.00  0.00     0.124 S 
ATOM     89  O   UNL A   1      39.538  29.039  33.100  1.00  0.00    -0.237 OA
ATOM     90  O   UNL A   1      37.123  29.312  32.621  1.00  0.00    -0.237 OA
ATOM     91  O   UNL A   1      38.166  27.081  32.494  1.00  0.00    -0.744 OA
ENDBRANCH  84  88
ENDBRANCH  57  81
BRANCH  69  92
ATOM     92  C   UNL A   1      45.723  33.486  29.246  1.00  0.00     0.023 A 
ATOM     93  C   UNL A   1      45.423  34.561  28.393  1.00  0.00     0.031 A 
ATOM     94  C   UNL A   1      46.100  33.777  30.571  1.00  0.00     0.131 A 
ATOM     95  C   UNL A   1      45.544  35.878  28.861  1.00  0.00     0.055 A 
ATOM     96  C   UNL A   1      46.161  35.086  31.047  1.00  0.00     0.041 A 
ATOM     97  F   UNL A   1      46.400  32.788  31.428  1.00  0.00    -0.206 F 
ATOM     98  C   UNL A   1      45.893  36.147  30.187  1.00  0.00     0.022 A 
BRANCH  95  99
ATOM     99  S   UNL A   1      45.308  37.246  27.692  1.00  0.00     0.124 S 
ATOM    100  O   UNL A   1      46.311  36.952  26.674  1.00  0.00    -0.237 OA
ATOM    101  O   UNL A   1      43.917  37.073  27.285  1.00  0.00    -0.237 OA
ATOM    102  O   UNL A   1      45.572  38.437  28.499  1.00  0.00    -0.744 OA
ENDBRANCH  95  99
ENDBRANCH  69  92
ENDBRANCH  43  44
ENDBRANCH  35  38
ENDBRANCH  33  34
ENDBRANCH  32  33
ENDBRANCH  31  32
ENDBRANCH  30  31
ENDBRANCH   1  30
TORSDOF 21
ENDMDL
MODEL 2
REMARK VINA RESULT:     -10.3      0.982      7.489
REMARK SMILES O=C(CSc1nnc(-c2ccncc2)s1)Nc1cccc(C(=O)NCCCCCCNC(=O)c2ccc(-c3c4nc(c(-c5cc(S(=O)(=O)[O-])ccc5F)c5ccc([nH]5)c(-c5cc(S(=O)(=O)[O-])ccc5F)c5nc(c(-c6cc(S(=O)(=O)[O-])ccc6F)c6ccc3[nH]6)C=C5)C=C4)cc2)c1
REMARK SMILES IDX 26 1 25 2 24 3 22 4 23 5 21 7 17 8 18 9 97 10 19 11 20 12
REMARK SMILES IDX 16 13 1 14 2 15 3 17 4 18 5 19 6 20 15 21 7 22 8 23 9 24
REMARK SMILES IDX 10 25 14 26 11 27 13 28 12 29 27 30 28 31 29 32 30 33 31 34
REMARK SMILES IDX 32 35 33 37 34 38 35 39 96 40 36 41 95 42 37 43 38 44 39 45
REMARK SMILES IDX 89 46 40 47 94 48 88 49 90 50 41 51 93 52 87 53 86 54 42 56
REMARK SMILES IDX 74 57 54 58 73 59 55 60 58 61 72 62 91 63 56 64 57 65 71 67
REMARK SMILES IDX 92 68 59 69 43 70 44 71 52 72 45 73 51 74 53 75 50 76 46 77
REMARK SMILES IDX 47 78 48 79 49 80 75 81 76 82 84 83 77 84 83 85 85 86 82 87
REMARK SMILES IDX 78 88 79 89 80 90 81 91 60 92 61 93 69 94 62 95 68 96 70 97
REMARK SMILES IDX 67 98 63 99 64 100 65 101 66 102
REMARK H PARENT 24 6 16 16 31 36 90 55 58 66
REMARK Flexibility Score: inf
ROOT
ATOM      1  C   UNL A   1      40.013  23.556  26.630  1.00  0.00     0.021 C 
ENDROOT
BRANCH   1   2
ATOM      2  C   UNL A   1      38.522  23.645  26.330  1.00  0.00     0.116 C 
BRANCH   2   3
ATOM      3  N   UNL A   1      37.840  22.358  26.279  1.00  0.00    -0.352 N 
ATOM      4  C   UNL A   1      36.684  21.986  25.624  1.00  0.00     0.251 C 
ATOM      5  O   UNL A   1      36.262  20.838  25.751  1.00  0.00    -0.269 OA
ATOM      6  H   UNL A   1      38.273  21.639  26.795  1.00  0.00     0.163 HD
BRANCH   4   7
ATOM      7  C   UNL A   1      35.897  22.966  24.826  1.00  0.00     0.041 A 
ATOM      8  C   UNL A   1      34.368  24.842  24.749  1.00  0.00     0.041 A 
ATOM      9  C   UNL A   1      34.124  24.576  23.398  1.00  0.00     0.026 A 
ATOM     10  C   UNL A   1      35.350  24.109  25.408  1.00  0.00     0.040 A 
ATOM     11  C   UNL A   1      34.795  23.531  22.752  1.00  0.00     0.003 A 
ATOM     12  C   UNL A   1      35.656  22.704  23.474  1.00  0.00     0.014 A 
BRANCH   8  13
ATOM     13  N   UNL A   1      33.538  25.771  25.411  1.00  0.00    -0.325 N 
ATOM     14  O   UNL A   1      31.571  24.546  25.637  1.00  0.00    -0.274 OA
ATOM     15  C   UNL A   1      32.214  25.586  25.786  1.00  0.00     0.234 C 
ATOM     16  H   UNL A   1      33.939  26.643  25.631  1.00  0.00     0.169 HD
BRANCH  15  17
ATOM     17  C   UNL A   1      31.482  26.831  26.264  1.00  0.00     0.177 C 
BRANCH  17  18
ATOM     18  S   UNL A   1      31.747  28.325  25.278  1.00  0.00    -0.084 SA
BRANCH  18  19
ATOM     19  C   UNL A   1      32.825  29.213  26.323  1.00  0.00     0.175 A 
ATOM     20  N   UNL A   1      34.067  28.838  26.522  1.00  0.00    -0.131 NA
ATOM     21  S   UNL A   1      32.401  30.691  27.069  1.00  0.00    -0.086 S 
ATOM     22  N   UNL A   1      34.774  29.761  27.261  1.00  0.00    -0.137 NA
ATOM     23  C   UNL A   1      34.028  30.785  27.622  1.00  0.00     0.148 A 
BRANCH  23  24
ATOM     24  C   UNL A   1      34.523  31.972  28.311  1.00  0.00     0.015 A 
ATOM     25  C   UNL A   1      34.071  33.255  27.999  1.00  0.00     0.031 A 
ATOM     26  C   UNL A   1      35.478  31.821  29.320  1.00  0.00     0.031 A 
ATOM     27  C   UNL A   1      34.608  34.326  28.693  1.00  0.00     0.111 A 
ATOM     28  C   UNL A   1      35.961  32.954  29.949  1.00  0.00     0.111 A 
ATOM     29  N   UNL A   1      35.551  34.204  29.652  1.00  0.00    -0.265 NA
ENDBRANCH  23  24
ENDBRANCH  18  19
ENDBRANCH  17  18
ENDBRANCH  15  17
ENDBRANCH   8  13
ENDBRANCH   4   7
ENDBRANCH   2   3
ENDBRANCH   1   2
BRANCH   1  30
ATOM     30  C   UNL A   1      40.402  22.851  27.929  1.00  0.00     0.002 C 
BRANCH  30  31
ATOM     31  C   UNL A   1      41.771  22.165  27.944  1.00  0.00     0.002 C 
BRANCH  31  32
ATOM     32  C   UNL A   1      41.789  20.679  27.577  1.00  0.00     0.021 C 
BRANCH  32  33
ATOM     33  C   UNL A   1      41.444  20.349  26.129  1.00  0.00     0.116 C 
BRANCH  33  34
ATOM     34  N   UNL A   1      42.509  19.635  25.445  1.00  0.00    -0.352 N 
ATOM     35  C   UNL A   1      43.726  20.100  25.002  1.00  0.00     0.251 C 
ATOM     36  H   UNL A   1      42.334  18.680  25.276  1.00  0.00     0.163 HD
ATOM     37  O   UNL A   1      44.434  19.391  24.300  1.00  0.00    -0.269 OA
BRANCH  35  38
ATOM     38  C   UNL A   1      44.157  21.473  25.355  1.00  0.00     0.039 A 
ATOM     39  C   UNL A   1      43.606  22.557  24.666  1.00  0.00     0.014 A 
ATOM     40  C   UNL A   1      45.094  21.689  26.369  1.00  0.00     0.014 A 
ATOM     41  C   UNL A   1      43.941  23.860  25.042  1.00  0.00     0.010 A 
ATOM     42  C   UNL A   1      45.372  22.987  26.788  1.00  0.00     0.010 A 
ATOM     43  C   UNL A   1      44.797  24.088  26.132  1.00  0.00    -0.014 A 
BRANCH  43  44
ATOM     44  C   UNL A   1      45.123  25.461  26.601  1.00  0.00     0.031 A 
ATOM     45  C   UNL A   1      44.032  26.341  27.148  1.00  0.00     0.074 A 
ATOM     46  C   UNL A   1      46.373  25.946  26.457  1.00  0.00     0.049 A 
ATOM     47  N   UNL A   1      44.068  27.610  27.463  1.00  0.00    -0.248 NA
ATOM     48  C   UNL A   1      42.715  25.712  27.330  1.00  0.00     0.031 C 
ATOM     49  C   UNL A   1      47.514  25.197  25.926  1.00  0.00     0.029 A 
ATOM     50  N   UNL A   1      46.892  27.189  26.727  1.00  0.00    -0.354 N 
ATOM     51  C   UNL A   1      42.776  27.937  27.863  1.00  0.00     0.074 A 
ATOM     52  C   UNL A   1      41.971  26.746  27.693  1.00  0.00     0.031 C 
ATOM     53  C   UNL A   1      48.597  25.989  25.921  1.00  0.00     0.029 A 
ATOM     54  C   UNL A   1      48.221  27.319  26.394  1.00  0.00     0.049 A 
ATOM     55  H   UNL A   1      46.363  27.919  27.122  1.00  0.00     0.167 HD
ATOM     56  C   UNL A   1      42.310  29.116  28.346  1.00  0.00     0.034 A 
ATOM     57  C   UNL A   1      49.037  28.393  26.438  1.00  0.00     0.034 A 
ATOM     58  C   UNL A   1      43.131  30.289  28.521  1.00  0.00     0.049 A 
ATOM     59  C   UNL A   1      48.486  29.707  26.934  1.00  0.00     0.074 A 
ATOM     60  C   UNL A   1      42.774  31.521  29.041  1.00  0.00     0.029 A 
ATOM     61  N   UNL A   1      44.473  30.382  28.172  1.00  0.00    -0.354 N 
ATOM     62  N   UNL A   1      47.269  29.995  27.333  1.00  0.00    -0.248 NA
ATOM     63  C   UNL A   1      49.419  30.842  26.991  1.00  0.00     0.031 C 
ATOM     64  C   UNL A   1      43.875  32.376  28.940  1.00  0.00     0.029 A 
ATOM     65  C   UNL A   1      44.947  31.657  28.437  1.00  0.00     0.049 A 
ATOM     66  H   UNL A   1      45.009  29.647  27.793  1.00  0.00     0.167 HD
ATOM     67  C   UNL A   1      47.303  31.330  27.728  1.00  0.00     0.074 A 
ATOM     68  C   UNL A   1      48.660  31.789  27.519  1.00  0.00     0.031 C 
ATOM     69  C   UNL A   1      46.305  32.103  28.226  1.00  0.00     0.034 A 
BRANCH  56  70
ATOM     70  C   UNL A   1      40.841  29.197  28.687  1.00  0.00     0.023 A 
ATOM     71  C   UNL A   1      40.388  29.172  30.017  1.00  0.00     0.031 A 
ATOM     72  C   UNL A   1      39.875  29.273  27.667  1.00  0.00     0.131 A 
ATOM     73  C   UNL A   1      39.013  29.140  30.289  1.00  0.00     0.055 A 
ATOM     74  C   UNL A   1      38.509  29.333  27.948  1.00  0.00     0.041 A 
ATOM     75  F   UNL A   1      40.244  29.279  26.376  1.00  0.00    -0.206 F 
ATOM     76  C   UNL A   1      38.069  29.248  29.266  1.00  0.00     0.022 A 
BRANCH  73  77
ATOM     77  S   UNL A   1      38.475  28.797  31.988  1.00  0.00     0.124 S 
ATOM     78  O   UNL A   1      39.187  29.832  32.735  1.00  0.00    -0.237 OA
ATOM     79  O   UNL A   1      37.028  28.954  31.898  1.00  0.00    -0.237 OA
ATOM     80  O   UNL A   1      38.943  27.434  32.227  1.00  0.00    -0.744 OA
ENDBRANCH  73  77
ENDBRANCH  56  70
BRANCH  57  81
ATOM     81  C   UNL A   1      50.454  28.286  25.982  1.00  0.00     0.023 A 
ATOM     82  C   UNL A   1      50.794  28.460  24.631  1.00  0.00     0.031 A 
ATOM     83  C   UNL A   1      51.485  27.960  26.883  1.00  0.00     0.131 A 
ATOM     84  C   UNL A   1      52.118  28.258  24.210  1.00  0.00     0.055 A 
ATOM     85  C   UNL A   1      52.811  27.821  26.469  1.00  0.00     0.041 A 
ATOM     86  F   UNL A   1      51.217  27.780  28.186  1.00  0.00    -0.206 F 
ATOM     87  C   UNL A   1      53.131  27.955  25.122  1.00  0.00     0.022 A 
BRANCH  84  88
ATOM     88  S   UNL A   1      52.478  28.297  22.433  1.00  0.00     0.124 S 
ATOM     89  O   UNL A   1      52.481  26.877  22.101  1.00  0.00    -0.237 OA
ATOM     90  O   UNL A   1      51.359  29.077  21.914  1.00  0.00    -0.237 OA
ATOM     91  O   UNL A   1      53.780  28.957  22.366  1.00  0.00    -0.744 OA
ENDBRANCH  84  88
ENDBRANCH  57  81
BRANCH  69  92
ATOM     92  C   UNL A   1      46.658  33.509  28.646  1.00  0.00     0.023 A 
ATOM     93  C   UNL A   1      46.500  34.607  27.785  1.00  0.00     0.031 A 
ATOM     94  C   UNL A   1      47.145  33.750  29.944  1.00  0.00     0.131 A 
ATOM     95  C   UNL A   1      46.862  35.892  28.218  1.00  0.00     0.055 A 
ATOM     96  C   UNL A   1      47.448  35.037  30.389  1.00  0.00     0.041 A 
ATOM     97  F   UNL A   1      47.319  32.736  30.808  1.00  0.00    -0.206 F 
ATOM     98  C   UNL A   1      47.317  36.116  29.520  1.00  0.00     0.022 A 
BRANCH  95  99
ATOM     99  S   UNL A   1      46.799  37.264  27.033  1.00  0.00     0.124 S 
ATOM    100  O   UNL A   1      46.767  36.560  25.755  1.00  0.00    -0.237 OA
ATOM    101  O   UNL A   1      45.568  37.950  27.413  1.00  0.00    -0.237 OA
ATOM    102  O   UNL A   1      48.029  38.008  27.302  1.00  0.00    -0.744 OA
ENDBRANCH  95  99
ENDBRANCH  69  92
ENDBRANCH  43  44
ENDBRANCH  35  38
ENDBRANCH  33  34
ENDBRANCH  32  33
ENDBRANCH  31  32
ENDBRANCH  30  31
ENDBRANCH   1  30
TORSDOF 21
ENDMDL
MODEL 3
REMARK VINA RESULT:     -10.2      5.384     11.146
REMARK SMILES O=C(CSc1nnc(-c2ccncc2)s1)Nc1cccc(C(=O)NCCCCCCNC(=O)c2ccc(-c3c4nc(c(-c5cc(S(=O)(=O)[O-])ccc5F)c5ccc([nH]5)c(-c5cc(S(=O)(=O)[O-])ccc5F)c5nc(c(-c6cc(S(=O)(=O)[O-])ccc6F)c6ccc3[nH]6)C=C5)C=C4)cc2)c1
REMARK SMILES IDX 26 1 25 2 24 3 22 4 23 5 21 7 17 8 18 9 97 10 19 11 20 12
REMARK SMILES IDX 16 13 1 14 2 15 3 17 4 18 5 19 6 20 15 21 7 22 8 23 9 24
REMARK SMILES IDX 10 25 14 26 11 27 13 28 12 29 27 30 28 31 29 32 30 33 31 34
REMARK SMILES IDX 32 35 33 37 34 38 35 39 96 40 36 41 95 42 37 43 38 44 39 45
REMARK SMILES IDX 89 46 40 47 94 48 88 49 90 50 41 51 93 52 87 53 86 54 42 56
REMARK SMILES IDX 74 57 54 58 73 59 55 60 58 61 72 62 91 63 56 64 57 65 71 67
REMARK SMILES IDX 92 68 59 69 43 70 44 71 52 72 45 73 51 74 53 75 50 76 46 77
REMARK SMILES IDX 47 78 48 79 49 80 75 81 76 82 84 83 77 84 83 85 85 86 82 87
REMARK SMILES IDX 78 88 79 89 80 90 81 91 60 92 61 93 69 94 62 95 68 96 70 97
REMARK SMILES IDX 67 98 63 99 64 100 65 101 66 102
REMARK H PARENT 24 6 16 16 31 36 90 55 58 66
REMARK Flexibility Score: inf
ROOT
ATOM      1  C   UNL A   1      32.306  24.203  26.559  1.00  0.00     0.021 C 
ENDROOT
BRANCH   1   2
ATOM      2  C   UNL A   1      31.094  23.439  26.041  1.00  0.00     0.116 C 
BRANCH   2   3
ATOM      3  N   UNL A   1      31.296  22.001  25.917  1.00  0.00    -0.352 N 
ATOM      4  C   UNL A   1      32.334  21.292  25.346  1.00  0.00     0.251 C 
ATOM      5  O   UNL A   1      32.281  20.064  25.319  1.00  0.00    -0.269 OA
ATOM      6  H   UNL A   1      30.578  21.447  26.301  1.00  0.00     0.163 HD
BRANCH   4   7
ATOM      7  C   UNL A   1      33.480  21.986  24.698  1.00  0.00     0.041 A 
ATOM      8  C   UNL A   1      35.610  23.122  24.891  1.00  0.00     0.041 A 
ATOM      9  C   UNL A   1      35.459  23.608  23.589  1.00  0.00     0.026 A 
ATOM     10  C   UNL A   1      34.676  22.213  25.378  1.00  0.00     0.040 A 
ATOM     11  C   UNL A   1      34.339  23.252  22.828  1.00  0.00     0.003 A 
ATOM     12  C   UNL A   1      33.333  22.468  23.394  1.00  0.00     0.014 A 
BRANCH   8  13
ATOM     13  N   UNL A   1      36.644  23.653  25.691  1.00  0.00    -0.325 N 
ATOM     14  O   UNL A   1      38.305  22.044  25.415  1.00  0.00    -0.274 OA
ATOM     15  C   UNL A   1      37.891  23.088  25.922  1.00  0.00     0.234 C 
ATOM     16  H   UNL A   1      36.463  24.514  26.132  1.00  0.00     0.169 HD
BRANCH  15  17
ATOM     17  C   UNL A   1      38.722  23.744  27.015  1.00  0.00     0.177 C 
BRANCH  17  18
ATOM     18  S   UNL A   1      40.196  24.631  26.455  1.00  0.00    -0.084 SA
BRANCH  18  19
ATOM     19  C   UNL A   1      41.384  23.355  26.520  1.00  0.00     0.175 A 
ATOM     20  N   UNL A   1      41.373  22.442  27.463  1.00  0.00    -0.131 NA
ATOM     21  S   UNL A   1      42.570  23.116  25.313  1.00  0.00    -0.086 S 
ATOM     22  N   UNL A   1      42.305  21.454  27.237  1.00  0.00    -0.137 NA
ATOM     23  C   UNL A   1      43.012  21.677  26.146  1.00  0.00     0.148 A 
BRANCH  23  24
ATOM     24  C   UNL A   1      43.992  20.752  25.586  1.00  0.00     0.015 A 
ATOM     25  C   UNL A   1      43.682  19.420  25.308  1.00  0.00     0.031 A 
ATOM     26  C   UNL A   1      45.283  21.215  25.317  1.00  0.00     0.031 A 
ATOM     27  C   UNL A   1      44.680  18.609  24.793  1.00  0.00     0.111 A 
ATOM     28  C   UNL A   1      46.212  20.325  24.812  1.00  0.00     0.111 A 
ATOM     29  N   UNL A   1      45.940  19.030  24.551  1.00  0.00    -0.265 NA
ENDBRANCH  23  24
ENDBRANCH  18  19
ENDBRANCH  17  18
ENDBRANCH  15  17
ENDBRANCH   8  13
ENDBRANCH   4   7
ENDBRANCH   2   3
ENDBRANCH   1   2
BRANCH   1  30
ATOM     30  C   UNL A   1      32.245  25.726  26.450  1.00  0.00     0.002 C 
BRANCH  30  31
ATOM     31  C   UNL A   1      32.640  26.325  25.098  1.00  0.00     0.002 C 
BRANCH  31  32
ATOM     32  C   UNL A   1      33.844  27.269  25.100  1.00  0.00     0.021 C 
BRANCH  32  33
ATOM     33  C   UNL A   1      34.169  27.926  26.437  1.00  0.00     0.116 C 
BRANCH  33  34
ATOM     34  N   UNL A   1      33.981  29.367  26.417  1.00  0.00    -0.352 N 
ATOM     35  C   UNL A   1      34.617  30.339  27.156  1.00  0.00     0.251 C 
ATOM     36  H   UNL A   1      33.303  29.694  25.783  1.00  0.00     0.163 HD
ATOM     37  O   UNL A   1      34.215  31.495  27.121  1.00  0.00    -0.269 OA
BRANCH  35  38
ATOM     38  C   UNL A   1      35.768  29.972  28.013  1.00  0.00     0.039 A 
ATOM     39  C   UNL A   1      37.064  30.202  27.543  1.00  0.00     0.014 A 
ATOM     40  C   UNL A   1      35.569  29.413  29.277  1.00  0.00     0.014 A 
ATOM     41  C   UNL A   1      38.159  29.938  28.371  1.00  0.00     0.010 A 
ATOM     42  C   UNL A   1      36.656  29.216  30.125  1.00  0.00     0.010 A 
ATOM     43  C   UNL A   1      37.963  29.479  29.684  1.00  0.00    -0.014 A 
BRANCH  43  44
ATOM     44  C   UNL A   1      39.101  29.249  30.613  1.00  0.00     0.031 A 
ATOM     45  C   UNL A   1      39.161  30.000  31.916  1.00  0.00     0.074 A 
ATOM     46  C   UNL A   1      40.116  28.439  30.253  1.00  0.00     0.049 A 
ATOM     47  N   UNL A   1      40.130  30.066  32.792  1.00  0.00    -0.248 NA
ATOM     48  C   UNL A   1      37.983  30.811  32.259  1.00  0.00     0.031 C 
ATOM     49  C   UNL A   1      40.181  27.669  29.009  1.00  0.00     0.029 A 
ATOM     50  N   UNL A   1      41.297  28.140  30.888  1.00  0.00    -0.354 N 
ATOM     51  C   UNL A   1      39.688  30.939  33.781  1.00  0.00     0.074 A 
ATOM     52  C   UNL A   1      38.389  31.421  33.363  1.00  0.00     0.031 C 
ATOM     53  C   UNL A   1      41.332  26.979  28.978  1.00  0.00     0.029 A 
ATOM     54  C   UNL A   1      42.115  27.298  30.170  1.00  0.00     0.049 A 
ATOM     55  H   UNL A   1      41.536  28.496  31.774  1.00  0.00     0.167 HD
ATOM     56  C   UNL A   1      40.301  31.291  34.938  1.00  0.00     0.034 A 
ATOM     57  C   UNL A   1      43.362  26.854  30.427  1.00  0.00     0.034 A 
ATOM     58  C   UNL A   1      41.592  30.790  35.345  1.00  0.00     0.049 A 
ATOM     59  C   UNL A   1      44.045  27.295  31.698  1.00  0.00     0.074 A 
ATOM     60  C   UNL A   1      42.286  31.045  36.514  1.00  0.00     0.029 A 
ATOM     61  N   UNL A   1      42.389  29.938  34.590  1.00  0.00    -0.354 N 
ATOM     62  N   UNL A   1      43.604  28.101  32.636  1.00  0.00    -0.248 NA
ATOM     63  C   UNL A   1      45.392  26.763  31.950  1.00  0.00     0.031 C 
ATOM     64  C   UNL A   1      43.529  30.410  36.435  1.00  0.00     0.029 A 
ATOM     65  C   UNL A   1      43.578  29.684  35.256  1.00  0.00     0.049 A 
ATOM     66  H   UNL A   1      42.144  29.567  33.712  1.00  0.00     0.167 HD
ATOM     67  C   UNL A   1      44.602  28.138  33.607  1.00  0.00     0.074 A 
ATOM     68  C   UNL A   1      45.666  27.273  33.141  1.00  0.00     0.031 C 
ATOM     69  C   UNL A   1      44.632  28.817  34.781  1.00  0.00     0.034 A 
BRANCH  56  70
ATOM     70  C   UNL A   1      39.594  32.286  35.827  1.00  0.00     0.023 A 
ATOM     71  C   UNL A   1      39.989  33.633  35.890  1.00  0.00     0.031 A 
ATOM     72  C   UNL A   1      38.525  31.877  36.646  1.00  0.00     0.131 A 
ATOM     73  C   UNL A   1      39.378  34.501  36.808  1.00  0.00     0.055 A 
ATOM     74  C   UNL A   1      37.861  32.768  37.492  1.00  0.00     0.041 A 
ATOM     75  F   UNL A   1      38.115  30.599  36.647  1.00  0.00    -0.206 F 
ATOM     76  C   UNL A   1      38.299  34.086  37.589  1.00  0.00     0.022 A 
BRANCH  73  77
ATOM     77  S   UNL A   1      40.118  36.136  37.075  1.00  0.00     0.124 S 
ATOM     78  O   UNL A   1      41.499  35.784  37.397  1.00  0.00    -0.237 OA
ATOM     79  O   UNL A   1      39.908  36.791  35.789  1.00  0.00    -0.237 OA
ATOM     80  O   UNL A   1      39.347  36.683  38.189  1.00  0.00    -0.744 OA
ENDBRANCH  73  77
ENDBRANCH  56  70
BRANCH  57  81
ATOM     81  C   UNL A   1      44.062  25.959  29.459  1.00  0.00     0.023 A 
ATOM     82  C   UNL A   1      44.627  26.470  28.280  1.00  0.00     0.031 A 
ATOM     83  C   UNL A   1      44.135  24.570  29.675  1.00  0.00     0.131 A 
ATOM     84  C   UNL A   1      45.193  25.597  27.338  1.00  0.00     0.055 A 
ATOM     85  C   UNL A   1      44.755  23.713  28.763  1.00  0.00     0.041 A 
ATOM     86  F   UNL A   1      43.610  24.026  30.784  1.00  0.00    -0.206 F 
ATOM     87  C   UNL A   1      45.275  24.224  27.579  1.00  0.00     0.022 A 
BRANCH  84  88
ATOM     88  S   UNL A   1      45.732  26.272  25.744  1.00  0.00     0.124 S 
ATOM     89  O   UNL A   1      46.473  27.458  26.160  1.00  0.00    -0.237 OA
ATOM     90  O   UNL A   1      46.528  25.174  25.203  1.00  0.00    -0.237 OA
ATOM     91  O   UNL A   1      44.477  26.534  25.044  1.00  0.00    -0.744 OA
ENDBRANCH  84  88
ENDBRANCH  57  81
BRANCH  69  92
ATOM     92  C   UNL A   1      45.825  28.601  35.679  1.00  0.00     0.023 A 
ATOM     93  C   UNL A   1      46.959  29.429  35.627  1.00  0.00     0.031 A 
ATOM     94  C   UNL A   1      45.812  27.554  36.620  1.00  0.00     0.131 A 
ATOM     95  C   UNL A   1      48.050  29.172  36.472  1.00  0.00     0.055 A 
ATOM     96  C   UNL A   1      46.875  27.340  37.497  1.00  0.00     0.041 A 
ATOM     97  F   UNL A   1      44.755  26.731  36.710  1.00  0.00    -0.206 F 
ATOM     98  C   UNL A   1      48.007  28.145  37.418  1.00  0.00     0.022 A 
BRANCH  95  99
ATOM     99  S   UNL A   1      49.561  30.155  36.270  1.00  0.00     0.124 S 
ATOM    100  O   UNL A   1      50.469  29.514  37.216  1.00  0.00    -0.237 OA
ATOM    101  O   UNL A   1      49.873  29.964  34.857  1.00  0.00    -0.237 OA
ATOM    102  O   UNL A   1      49.141  31.508  36.633  1.00  0.00    -0.744 OA
ENDBRANCH  95  99
ENDBRANCH  69  92
ENDBRANCH  43  44
ENDBRANCH  35  38
ENDBRANCH  33  34
ENDBRANCH  32  33
ENDBRANCH  31  32
ENDBRANCH  30  31
ENDBRANCH   1  30
TORSDOF 21
ENDMDL
