MODEL 1
REMARK VINA RESULT:      -9.3      0.000      0.000
REMARK SMILES CN(C)C(=O)CC[NH2+]Cc1cc(C(=O)NCCCCCCNC(=O)c2ccc(-c3c4nc(c(-c5cc(S(=O)(=O)[O-])ccc5F)c5ccc([nH]5)c(-c5cc(S(=O)(=O)[O-])ccc5F)c5nc(c(-c6cc(S(=O)(=O)[O-])ccc6F)c6ccc3[nH]6)C=C5)C=C4)cc2)cs1
REMARK SMILES IDX 17 1 16 2 15 3 13 4 14 5 12 7 10 8 11 9 89 10 88 11 9 12
REMARK SMILES IDX 8 13 7 16 6 17 4 18 1 19 2 20 3 21 5 22 18 23 19 24 20 25
REMARK SMILES IDX 21 26 22 27 23 28 24 30 25 31 26 32 87 33 27 34 86 35 28 36
REMARK SMILES IDX 29 37 30 38 80 39 31 40 85 41 79 42 81 43 32 44 84 45 78 46
REMARK SMILES IDX 77 47 33 49 65 50 45 51 64 52 46 53 49 54 63 55 82 56 47 57
REMARK SMILES IDX 48 58 62 60 83 61 50 62 34 63 35 64 43 65 36 66 42 67 44 68
REMARK SMILES IDX 41 69 37 70 38 71 39 72 40 73 66 74 67 75 75 76 68 77 74 78
REMARK SMILES IDX 76 79 73 80 69 81 70 82 71 83 72 84 51 85 52 86 60 87 53 88
REMARK SMILES IDX 59 89 61 90 58 91 54 92 55 93 56 94 57 95
REMARK H PARENT 15 6 8 14 8 15 22 29 81 48 49 59
REMARK Flexibility Score: inf
ROOT
ATOM      1  C   UNL A   1      39.211  23.490  26.940  1.00  0.00     0.021 C 
ENDROOT
BRANCH   1   2
ATOM      2  C   UNL A   1      38.038  23.416  25.961  1.00  0.00     0.116 C 
BRANCH   2   3
ATOM      3  N   UNL A   1      38.088  22.181  25.209  1.00  0.00    -0.352 N 
ATOM      4  C   UNL A   1      37.208  21.149  25.033  1.00  0.00     0.252 C 
ATOM      5  O   UNL A   1      37.604  20.217  24.325  1.00  0.00    -0.269 OA
ATOM      6  H   UNL A   1      38.934  22.057  24.721  1.00  0.00     0.163 HD
BRANCH   4   7
ATOM      7  C   UNL A   1      35.850  21.145  25.589  1.00  0.00     0.051 A 
ATOM      8  C   UNL A   1      33.902  21.680  26.807  1.00  0.00     0.059 A 
ATOM      9  C   UNL A   1      35.280  21.798  26.733  1.00  0.00     0.035 A 
ATOM     10  S   UNL A   1      33.318  20.557  25.664  1.00  0.00    -0.142 S 
ATOM     11  C   UNL A   1      34.865  20.385  24.971  1.00  0.00     0.079 A 
BRANCH   8  12
ATOM     12  C   UNL A   1      32.962  22.400  27.729  1.00  0.00     0.308 C 
BRANCH  12  13
ATOM     13  N   UNL A   1      31.701  22.746  27.057  1.00  0.00    -0.341 N 
ATOM     14  H   UNL A   1      31.489  22.022  26.371  1.00  0.00     0.346 HD
ATOM     15  H   UNL A   1      30.981  22.813  27.776  1.00  0.00     0.346 HD
BRANCH  13  16
ATOM     16  C   UNL A   1      31.758  24.042  26.369  1.00  0.00     0.270 C 
BRANCH  16  17
ATOM     17  C   UNL A   1      31.315  23.942  24.909  1.00  0.00     0.161 C 
BRANCH  17  18
ATOM     18  C   UNL A   1      32.412  24.394  23.961  1.00  0.00     0.227 C 
ATOM     19  C   UNL A   1      33.424  26.072  22.514  1.00  0.00     0.146 C 
ATOM     20  N   UNL A   1      32.315  25.633  23.346  1.00  0.00    -0.349 N 
ATOM     21  C   UNL A   1      31.155  26.516  23.372  1.00  0.00     0.146 C 
ATOM     22  O   UNL A   1      33.393  23.661  23.795  1.00  0.00    -0.275 OA
ENDBRANCH  17  18
ENDBRANCH  16  17
ENDBRANCH  13  16
ENDBRANCH  12  13
ENDBRANCH   8  12
ENDBRANCH   4   7
ENDBRANCH   2   3
ENDBRANCH   1   2
BRANCH   1  23
ATOM     23  C   UNL A   1      40.339  22.501  26.608  1.00  0.00     0.002 C 
BRANCH  23  24
ATOM     24  C   UNL A   1      40.772  21.600  27.771  1.00  0.00     0.002 C 
BRANCH  24  25
ATOM     25  C   UNL A   1      41.174  20.178  27.371  1.00  0.00     0.021 C 
BRANCH  25  26
ATOM     26  C   UNL A   1      41.272  19.955  25.866  1.00  0.00     0.116 C 
BRANCH  26  27
ATOM     27  N   UNL A   1      42.584  19.460  25.481  1.00  0.00    -0.352 N 
ATOM     28  C   UNL A   1      43.745  20.157  25.257  1.00  0.00     0.251 C 
ATOM     29  H   UNL A   1      42.649  18.485  25.365  1.00  0.00     0.163 HD
ATOM     30  O   UNL A   1      44.688  19.604  24.698  1.00  0.00    -0.269 OA
BRANCH  28  31
ATOM     31  C   UNL A   1      43.847  21.572  25.675  1.00  0.00     0.039 A 
ATOM     32  C   UNL A   1      44.256  21.867  26.977  1.00  0.00     0.014 A 
ATOM     33  C   UNL A   1      43.527  22.604  24.786  1.00  0.00     0.014 A 
ATOM     34  C   UNL A   1      44.398  23.200  27.371  1.00  0.00     0.010 A 
ATOM     35  C   UNL A   1      43.741  23.929  25.157  1.00  0.00     0.010 A 
ATOM     36  C   UNL A   1      44.174  24.242  26.455  1.00  0.00    -0.014 A 
BRANCH  36  37
ATOM     37  C   UNL A   1      44.381  25.662  26.838  1.00  0.00     0.031 A 
ATOM     38  C   UNL A   1      45.751  26.278  26.745  1.00  0.00     0.074 A 
ATOM     39  C   UNL A   1      43.347  26.379  27.323  1.00  0.00     0.049 A 
ATOM     40  N   UNL A   1      46.147  27.473  27.099  1.00  0.00    -0.248 NA
ATOM     41  C   UNL A   1      46.822  25.424  26.209  1.00  0.00     0.031 C 
ATOM     42  C   UNL A   1      41.981  25.880  27.492  1.00  0.00     0.029 A 
ATOM     43  N   UNL A   1      43.282  27.675  27.769  1.00  0.00    -0.354 N 
ATOM     44  C   UNL A   1      47.513  27.513  26.839  1.00  0.00     0.074 A 
ATOM     45  C   UNL A   1      47.886  26.199  26.360  1.00  0.00     0.031 C 
ATOM     46  C   UNL A   1      41.208  26.865  27.977  1.00  0.00     0.029 A 
ATOM     47  C   UNL A   1      42.031  28.049  28.204  1.00  0.00     0.049 A 
ATOM     48  H   UNL A   1      44.058  28.281  27.777  1.00  0.00     0.167 HD
ATOM     49  C   UNL A   1      48.372  28.556  26.965  1.00  0.00     0.034 A 
ATOM     50  C   UNL A   1      41.598  29.208  28.738  1.00  0.00     0.034 A 
ATOM     51  C   UNL A   1      47.979  29.862  27.437  1.00  0.00     0.049 A 
ATOM     52  C   UNL A   1      42.580  30.343  28.904  1.00  0.00     0.074 A 
ATOM     53  C   UNL A   1      48.754  31.003  27.556  1.00  0.00     0.029 A 
ATOM     54  N   UNL A   1      46.706  30.202  27.877  1.00  0.00    -0.354 N 
ATOM     55  N   UNL A   1      43.858  30.379  28.608  1.00  0.00    -0.248 NA
ATOM     56  C   UNL A   1      42.056  31.594  29.465  1.00  0.00     0.031 C 
ATOM     57  C   UNL A   1      47.972  32.006  28.138  1.00  0.00     0.029 A 
ATOM     58  C   UNL A   1      46.684  31.522  28.302  1.00  0.00     0.049 A 
ATOM     59  H   UNL A   1      45.931  29.594  27.885  1.00  0.00     0.167 HD
ATOM     60  C   UNL A   1      44.283  31.669  28.915  1.00  0.00     0.074 A 
ATOM     61  C   UNL A   1      43.120  32.381  29.404  1.00  0.00     0.031 C 
ATOM     62  C   UNL A   1      45.519  32.218  28.799  1.00  0.00     0.034 A 
BRANCH  49  63
ATOM     63  C   UNL A   1      49.821  28.312  26.613  1.00  0.00     0.023 A 
ATOM     64  C   UNL A   1      50.322  28.564  25.324  1.00  0.00     0.031 A 
ATOM     65  C   UNL A   1      50.711  27.799  27.573  1.00  0.00     0.131 A 
ATOM     66  C   UNL A   1      51.648  28.230  25.008  1.00  0.00     0.055 A 
ATOM     67  C   UNL A   1      52.053  27.551  27.276  1.00  0.00     0.041 A 
ATOM     68  F   UNL A   1      50.289  27.516  28.816  1.00  0.00    -0.206 F 
ATOM     69  C   UNL A   1      52.525  27.751  25.983  1.00  0.00     0.022 A 
BRANCH  66  70
ATOM     70  S   UNL A   1      52.164  28.285  23.270  1.00  0.00     0.124 S 
ATOM     71  O   UNL A   1      51.677  26.998  22.777  1.00  0.00    -0.237 OA
ATOM     72  O   UNL A   1      51.467  29.465  22.771  1.00  0.00    -0.237 OA
ATOM     73  O   UNL A   1      53.618  28.404  23.347  1.00  0.00    -0.744 OA
ENDBRANCH  66  70
ENDBRANCH  49  63
BRANCH  50  74
ATOM     74  C   UNL A   1      40.178  29.360  29.169  1.00  0.00     0.023 A 
ATOM     75  C   UNL A   1      39.824  29.296  30.526  1.00  0.00     0.031 A 
ATOM     76  C   UNL A   1      39.148  29.528  28.227  1.00  0.00     0.131 A 
ATOM     77  C   UNL A   1      38.471  29.346  30.899  1.00  0.00     0.055 A 
ATOM     78  C   UNL A   1      37.809  29.637  28.608  1.00  0.00     0.041 A 
ATOM     79  F   UNL A   1      39.430  29.600  26.916  1.00  0.00    -0.206 F 
ATOM     80  C   UNL A   1      37.463  29.531  29.952  1.00  0.00     0.022 A 
BRANCH  77  81
ATOM     81  S   UNL A   1      38.042  29.068  32.640  1.00  0.00     0.124 S 
ATOM     82  O   UNL A   1      38.368  27.656  32.803  1.00  0.00    -0.237 OA
ATOM     83  O   UNL A   1      38.918  30.014  33.322  1.00  0.00    -0.237 OA
ATOM     84  O   UNL A   1      36.618  29.390  32.693  1.00  0.00    -0.744 OA
ENDBRANCH  77  81
ENDBRANCH  50  74
BRANCH  62  85
ATOM     85  C   UNL A   1      45.661  33.676  29.164  1.00  0.00     0.023 A 
ATOM     86  C   UNL A   1      45.422  34.702  28.233  1.00  0.00     0.031 A 
ATOM     87  C   UNL A   1      46.052  34.043  30.465  1.00  0.00     0.131 A 
ATOM     88  C   UNL A   1      45.634  36.040  28.599  1.00  0.00     0.055 A 
ATOM     89  C   UNL A   1      46.194  35.379  30.841  1.00  0.00     0.041 A 
ATOM     90  F   UNL A   1      46.297  33.106  31.395  1.00  0.00    -0.206 F 
ATOM     91  C   UNL A   1      45.999  36.387  29.901  1.00  0.00     0.022 A 
BRANCH  88  92
ATOM     92  S   UNL A   1      45.520  37.320  27.317  1.00  0.00     0.124 S 
ATOM     93  O   UNL A   1      46.442  36.817  26.305  1.00  0.00    -0.237 OA
ATOM     94  O   UNL A   1      44.105  37.284  26.965  1.00  0.00    -0.237 OA
ATOM     95  O   UNL A   1      45.957  38.533  28.006  1.00  0.00    -0.744 OA
ENDBRANCH  88  92
ENDBRANCH  62  85
ENDBRANCH  36  37
ENDBRANCH  28  31
ENDBRANCH  26  27
ENDBRANCH  25  26
ENDBRANCH  24  25
ENDBRANCH  23  24
ENDBRANCH   1  23
TORSDOF 21
ENDMDL
MODEL 2
REMARK VINA RESULT:      -8.8      5.947     10.361
REMARK SMILES CN(C)C(=O)CC[NH2+]Cc1cc(C(=O)NCCCCCCNC(=O)c2ccc(-c3c4nc(c(-c5cc(S(=O)(=O)[O-])ccc5F)c5ccc([nH]5)c(-c5cc(S(=O)(=O)[O-])ccc5F)c5nc(c(-c6cc(S(=O)(=O)[O-])ccc6F)c6ccc3[nH]6)C=C5)C=C4)cc2)cs1
REMARK SMILES IDX 17 1 16 2 15 3 13 4 14 5 12 7 10 8 11 9 89 10 88 11 9 12
REMARK SMILES IDX 8 13 7 16 6 17 4 18 1 19 2 20 3 21 5 22 18 23 19 24 20 25
REMARK SMILES IDX 21 26 22 27 23 28 24 30 25 31 26 32 87 33 27 34 86 35 28 36
REMARK SMILES IDX 29 37 30 38 80 39 31 40 85 41 79 42 81 43 32 44 84 45 78 46
REMARK SMILES IDX 77 47 33 49 65 50 45 51 64 52 46 53 49 54 63 55 82 56 47 57
REMARK SMILES IDX 48 58 62 60 83 61 50 62 34 63 35 64 43 65 36 66 42 67 44 68
REMARK SMILES IDX 41 69 37 70 38 71 39 72 40 73 66 74 67 75 75 76 68 77 74 78
REMARK SMILES IDX 76 79 73 80 69 81 70 82 71 83 72 84 51 85 52 86 60 87 53 88
REMARK SMILES IDX 59 89 61 90 58 91 54 92 55 93 56 94 57 95
REMARK H PARENT 15 6 8 14 8 15 22 29 81 48 49 59
REMARK Flexibility Score: inf
ROOT
ATOM      1  C   UNL A   1      32.916  29.565  25.224  1.00  0.00     0.021 C 
ENDROOT
BRANCH   1   2
ATOM      2  C   UNL A   1      31.410  29.825  25.166  1.00  0.00     0.116 C 
BRANCH   2   3
ATOM      3  N   UNL A   1      30.953  29.832  23.793  1.00  0.00    -0.352 N 
ATOM      4  C   UNL A   1      30.606  28.847  22.910  1.00  0.00     0.252 C 
ATOM      5  O   UNL A   1      30.280  29.226  21.780  1.00  0.00    -0.269 OA
ATOM      6  H   UNL A   1      30.876  30.738  23.414  1.00  0.00     0.163 HD
BRANCH   4   7
ATOM      7  C   UNL A   1      30.559  27.425  23.269  1.00  0.00     0.051 A 
ATOM      8  C   UNL A   1      30.997  25.112  23.413  1.00  0.00     0.059 A 
ATOM      9  C   UNL A   1      31.119  26.259  22.648  1.00  0.00     0.035 A 
ATOM     10  S   UNL A   1      29.967  25.370  24.749  1.00  0.00    -0.142 S 
ATOM     11  C   UNL A   1      29.850  27.034  24.398  1.00  0.00     0.079 A 
BRANCH   8  12
ATOM     12  C   UNL A   1      31.641  23.776  23.185  1.00  0.00     0.308 C 
BRANCH  12  13
ATOM     13  N   UNL A   1      32.666  23.840  22.134  1.00  0.00    -0.341 N 
ATOM     14  H   UNL A   1      32.255  23.517  21.258  1.00  0.00     0.346 HD
ATOM     15  H   UNL A   1      32.980  24.809  22.072  1.00  0.00     0.346 HD
BRANCH  13  16
ATOM     16  C   UNL A   1      33.842  23.014  22.432  1.00  0.00     0.270 C 
BRANCH  16  17
ATOM     17  C   UNL A   1      34.560  23.465  23.705  1.00  0.00     0.161 C 
BRANCH  17  18
ATOM     18  C   UNL A   1      34.525  22.390  24.776  1.00  0.00     0.227 C 
ATOM     19  C   UNL A   1      33.871  21.601  26.986  1.00  0.00     0.146 C 
ATOM     20  N   UNL A   1      33.969  22.678  26.014  1.00  0.00    -0.349 N 
ATOM     21  C   UNL A   1      33.550  23.993  26.483  1.00  0.00     0.146 C 
ATOM     22  O   UNL A   1      34.954  21.265  24.503  1.00  0.00    -0.275 OA
ENDBRANCH  17  18
ENDBRANCH  16  17
ENDBRANCH  13  16
ENDBRANCH  12  13
ENDBRANCH   8  12
ENDBRANCH   4   7
ENDBRANCH   2   3
ENDBRANCH   1   2
BRANCH   1  23
ATOM     23  C   UNL A   1      33.429  29.298  26.648  1.00  0.00     0.002 C 
BRANCH  23  24
ATOM     24  C   UNL A   1      34.124  30.490  27.319  1.00  0.00     0.002 C 
BRANCH  24  25
ATOM     25  C   UNL A   1      33.197  31.648  27.698  1.00  0.00     0.021 C 
BRANCH  25  26
ATOM     26  C   UNL A   1      33.591  32.990  27.093  1.00  0.00     0.116 C 
BRANCH  26  27
ATOM     27  N   UNL A   1      33.046  34.103  27.855  1.00  0.00    -0.352 N 
ATOM     28  C   UNL A   1      33.334  34.504  29.136  1.00  0.00     0.251 C 
ATOM     29  H   UNL A   1      32.375  34.647  27.384  1.00  0.00     0.163 HD
ATOM     30  O   UNL A   1      32.598  35.306  29.701  1.00  0.00    -0.269 OA
BRANCH  28  31
ATOM     31  C   UNL A   1      34.517  33.952  29.832  1.00  0.00     0.039 A 
ATOM     32  C   UNL A   1      34.327  33.065  30.894  1.00  0.00     0.014 A 
ATOM     33  C   UNL A   1      35.809  34.320  29.444  1.00  0.00     0.014 A 
ATOM     34  C   UNL A   1      35.436  32.504  31.531  1.00  0.00     0.010 A 
ATOM     35  C   UNL A   1      36.911  33.702  30.031  1.00  0.00     0.010 A 
ATOM     36  C   UNL A   1      36.737  32.791  31.084  1.00  0.00    -0.014 A 
BRANCH  36  37
ATOM     37  C   UNL A   1      37.924  32.154  31.709  1.00  0.00     0.031 A 
ATOM     38  C   UNL A   1      38.643  31.037  31.002  1.00  0.00     0.074 A 
ATOM     39  C   UNL A   1      38.320  32.544  32.938  1.00  0.00     0.049 A 
ATOM     40  N   UNL A   1      39.649  30.309  31.412  1.00  0.00    -0.248 NA
ATOM     41  C   UNL A   1      38.142  30.672  29.668  1.00  0.00     0.031 C 
ATOM     42  C   UNL A   1      37.682  33.593  33.736  1.00  0.00     0.029 A 
ATOM     43  N   UNL A   1      39.348  32.103  33.734  1.00  0.00    -0.354 N 
ATOM     44  C   UNL A   1      39.896  29.394  30.393  1.00  0.00     0.074 A 
ATOM     45  C   UNL A   1      38.890  29.619  29.377  1.00  0.00     0.031 C 
ATOM     46  C   UNL A   1      38.348  33.733  34.893  1.00  0.00     0.029 A 
ATOM     47  C   UNL A   1      39.427  32.752  34.945  1.00  0.00     0.049 A 
ATOM     48  H   UNL A   1      39.969  31.390  33.463  1.00  0.00     0.167 HD
ATOM     49  C   UNL A   1      40.885  28.469  30.304  1.00  0.00     0.034 A 
ATOM     50  C   UNL A   1      40.264  32.567  35.985  1.00  0.00     0.034 A 
ATOM     51  C   UNL A   1      41.884  28.266  31.325  1.00  0.00     0.049 A 
ATOM     52  C   UNL A   1      41.333  31.507  35.878  1.00  0.00     0.074 A 
ATOM     53  C   UNL A   1      42.959  27.394  31.316  1.00  0.00     0.029 A 
ATOM     54  N   UNL A   1      41.928  28.935  32.542  1.00  0.00    -0.354 N 
ATOM     55  N   UNL A   1      41.583  30.683  34.887  1.00  0.00    -0.248 NA
ATOM     56  C   UNL A   1      42.237  31.362  37.025  1.00  0.00     0.031 C 
ATOM     57  C   UNL A   1      43.605  27.480  32.554  1.00  0.00     0.029 A 
ATOM     58  C   UNL A   1      42.989  28.469  33.305  1.00  0.00     0.049 A 
ATOM     59  H   UNL A   1      41.298  29.638  32.823  1.00  0.00     0.167 HD
ATOM     60  C   UNL A   1      42.696  29.945  35.279  1.00  0.00     0.074 A 
ATOM     61  C   UNL A   1      43.076  30.433  36.590  1.00  0.00     0.031 C 
ATOM     62  C   UNL A   1      43.350  28.957  34.616  1.00  0.00     0.034 A 
BRANCH  49  63
ATOM     63  C   UNL A   1      40.911  27.594  29.072  1.00  0.00     0.023 A 
ATOM     64  C   UNL A   1      41.840  27.801  28.037  1.00  0.00     0.031 A 
ATOM     65  C   UNL A   1      39.980  26.552  28.919  1.00  0.00     0.131 A 
ATOM     66  C   UNL A   1      41.768  27.032  26.865  1.00  0.00     0.055 A 
ATOM     67  C   UNL A   1      39.970  25.733  27.787  1.00  0.00     0.041 A 
ATOM     68  F   UNL A   1      39.053  26.318  29.862  1.00  0.00    -0.206 F 
ATOM     69  C   UNL A   1      40.857  25.981  26.745  1.00  0.00     0.022 A 
BRANCH  66  70
ATOM     70  S   UNL A   1      42.778  27.527  25.443  1.00  0.00     0.124 S 
ATOM     71  O   UNL A   1      42.689  26.343  24.591  1.00  0.00    -0.237 OA
ATOM     72  O   UNL A   1      42.083  28.715  24.960  1.00  0.00    -0.237 OA
ATOM     73  O   UNL A   1      44.097  27.768  26.025  1.00  0.00    -0.744 OA
ENDBRANCH  66  70
ENDBRANCH  49  63
BRANCH  50  74
ATOM     74  C   UNL A   1      40.126  33.387  37.223  1.00  0.00     0.023 A 
ATOM     75  C   UNL A   1      39.500  32.869  38.367  1.00  0.00     0.031 A 
ATOM     76  C   UNL A   1      40.578  34.718  37.266  1.00  0.00     0.131 A 
ATOM     77  C   UNL A   1      39.296  33.692  39.487  1.00  0.00     0.055 A 
ATOM     78  C   UNL A   1      40.427  35.514  38.404  1.00  0.00     0.041 A 
ATOM     79  F   UNL A   1      41.188  35.264  36.201  1.00  0.00    -0.206 F 
ATOM     80  C   UNL A   1      39.768  35.005  39.519  1.00  0.00     0.022 A 
BRANCH  77  81
ATOM     81  S   UNL A   1      38.317  33.046  40.871  1.00  0.00     0.124 S 
ATOM     82  O   UNL A   1      38.489  31.607  40.708  1.00  0.00    -0.237 OA
ATOM     83  O   UNL A   1      38.984  33.647  42.021  1.00  0.00    -0.237 OA
ATOM     84  O   UNL A   1      36.973  33.549  40.599  1.00  0.00    -0.744 OA
ENDBRANCH  77  81
ENDBRANCH  50  74
BRANCH  62  85
ATOM     85  C   UNL A   1      44.575  28.375  35.282  1.00  0.00     0.023 A 
ATOM     86  C   UNL A   1      44.483  27.344  36.233  1.00  0.00     0.031 A 
ATOM     87  C   UNL A   1      45.853  28.868  34.963  1.00  0.00     0.131 A 
ATOM     88  C   UNL A   1      45.642  26.881  36.875  1.00  0.00     0.055 A 
ATOM     89  C   UNL A   1      47.008  28.357  35.557  1.00  0.00     0.041 A 
ATOM     90  F   UNL A   1      46.001  29.855  34.065  1.00  0.00    -0.206 F 
ATOM     91  C   UNL A   1      46.905  27.367  36.530  1.00  0.00     0.022 A 
BRANCH  88  92
ATOM     92  S   UNL A   1      45.466  25.703  38.244  1.00  0.00     0.124 S 
ATOM     93  O   UNL A   1      44.764  26.502  39.242  1.00  0.00    -0.237 OA
ATOM     94  O   UNL A   1      44.696  24.626  37.632  1.00  0.00    -0.237 OA
ATOM     95  O   UNL A   1      46.847  25.362  38.581  1.00  0.00    -0.744 OA
ENDBRANCH  88  92
ENDBRANCH  62  85
ENDBRANCH  36  37
ENDBRANCH  28  31
ENDBRANCH  26  27
ENDBRANCH  25  26
ENDBRANCH  24  25
ENDBRANCH  23  24
ENDBRANCH   1  23
TORSDOF 21
ENDMDL
MODEL 3
REMARK VINA RESULT:      -8.8      1.985      2.505
REMARK SMILES CN(C)C(=O)CC[NH2+]Cc1cc(C(=O)NCCCCCCNC(=O)c2ccc(-c3c4nc(c(-c5cc(S(=O)(=O)[O-])ccc5F)c5ccc([nH]5)c(-c5cc(S(=O)(=O)[O-])ccc5F)c5nc(c(-c6cc(S(=O)(=O)[O-])ccc6F)c6ccc3[nH]6)C=C5)C=C4)cc2)cs1
REMARK SMILES IDX 17 1 16 2 15 3 13 4 14 5 12 7 10 8 11 9 89 10 88 11 9 12
REMARK SMILES IDX 8 13 7 16 6 17 4 18 1 19 2 20 3 21 5 22 18 23 19 24 20 25
REMARK SMILES IDX 21 26 22 27 23 28 24 30 25 31 26 32 87 33 27 34 86 35 28 36
REMARK SMILES IDX 29 37 30 38 80 39 31 40 85 41 79 42 81 43 32 44 84 45 78 46
REMARK SMILES IDX 77 47 33 49 65 50 45 51 64 52 46 53 49 54 63 55 82 56 47 57
REMARK SMILES IDX 48 58 62 60 83 61 50 62 34 63 35 64 43 65 36 66 42 67 44 68
REMARK SMILES IDX 41 69 37 70 38 71 39 72 40 73 66 74 67 75 75 76 68 77 74 78
REMARK SMILES IDX 76 79 73 80 69 81 70 82 71 83 72 84 51 85 52 86 60 87 53 88
REMARK SMILES IDX 59 89 61 90 58 91 54 92 55 93 56 94 57 95
REMARK H PARENT 15 6 8 14 8 15 22 29 81 48 49 59
REMARK Flexibility Score: inf
ROOT
ATOM      1  C   UNL A   1      39.469  23.308  27.123  1.00  0.00     0.021 C 
ENDROOT
BRANCH   1   2
ATOM      2  C   UNL A   1      38.351  23.470  26.092  1.00  0.00     0.116 C 
BRANCH   2   3
ATOM      3  N   UNL A   1      37.568  22.256  26.004  1.00  0.00    -0.352 N 
ATOM      4  C   UNL A   1      36.299  21.982  25.572  1.00  0.00     0.252 C 
ATOM      5  O   UNL A   1      35.939  20.804  25.669  1.00  0.00    -0.269 OA
ATOM      6  H   UNL A   1      38.049  21.459  26.323  1.00  0.00     0.163 HD
BRANCH   4   7
ATOM      7  C   UNL A   1      35.418  22.990  24.974  1.00  0.00     0.051 A 
ATOM      8  C   UNL A   1      34.182  24.956  24.560  1.00  0.00     0.059 A 
ATOM      9  C   UNL A   1      34.795  24.165  25.515  1.00  0.00     0.035 A 
ATOM     10  S   UNL A   1      34.108  24.158  23.053  1.00  0.00    -0.142 S 
ATOM     11  C   UNL A   1      35.048  22.863  23.640  1.00  0.00     0.079 A 
BRANCH   8  12
ATOM     12  C   UNL A   1      33.626  26.340  24.725  1.00  0.00     0.308 C 
BRANCH  12  13
ATOM     13  N   UNL A   1      32.343  26.498  24.025  1.00  0.00    -0.341 N 
ATOM     14  H   UNL A   1      32.316  25.843  23.243  1.00  0.00     0.346 HD
ATOM     15  H   UNL A   1      31.602  26.314  24.701  1.00  0.00     0.346 HD
BRANCH  13  16
ATOM     16  C   UNL A   1      32.139  27.856  23.506  1.00  0.00     0.270 C 
BRANCH  16  17
ATOM     17  C   UNL A   1      31.141  28.653  24.347  1.00  0.00     0.161 C 
BRANCH  17  18
ATOM     18  C   UNL A   1      29.949  29.103  23.521  1.00  0.00     0.227 C 
ATOM     19  C   UNL A   1      27.705  28.746  22.645  1.00  0.00     0.146 C 
ATOM     20  N   UNL A   1      28.865  28.251  23.368  1.00  0.00    -0.349 N 
ATOM     21  C   UNL A   1      28.805  26.854  23.782  1.00  0.00     0.146 C 
ATOM     22  O   UNL A   1      29.955  30.240  23.041  1.00  0.00    -0.275 OA
ENDBRANCH  17  18
ENDBRANCH  16  17
ENDBRANCH  13  16
ENDBRANCH  12  13
ENDBRANCH   8  12
ENDBRANCH   4   7
ENDBRANCH   2   3
ENDBRANCH   1   2
BRANCH   1  23
ATOM     23  C   UNL A   1      40.541  22.293  26.698  1.00  0.00     0.002 C 
BRANCH  23  24
ATOM     24  C   UNL A   1      41.040  21.371  27.818  1.00  0.00     0.002 C 
BRANCH  24  25
ATOM     25  C   UNL A   1      41.435  19.963  27.367  1.00  0.00     0.021 C 
BRANCH  25  26
ATOM     26  C   UNL A   1      41.408  19.758  25.856  1.00  0.00     0.116 C 
BRANCH  26  27
ATOM     27  N   UNL A   1      42.678  19.248  25.361  1.00  0.00    -0.352 N 
ATOM     28  C   UNL A   1      43.826  19.931  25.047  1.00  0.00     0.251 C 
ATOM     29  H   UNL A   1      42.718  18.273  25.233  1.00  0.00     0.163 HD
ATOM     30  O   UNL A   1      44.711  19.371  24.408  1.00  0.00    -0.269 OA
BRANCH  28  31
ATOM     31  C   UNL A   1      43.982  21.341  25.465  1.00  0.00     0.039 A 
ATOM     32  C   UNL A   1      44.502  21.620  26.730  1.00  0.00     0.014 A 
ATOM     33  C   UNL A   1      43.604  22.384  24.613  1.00  0.00     0.014 A 
ATOM     34  C   UNL A   1      44.694  22.948  27.120  1.00  0.00     0.010 A 
ATOM     35  C   UNL A   1      43.866  23.703  24.974  1.00  0.00     0.010 A 
ATOM     36  C   UNL A   1      44.410  24.000  26.234  1.00  0.00    -0.014 A 
BRANCH  36  37
ATOM     37  C   UNL A   1      44.668  25.414  26.608  1.00  0.00     0.031 A 
ATOM     38  C   UNL A   1      46.038  26.009  26.418  1.00  0.00     0.074 A 
ATOM     39  C   UNL A   1      43.684  26.144  27.172  1.00  0.00     0.049 A 
ATOM     40  N   UNL A   1      46.478  27.195  26.749  1.00  0.00    -0.248 NA
ATOM     41  C   UNL A   1      47.052  25.141  25.802  1.00  0.00     0.031 C 
ATOM     42  C   UNL A   1      42.326  25.666  27.437  1.00  0.00     0.029 A 
ATOM     43  N   UNL A   1      43.673  27.439  27.628  1.00  0.00    -0.354 N 
ATOM     44  C   UNL A   1      47.822  27.214  26.390  1.00  0.00     0.074 A 
ATOM     45  C   UNL A   1      48.137  25.897  25.879  1.00  0.00     0.031 C 
ATOM     46  C   UNL A   1      41.607  26.661  27.983  1.00  0.00     0.029 A 
ATOM     47  C   UNL A   1      42.463  27.830  28.155  1.00  0.00     0.049 A 
ATOM     48  H   UNL A   1      44.457  28.031  27.582  1.00  0.00     0.167 HD
ATOM     49  C   UNL A   1      48.705  28.242  26.459  1.00  0.00     0.034 A 
ATOM     50  C   UNL A   1      42.090  28.993  28.726  1.00  0.00     0.034 A 
ATOM     51  C   UNL A   1      48.370  29.552  26.965  1.00  0.00     0.049 A 
ATOM     52  C   UNL A   1      43.100  30.110  28.825  1.00  0.00     0.074 A 
ATOM     53  C   UNL A   1      49.170  30.679  27.034  1.00  0.00     0.029 A 
ATOM     54  N   UNL A   1      47.137  29.909  27.499  1.00  0.00    -0.354 N 
ATOM     55  N   UNL A   1      44.354  30.127  28.437  1.00  0.00    -0.248 NA
ATOM     56  C   UNL A   1      42.640  31.366  29.430  1.00  0.00     0.031 C 
ATOM     57  C   UNL A   1      48.449  31.691  27.677  1.00  0.00     0.029 A 
ATOM     58  C   UNL A   1      47.168  31.226  27.931  1.00  0.00     0.049 A 
ATOM     59  H   UNL A   1      46.356  29.313  27.561  1.00  0.00     0.167 HD
ATOM     60  C   UNL A   1      44.821  31.408  28.719  1.00  0.00     0.074 A 
ATOM     61  C   UNL A   1      43.709  32.136  29.296  1.00  0.00     0.031 C 
ATOM     62  C   UNL A   1      46.055  31.937  28.516  1.00  0.00     0.034 A 
BRANCH  49  63
ATOM     63  C   UNL A   1      50.120  27.977  26.001  1.00  0.00     0.023 A 
ATOM     64  C   UNL A   1      50.469  27.973  24.639  1.00  0.00     0.031 A 
ATOM     65  C   UNL A   1      51.133  27.703  26.937  1.00  0.00     0.131 A 
ATOM     66  C   UNL A   1      51.770  27.623  24.248  1.00  0.00     0.055 A 
ATOM     67  C   UNL A   1      52.448  27.441  26.546  1.00  0.00     0.041 A 
ATOM     68  F   UNL A   1      50.859  27.670  28.251  1.00  0.00    -0.206 F 
ATOM     69  C   UNL A   1      52.770  27.385  25.193  1.00  0.00     0.022 A 
BRANCH  66  70
ATOM     70  S   UNL A   1      52.097  27.334  22.488  1.00  0.00     0.124 S 
ATOM     71  O   UNL A   1      50.766  26.986  21.994  1.00  0.00    -0.237 OA
ATOM     72  O   UNL A   1      52.625  28.621  22.049  1.00  0.00    -0.237 OA
ATOM     73  O   UNL A   1      53.058  26.233  22.493  1.00  0.00    -0.744 OA
ENDBRANCH  66  70
ENDBRANCH  49  63
BRANCH  50  74
ATOM     74  C   UNL A   1      40.709  29.165  29.260  1.00  0.00     0.023 A 
ATOM     75  C   UNL A   1      40.453  29.096  30.638  1.00  0.00     0.031 A 
ATOM     76  C   UNL A   1      39.615  29.356  28.397  1.00  0.00     0.131 A 
ATOM     77  C   UNL A   1      39.132  29.165  31.110  1.00  0.00     0.055 A 
ATOM     78  C   UNL A   1      38.309  29.484  28.875  1.00  0.00     0.041 A 
ATOM     79  F   UNL A   1      39.802  29.433  27.069  1.00  0.00    -0.206 F 
ATOM     80  C   UNL A   1      38.061  29.374  30.239  1.00  0.00     0.022 A 
BRANCH  77  81
ATOM     81  S   UNL A   1      38.825  28.883  32.876  1.00  0.00     0.124 S 
ATOM     82  O   UNL A   1      38.906  30.238  33.410  1.00  0.00    -0.237 OA
ATOM     83  O   UNL A   1      37.499  28.276  32.859  1.00  0.00    -0.237 OA
ATOM     84  O   UNL A   1      39.913  27.990  33.269  1.00  0.00    -0.744 OA
ENDBRANCH  77  81
ENDBRANCH  50  74
BRANCH  62  85
ATOM     85  C   UNL A   1      46.248  33.391  28.878  1.00  0.00     0.023 A 
ATOM     86  C   UNL A   1      46.692  33.787  30.151  1.00  0.00     0.031 A 
ATOM     87  C   UNL A   1      45.972  34.396  27.933  1.00  0.00     0.131 A 
ATOM     88  C   UNL A   1      46.791  35.151  30.464  1.00  0.00     0.055 A 
ATOM     89  C   UNL A   1      46.137  35.750  28.229  1.00  0.00     0.041 A 
ATOM     90  F   UNL A   1      45.541  34.078  26.702  1.00  0.00    -0.206 F 
ATOM     91  C   UNL A   1      46.536  36.134  29.506  1.00  0.00     0.022 A 
BRANCH  88  92
ATOM     92  S   UNL A   1      47.163  35.627  32.175  1.00  0.00     0.124 S 
ATOM     93  O   UNL A   1      46.430  36.881  32.307  1.00  0.00    -0.237 OA
ATOM     94  O   UNL A   1      46.637  34.498  32.934  1.00  0.00    -0.237 OA
ATOM     95  O   UNL A   1      48.619  35.756  32.185  1.00  0.00    -0.744 OA
ENDBRANCH  88  92
ENDBRANCH  62  85
ENDBRANCH  36  37
ENDBRANCH  28  31
ENDBRANCH  26  27
ENDBRANCH  25  26
ENDBRANCH  24  25
ENDBRANCH  23  24
ENDBRANCH   1  23
TORSDOF 21
ENDMDL
