MODEL 1
REMARK VINA RESULT:     -11.2      0.000      0.000
REMARK SMILES O=C(CC1(NC(=O)c2cc([N+](=O)[O-])ccc2F)CCC1)NCCCCCCNC(=O)c1ccc(-c2c3nc(c(-c4cc(S(=O)(=O)[O-])ccc4F)c4ccc([nH]4)c(-c4cc(S(=O)(=O)[O-])ccc4F)c4nc(c(-c5cc(S(=O)(=O)[O-])ccc5F)c5ccc2[nH]5)C=C4)C=C3)cc1
REMARK SMILES IDX 24 1 23 2 22 3 21 4 1 5 2 6 3 8 4 9 18 10 20 11 19 12 5 13
REMARK SMILES IDX 6 14 7 16 8 17 9 18 16 19 10 20 15 21 17 22 14 23 11 24
REMARK SMILES IDX 12 25 13 26 25 27 26 28 27 29 28 30 29 31 30 33 31 34 32 35
REMARK SMILES IDX 93 36 33 37 92 38 34 39 35 40 36 41 86 42 37 43 91 44 85 45
REMARK SMILES IDX 87 46 38 47 90 48 84 49 83 50 39 52 71 53 51 54 70 55 52 56
REMARK SMILES IDX 55 57 69 58 88 59 53 60 54 61 68 63 89 64 56 65 40 66 41 67
REMARK SMILES IDX 49 68 42 69 48 70 50 71 47 72 43 73 44 74 45 75 46 76 72 77
REMARK SMILES IDX 73 78 81 79 74 80 80 81 82 82 79 83 75 84 76 85 77 86 78 87
REMARK SMILES IDX 57 88 58 89 66 90 59 91 65 92 67 93 64 94 60 95 61 96 62 97
REMARK SMILES IDX 63 98
REMARK H PARENT 21 7 5 15 28 32 87 51 55 62
REMARK Flexibility Score: inf
ROOT
ATOM      1  C   UNL A   1      32.887  29.487  26.169  1.00  0.00     0.002 C 
ENDROOT
BRANCH   1   2
ATOM      2  C   UNL A   1      32.929  29.320  24.655  1.00  0.00     0.021 C 
BRANCH   2   3
ATOM      3  C   UNL A   1      33.873  28.210  24.227  1.00  0.00     0.116 C 
BRANCH   3   4
ATOM      4  N   UNL A   1      33.249  26.902  24.144  1.00  0.00    -0.356 N 
ATOM      5  O   UNL A   1      33.877  25.664  22.341  1.00  0.00    -0.275 OA
ATOM      6  C   UNL A   1      33.892  25.842  23.558  1.00  0.00     0.222 C 
ATOM      7  H   UNL A   1      32.346  26.773  24.517  1.00  0.00     0.163 HD
BRANCH   6   8
ATOM      8  C   UNL A   1      34.571  24.844  24.478  1.00  0.00     0.128 C 
BRANCH   8   9
ATOM      9  C   UNL A   1      34.718  23.394  24.024  1.00  0.00     0.049 C 
ATOM     10  C   UNL A   1      36.070  23.138  23.251  1.00  0.00     0.029 C 
ATOM     11  C   UNL A   1      35.267  22.405  25.106  1.00  0.00     0.029 C 
ATOM     12  C   UNL A   1      36.677  22.531  24.513  1.00  0.00     0.005 C 
BRANCH   9  13
ATOM     13  N   UNL A   1      33.575  22.788  23.282  1.00  0.00    -0.346 N 
ATOM     14  C   UNL A   1      32.205  22.692  23.354  1.00  0.00     0.254 C 
ATOM     15  H   UNL A   1      33.906  22.305  22.490  1.00  0.00     0.164 HD
ATOM     16  O   UNL A   1      31.688  21.878  22.580  1.00  0.00    -0.269 OA
BRANCH  14  17
ATOM     17  C   UNL A   1      31.266  23.420  24.228  1.00  0.00     0.082 A 
ATOM     18  C   UNL A   1      30.597  24.520  23.663  1.00  0.00     0.102 A 
ATOM     19  C   UNL A   1      31.312  23.349  25.620  1.00  0.00     0.136 A 
ATOM     20  C   UNL A   1      29.960  25.463  24.490  1.00  0.00     0.270 A 
ATOM     21  C   UNL A   1      30.608  24.232  26.442  1.00  0.00     0.047 A 
ATOM     22  F   UNL A   1      32.168  22.545  26.239  1.00  0.00    -0.206 F 
ATOM     23  C   UNL A   1      29.924  25.302  25.880  1.00  0.00     0.088 A 
BRANCH  20  24
ATOM     24  N   UNL A   1      29.417  26.694  23.908  1.00  0.00     0.062 N 
ATOM     25  O   UNL A   1      30.217  27.592  23.618  1.00  0.00    -0.258 OA
ATOM     26  O   UNL A   1      28.190  26.757  23.748  1.00  0.00    -0.258 OA
ENDBRANCH  20  24
ENDBRANCH  14  17
ENDBRANCH   9  13
ENDBRANCH   8   9
ENDBRANCH   6   8
ENDBRANCH   3   4
ENDBRANCH   2   3
ENDBRANCH   1   2
BRANCH   1  27
ATOM     27  C   UNL A   1      31.585  30.108  26.694  1.00  0.00     0.002 C 
BRANCH  27  28
ATOM     28  C   UNL A   1      31.523  31.638  26.639  1.00  0.00     0.021 C 
BRANCH  28  29
ATOM     29  C   UNL A   1      32.855  32.341  26.895  1.00  0.00     0.116 C 
BRANCH  29  30
ATOM     30  N   UNL A   1      32.663  33.665  27.468  1.00  0.00    -0.352 N 
ATOM     31  C   UNL A   1      33.239  34.244  28.566  1.00  0.00     0.251 C 
ATOM     32  H   UNL A   1      32.015  34.233  26.991  1.00  0.00     0.163 HD
ATOM     33  O   UNL A   1      32.761  35.271  29.036  1.00  0.00    -0.269 OA
BRANCH  31  34
ATOM     34  C   UNL A   1      34.430  33.626  29.178  1.00  0.00     0.039 A 
ATOM     35  C   UNL A   1      35.679  34.212  28.967  1.00  0.00     0.014 A 
ATOM     36  C   UNL A   1      34.313  32.456  29.935  1.00  0.00     0.014 A 
ATOM     37  C   UNL A   1      36.809  33.658  29.570  1.00  0.00     0.010 A 
ATOM     38  C   UNL A   1      35.431  31.936  30.577  1.00  0.00     0.010 A 
ATOM     39  C   UNL A   1      36.687  32.536  30.405  1.00  0.00    -0.014 A 
BRANCH  39  40
ATOM     40  C   UNL A   1      37.860  31.983  31.123  1.00  0.00     0.031 A 
ATOM     41  C   UNL A   1      38.685  30.897  30.493  1.00  0.00     0.074 A 
ATOM     42  C   UNL A   1      38.144  32.427  32.362  1.00  0.00     0.049 A 
ATOM     43  N   UNL A   1      39.671  30.210  31.007  1.00  0.00    -0.248 NA
ATOM     44  C   UNL A   1      38.345  30.522  29.111  1.00  0.00     0.031 C 
ATOM     45  C   UNL A   1      37.405  33.472  33.077  1.00  0.00     0.029 A 
ATOM     46  N   UNL A   1      39.126  32.056  33.246  1.00  0.00    -0.354 N 
ATOM     47  C   UNL A   1      40.068  29.318  30.018  1.00  0.00     0.074 A 
ATOM     48  C   UNL A   1      39.189  29.525  28.885  1.00  0.00     0.031 C 
ATOM     49  C   UNL A   1      37.976  33.675  34.274  1.00  0.00     0.029 A 
ATOM     50  C   UNL A   1      39.089  32.745  34.435  1.00  0.00     0.049 A 
ATOM     51  H   UNL A   1      39.794  31.361  33.046  1.00  0.00     0.167 HD
ATOM     52  C   UNL A   1      41.080  28.419  30.050  1.00  0.00     0.034 A 
ATOM     53  C   UNL A   1      39.857  32.629  35.537  1.00  0.00     0.034 A 
ATOM     54  C   UNL A   1      41.958  28.234  31.177  1.00  0.00     0.049 A 
ATOM     55  C   UNL A   1      40.958  31.604  35.553  1.00  0.00     0.074 A 
ATOM     56  C   UNL A   1      43.020  27.356  31.304  1.00  0.00     0.029 A 
ATOM     57  N   UNL A   1      41.882  28.944  32.367  1.00  0.00    -0.354 N 
ATOM     58  N   UNL A   1      41.298  30.747  34.620  1.00  0.00    -0.248 NA
ATOM     59  C   UNL A   1      41.777  31.528  36.770  1.00  0.00     0.031 C 
ATOM     60  C   UNL A   1      43.561  27.505  32.586  1.00  0.00     0.029 A 
ATOM     61  C   UNL A   1      42.873  28.517  33.236  1.00  0.00     0.049 A 
ATOM     62  H   UNL A   1      41.222  29.646  32.565  1.00  0.00     0.167 HD
ATOM     63  C   UNL A   1      42.391  30.050  35.126  1.00  0.00     0.074 A 
ATOM     64  C   UNL A   1      42.652  30.585  36.447  1.00  0.00     0.031 C 
ATOM     65  C   UNL A   1      43.115  29.062  34.548  1.00  0.00     0.034 A 
BRANCH  52  66
ATOM     66  C   UNL A   1      41.288  27.557  28.836  1.00  0.00     0.023 A 
ATOM     67  C   UNL A   1      42.262  27.872  27.873  1.00  0.00     0.031 A 
ATOM     68  C   UNL A   1      40.532  26.385  28.659  1.00  0.00     0.131 A 
ATOM     69  C   UNL A   1      42.433  27.039  26.758  1.00  0.00     0.055 A 
ATOM     70  C   UNL A   1      40.746  25.531  27.576  1.00  0.00     0.041 A 
ATOM     71  F   UNL A   1      39.579  26.049  29.543  1.00  0.00    -0.206 F 
ATOM     72  C   UNL A   1      41.699  25.859  26.616  1.00  0.00     0.022 A 
BRANCH  69  73
ATOM     73  S   UNL A   1      43.600  27.541  25.464  1.00  0.00     0.124 S 
ATOM     74  O   UNL A   1      42.693  27.910  24.380  1.00  0.00    -0.237 OA
ATOM     75  O   UNL A   1      44.323  28.639  26.093  1.00  0.00    -0.237 OA
ATOM     76  O   UNL A   1      44.388  26.333  25.228  1.00  0.00    -0.744 OA
ENDBRANCH  69  73
ENDBRANCH  52  66
BRANCH  53  77
ATOM     77  C   UNL A   1      39.610  33.501  36.717  1.00  0.00     0.023 A 
ATOM     78  C   UNL A   1      38.999  32.988  37.872  1.00  0.00     0.031 A 
ATOM     79  C   UNL A   1      39.966  34.860  36.702  1.00  0.00     0.131 A 
ATOM     80  C   UNL A   1      38.730  33.840  38.955  1.00  0.00     0.055 A 
ATOM     81  C   UNL A   1      39.733  35.694  37.797  1.00  0.00     0.041 A 
ATOM     82  F   UNL A   1      40.563  35.393  35.624  1.00  0.00    -0.206 F 
ATOM     83  C   UNL A   1      39.104  35.186  38.929  1.00  0.00     0.022 A 
BRANCH  80  84
ATOM     84  S   UNL A   1      37.841  33.170  40.386  1.00  0.00     0.124 S 
ATOM     85  O   UNL A   1      36.493  33.015  39.851  1.00  0.00    -0.237 OA
ATOM     86  O   UNL A   1      38.574  31.936  40.650  1.00  0.00    -0.237 OA
ATOM     87  O   UNL A   1      37.996  34.211  41.400  1.00  0.00    -0.744 OA
ENDBRANCH  80  84
ENDBRANCH  53  77
BRANCH  65  88
ATOM     88  C   UNL A   1      44.292  28.530  35.320  1.00  0.00     0.023 A 
ATOM     89  C   UNL A   1      44.145  27.518  36.283  1.00  0.00     0.031 A 
ATOM     90  C   UNL A   1      45.582  29.027  35.062  1.00  0.00     0.131 A 
ATOM     91  C   UNL A   1      45.270  27.054  36.980  1.00  0.00     0.055 A 
ATOM     92  C   UNL A   1      46.702  28.530  35.728  1.00  0.00     0.041 A 
ATOM     93  F   UNL A   1      45.771  29.993  34.149  1.00  0.00    -0.206 F 
ATOM     94  C   UNL A   1      46.549  27.543  36.696  1.00  0.00     0.022 A 
BRANCH  91  95
ATOM     95  S   UNL A   1      45.038  25.822  38.289  1.00  0.00     0.124 S 
ATOM     96  O   UNL A   1      44.148  26.523  39.209  1.00  0.00    -0.237 OA
ATOM     97  O   UNL A   1      44.451  24.699  37.567  1.00  0.00    -0.237 OA
ATOM     98  O   UNL A   1      46.393  25.594  38.790  1.00  0.00    -0.744 OA
ENDBRANCH  91  95
ENDBRANCH  65  88
ENDBRANCH  39  40
ENDBRANCH  31  34
ENDBRANCH  29  30
ENDBRANCH  28  29
ENDBRANCH  27  28
ENDBRANCH   1  27
TORSDOF 20
ENDMDL
MODEL 2
REMARK VINA RESULT:     -11.0      1.770      7.887
REMARK SMILES O=C(CC1(NC(=O)c2cc([N+](=O)[O-])ccc2F)CCC1)NCCCCCCNC(=O)c1ccc(-c2c3nc(c(-c4cc(S(=O)(=O)[O-])ccc4F)c4ccc([nH]4)c(-c4cc(S(=O)(=O)[O-])ccc4F)c4nc(c(-c5cc(S(=O)(=O)[O-])ccc5F)c5ccc2[nH]5)C=C4)C=C3)cc1
REMARK SMILES IDX 24 1 23 2 22 3 21 4 1 5 2 6 3 8 4 9 18 10 20 11 19 12 5 13
REMARK SMILES IDX 6 14 7 16 8 17 9 18 16 19 10 20 15 21 17 22 14 23 11 24
REMARK SMILES IDX 12 25 13 26 25 27 26 28 27 29 28 30 29 31 30 33 31 34 32 35
REMARK SMILES IDX 93 36 33 37 92 38 34 39 35 40 36 41 86 42 37 43 91 44 85 45
REMARK SMILES IDX 87 46 38 47 90 48 84 49 83 50 39 52 71 53 51 54 70 55 52 56
REMARK SMILES IDX 55 57 69 58 88 59 53 60 54 61 68 63 89 64 56 65 40 66 41 67
REMARK SMILES IDX 49 68 42 69 48 70 50 71 47 72 43 73 44 74 45 75 46 76 72 77
REMARK SMILES IDX 73 78 81 79 74 80 80 81 82 82 79 83 75 84 76 85 77 86 78 87
REMARK SMILES IDX 57 88 58 89 66 90 59 91 65 92 67 93 64 94 60 95 61 96 62 97
REMARK SMILES IDX 63 98
REMARK H PARENT 21 7 5 15 28 32 87 51 55 62
REMARK Flexibility Score: inf
ROOT
ATOM      1  C   UNL A   1      32.633  29.784  25.388  1.00  0.00     0.002 C 
ENDROOT
BRANCH   1   2
ATOM      2  C   UNL A   1      32.278  29.086  24.080  1.00  0.00     0.021 C 
BRANCH   2   3
ATOM      3  C   UNL A   1      33.511  28.605  23.335  1.00  0.00     0.116 C 
BRANCH   3   4
ATOM      4  N   UNL A   1      33.220  27.931  22.083  1.00  0.00    -0.356 N 
ATOM      5  O   UNL A   1      33.989  25.793  21.956  1.00  0.00    -0.275 OA
ATOM      6  C   UNL A   1      33.041  26.573  22.031  1.00  0.00     0.222 C 
ATOM      7  H   UNL A   1      33.150  28.460  21.255  1.00  0.00     0.163 HD
BRANCH   6   8
ATOM      8  C   UNL A   1      31.613  26.059  21.995  1.00  0.00     0.128 C 
BRANCH   8   9
ATOM      9  C   UNL A   1      31.147  25.078  23.068  1.00  0.00     0.049 C 
ATOM     10  C   UNL A   1      31.829  25.346  24.466  1.00  0.00     0.029 C 
ATOM     11  C   UNL A   1      29.797  25.444  23.770  1.00  0.00     0.029 C 
ATOM     12  C   UNL A   1      30.569  26.062  24.944  1.00  0.00     0.005 C 
BRANCH   9  13
ATOM     13  N   UNL A   1      31.198  23.625  22.737  1.00  0.00    -0.346 N 
ATOM     14  C   UNL A   1      31.948  22.506  23.016  1.00  0.00     0.254 C 
ATOM     15  H   UNL A   1      30.460  23.393  22.127  1.00  0.00     0.164 HD
ATOM     16  O   UNL A   1      31.707  21.516  22.316  1.00  0.00    -0.269 OA
BRANCH  14  17
ATOM     17  C   UNL A   1      33.003  22.323  24.030  1.00  0.00     0.082 A 
ATOM     18  C   UNL A   1      34.314  22.661  23.647  1.00  0.00     0.102 A 
ATOM     19  C   UNL A   1      32.858  21.488  25.137  1.00  0.00     0.136 A 
ATOM     20  C   UNL A   1      35.412  22.210  24.404  1.00  0.00     0.270 A 
ATOM     21  C   UNL A   1      33.937  21.110  25.940  1.00  0.00     0.047 A 
ATOM     22  F   UNL A   1      31.712  20.865  25.383  1.00  0.00    -0.206 F 
ATOM     23  C   UNL A   1      35.228  21.470  25.577  1.00  0.00     0.088 A 
BRANCH  20  24
ATOM     24  N   UNL A   1      36.773  22.418  23.906  1.00  0.00     0.062 N 
ATOM     25  O   UNL A   1      36.909  23.062  22.858  1.00  0.00    -0.258 OA
ATOM     26  O   UNL A   1      37.703  21.931  24.565  1.00  0.00    -0.258 OA
ENDBRANCH  20  24
ENDBRANCH  14  17
ENDBRANCH   9  13
ENDBRANCH   8   9
ENDBRANCH   6   8
ENDBRANCH   3   4
ENDBRANCH   2   3
ENDBRANCH   1   2
BRANCH   1  27
ATOM     27  C   UNL A   1      31.421  30.338  26.150  1.00  0.00     0.002 C 
BRANCH  27  28
ATOM     28  C   UNL A   1      31.460  31.844  26.432  1.00  0.00     0.021 C 
BRANCH  28  29
ATOM     29  C   UNL A   1      32.758  32.341  27.068  1.00  0.00     0.116 C 
BRANCH  29  30
ATOM     30  N   UNL A   1      32.653  33.732  27.484  1.00  0.00    -0.352 N 
ATOM     31  C   UNL A   1      33.262  34.393  28.516  1.00  0.00     0.251 C 
ATOM     32  H   UNL A   1      32.048  34.284  26.937  1.00  0.00     0.163 HD
ATOM     33  O   UNL A   1      32.853  35.496  28.860  1.00  0.00    -0.269 OA
BRANCH  31  34
ATOM     34  C   UNL A   1      34.406  33.770  29.209  1.00  0.00     0.039 A 
ATOM     35  C   UNL A   1      34.157  32.859  30.237  1.00  0.00     0.014 A 
ATOM     36  C   UNL A   1      35.717  34.106  28.858  1.00  0.00     0.014 A 
ATOM     37  C   UNL A   1      35.230  32.235  30.876  1.00  0.00     0.010 A 
ATOM     38  C   UNL A   1      36.782  33.445  29.460  1.00  0.00     0.010 A 
ATOM     39  C   UNL A   1      36.547  32.500  30.469  1.00  0.00    -0.014 A 
BRANCH  39  40
ATOM     40  C   UNL A   1      37.695  31.785  31.076  1.00  0.00     0.031 A 
ATOM     41  C   UNL A   1      38.143  32.125  32.468  1.00  0.00     0.074 A 
ATOM     42  C   UNL A   1      38.361  30.869  30.346  1.00  0.00     0.049 A 
ATOM     43  N   UNL A   1      39.189  31.696  33.124  1.00  0.00    -0.248 NA
ATOM     44  C   UNL A   1      37.317  33.087  33.215  1.00  0.00     0.031 C 
ATOM     45  C   UNL A   1      38.021  30.465  28.979  1.00  0.00     0.029 A 
ATOM     46  N   UNL A   1      39.466  30.113  30.648  1.00  0.00    -0.354 N 
ATOM     47  C   UNL A   1      39.154  32.337  34.356  1.00  0.00     0.074 A 
ATOM     48  C   UNL A   1      38.002  33.215  34.343  1.00  0.00     0.031 C 
ATOM     49  C   UNL A   1      38.880  29.518  28.573  1.00  0.00     0.029 A 
ATOM     50  C   UNL A   1      39.861  29.281  29.627  1.00  0.00     0.049 A 
ATOM     51  H   UNL A   1      39.930  30.161  31.514  1.00  0.00     0.167 HD
ATOM     52  C   UNL A   1      39.999  32.195  35.405  1.00  0.00     0.034 A 
ATOM     53  C   UNL A   1      40.906  28.433  29.545  1.00  0.00     0.034 A 
ATOM     54  C   UNL A   1      41.132  31.307  35.412  1.00  0.00     0.049 A 
ATOM     55  C   UNL A   1      41.842  28.315  30.717  1.00  0.00     0.074 A 
ATOM     56  C   UNL A   1      42.043  31.083  36.430  1.00  0.00     0.029 A 
ATOM     57  N   UNL A   1      41.506  30.488  34.356  1.00  0.00    -0.354 N 
ATOM     58  N   UNL A   1      41.811  28.953  31.863  1.00  0.00    -0.248 NA
ATOM     59  C   UNL A   1      42.955  27.366  30.584  1.00  0.00     0.031 C 
ATOM     60  C   UNL A   1      42.991  30.161  35.976  1.00  0.00     0.029 A 
ATOM     61  C   UNL A   1      42.638  29.766  34.695  1.00  0.00     0.049 A 
ATOM     62  H   UNL A   1      41.037  30.430  33.493  1.00  0.00     0.167 HD
ATOM     63  C   UNL A   1      42.883  28.460  32.600  1.00  0.00     0.074 A 
ATOM     64  C   UNL A   1      43.542  27.473  31.769  1.00  0.00     0.031 C 
ATOM     65  C   UNL A   1      43.281  28.789  33.852  1.00  0.00     0.034 A 
BRANCH  52  66
ATOM     66  C   UNL A   1      39.738  33.027  36.631  1.00  0.00     0.023 A 
ATOM     67  C   UNL A   1      38.925  32.556  37.676  1.00  0.00     0.031 A 
ATOM     68  C   UNL A   1      40.341  34.289  36.774  1.00  0.00     0.131 A 
ATOM     69  C   UNL A   1      38.712  33.356  38.807  1.00  0.00     0.055 A 
ATOM     70  C   UNL A   1      40.169  35.057  37.926  1.00  0.00     0.041 A 
ATOM     71  F   UNL A   1      41.112  34.790  35.796  1.00  0.00    -0.206 F 
ATOM     72  C   UNL A   1      39.348  34.592  38.950  1.00  0.00     0.022 A 
BRANCH  69  73
ATOM     73  S   UNL A   1      37.552  32.783  40.076  1.00  0.00     0.124 S 
ATOM     74  O   UNL A   1      38.135  31.496  40.446  1.00  0.00    -0.237 OA
ATOM     75  O   UNL A   1      37.632  33.834  41.083  1.00  0.00    -0.237 OA
ATOM     76  O   UNL A   1      36.278  32.703  39.363  1.00  0.00    -0.744 OA
ENDBRANCH  69  73
ENDBRANCH  52  66
BRANCH  53  77
ATOM     77  C   UNL A   1      41.127  27.634  28.309  1.00  0.00     0.023 A 
ATOM     78  C   UNL A   1      40.839  26.261  28.281  1.00  0.00     0.031 A 
ATOM     79  C   UNL A   1      41.645  28.228  27.145  1.00  0.00     0.131 A 
ATOM     80  C   UNL A   1      41.102  25.517  27.121  1.00  0.00     0.055 A 
ATOM     81  C   UNL A   1      41.868  27.492  25.981  1.00  0.00     0.041 A 
ATOM     82  F   UNL A   1      41.926  29.540  27.121  1.00  0.00    -0.206 F 
ATOM     83  C   UNL A   1      41.604  26.125  25.967  1.00  0.00     0.022 A 
BRANCH  80  84
ATOM     84  S   UNL A   1      40.822  23.726  27.156  1.00  0.00     0.124 S 
ATOM     85  O   UNL A   1      39.375  23.650  26.981  1.00  0.00    -0.237 OA
ATOM     86  O   UNL A   1      41.630  23.269  26.029  1.00  0.00    -0.237 OA
ATOM     87  O   UNL A   1      41.314  23.330  28.473  1.00  0.00    -0.744 OA
ENDBRANCH  80  84
ENDBRANCH  53  77
BRANCH  65  88
ATOM     88  C   UNL A   1      44.454  28.039  34.420  1.00  0.00     0.023 A 
ATOM     89  C   UNL A   1      44.290  26.830  35.115  1.00  0.00     0.031 A 
ATOM     90  C   UNL A   1      45.758  28.533  34.234  1.00  0.00     0.131 A 
ATOM     91  C   UNL A   1      45.414  26.166  35.629  1.00  0.00     0.055 A 
ATOM     92  C   UNL A   1      46.874  27.846  34.710  1.00  0.00     0.041 A 
ATOM     93  F   UNL A   1      45.964  29.684  33.575  1.00  0.00    -0.206 F 
ATOM     94  C   UNL A   1      46.705  26.659  35.417  1.00  0.00     0.022 A 
BRANCH  91  95
ATOM     95  S   UNL A   1      45.165  24.662  36.611  1.00  0.00     0.124 S 
ATOM     96  O   UNL A   1      44.449  23.804  35.672  1.00  0.00    -0.237 OA
ATOM     97  O   UNL A   1      46.532  24.260  36.925  1.00  0.00    -0.237 OA
ATOM     98  O   UNL A   1      44.379  25.124  37.753  1.00  0.00    -0.744 OA
ENDBRANCH  91  95
ENDBRANCH  65  88
ENDBRANCH  39  40
ENDBRANCH  31  34
ENDBRANCH  29  30
ENDBRANCH  28  29
ENDBRANCH  27  28
ENDBRANCH   1  27
TORSDOF 20
ENDMDL
MODEL 3
REMARK VINA RESULT:     -10.9      1.606      2.934
REMARK SMILES O=C(CC1(NC(=O)c2cc([N+](=O)[O-])ccc2F)CCC1)NCCCCCCNC(=O)c1ccc(-c2c3nc(c(-c4cc(S(=O)(=O)[O-])ccc4F)c4ccc([nH]4)c(-c4cc(S(=O)(=O)[O-])ccc4F)c4nc(c(-c5cc(S(=O)(=O)[O-])ccc5F)c5ccc2[nH]5)C=C4)C=C3)cc1
REMARK SMILES IDX 24 1 23 2 22 3 21 4 1 5 2 6 3 8 4 9 18 10 20 11 19 12 5 13
REMARK SMILES IDX 6 14 7 16 8 17 9 18 16 19 10 20 15 21 17 22 14 23 11 24
REMARK SMILES IDX 12 25 13 26 25 27 26 28 27 29 28 30 29 31 30 33 31 34 32 35
REMARK SMILES IDX 93 36 33 37 92 38 34 39 35 40 36 41 86 42 37 43 91 44 85 45
REMARK SMILES IDX 87 46 38 47 90 48 84 49 83 50 39 52 71 53 51 54 70 55 52 56
REMARK SMILES IDX 55 57 69 58 88 59 53 60 54 61 68 63 89 64 56 65 40 66 41 67
REMARK SMILES IDX 49 68 42 69 48 70 50 71 47 72 43 73 44 74 45 75 46 76 72 77
REMARK SMILES IDX 73 78 81 79 74 80 80 81 82 82 79 83 75 84 76 85 77 86 78 87
REMARK SMILES IDX 57 88 58 89 66 90 59 91 65 92 67 93 64 94 60 95 61 96 62 97
REMARK SMILES IDX 63 98
REMARK H PARENT 21 7 5 15 28 32 87 51 55 62
REMARK Flexibility Score: inf
ROOT
ATOM      1  C   UNL A   1      32.809  29.598  27.081  1.00  0.00     0.002 C 
ENDROOT
BRANCH   1   2
ATOM      2  C   UNL A   1      33.748  28.890  26.111  1.00  0.00     0.021 C 
BRANCH   2   3
ATOM      3  C   UNL A   1      33.151  28.774  24.719  1.00  0.00     0.116 C 
BRANCH   3   4
ATOM      4  N   UNL A   1      32.264  27.638  24.549  1.00  0.00    -0.356 N 
ATOM      5  O   UNL A   1      33.228  25.818  23.579  1.00  0.00    -0.275 OA
ATOM      6  C   UNL A   1      32.741  26.352  24.574  1.00  0.00     0.222 C 
ATOM      7  H   UNL A   1      31.301  27.794  24.413  1.00  0.00     0.163 HD
BRANCH   6   8
ATOM      8  C   UNL A   1      32.579  25.575  25.869  1.00  0.00     0.128 C 
BRANCH   8   9
ATOM      9  C   UNL A   1      32.535  24.050  25.820  1.00  0.00     0.049 C 
ATOM     10  C   UNL A   1      32.047  23.417  27.182  1.00  0.00     0.029 C 
ATOM     11  C   UNL A   1      31.240  23.437  25.189  1.00  0.00     0.029 C 
ATOM     12  C   UNL A   1      30.654  23.217  26.590  1.00  0.00     0.005 C 
BRANCH   9  13
ATOM     13  N   UNL A   1      33.752  23.344  25.328  1.00  0.00    -0.346 N 
ATOM     14  C   UNL A   1      34.112  22.162  24.721  1.00  0.00     0.254 C 
ATOM     15  H   UNL A   1      34.550  23.898  25.486  1.00  0.00     0.164 HD
ATOM     16  O   UNL A   1      35.326  21.929  24.688  1.00  0.00    -0.269 OA
BRANCH  14  17
ATOM     17  C   UNL A   1      33.253  21.132  24.109  1.00  0.00     0.082 A 
ATOM     18  C   UNL A   1      33.459  19.805  24.527  1.00  0.00     0.102 A 
ATOM     19  C   UNL A   1      32.578  21.322  22.903  1.00  0.00     0.136 A 
ATOM     20  C   UNL A   1      32.943  18.735  23.772  1.00  0.00     0.270 A 
ATOM     21  C   UNL A   1      31.989  20.270  22.197  1.00  0.00     0.047 A 
ATOM     22  F   UNL A   1      32.610  22.490  22.274  1.00  0.00    -0.206 F 
ATOM     23  C   UNL A   1      32.169  18.963  22.628  1.00  0.00     0.088 A 
BRANCH  20  24
ATOM     24  N   UNL A   1      33.307  17.359  24.116  1.00  0.00     0.062 N 
ATOM     25  O   UNL A   1      33.518  16.571  23.186  1.00  0.00    -0.258 OA
ATOM     26  O   UNL A   1      33.377  17.071  25.319  1.00  0.00    -0.258 OA
ENDBRANCH  20  24
ENDBRANCH  14  17
ENDBRANCH   9  13
ENDBRANCH   8   9
ENDBRANCH   6   8
ENDBRANCH   3   4
ENDBRANCH   2   3
ENDBRANCH   1   2
BRANCH   1  27
ATOM     27  C   UNL A   1      31.629  30.308  26.404  1.00  0.00     0.002 C 
BRANCH  27  28
ATOM     28  C   UNL A   1      31.637  31.837  26.512  1.00  0.00     0.021 C 
BRANCH  28  29
ATOM     29  C   UNL A   1      32.786  32.412  27.339  1.00  0.00     0.116 C 
BRANCH  29  30
ATOM     30  N   UNL A   1      32.591  33.827  27.619  1.00  0.00    -0.352 N 
ATOM     31  C   UNL A   1      33.133  34.618  28.595  1.00  0.00     0.251 C 
ATOM     32  H   UNL A   1      31.971  34.288  27.008  1.00  0.00     0.163 HD
ATOM     33  O   UNL A   1      32.653  35.722  28.823  1.00  0.00    -0.269 OA
BRANCH  31  34
ATOM     34  C   UNL A   1      34.291  34.132  29.370  1.00  0.00     0.039 A 
ATOM     35  C   UNL A   1      34.068  33.294  30.463  1.00  0.00     0.014 A 
ATOM     36  C   UNL A   1      35.589  34.525  29.028  1.00  0.00     0.014 A 
ATOM     37  C   UNL A   1      35.157  32.798  31.182  1.00  0.00     0.010 A 
ATOM     38  C   UNL A   1      36.674  33.989  29.712  1.00  0.00     0.010 A 
ATOM     39  C   UNL A   1      36.467  33.116  30.791  1.00  0.00    -0.014 A 
BRANCH  39  40
ATOM     40  C   UNL A   1      37.638  32.532  31.487  1.00  0.00     0.031 A 
ATOM     41  C   UNL A   1      38.409  31.411  30.852  1.00  0.00     0.074 A 
ATOM     42  C   UNL A   1      37.967  32.981  32.714  1.00  0.00     0.049 A 
ATOM     43  N   UNL A   1      39.383  30.696  31.350  1.00  0.00    -0.248 NA
ATOM     44  C   UNL A   1      38.021  31.030  29.484  1.00  0.00     0.031 C 
ATOM     45  C   UNL A   1      37.283  34.060  33.432  1.00  0.00     0.029 A 
ATOM     46  N   UNL A   1      38.958  32.587  33.577  1.00  0.00    -0.354 N 
ATOM     47  C   UNL A   1      39.724  29.778  30.364  1.00  0.00     0.074 A 
ATOM     48  C   UNL A   1      38.825  30.002  29.251  1.00  0.00     0.031 C 
ATOM     49  C   UNL A   1      37.891  34.258  34.612  1.00  0.00     0.029 A 
ATOM     50  C   UNL A   1      38.975  33.291  34.758  1.00  0.00     0.049 A 
ATOM     51  H   UNL A   1      39.597  31.867  33.370  1.00  0.00     0.167 HD
ATOM     52  C   UNL A   1      40.705  28.845  30.383  1.00  0.00     0.034 A 
ATOM     53  C   UNL A   1      39.765  33.163  35.842  1.00  0.00     0.034 A 
ATOM     54  C   UNL A   1      41.603  28.643  31.491  1.00  0.00     0.049 A 
ATOM     55  C   UNL A   1      40.831  32.100  35.845  1.00  0.00     0.074 A 
ATOM     56  C   UNL A   1      42.637  27.730  31.603  1.00  0.00     0.029 A 
ATOM     57  N   UNL A   1      41.582  29.370  32.673  1.00  0.00    -0.354 N 
ATOM     58  N   UNL A   1      41.117  31.220  34.915  1.00  0.00    -0.248 NA
ATOM     59  C   UNL A   1      41.677  32.011  37.042  1.00  0.00     0.031 C 
ATOM     60  C   UNL A   1      43.215  27.876  32.869  1.00  0.00     0.029 A 
ATOM     61  C   UNL A   1      42.579  28.919  33.522  1.00  0.00     0.049 A 
ATOM     62  H   UNL A   1      40.952  30.097  32.878  1.00  0.00     0.167 HD
ATOM     63  C   UNL A   1      42.197  30.492  35.404  1.00  0.00     0.074 A 
ATOM     64  C   UNL A   1      42.509  31.034  36.710  1.00  0.00     0.031 C 
ATOM     65  C   UNL A   1      42.873  29.472  34.821  1.00  0.00     0.034 A 
BRANCH  52  66
ATOM     66  C   UNL A   1      40.853  27.961  29.176  1.00  0.00     0.023 A 
ATOM     67  C   UNL A   1      41.836  28.209  28.203  1.00  0.00     0.031 A 
ATOM     68  C   UNL A   1      40.027  26.835  29.015  1.00  0.00     0.131 A 
ATOM     69  C   UNL A   1      41.950  27.357  27.095  1.00  0.00     0.055 A 
ATOM     70  C   UNL A   1      40.182  25.960  27.939  1.00  0.00     0.041 A 
ATOM     71  F   UNL A   1      39.061  26.565  29.908  1.00  0.00    -0.206 F 
ATOM     72  C   UNL A   1      41.146  26.222  26.969  1.00  0.00     0.022 A 
BRANCH  69  73
ATOM     73  S   UNL A   1      43.135  27.778  25.789  1.00  0.00     0.124 S 
ATOM     74  O   UNL A   1      42.367  27.465  24.586  1.00  0.00    -0.237 OA
ATOM     75  O   UNL A   1      43.393  29.191  26.033  1.00  0.00    -0.237 OA
ATOM     76  O   UNL A   1      44.263  26.886  26.053  1.00  0.00    -0.744 OA
ENDBRANCH  69  73
ENDBRANCH  52  66
BRANCH  53  77
ATOM     77  C   UNL A   1      39.578  34.057  37.016  1.00  0.00     0.023 A 
ATOM     78  C   UNL A   1      38.980  33.580  38.193  1.00  0.00     0.031 A 
ATOM     79  C   UNL A   1      39.980  35.403  36.974  1.00  0.00     0.131 A 
ATOM     80  C   UNL A   1      38.768  34.453  39.271  1.00  0.00     0.055 A 
ATOM     81  C   UNL A   1      39.803  36.258  38.063  1.00  0.00     0.041 A 
ATOM     82  F   UNL A   1      40.566  35.902  35.874  1.00  0.00    -0.206 F 
ATOM     83  C   UNL A   1      39.186  35.786  39.218  1.00  0.00     0.022 A 
BRANCH  80  84
ATOM     84  S   UNL A   1      37.894  33.833  40.733  1.00  0.00     0.124 S 
ATOM     85  O   UNL A   1      37.564  35.072  41.429  1.00  0.00    -0.237 OA
ATOM     86  O   UNL A   1      36.773  33.113  40.136  1.00  0.00    -0.237 OA
ATOM     87  O   UNL A   1      38.890  32.991  41.393  1.00  0.00    -0.744 OA
ENDBRANCH  80  84
ENDBRANCH  53  77
BRANCH  65  88
ATOM     88  C   UNL A   1      44.049  28.909  35.571  1.00  0.00     0.023 A 
ATOM     89  C   UNL A   1      43.911  27.821  36.449  1.00  0.00     0.031 A 
ATOM     90  C   UNL A   1      45.331  29.454  35.376  1.00  0.00     0.131 A 
ATOM     91  C   UNL A   1      45.035  27.331  37.129  1.00  0.00     0.055 A 
ATOM     92  C   UNL A   1      46.452  28.933  36.021  1.00  0.00     0.041 A 
ATOM     93  F   UNL A   1      45.511  30.491  34.543  1.00  0.00    -0.206 F 
ATOM     94  C   UNL A   1      46.307  27.870  36.907  1.00  0.00     0.022 A 
BRANCH  91  95
ATOM     95  S   UNL A   1      44.812  25.996  38.335  1.00  0.00     0.124 S 
ATOM     96  O   UNL A   1      44.347  24.900  37.490  1.00  0.00    -0.237 OA
ATOM     97  O   UNL A   1      46.152  25.845  38.892  1.00  0.00    -0.237 OA
ATOM     98  O   UNL A   1      43.815  26.532  39.260  1.00  0.00    -0.744 OA
ENDBRANCH  91  95
ENDBRANCH  65  88
ENDBRANCH  39  40
ENDBRANCH  31  34
ENDBRANCH  29  30
ENDBRANCH  28  29
ENDBRANCH  27  28
ENDBRANCH   1  27
TORSDOF 20
ENDMDL
