MODEL 1
REMARK VINA RESULT:     -12.6      0.000      0.000
REMARK SMILES C[N@@H+]1CCN(C(=O)c2cnn3c2CCCC3)C[C@@H]1C(=O)NCCCCCCNC(=O)c1ccc(-c2c3nc(c(-c4cc(S(=O)(=O)[O-])ccc4F)c4ccc([nH]4)c(-c4cc(S(=O)(=O)[O-])ccc4F)c4nc(c(-c5cc(S(=O)(=O)[O-])ccc5F)c5ccc2[nH]5)C=C4)C=C3)cc1
REMARK SMILES IDX 25 1 24 2 23 3 22 4 21 5 19 6 20 7 18 9 1 10 2 11 3 12 4 14
REMARK SMILES IDX 17 15 5 16 6 17 7 18 8 19 9 20 12 21 10 22 11 23 13 24 16 25
REMARK SMILES IDX 14 26 15 27 26 28 27 29 28 30 29 31 30 33 31 34 32 35 93 36
REMARK SMILES IDX 33 37 92 38 34 39 35 40 36 41 86 42 37 43 91 44 85 45 87 46
REMARK SMILES IDX 38 47 90 48 84 49 83 50 39 52 71 53 51 54 70 55 52 56 55 57
REMARK SMILES IDX 69 58 88 59 53 60 54 61 68 63 89 64 56 65 40 66 41 67 49 68
REMARK SMILES IDX 42 69 48 70 50 71 47 72 43 73 44 74 45 75 46 76 72 77 73 78
REMARK SMILES IDX 81 79 74 80 80 81 82 82 79 83 75 84 76 85 77 86 78 87 57 88
REMARK SMILES IDX 58 89 66 90 59 91 65 92 67 93 64 94 60 95 61 96 62 97 63 98
REMARK H PARENT 21 8 2 13 28 32 87 51 55 62
REMARK Flexibility Score: inf
ROOT
ATOM      1  C   UNL A   1      33.356  29.457  26.321  1.00  0.00     0.002 C 
ENDROOT
BRANCH   1   2
ATOM      2  C   UNL A   1      31.908  29.375  26.822  1.00  0.00     0.002 C 
BRANCH   2   3
ATOM      3  C   UNL A   1      31.548  28.093  27.583  1.00  0.00     0.021 C 
BRANCH   3   4
ATOM      4  C   UNL A   1      32.274  26.838  27.092  1.00  0.00     0.116 C 
BRANCH   4   5
ATOM      5  N   UNL A   1      31.472  26.116  26.129  1.00  0.00    -0.351 N 
ATOM      6  C   UNL A   1      31.475  26.129  24.768  1.00  0.00     0.280 C 
ATOM      7  O   UNL A   1      30.637  25.406  24.224  1.00  0.00    -0.268 OA
ATOM      8  H   UNL A   1      30.808  25.508  26.528  1.00  0.00     0.163 HD
BRANCH   6   9
ATOM      9  C   UNL A   1      32.497  26.980  23.976  1.00  0.00     0.293 C 
ATOM     10  C   UNL A   1      30.942  28.767  23.222  1.00  0.00     0.333 C 
ATOM     11  N   UNL A   1      31.907  27.751  22.844  1.00  0.00    -0.324 N 
ATOM     12  C   UNL A   1      31.353  26.857  21.810  1.00  0.00     0.284 C 
ATOM     13  H   UNL A   1      32.695  28.268  22.454  1.00  0.00     0.348 HD
ATOM     14  C   UNL A   1      32.416  25.892  21.261  1.00  0.00     0.181 C 
ATOM     15  C   UNL A   1      33.599  26.032  23.426  1.00  0.00     0.195 C 
ATOM     16  N   UNL A   1      33.120  25.180  22.325  1.00  0.00    -0.326 N 
BRANCH  16  17
ATOM     17  C   UNL A   1      33.331  23.815  22.186  1.00  0.00     0.257 C 
ATOM     18  O   UNL A   1      33.436  23.274  21.084  1.00  0.00    -0.269 OA
BRANCH  17  19
ATOM     19  C   UNL A   1      33.548  23.033  23.388  1.00  0.00     0.081 A 
ATOM     20  C   UNL A   1      32.634  22.464  24.305  1.00  0.00     0.149 A 
ATOM     21  C   UNL A   1      34.784  22.609  23.841  1.00  0.00     0.051 A 
ATOM     22  N   UNL A   1      33.241  21.791  25.292  1.00  0.00    -0.180 NA
ATOM     23  N   UNL A   1      34.541  21.867  24.961  1.00  0.00    -0.269 N 
ATOM     24  C   UNL A   1      36.155  22.800  23.295  1.00  0.00     0.057 C 
ATOM     25  C   UNL A   1      35.560  21.250  25.786  1.00  0.00     0.144 C 
ATOM     26  C   UNL A   1      37.226  22.465  24.334  1.00  0.00     0.008 C 
ATOM     27  C   UNL A   1      36.900  21.153  25.053  1.00  0.00     0.024 C 
ENDBRANCH  17  19
ENDBRANCH  16  17
ENDBRANCH   6   9
ENDBRANCH   4   5
ENDBRANCH   3   4
ENDBRANCH   2   3
ENDBRANCH   1   2
BRANCH   1  28
ATOM     28  C   UNL A   1      34.300  30.325  27.162  1.00  0.00     0.021 C 
BRANCH  28  29
ATOM     29  C   UNL A   1      35.336  29.525  27.938  1.00  0.00     0.116 C 
BRANCH  29  30
ATOM     30  N   UNL A   1      35.499  30.011  29.304  1.00  0.00    -0.352 N 
ATOM     31  C   UNL A   1      36.483  29.665  30.203  1.00  0.00     0.251 C 
ATOM     32  H   UNL A   1      34.829  30.659  29.618  1.00  0.00     0.163 HD
ATOM     33  O   UNL A   1      36.294  29.816  31.413  1.00  0.00    -0.269 OA
BRANCH  31  34
ATOM     34  C   UNL A   1      37.759  29.125  29.701  1.00  0.00     0.039 A 
ATOM     35  C   UNL A   1      38.422  29.711  28.618  1.00  0.00     0.014 A 
ATOM     36  C   UNL A   1      38.293  28.002  30.333  1.00  0.00     0.014 A 
ATOM     37  C   UNL A   1      39.658  29.197  28.226  1.00  0.00     0.010 A 
ATOM     38  C   UNL A   1      39.563  27.575  30.028  1.00  0.00     0.010 A 
ATOM     39  C   UNL A   1      40.232  28.134  28.946  1.00  0.00    -0.014 A 
BRANCH  39  40
ATOM     40  C   UNL A   1      41.613  27.715  28.704  1.00  0.00     0.031 A 
ATOM     41  C   UNL A   1      41.700  26.425  27.964  1.00  0.00     0.074 A 
ATOM     42  C   UNL A   1      42.681  28.525  28.900  1.00  0.00     0.049 A 
ATOM     43  N   UNL A   1      42.083  25.278  28.419  1.00  0.00    -0.248 NA
ATOM     44  C   UNL A   1      41.090  26.345  26.624  1.00  0.00     0.031 C 
ATOM     45  C   UNL A   1      42.668  29.922  29.354  1.00  0.00     0.029 A 
ATOM     46  N   UNL A   1      44.004  28.319  28.639  1.00  0.00    -0.354 N 
ATOM     47  C   UNL A   1      42.044  24.407  27.333  1.00  0.00     0.074 A 
ATOM     48  C   UNL A   1      41.197  25.040  26.362  1.00  0.00     0.031 C 
ATOM     49  C   UNL A   1      43.871  30.496  29.115  1.00  0.00     0.029 A 
ATOM     50  C   UNL A   1      44.792  29.476  28.648  1.00  0.00     0.049 A 
ATOM     51  H   UNL A   1      44.377  27.425  28.458  1.00  0.00     0.167 HD
ATOM     52  C   UNL A   1      42.962  23.407  27.217  1.00  0.00     0.034 A 
ATOM     53  C   UNL A   1      46.107  29.600  28.300  1.00  0.00     0.034 A 
ATOM     54  C   UNL A   1      43.642  23.208  28.482  1.00  0.00     0.049 A 
ATOM     55  C   UNL A   1      46.690  28.244  28.396  1.00  0.00     0.074 A 
ATOM     56  C   UNL A   1      43.265  22.840  29.757  1.00  0.00     0.029 A 
ATOM     57  N   UNL A   1      44.882  23.795  28.607  1.00  0.00    -0.354 N 
ATOM     58  N   UNL A   1      46.798  27.594  29.521  1.00  0.00    -0.248 NA
ATOM     59  C   UNL A   1      46.707  27.414  27.201  1.00  0.00     0.031 C 
ATOM     60  C   UNL A   1      44.088  23.618  30.627  1.00  0.00     0.029 A 
ATOM     61  C   UNL A   1      44.990  24.352  29.853  1.00  0.00     0.049 A 
ATOM     62  H   UNL A   1      45.579  23.811  27.912  1.00  0.00     0.167 HD
ATOM     63  C   UNL A   1      46.437  26.291  29.217  1.00  0.00     0.074 A 
ATOM     64  C   UNL A   1      46.519  26.214  27.759  1.00  0.00     0.031 C 
ATOM     65  C   UNL A   1      45.828  25.501  30.152  1.00  0.00     0.034 A 
BRANCH  52  66
ATOM     66  C   UNL A   1      43.594  22.949  25.909  1.00  0.00     0.023 A 
ATOM     67  C   UNL A   1      43.691  21.554  25.716  1.00  0.00     0.031 A 
ATOM     68  C   UNL A   1      44.369  23.734  25.026  1.00  0.00     0.131 A 
ATOM     69  C   UNL A   1      44.629  21.005  24.826  1.00  0.00     0.055 A 
ATOM     70  C   UNL A   1      45.258  23.181  24.096  1.00  0.00     0.041 A 
ATOM     71  F   UNL A   1      44.378  25.069  25.048  1.00  0.00    -0.206 F 
ATOM     72  C   UNL A   1      45.424  21.810  24.021  1.00  0.00     0.022 A 
BRANCH  69  73
ATOM     73  S   UNL A   1      44.927  19.220  24.896  1.00  0.00     0.124 S 
ATOM     74  O   UNL A   1      46.233  19.173  25.544  1.00  0.00    -0.237 OA
ATOM     75  O   UNL A   1      43.793  18.759  25.689  1.00  0.00    -0.237 OA
ATOM     76  O   UNL A   1      44.912  18.821  23.490  1.00  0.00    -0.744 OA
ENDBRANCH  69  73
ENDBRANCH  52  66
BRANCH  53  77
ATOM     77  C   UNL A   1      46.780  30.728  27.582  1.00  0.00     0.023 A 
ATOM     78  C   UNL A   1      46.092  31.776  26.920  1.00  0.00     0.031 A 
ATOM     79  C   UNL A   1      48.167  30.916  27.776  1.00  0.00     0.131 A 
ATOM     80  C   UNL A   1      46.791  32.937  26.492  1.00  0.00     0.055 A 
ATOM     81  C   UNL A   1      48.847  32.064  27.361  1.00  0.00     0.041 A 
ATOM     82  F   UNL A   1      48.895  30.021  28.463  1.00  0.00    -0.206 F 
ATOM     83  C   UNL A   1      48.159  33.084  26.724  1.00  0.00     0.022 A 
BRANCH  80  84
ATOM     84  S   UNL A   1      45.921  34.324  25.674  1.00  0.00     0.124 S 
ATOM     85  O   UNL A   1      44.936  33.636  24.849  1.00  0.00    -0.237 OA
ATOM     86  O   UNL A   1      45.405  35.084  26.807  1.00  0.00    -0.237 OA
ATOM     87  O   UNL A   1      46.982  34.999  24.922  1.00  0.00    -0.744 OA
ENDBRANCH  80  84
ENDBRANCH  53  77
BRANCH  65  88
ATOM     88  C   UNL A   1      45.904  25.937  31.603  1.00  0.00     0.023 A 
ATOM     89  C   UNL A   1      44.837  26.472  32.364  1.00  0.00     0.031 A 
ATOM     90  C   UNL A   1      47.121  25.702  32.266  1.00  0.00     0.131 A 
ATOM     91  C   UNL A   1      45.024  26.759  33.733  1.00  0.00     0.055 A 
ATOM     92  C   UNL A   1      47.293  25.962  33.622  1.00  0.00     0.041 A 
ATOM     93  F   UNL A   1      48.165  25.177  31.602  1.00  0.00    -0.206 F 
ATOM     94  C   UNL A   1      46.247  26.498  34.360  1.00  0.00     0.022 A 
BRANCH  91  95
ATOM     95  S   UNL A   1      43.688  27.505  34.726  1.00  0.00     0.124 S 
ATOM     96  O   UNL A   1      44.076  27.207  36.099  1.00  0.00    -0.237 OA
ATOM     97  O   UNL A   1      43.750  28.911  34.336  1.00  0.00    -0.237 OA
ATOM     98  O   UNL A   1      42.488  26.801  34.266  1.00  0.00    -0.744 OA
ENDBRANCH  91  95
ENDBRANCH  65  88
ENDBRANCH  39  40
ENDBRANCH  31  34
ENDBRANCH  29  30
ENDBRANCH  28  29
ENDBRANCH   1  28
TORSDOF 18
ENDMDL
MODEL 2
REMARK VINA RESULT:     -12.2      2.589      6.932
REMARK SMILES C[N@@H+]1CCN(C(=O)c2cnn3c2CCCC3)C[C@@H]1C(=O)NCCCCCCNC(=O)c1ccc(-c2c3nc(c(-c4cc(S(=O)(=O)[O-])ccc4F)c4ccc([nH]4)c(-c4cc(S(=O)(=O)[O-])ccc4F)c4nc(c(-c5cc(S(=O)(=O)[O-])ccc5F)c5ccc2[nH]5)C=C4)C=C3)cc1
REMARK SMILES IDX 25 1 24 2 23 3 22 4 21 5 19 6 20 7 18 9 1 10 2 11 3 12 4 14
REMARK SMILES IDX 17 15 5 16 6 17 7 18 8 19 9 20 12 21 10 22 11 23 13 24 16 25
REMARK SMILES IDX 14 26 15 27 26 28 27 29 28 30 29 31 30 33 31 34 32 35 93 36
REMARK SMILES IDX 33 37 92 38 34 39 35 40 36 41 86 42 37 43 91 44 85 45 87 46
REMARK SMILES IDX 38 47 90 48 84 49 83 50 39 52 71 53 51 54 70 55 52 56 55 57
REMARK SMILES IDX 69 58 88 59 53 60 54 61 68 63 89 64 56 65 40 66 41 67 49 68
REMARK SMILES IDX 42 69 48 70 50 71 47 72 43 73 44 74 45 75 46 76 72 77 73 78
REMARK SMILES IDX 81 79 74 80 80 81 82 82 79 83 75 84 76 85 77 86 78 87 57 88
REMARK SMILES IDX 58 89 66 90 59 91 65 92 67 93 64 94 60 95 61 96 62 97 63 98
REMARK H PARENT 21 8 2 13 28 32 87 51 55 62
REMARK Flexibility Score: inf
ROOT
ATOM      1  C   UNL A   1      33.785  29.580  26.488  1.00  0.00     0.002 C 
ENDROOT
BRANCH   1   2
ATOM      2  C   UNL A   1      32.881  29.463  25.254  1.00  0.00     0.002 C 
BRANCH   2   3
ATOM      3  C   UNL A   1      31.514  28.813  25.502  1.00  0.00     0.021 C 
BRANCH   3   4
ATOM      4  C   UNL A   1      31.533  27.657  26.503  1.00  0.00     0.116 C 
BRANCH   4   5
ATOM      5  N   UNL A   1      31.043  26.437  25.900  1.00  0.00    -0.351 N 
ATOM      6  C   UNL A   1      31.622  25.577  25.018  1.00  0.00     0.280 C 
ATOM      7  O   UNL A   1      30.925  24.621  24.666  1.00  0.00    -0.268 OA
ATOM      8  H   UNL A   1      30.132  26.184  26.176  1.00  0.00     0.163 HD
BRANCH   6   9
ATOM      9  C   UNL A   1      33.075  25.786  24.528  1.00  0.00     0.293 C 
ATOM     10  C   UNL A   1      32.550  26.603  22.239  1.00  0.00     0.333 C 
ATOM     11  N   UNL A   1      33.255  25.631  23.056  1.00  0.00    -0.324 N 
ATOM     12  C   UNL A   1      32.955  24.256  22.616  1.00  0.00     0.284 C 
ATOM     13  H   UNL A   1      34.244  25.826  22.901  1.00  0.00     0.348 HD
ATOM     14  C   UNL A   1      33.831  23.222  23.341  1.00  0.00     0.181 C 
ATOM     15  C   UNL A   1      33.989  24.767  25.262  1.00  0.00     0.195 C 
ATOM     16  N   UNL A   1      33.795  23.385  24.792  1.00  0.00    -0.326 N 
BRANCH  16  17
ATOM     17  C   UNL A   1      33.650  22.256  25.586  1.00  0.00     0.257 C 
ATOM     18  O   UNL A   1      32.810  22.187  26.486  1.00  0.00    -0.269 OA
BRANCH  17  19
ATOM     19  C   UNL A   1      34.441  21.086  25.258  1.00  0.00     0.081 A 
ATOM     20  C   UNL A   1      35.831  20.845  25.360  1.00  0.00     0.149 A 
ATOM     21  C   UNL A   1      33.923  19.878  24.826  1.00  0.00     0.051 A 
ATOM     22  N   UNL A   1      36.174  19.611  24.964  1.00  0.00    -0.180 NA
ATOM     23  N   UNL A   1      34.991  19.040  24.682  1.00  0.00    -0.269 N 
ATOM     24  C   UNL A   1      32.524  19.435  24.582  1.00  0.00     0.057 C 
ATOM     25  C   UNL A   1      34.914  17.671  24.212  1.00  0.00     0.144 C 
ATOM     26  C   UNL A   1      32.478  18.143  23.763  1.00  0.00     0.008 C 
ATOM     27  C   UNL A   1      33.488  17.122  24.296  1.00  0.00     0.024 C 
ENDBRANCH  17  19
ENDBRANCH  16  17
ENDBRANCH   6   9
ENDBRANCH   4   5
ENDBRANCH   3   4
ENDBRANCH   2   3
ENDBRANCH   1   2
BRANCH   1  28
ATOM     28  C   UNL A   1      33.658  30.887  27.281  1.00  0.00     0.021 C 
BRANCH  28  29
ATOM     29  C   UNL A   1      34.995  31.499  27.670  1.00  0.00     0.116 C 
BRANCH  29  30
ATOM     30  N   UNL A   1      34.945  32.152  28.974  1.00  0.00    -0.352 N 
ATOM     31  C   UNL A   1      35.651  31.814  30.107  1.00  0.00     0.251 C 
ATOM     32  H   UNL A   1      34.338  32.922  29.052  1.00  0.00     0.163 HD
ATOM     33  O   UNL A   1      35.241  32.163  31.217  1.00  0.00    -0.269 OA
BRANCH  31  34
ATOM     34  C   UNL A   1      36.900  31.042  29.972  1.00  0.00     0.039 A 
ATOM     35  C   UNL A   1      38.131  31.677  29.785  1.00  0.00     0.014 A 
ATOM     36  C   UNL A   1      36.824  29.651  30.034  1.00  0.00     0.014 A 
ATOM     37  C   UNL A   1      39.289  30.900  29.728  1.00  0.00     0.010 A 
ATOM     38  C   UNL A   1      37.971  28.897  30.102  1.00  0.00     0.010 A 
ATOM     39  C   UNL A   1      39.203  29.508  29.902  1.00  0.00    -0.014 A 
BRANCH  39  40
ATOM     40  C   UNL A   1      40.406  28.690  30.067  1.00  0.00     0.031 A 
ATOM     41  C   UNL A   1      40.756  28.466  31.498  1.00  0.00     0.074 A 
ATOM     42  C   UNL A   1      40.984  28.005  29.052  1.00  0.00     0.049 A 
ATOM     43  N   UNL A   1      41.751  28.962  32.154  1.00  0.00    -0.248 NA
ATOM     44  C   UNL A   1      39.771  27.786  32.360  1.00  0.00     0.031 C 
ATOM     45  C   UNL A   1      40.534  27.932  27.655  1.00  0.00     0.029 A 
ATOM     46  N   UNL A   1      42.038  27.137  29.060  1.00  0.00    -0.354 N 
ATOM     47  C   UNL A   1      41.677  28.409  33.430  1.00  0.00     0.074 A 
ATOM     48  C   UNL A   1      40.331  27.927  33.563  1.00  0.00     0.031 C 
ATOM     49  C   UNL A   1      41.154  26.908  27.023  1.00  0.00     0.029 A 
ATOM     50  C   UNL A   1      42.163  26.354  27.907  1.00  0.00     0.049 A 
ATOM     51  H   UNL A   1      42.662  27.068  29.819  1.00  0.00     0.167 HD
ATOM     52  C   UNL A   1      42.813  28.124  34.126  1.00  0.00     0.034 A 
ATOM     53  C   UNL A   1      43.029  25.322  27.682  1.00  0.00     0.034 A 
ATOM     54  C   UNL A   1      43.948  28.792  33.521  1.00  0.00     0.049 A 
ATOM     55  C   UNL A   1      44.137  25.495  28.647  1.00  0.00     0.074 A 
ATOM     56  C   UNL A   1      44.310  30.102  33.286  1.00  0.00     0.029 A 
ATOM     57  N   UNL A   1      44.735  28.026  32.689  1.00  0.00    -0.354 N 
ATOM     58  N   UNL A   1      44.956  26.509  28.616  1.00  0.00    -0.248 NA
ATOM     59  C   UNL A   1      44.047  24.814  29.930  1.00  0.00     0.031 C 
ATOM     60  C   UNL A   1      44.971  30.085  32.020  1.00  0.00     0.029 A 
ATOM     61  C   UNL A   1      45.067  28.762  31.583  1.00  0.00     0.049 A 
ATOM     62  H   UNL A   1      45.015  27.099  32.863  1.00  0.00     0.167 HD
ATOM     63  C   UNL A   1      45.123  26.874  29.943  1.00  0.00     0.074 A 
ATOM     64  C   UNL A   1      44.647  25.721  30.707  1.00  0.00     0.031 C 
ATOM     65  C   UNL A   1      45.351  28.178  30.283  1.00  0.00     0.034 A 
BRANCH  52  66
ATOM     66  C   UNL A   1      43.009  26.902  35.015  1.00  0.00     0.023 A 
ATOM     67  C   UNL A   1      43.786  25.855  34.476  1.00  0.00     0.031 A 
ATOM     68  C   UNL A   1      42.257  26.564  36.163  1.00  0.00     0.131 A 
ATOM     69  C   UNL A   1      43.668  24.539  34.954  1.00  0.00     0.055 A 
ATOM     70  C   UNL A   1      42.190  25.262  36.674  1.00  0.00     0.041 A 
ATOM     71  F   UNL A   1      41.487  27.438  36.818  1.00  0.00    -0.206 F 
ATOM     72  C   UNL A   1      42.864  24.232  36.044  1.00  0.00     0.022 A 
BRANCH  69  73
ATOM     73  S   UNL A   1      44.428  23.209  33.988  1.00  0.00     0.124 S 
ATOM     74  O   UNL A   1      44.436  22.119  34.957  1.00  0.00    -0.237 OA
ATOM     75  O   UNL A   1      43.496  23.079  32.873  1.00  0.00    -0.237 OA
ATOM     76  O   UNL A   1      45.741  23.752  33.645  1.00  0.00    -0.744 OA
ENDBRANCH  69  73
ENDBRANCH  52  66
BRANCH  53  77
ATOM     77  C   UNL A   1      42.789  24.047  26.936  1.00  0.00     0.023 A 
ATOM     78  C   UNL A   1      43.734  23.438  26.073  1.00  0.00     0.031 A 
ATOM     79  C   UNL A   1      41.669  23.262  27.292  1.00  0.00     0.131 A 
ATOM     80  C   UNL A   1      43.534  22.108  25.612  1.00  0.00     0.055 A 
ATOM     81  C   UNL A   1      41.483  21.951  26.843  1.00  0.00     0.041 A 
ATOM     82  F   UNL A   1      40.758  23.715  28.167  1.00  0.00    -0.206 F 
ATOM     83  C   UNL A   1      42.420  21.366  26.007  1.00  0.00     0.022 A 
BRANCH  80  84
ATOM     84  S   UNL A   1      44.758  21.281  24.532  1.00  0.00     0.124 S 
ATOM     85  O   UNL A   1      44.719  22.099  23.326  1.00  0.00    -0.237 OA
ATOM     86  O   UNL A   1      45.978  21.351  25.328  1.00  0.00    -0.237 OA
ATOM     87  O   UNL A   1      44.215  19.929  24.370  1.00  0.00    -0.744 OA
ENDBRANCH  80  84
ENDBRANCH  53  77
BRANCH  65  88
ATOM     88  C   UNL A   1      45.792  29.128  29.185  1.00  0.00     0.023 A 
ATOM     89  C   UNL A   1      44.943  29.979  28.437  1.00  0.00     0.031 A 
ATOM     90  C   UNL A   1      47.176  29.229  28.962  1.00  0.00     0.131 A 
ATOM     91  C   UNL A   1      45.497  30.876  27.499  1.00  0.00     0.055 A 
ATOM     92  C   UNL A   1      47.720  30.134  28.055  1.00  0.00     0.041 A 
ATOM     93  F   UNL A   1      48.033  28.462  29.656  1.00  0.00    -0.206 F 
ATOM     94  C   UNL A   1      46.882  30.957  27.314  1.00  0.00     0.022 A 
BRANCH  91  95
ATOM     95  S   UNL A   1      44.428  31.942  26.475  1.00  0.00     0.124 S 
ATOM     96  O   UNL A   1      43.955  32.953  27.413  1.00  0.00    -0.237 OA
ATOM     97  O   UNL A   1      45.346  32.411  25.440  1.00  0.00    -0.237 OA
ATOM     98  O   UNL A   1      43.392  31.024  25.995  1.00  0.00    -0.744 OA
ENDBRANCH  91  95
ENDBRANCH  65  88
ENDBRANCH  39  40
ENDBRANCH  31  34
ENDBRANCH  29  30
ENDBRANCH  28  29
ENDBRANCH   1  28
TORSDOF 18
ENDMDL
MODEL 3
REMARK VINA RESULT:     -12.2      2.558      7.385
REMARK SMILES C[N@@H+]1CCN(C(=O)c2cnn3c2CCCC3)C[C@@H]1C(=O)NCCCCCCNC(=O)c1ccc(-c2c3nc(c(-c4cc(S(=O)(=O)[O-])ccc4F)c4ccc([nH]4)c(-c4cc(S(=O)(=O)[O-])ccc4F)c4nc(c(-c5cc(S(=O)(=O)[O-])ccc5F)c5ccc2[nH]5)C=C4)C=C3)cc1
REMARK SMILES IDX 25 1 24 2 23 3 22 4 21 5 19 6 20 7 18 9 1 10 2 11 3 12 4 14
REMARK SMILES IDX 17 15 5 16 6 17 7 18 8 19 9 20 12 21 10 22 11 23 13 24 16 25
REMARK SMILES IDX 14 26 15 27 26 28 27 29 28 30 29 31 30 33 31 34 32 35 93 36
REMARK SMILES IDX 33 37 92 38 34 39 35 40 36 41 86 42 37 43 91 44 85 45 87 46
REMARK SMILES IDX 38 47 90 48 84 49 83 50 39 52 71 53 51 54 70 55 52 56 55 57
REMARK SMILES IDX 69 58 88 59 53 60 54 61 68 63 89 64 56 65 40 66 41 67 49 68
REMARK SMILES IDX 42 69 48 70 50 71 47 72 43 73 44 74 45 75 46 76 72 77 73 78
REMARK SMILES IDX 81 79 74 80 80 81 82 82 79 83 75 84 76 85 77 86 78 87 57 88
REMARK SMILES IDX 58 89 66 90 59 91 65 92 67 93 64 94 60 95 61 96 62 97 63 98
REMARK H PARENT 21 8 2 13 28 32 87 51 55 62
REMARK Flexibility Score: inf
ROOT
ATOM      1  C   UNL A   1      32.732  29.028  26.553  1.00  0.00     0.002 C 
ENDROOT
BRANCH   1   2
ATOM      2  C   UNL A   1      33.868  28.291  25.833  1.00  0.00     0.002 C 
BRANCH   2   3
ATOM      3  C   UNL A   1      33.469  26.977  25.150  1.00  0.00     0.021 C 
BRANCH   3   4
ATOM      4  C   UNL A   1      34.136  25.730  25.734  1.00  0.00     0.116 C 
BRANCH   4   5
ATOM      5  N   UNL A   1      34.919  25.040  24.733  1.00  0.00    -0.351 N 
ATOM      6  C   UNL A   1      35.649  23.894  24.797  1.00  0.00     0.280 C 
ATOM      7  O   UNL A   1      36.235  23.573  23.759  1.00  0.00    -0.268 OA
ATOM      8  H   UNL A   1      34.924  25.476  23.850  1.00  0.00     0.163 HD
BRANCH   6   9
ATOM      9  C   UNL A   1      35.701  23.046  26.091  1.00  0.00     0.293 C 
ATOM     10  C   UNL A   1      37.918  21.986  25.718  1.00  0.00     0.333 C 
ATOM     11  N   UNL A   1      36.502  21.794  25.973  1.00  0.00    -0.324 N 
ATOM     12  C   UNL A   1      35.911  20.863  24.994  1.00  0.00     0.284 C 
ATOM     13  H   UNL A   1      36.456  21.378  26.904  1.00  0.00     0.348 HD
ATOM     14  C   UNL A   1      34.462  20.500  25.355  1.00  0.00     0.181 C 
ATOM     15  C   UNL A   1      34.245  22.682  26.494  1.00  0.00     0.195 C 
ATOM     16  N   UNL A   1      33.639  21.682  25.599  1.00  0.00    -0.326 N 
BRANCH  16  17
ATOM     17  C   UNL A   1      32.370  21.737  25.039  1.00  0.00     0.257 C 
ATOM     18  O   UNL A   1      31.499  20.904  25.299  1.00  0.00    -0.269 OA
BRANCH  17  19
ATOM     19  C   UNL A   1      32.038  22.882  24.214  1.00  0.00     0.081 A 
ATOM     20  C   UNL A   1      32.337  23.172  22.862  1.00  0.00     0.149 A 
ATOM     21  C   UNL A   1      31.242  23.940  24.614  1.00  0.00     0.051 A 
ATOM     22  N   UNL A   1      31.829  24.345  22.459  1.00  0.00    -0.180 NA
ATOM     23  N   UNL A   1      31.141  24.766  23.533  1.00  0.00    -0.269 N 
ATOM     24  C   UNL A   1      30.539  24.217  25.896  1.00  0.00     0.057 C 
ATOM     25  C   UNL A   1      30.421  26.025  23.513  1.00  0.00     0.144 C 
ATOM     26  C   UNL A   1      30.093  25.677  25.990  1.00  0.00     0.008 C 
ATOM     27  C   UNL A   1      29.439  26.133  24.682  1.00  0.00     0.024 C 
ENDBRANCH  17  19
ENDBRANCH  16  17
ENDBRANCH   6   9
ENDBRANCH   4   5
ENDBRANCH   3   4
ENDBRANCH   2   3
ENDBRANCH   1   2
BRANCH   1  28
ATOM     28  C   UNL A   1      33.086  30.416  27.103  1.00  0.00     0.021 C 
BRANCH  28  29
ATOM     29  C   UNL A   1      34.468  30.487  27.735  1.00  0.00     0.116 C 
BRANCH  29  30
ATOM     30  N   UNL A   1      35.053  31.821  27.634  1.00  0.00    -0.352 N 
ATOM     31  C   UNL A   1      36.187  32.287  28.261  1.00  0.00     0.251 C 
ATOM     32  H   UNL A   1      34.583  32.459  27.051  1.00  0.00     0.163 HD
ATOM     33  O   UNL A   1      36.349  33.499  28.420  1.00  0.00    -0.269 OA
BRANCH  31  34
ATOM     34  C   UNL A   1      37.199  31.322  28.727  1.00  0.00     0.039 A 
ATOM     35  C   UNL A   1      37.063  29.952  28.487  1.00  0.00     0.014 A 
ATOM     36  C   UNL A   1      38.304  31.812  29.423  1.00  0.00     0.014 A 
ATOM     37  C   UNL A   1      38.083  29.091  28.895  1.00  0.00     0.010 A 
ATOM     38  C   UNL A   1      39.361  30.984  29.714  1.00  0.00     0.010 A 
ATOM     39  C   UNL A   1      39.239  29.617  29.497  1.00  0.00    -0.014 A 
BRANCH  39  40
ATOM     40  C   UNL A   1      40.415  28.779  29.737  1.00  0.00     0.031 A 
ATOM     41  C   UNL A   1      40.707  28.601  31.187  1.00  0.00     0.074 A 
ATOM     42  C   UNL A   1      41.013  28.043  28.770  1.00  0.00     0.049 A 
ATOM     43  N   UNL A   1      41.690  29.099  31.861  1.00  0.00    -0.248 NA
ATOM     44  C   UNL A   1      39.676  27.977  32.037  1.00  0.00     0.031 C 
ATOM     45  C   UNL A   1      40.613  27.927  27.361  1.00  0.00     0.029 A 
ATOM     46  N   UNL A   1      42.045  27.153  28.850  1.00  0.00    -0.354 N 
ATOM     47  C   UNL A   1      41.556  28.598  33.153  1.00  0.00     0.074 A 
ATOM     48  C   UNL A   1      40.196  28.151  33.254  1.00  0.00     0.031 C 
ATOM     49  C   UNL A   1      41.231  26.867  26.791  1.00  0.00     0.029 A 
ATOM     50  C   UNL A   1      42.194  26.323  27.732  1.00  0.00     0.049 A 
ATOM     51  H   UNL A   1      42.639  27.098  29.633  1.00  0.00     0.167 HD
ATOM     52  C   UNL A   1      42.659  28.313  33.901  1.00  0.00     0.034 A 
ATOM     53  C   UNL A   1      43.042  25.265  27.578  1.00  0.00     0.034 A 
ATOM     54  C   UNL A   1      43.831  28.932  33.314  1.00  0.00     0.049 A 
ATOM     55  C   UNL A   1      44.118  25.448  28.577  1.00  0.00     0.074 A 
ATOM     56  C   UNL A   1      44.233  30.224  33.044  1.00  0.00     0.029 A 
ATOM     57  N   UNL A   1      44.629  28.118  32.541  1.00  0.00    -0.354 N 
ATOM     58  N   UNL A   1      44.962  26.442  28.539  1.00  0.00    -0.248 NA
ATOM     59  C   UNL A   1      43.965  24.819  29.879  1.00  0.00     0.031 C 
ATOM     60  C   UNL A   1      44.939  30.144  31.806  1.00  0.00     0.029 A 
ATOM     61  C   UNL A   1      45.019  28.803  31.421  1.00  0.00     0.049 A 
ATOM     62  H   UNL A   1      44.880  27.191  32.760  1.00  0.00     0.167 HD
ATOM     63  C   UNL A   1      45.089  26.853  29.856  1.00  0.00     0.074 A 
ATOM     64  C   UNL A   1      44.558  25.741  30.645  1.00  0.00     0.031 C 
ATOM     65  C   UNL A   1      45.336  28.164  30.155  1.00  0.00     0.034 A 
BRANCH  52  66
ATOM     66  C   UNL A   1      42.793  27.122  34.841  1.00  0.00     0.023 A 
ATOM     67  C   UNL A   1      43.587  26.049  34.383  1.00  0.00     0.031 A 
ATOM     68  C   UNL A   1      41.976  26.832  35.957  1.00  0.00     0.131 A 
ATOM     69  C   UNL A   1      43.429  24.752  34.898  1.00  0.00     0.055 A 
ATOM     70  C   UNL A   1      41.868  25.550  36.509  1.00  0.00     0.041 A 
ATOM     71  F   UNL A   1      41.182  27.735  36.538  1.00  0.00    -0.206 F 
ATOM     72  C   UNL A   1      42.563  24.491  35.953  1.00  0.00     0.022 A 
BRANCH  69  73
ATOM     73  S   UNL A   1      44.226  23.383  34.023  1.00  0.00     0.124 S 
ATOM     74  O   UNL A   1      43.256  23.113  32.968  1.00  0.00    -0.237 OA
ATOM     75  O   UNL A   1      45.486  23.988  33.606  1.00  0.00    -0.237 OA
ATOM     76  O   UNL A   1      44.339  22.348  35.048  1.00  0.00    -0.744 OA
ENDBRANCH  69  73
ENDBRANCH  52  66
BRANCH  53  77
ATOM     77  C   UNL A   1      42.798  23.968  26.872  1.00  0.00     0.023 A 
ATOM     78  C   UNL A   1      43.731  23.343  26.006  1.00  0.00     0.031 A 
ATOM     79  C   UNL A   1      41.693  23.183  27.270  1.00  0.00     0.131 A 
ATOM     80  C   UNL A   1      43.534  22.000  25.586  1.00  0.00     0.055 A 
ATOM     81  C   UNL A   1      41.509  21.859  26.860  1.00  0.00     0.041 A 
ATOM     82  F   UNL A   1      40.795  23.652  28.151  1.00  0.00    -0.206 F 
ATOM     83  C   UNL A   1      42.434  21.259  26.022  1.00  0.00     0.022 A 
BRANCH  80  84
ATOM     84  S   UNL A   1      44.744  21.154  24.504  1.00  0.00     0.124 S 
ATOM     85  O   UNL A   1      45.999  21.351  25.220  1.00  0.00    -0.237 OA
ATOM     86  O   UNL A   1      44.227  19.791  24.460  1.00  0.00    -0.237 OA
ATOM     87  O   UNL A   1      44.643  21.885  23.238  1.00  0.00    -0.744 OA
ENDBRANCH  80  84
ENDBRANCH  53  77
BRANCH  65  88
ATOM     88  C   UNL A   1      45.839  29.061  29.040  1.00  0.00     0.023 A 
ATOM     89  C   UNL A   1      45.123  30.133  28.454  1.00  0.00     0.031 A 
ATOM     90  C   UNL A   1      47.165  28.858  28.623  1.00  0.00     0.131 A 
ATOM     91  C   UNL A   1      45.744  30.942  27.478  1.00  0.00     0.055 A 
ATOM     92  C   UNL A   1      47.782  29.675  27.680  1.00  0.00     0.041 A 
ATOM     93  F   UNL A   1      47.902  27.870  29.157  1.00  0.00    -0.206 F 
ATOM     94  C   UNL A   1      47.072  30.717  27.098  1.00  0.00     0.022 A 
BRANCH  91  95
ATOM     95  S   UNL A   1      44.831  32.292  26.659  1.00  0.00     0.124 S 
ATOM     96  O   UNL A   1      43.845  31.592  25.844  1.00  0.00    -0.237 OA
ATOM     97  O   UNL A   1      44.302  33.049  27.791  1.00  0.00    -0.237 OA
ATOM     98  O   UNL A   1      45.868  32.989  25.895  1.00  0.00    -0.744 OA
ENDBRANCH  91  95
ENDBRANCH  65  88
ENDBRANCH  39  40
ENDBRANCH  31  34
ENDBRANCH  29  30
ENDBRANCH  28  29
ENDBRANCH   1  28
TORSDOF 18
ENDMDL
