MODEL 1
REMARK VINA RESULT:     -12.8      0.000      0.000
REMARK SMILES C[C@H]1CCCC[C@H]1[N@H+]1[C@@H](C(=O)NCCCCCCNC(=O)c2ccc(-c3c4nc(c(-c5cc(S(=O)(=O)[O-])ccc5F)c5ccc([nH]5)c(-c5cc(S(=O)(=O)[O-])ccc5F)c5nc(c(-c6cc(S(=O)(=O)[O-])ccc6F)c6ccc3[nH]6)C=C5)C=C4)cc2)CC[C@@H]2CCCC[C@@H]21
REMARK SMILES IDX 16 1 15 2 14 3 13 4 12 5 10 6 11 7 9 9 8 10 92 11 85 13
REMARK SMILES IDX 87 14 91 15 86 16 88 17 90 18 89 19 7 20 1 21 2 22 3 23 4 24
REMARK SMILES IDX 6 25 5 26 17 27 18 28 19 29 20 30 21 32 22 33 23 34 84 35
REMARK SMILES IDX 24 36 83 37 25 38 26 39 27 40 77 41 28 42 82 43 76 44 78 45
REMARK SMILES IDX 29 46 81 47 75 48 74 49 30 51 62 52 42 53 61 54 43 55 46 56
REMARK SMILES IDX 60 57 79 58 44 59 45 60 59 62 80 63 47 64 31 65 32 66 40 67
REMARK SMILES IDX 33 68 39 69 41 70 38 71 34 72 35 73 36 74 37 75 63 76 64 77
REMARK SMILES IDX 72 78 65 79 71 80 73 81 70 82 66 83 67 84 68 85 69 86 48 87
REMARK SMILES IDX 49 88 57 89 50 90 56 91 58 92 55 93 51 94 52 95 53 96 54 97
REMARK H PARENT 12 8 8 12 19 31 78 50 46 61
REMARK Flexibility Score: inf
ROOT
ATOM      1  C   UNL A   1      31.853  29.136  25.028  1.00  0.00     0.002 C 
ENDROOT
BRANCH   1   2
ATOM      2  C   UNL A   1      33.328  28.796  25.265  1.00  0.00     0.002 C 
BRANCH   2   3
ATOM      3  C   UNL A   1      34.017  28.059  24.117  1.00  0.00     0.021 C 
BRANCH   3   4
ATOM      4  C   UNL A   1      33.319  28.167  22.764  1.00  0.00     0.116 C 
BRANCH   4   5
ATOM      5  N   UNL A   1      33.609  27.062  21.855  1.00  0.00    -0.351 N 
ATOM      6  C   UNL A   1      33.061  25.801  21.792  1.00  0.00     0.278 C 
ATOM      7  O   UNL A   1      33.278  25.124  20.783  1.00  0.00    -0.268 OA
ATOM      8  H   UNL A   1      34.305  27.249  21.183  1.00  0.00     0.163 HD
BRANCH   6   9
ATOM      9  C   UNL A   1      32.130  25.324  22.897  1.00  0.00     0.274 C 
ATOM     10  N   UNL A   1      32.335  24.012  23.584  1.00  0.00    -0.319 N 
ATOM     11  C   UNL A   1      31.163  23.700  24.473  1.00  0.00     0.188 C 
ATOM     12  H   UNL A   1      33.183  24.232  24.106  1.00  0.00     0.349 HD
ATOM     13  C   UNL A   1      30.658  25.626  22.598  1.00  0.00     0.076 C 
ATOM     14  C   UNL A   1      30.501  24.979  25.058  1.00  0.00     0.048 C 
ATOM     15  C   UNL A   1      31.399  22.729  25.661  1.00  0.00     0.065 C 
ATOM     16  C   UNL A   1      29.935  25.865  23.931  1.00  0.00     0.016 C 
ATOM     17  C   UNL A   1      31.451  25.716  26.042  1.00  0.00     0.010 C 
ATOM     18  C   UNL A   1      31.755  23.409  26.985  1.00  0.00     0.006 C 
ATOM     19  C   UNL A   1      32.410  24.761  26.765  1.00  0.00     0.001 C 
BRANCH  10  20
ATOM     20  C   UNL A   1      33.005  22.838  22.963  1.00  0.00     0.187 C 
ATOM     21  C   UNL A   1      35.574  23.358  23.285  1.00  0.00     0.014 C 
ATOM     22  C   UNL A   1      34.429  22.353  23.363  1.00  0.00     0.044 C 
ATOM     23  C   UNL A   1      34.397  21.640  24.707  1.00  0.00     0.009 C 
ATOM     24  C   UNL A   1      33.579  20.357  24.623  1.00  0.00     0.001 C 
ATOM     25  C   UNL A   1      32.152  21.557  22.774  1.00  0.00     0.065 C 
ATOM     26  C   UNL A   1      32.304  20.411  23.781  1.00  0.00     0.006 C 
ENDBRANCH  10  20
ENDBRANCH   6   9
ENDBRANCH   4   5
ENDBRANCH   3   4
ENDBRANCH   2   3
ENDBRANCH   1   2
BRANCH   1  27
ATOM     27  C   UNL A   1      31.403  30.514  25.522  1.00  0.00     0.021 C 
BRANCH  27  28
ATOM     28  C   UNL A   1      31.980  30.942  26.870  1.00  0.00     0.116 C 
BRANCH  28  29
ATOM     29  N   UNL A   1      32.030  32.389  27.014  1.00  0.00    -0.352 N 
ATOM     30  C   UNL A   1      32.977  33.176  27.626  1.00  0.00     0.251 C 
ATOM     31  H   UNL A   1      31.275  32.877  26.614  1.00  0.00     0.163 HD
ATOM     32  O   UNL A   1      32.747  34.370  27.813  1.00  0.00    -0.269 OA
BRANCH  30  33
ATOM     33  C   UNL A   1      34.251  32.582  28.089  1.00  0.00     0.039 A 
ATOM     34  C   UNL A   1      35.375  33.403  28.212  1.00  0.00     0.014 A 
ATOM     35  C   UNL A   1      34.337  31.225  28.417  1.00  0.00     0.014 A 
ATOM     36  C   UNL A   1      36.556  32.887  28.753  1.00  0.00     0.010 A 
ATOM     37  C   UNL A   1      35.494  30.729  29.016  1.00  0.00     0.010 A 
ATOM     38  C   UNL A   1      36.607  31.560  29.211  1.00  0.00    -0.014 A 
BRANCH  38  39
ATOM     39  C   UNL A   1      37.789  31.046  29.956  1.00  0.00     0.031 A 
ATOM     40  C   UNL A   1      38.725  30.057  29.322  1.00  0.00     0.074 A 
ATOM     41  C   UNL A   1      37.967  31.415  31.242  1.00  0.00     0.049 A 
ATOM     42  N   UNL A   1      39.751  29.436  29.847  1.00  0.00    -0.248 NA
ATOM     43  C   UNL A   1      38.461  29.703  27.920  1.00  0.00     0.031 C 
ATOM     44  C   UNL A   1      37.111  32.351  31.975  1.00  0.00     0.029 A 
ATOM     45  N   UNL A   1      38.915  31.046  32.163  1.00  0.00    -0.354 N 
ATOM     46  C   UNL A   1      40.249  28.607  28.846  1.00  0.00     0.074 A 
ATOM     47  C   UNL A   1      39.380  28.774  27.699  1.00  0.00     0.031 C 
ATOM     48  C   UNL A   1      37.590  32.504  33.220  1.00  0.00     0.029 A 
ATOM     49  C   UNL A   1      38.748  31.632  33.397  1.00  0.00     0.049 A 
ATOM     50  H   UNL A   1      39.648  30.420  31.959  1.00  0.00     0.167 HD
ATOM     51  C   UNL A   1      41.335  27.796  28.881  1.00  0.00     0.034 A 
ATOM     52  C   UNL A   1      39.430  31.471  34.548  1.00  0.00     0.034 A 
ATOM     53  C   UNL A   1      42.190  27.645  30.035  1.00  0.00     0.049 A 
ATOM     54  C   UNL A   1      40.590  30.509  34.579  1.00  0.00     0.074 A 
ATOM     55  C   UNL A   1      43.356  26.908  30.151  1.00  0.00     0.029 A 
ATOM     56  N   UNL A   1      41.962  28.220  31.280  1.00  0.00    -0.354 N 
ATOM     57  N   UNL A   1      41.084  29.780  33.605  1.00  0.00    -0.248 NA
ATOM     58  C   UNL A   1      41.280  30.343  35.866  1.00  0.00     0.031 C 
ATOM     59  C   UNL A   1      43.780  26.960  31.483  1.00  0.00     0.029 A 
ATOM     60  C   UNL A   1      42.932  27.805  32.182  1.00  0.00     0.049 A 
ATOM     61  H   UNL A   1      41.220  28.831  31.491  1.00  0.00     0.167 HD
ATOM     62  C   UNL A   1      42.162  29.092  34.157  1.00  0.00     0.074 A 
ATOM     63  C   UNL A   1      42.253  29.505  35.542  1.00  0.00     0.031 C 
ATOM     64  C   UNL A   1      43.002  28.203  33.569  1.00  0.00     0.034 A 
BRANCH  51  65
ATOM     65  C   UNL A   1      41.635  26.974  27.649  1.00  0.00     0.023 A 
ATOM     66  C   UNL A   1      41.325  25.605  27.574  1.00  0.00     0.031 A 
ATOM     67  C   UNL A   1      42.252  27.569  26.533  1.00  0.00     0.131 A 
ATOM     68  C   UNL A   1      41.697  24.863  26.443  1.00  0.00     0.055 A 
ATOM     69  C   UNL A   1      42.543  26.843  25.377  1.00  0.00     0.041 A 
ATOM     70  F   UNL A   1      42.593  28.867  26.552  1.00  0.00    -0.206 F 
ATOM     71  C   UNL A   1      42.281  25.477  25.333  1.00  0.00     0.022 A 
BRANCH  68  72
ATOM     72  S   UNL A   1      41.548  23.056  26.505  1.00  0.00     0.124 S 
ATOM     73  O   UNL A   1      41.882  22.780  27.901  1.00  0.00    -0.237 OA
ATOM     74  O   UNL A   1      40.157  22.841  26.126  1.00  0.00    -0.237 OA
ATOM     75  O   UNL A   1      42.539  22.596  25.534  1.00  0.00    -0.744 OA
ENDBRANCH  68  72
ENDBRANCH  51  65
BRANCH  52  76
ATOM     76  C   UNL A   1      39.030  32.218  35.777  1.00  0.00     0.023 A 
ATOM     77  C   UNL A   1      38.334  31.576  36.813  1.00  0.00     0.031 A 
ATOM     78  C   UNL A   1      39.299  33.592  35.917  1.00  0.00     0.131 A 
ATOM     79  C   UNL A   1      37.891  32.313  37.921  1.00  0.00     0.055 A 
ATOM     80  C   UNL A   1      38.908  34.308  37.049  1.00  0.00     0.041 A 
ATOM     81  F   UNL A   1      39.960  34.257  34.956  1.00  0.00    -0.206 F 
ATOM     82  C   UNL A   1      38.188  33.671  38.055  1.00  0.00     0.022 A 
BRANCH  79  83
ATOM     83  S   UNL A   1      36.837  31.489  39.146  1.00  0.00     0.124 S 
ATOM     84  O   UNL A   1      37.671  31.549  40.341  1.00  0.00    -0.237 OA
ATOM     85  O   UNL A   1      35.651  32.340  39.145  1.00  0.00    -0.237 OA
ATOM     86  O   UNL A   1      36.644  30.154  38.584  1.00  0.00    -0.744 OA
ENDBRANCH  79  83
ENDBRANCH  52  76
BRANCH  64  87
ATOM     87  C   UNL A   1      44.112  27.637  34.421  1.00  0.00     0.023 A 
ATOM     88  C   UNL A   1      44.028  26.351  34.986  1.00  0.00     0.031 A 
ATOM     89  C   UNL A   1      45.272  28.393  34.671  1.00  0.00     0.131 A 
ATOM     90  C   UNL A   1      45.062  25.881  35.812  1.00  0.00     0.055 A 
ATOM     91  C   UNL A   1      46.325  27.894  35.439  1.00  0.00     0.041 A 
ATOM     92  F   UNL A   1      45.405  29.629  34.163  1.00  0.00    -0.206 F 
ATOM     93  C   UNL A   1      46.218  26.636  36.024  1.00  0.00     0.022 A 
BRANCH  90  94
ATOM     94  S   UNL A   1      44.837  24.302  36.675  1.00  0.00     0.124 S 
ATOM     95  O   UNL A   1      44.539  24.739  38.034  1.00  0.00    -0.237 OA
ATOM     96  O   UNL A   1      43.729  23.699  35.942  1.00  0.00    -0.237 OA
ATOM     97  O   UNL A   1      46.126  23.633  36.506  1.00  0.00    -0.744 OA
ENDBRANCH  90  94
ENDBRANCH  64  87
ENDBRANCH  38  39
ENDBRANCH  30  33
ENDBRANCH  28  29
ENDBRANCH  27  28
ENDBRANCH   1  27
TORSDOF 17
ENDMDL
MODEL 2
REMARK VINA RESULT:     -12.7      5.035     10.264
REMARK SMILES C[C@H]1CCCC[C@H]1[N@H+]1[C@@H](C(=O)NCCCCCCNC(=O)c2ccc(-c3c4nc(c(-c5cc(S(=O)(=O)[O-])ccc5F)c5ccc([nH]5)c(-c5cc(S(=O)(=O)[O-])ccc5F)c5nc(c(-c6cc(S(=O)(=O)[O-])ccc6F)c6ccc3[nH]6)C=C5)C=C4)cc2)CC[C@@H]2CCCC[C@@H]21
REMARK SMILES IDX 16 1 15 2 14 3 13 4 12 5 10 6 11 7 9 9 8 10 92 11 85 13
REMARK SMILES IDX 87 14 91 15 86 16 88 17 90 18 89 19 7 20 1 21 2 22 3 23 4 24
REMARK SMILES IDX 6 25 5 26 17 27 18 28 19 29 20 30 21 32 22 33 23 34 84 35
REMARK SMILES IDX 24 36 83 37 25 38 26 39 27 40 77 41 28 42 82 43 76 44 78 45
REMARK SMILES IDX 29 46 81 47 75 48 74 49 30 51 62 52 42 53 61 54 43 55 46 56
REMARK SMILES IDX 60 57 79 58 44 59 45 60 59 62 80 63 47 64 31 65 32 66 40 67
REMARK SMILES IDX 33 68 39 69 41 70 38 71 34 72 35 73 36 74 37 75 63 76 64 77
REMARK SMILES IDX 72 78 65 79 71 80 73 81 70 82 66 83 67 84 68 85 69 86 48 87
REMARK SMILES IDX 49 88 57 89 50 90 56 91 58 92 55 93 51 94 52 95 53 96 54 97
REMARK H PARENT 12 8 8 12 19 31 78 50 46 61
REMARK Flexibility Score: inf
ROOT
ATOM      1  C   UNL A   1      35.245  20.371  25.001  1.00  0.00     0.002 C 
ENDROOT
BRANCH   1   2
ATOM      2  C   UNL A   1      33.887  20.714  25.622  1.00  0.00     0.002 C 
BRANCH   2   3
ATOM      3  C   UNL A   1      33.950  21.335  27.018  1.00  0.00     0.021 C 
BRANCH   3   4
ATOM      4  C   UNL A   1      33.815  22.855  27.058  1.00  0.00     0.116 C 
BRANCH   4   5
ATOM      5  N   UNL A   1      32.494  23.325  27.461  1.00  0.00    -0.351 N 
ATOM      6  C   UNL A   1      31.411  23.691  26.693  1.00  0.00     0.278 C 
ATOM      7  O   UNL A   1      30.317  23.810  27.251  1.00  0.00    -0.268 OA
ATOM      8  H   UNL A   1      32.355  23.390  28.434  1.00  0.00     0.163 HD
BRANCH   6   9
ATOM      9  C   UNL A   1      31.566  23.829  25.185  1.00  0.00     0.274 C 
ATOM     10  N   UNL A   1      31.306  25.124  24.485  1.00  0.00    -0.319 N 
ATOM     11  C   UNL A   1      31.326  24.926  22.995  1.00  0.00     0.188 C 
ATOM     12  H   UNL A   1      32.105  25.657  24.827  1.00  0.00     0.349 HD
ATOM     13  C   UNL A   1      31.028  22.613  24.424  1.00  0.00     0.076 C 
ATOM     14  C   UNL A   1      32.299  23.795  22.557  1.00  0.00     0.048 C 
ATOM     15  C   UNL A   1      31.641  26.160  22.109  1.00  0.00     0.065 C 
ATOM     16  C   UNL A   1      31.859  22.439  23.145  1.00  0.00     0.016 C 
ATOM     17  C   UNL A   1      33.779  24.171  22.843  1.00  0.00     0.010 C 
ATOM     18  C   UNL A   1      33.117  26.327  21.739  1.00  0.00     0.006 C 
ATOM     19  C   UNL A   1      34.030  25.683  22.767  1.00  0.00     0.001 C 
BRANCH  10  20
ATOM     20  C   UNL A   1      30.376  26.174  24.984  1.00  0.00     0.187 C 
ATOM     21  C   UNL A   1      31.778  27.392  26.861  1.00  0.00     0.014 C 
ATOM     22  C   UNL A   1      30.854  27.496  25.651  1.00  0.00     0.044 C 
ATOM     23  C   UNL A   1      31.400  28.459  24.607  1.00  0.00     0.009 C 
ATOM     24  C   UNL A   1      30.301  28.903  23.649  1.00  0.00     0.001 C 
ATOM     25  C   UNL A   1      29.190  26.560  24.063  1.00  0.00     0.065 C 
ATOM     26  C   UNL A   1      29.293  27.837  23.221  1.00  0.00     0.006 C 
ENDBRANCH  10  20
ENDBRANCH   6   9
ENDBRANCH   4   5
ENDBRANCH   3   4
ENDBRANCH   2   3
ENDBRANCH   1   2
BRANCH   1  27
ATOM     27  C   UNL A   1      36.029  21.555  24.427  1.00  0.00     0.021 C 
BRANCH  27  28
ATOM     28  C   UNL A   1      37.128  22.108  25.333  1.00  0.00     0.116 C 
BRANCH  28  29
ATOM     29  N   UNL A   1      38.164  21.124  25.608  1.00  0.00    -0.352 N 
ATOM     30  C   UNL A   1      39.416  21.298  26.148  1.00  0.00     0.251 C 
ATOM     31  H   UNL A   1      37.935  20.196  25.372  1.00  0.00     0.163 HD
ATOM     32  O   UNL A   1      40.223  20.371  26.125  1.00  0.00    -0.269 OA
BRANCH  30  33
ATOM     33  C   UNL A   1      39.802  22.606  26.723  1.00  0.00     0.039 A 
ATOM     34  C   UNL A   1      40.738  22.640  27.760  1.00  0.00     0.014 A 
ATOM     35  C   UNL A   1      39.257  23.798  26.234  1.00  0.00     0.014 A 
ATOM     36  C   UNL A   1      41.198  23.869  28.241  1.00  0.00     0.010 A 
ATOM     37  C   UNL A   1      39.765  25.022  26.668  1.00  0.00     0.010 A 
ATOM     38  C   UNL A   1      40.757  25.069  27.660  1.00  0.00    -0.014 A 
BRANCH  38  39
ATOM     39  C   UNL A   1      41.370  26.375  28.027  1.00  0.00     0.031 A 
ATOM     40  C   UNL A   1      40.557  27.439  28.709  1.00  0.00     0.074 A 
ATOM     41  C   UNL A   1      42.645  26.628  27.666  1.00  0.00     0.049 A 
ATOM     42  N   UNL A   1      40.896  28.664  29.023  1.00  0.00    -0.248 NA
ATOM     43  C   UNL A   1      39.176  27.087  29.066  1.00  0.00     0.031 C 
ATOM     44  C   UNL A   1      43.528  25.683  26.978  1.00  0.00     0.029 A 
ATOM     45  N   UNL A   1      43.419  27.752  27.816  1.00  0.00    -0.354 N 
ATOM     46  C   UNL A   1      39.768  29.235  29.603  1.00  0.00     0.074 A 
ATOM     47  C   UNL A   1      38.723  28.234  29.552  1.00  0.00     0.031 C 
ATOM     48  C   UNL A   1      44.728  26.256  26.794  1.00  0.00     0.029 A 
ATOM     49  C   UNL A   1      44.685  27.627  27.291  1.00  0.00     0.049 A 
ATOM     50  H   UNL A   1      43.098  28.570  28.260  1.00  0.00     0.167 HD
ATOM     51  C   UNL A   1      39.625  30.474  30.138  1.00  0.00     0.034 A 
ATOM     52  C   UNL A   1      45.691  28.520  27.196  1.00  0.00     0.034 A 
ATOM     53  C   UNL A   1      40.682  31.458  30.180  1.00  0.00     0.049 A 
ATOM     54  C   UNL A   1      45.481  29.913  27.733  1.00  0.00     0.074 A 
ATOM     55  C   UNL A   1      40.664  32.713  30.764  1.00  0.00     0.029 A 
ATOM     56  N   UNL A   1      41.935  31.312  29.598  1.00  0.00    -0.354 N 
ATOM     57  N   UNL A   1      44.428  30.416  28.334  1.00  0.00    -0.248 NA
ATOM     58  C   UNL A   1      46.594  30.859  27.575  1.00  0.00     0.031 C 
ATOM     59  C   UNL A   1      41.866  33.359  30.456  1.00  0.00     0.029 A 
ATOM     60  C   UNL A   1      42.674  32.475  29.757  1.00  0.00     0.049 A 
ATOM     61  H   UNL A   1      42.251  30.501  29.138  1.00  0.00     0.167 HD
ATOM     62  C   UNL A   1      44.765  31.730  28.651  1.00  0.00     0.074 A 
ATOM     63  C   UNL A   1      46.122  31.934  28.189  1.00  0.00     0.031 C 
ATOM     64  C   UNL A   1      44.020  32.679  29.272  1.00  0.00     0.034 A 
BRANCH  51  65
ATOM     65  C   UNL A   1      38.266  30.851  30.679  1.00  0.00     0.023 A 
ATOM     66  C   UNL A   1      37.314  31.527  29.896  1.00  0.00     0.031 A 
ATOM     67  C   UNL A   1      37.919  30.537  32.006  1.00  0.00     0.131 A 
ATOM     68  C   UNL A   1      36.098  31.932  30.465  1.00  0.00     0.055 A 
ATOM     69  C   UNL A   1      36.673  30.868  32.542  1.00  0.00     0.041 A 
ATOM     70  F   UNL A   1      38.793  29.912  32.811  1.00  0.00    -0.206 F 
ATOM     71  C   UNL A   1      35.759  31.583  31.775  1.00  0.00     0.022 A 
BRANCH  68  72
ATOM     72  S   UNL A   1      35.028  33.051  29.519  1.00  0.00     0.124 S 
ATOM     73  O   UNL A   1      34.562  32.176  28.446  1.00  0.00    -0.237 OA
ATOM     74  O   UNL A   1      34.028  33.440  30.507  1.00  0.00    -0.237 OA
ATOM     75  O   UNL A   1      35.935  34.116  29.095  1.00  0.00    -0.744 OA
ENDBRANCH  68  72
ENDBRANCH  51  65
BRANCH  52  76
ATOM     76  C   UNL A   1      46.981  28.142  26.550  1.00  0.00     0.023 A 
ATOM     77  C   UNL A   1      47.109  28.133  25.152  1.00  0.00     0.031 A 
ATOM     78  C   UNL A   1      48.092  27.744  27.315  1.00  0.00     0.131 A 
ATOM     79  C   UNL A   1      48.303  27.692  24.561  1.00  0.00     0.055 A 
ATOM     80  C   UNL A   1      49.297  27.363  26.724  1.00  0.00     0.041 A 
ATOM     81  F   UNL A   1      48.025  27.731  28.656  1.00  0.00    -0.206 F 
ATOM     82  C   UNL A   1      49.404  27.323  25.336  1.00  0.00     0.022 A 
BRANCH  79  83
ATOM     83  S   UNL A   1      48.364  27.519  22.756  1.00  0.00     0.124 S 
ATOM     84  O   UNL A   1      49.617  28.196  22.438  1.00  0.00    -0.237 OA
ATOM     85  O   UNL A   1      48.357  26.069  22.591  1.00  0.00    -0.237 OA
ATOM     86  O   UNL A   1      47.153  28.202  22.308  1.00  0.00    -0.744 OA
ENDBRANCH  79  83
ENDBRANCH  52  76
BRANCH  64  87
ATOM     87  C   UNL A   1      44.672  34.020  29.511  1.00  0.00     0.023 A 
ATOM     88  C   UNL A   1      44.482  35.101  28.632  1.00  0.00     0.031 A 
ATOM     89  C   UNL A   1      45.494  34.219  30.635  1.00  0.00     0.131 A 
ATOM     90  C   UNL A   1      45.145  36.317  28.864  1.00  0.00     0.055 A 
ATOM     91  C   UNL A   1      46.098  35.450  30.895  1.00  0.00     0.041 A 
ATOM     92  F   UNL A   1      45.717  33.221  31.505  1.00  0.00    -0.206 F 
ATOM     93  C   UNL A   1      45.934  36.504  30.001  1.00  0.00     0.022 A 
BRANCH  90  94
ATOM     94  S   UNL A   1      45.029  37.625  27.614  1.00  0.00     0.124 S 
ATOM     95  O   UNL A   1      43.832  37.235  26.877  1.00  0.00    -0.237 OA
ATOM     96  O   UNL A   1      44.910  38.829  28.430  1.00  0.00    -0.237 OA
ATOM     97  O   UNL A   1      46.283  37.503  26.872  1.00  0.00    -0.744 OA
ENDBRANCH  90  94
ENDBRANCH  64  87
ENDBRANCH  38  39
ENDBRANCH  30  33
ENDBRANCH  28  29
ENDBRANCH  27  28
ENDBRANCH   1  27
TORSDOF 17
ENDMDL
MODEL 3
REMARK VINA RESULT:     -12.7      5.030      8.238
REMARK SMILES C[C@H]1CCCC[C@H]1[N@H+]1[C@@H](C(=O)NCCCCCCNC(=O)c2ccc(-c3c4nc(c(-c5cc(S(=O)(=O)[O-])ccc5F)c5ccc([nH]5)c(-c5cc(S(=O)(=O)[O-])ccc5F)c5nc(c(-c6cc(S(=O)(=O)[O-])ccc6F)c6ccc3[nH]6)C=C5)C=C4)cc2)CC[C@@H]2CCCC[C@@H]21
REMARK SMILES IDX 16 1 15 2 14 3 13 4 12 5 10 6 11 7 9 9 8 10 92 11 85 13
REMARK SMILES IDX 87 14 91 15 86 16 88 17 90 18 89 19 7 20 1 21 2 22 3 23 4 24
REMARK SMILES IDX 6 25 5 26 17 27 18 28 19 29 20 30 21 32 22 33 23 34 84 35
REMARK SMILES IDX 24 36 83 37 25 38 26 39 27 40 77 41 28 42 82 43 76 44 78 45
REMARK SMILES IDX 29 46 81 47 75 48 74 49 30 51 62 52 42 53 61 54 43 55 46 56
REMARK SMILES IDX 60 57 79 58 44 59 45 60 59 62 80 63 47 64 31 65 32 66 40 67
REMARK SMILES IDX 33 68 39 69 41 70 38 71 34 72 35 73 36 74 37 75 63 76 64 77
REMARK SMILES IDX 72 78 65 79 71 80 73 81 70 82 66 83 67 84 68 85 69 86 48 87
REMARK SMILES IDX 49 88 57 89 50 90 56 91 58 92 55 93 51 94 52 95 53 96 54 97
REMARK H PARENT 12 8 8 12 19 31 78 50 46 61
REMARK Flexibility Score: inf
ROOT
ATOM      1  C   UNL A   1      35.654  21.525  24.820  1.00  0.00     0.002 C 
ENDROOT
BRANCH   1   2
ATOM      2  C   UNL A   1      35.975  22.935  25.326  1.00  0.00     0.002 C 
BRANCH   2   3
ATOM      3  C   UNL A   1      34.936  23.538  26.272  1.00  0.00     0.021 C 
BRANCH   3   4
ATOM      4  C   UNL A   1      34.024  22.528  26.963  1.00  0.00     0.116 C 
BRANCH   4   5
ATOM      5  N   UNL A   1      32.761  23.091  27.433  1.00  0.00    -0.351 N 
ATOM      6  C   UNL A   1      31.675  23.546  26.719  1.00  0.00     0.278 C 
ATOM      7  O   UNL A   1      30.620  23.740  27.330  1.00  0.00    -0.268 OA
ATOM      8  H   UNL A   1      32.673  23.153  28.412  1.00  0.00     0.163 HD
BRANCH   6   9
ATOM      9  C   UNL A   1      31.770  23.692  25.208  1.00  0.00     0.274 C 
ATOM     10  N   UNL A   1      31.420  24.972  24.519  1.00  0.00    -0.319 N 
ATOM     11  C   UNL A   1      31.398  24.775  23.029  1.00  0.00     0.188 C 
ATOM     12  H   UNL A   1      32.202  25.545  24.834  1.00  0.00     0.349 HD
ATOM     13  C   UNL A   1      31.269  22.450  24.463  1.00  0.00     0.076 C 
ATOM     14  C   UNL A   1      32.413  23.695  22.556  1.00  0.00     0.048 C 
ATOM     15  C   UNL A   1      31.618  26.024  22.135  1.00  0.00     0.065 C 
ATOM     16  C   UNL A   1      32.064  22.319  23.156  1.00  0.00     0.016 C 
ATOM     17  C   UNL A   1      33.880  24.148  22.790  1.00  0.00     0.010 C 
ATOM     18  C   UNL A   1      33.070  26.266  21.714  1.00  0.00     0.006 C 
ATOM     19  C   UNL A   1      34.050  25.670  22.708  1.00  0.00     0.001 C 
BRANCH  10  20
ATOM     20  C   UNL A   1      30.455  25.972  25.052  1.00  0.00     0.187 C 
ATOM     21  C   UNL A   1      31.852  27.252  26.890  1.00  0.00     0.014 C 
ATOM     22  C   UNL A   1      30.887  27.314  25.711  1.00  0.00     0.044 C 
ATOM     23  C   UNL A   1      31.352  28.307  24.655  1.00  0.00     0.009 C 
ATOM     24  C   UNL A   1      30.203  28.699  23.733  1.00  0.00     0.001 C 
ATOM     25  C   UNL A   1      29.223  26.303  24.170  1.00  0.00     0.065 C 
ATOM     26  C   UNL A   1      29.236  27.586  23.331  1.00  0.00     0.006 C 
ENDBRANCH  10  20
ENDBRANCH   6   9
ENDBRANCH   4   5
ENDBRANCH   3   4
ENDBRANCH   2   3
ENDBRANCH   1   2
BRANCH   1  27
ATOM     27  C   UNL A   1      36.773  20.493  24.984  1.00  0.00     0.021 C 
BRANCH  27  28
ATOM     28  C   UNL A   1      38.180  21.073  25.111  1.00  0.00     0.116 C 
BRANCH  28  29
ATOM     29  N   UNL A   1      39.075  20.194  25.848  1.00  0.00    -0.352 N 
ATOM     30  C   UNL A   1      40.141  20.508  26.657  1.00  0.00     0.251 C 
ATOM     31  H   UNL A   1      38.889  19.232  25.755  1.00  0.00     0.163 HD
ATOM     32  O   UNL A   1      40.897  19.617  27.042  1.00  0.00    -0.269 OA
BRANCH  30  33
ATOM     33  C   UNL A   1      40.400  21.916  27.034  1.00  0.00     0.039 A 
ATOM     34  C   UNL A   1      41.364  22.190  28.007  1.00  0.00     0.014 A 
ATOM     35  C   UNL A   1      39.706  22.965  26.422  1.00  0.00     0.014 A 
ATOM     36  C   UNL A   1      41.701  23.515  28.297  1.00  0.00     0.010 A 
ATOM     37  C   UNL A   1      40.089  24.284  26.664  1.00  0.00     0.010 A 
ATOM     38  C   UNL A   1      41.106  24.571  27.587  1.00  0.00    -0.014 A 
BRANCH  38  39
ATOM     39  C   UNL A   1      41.582  25.973  27.747  1.00  0.00     0.031 A 
ATOM     40  C   UNL A   1      42.920  26.395  27.209  1.00  0.00     0.074 A 
ATOM     41  C   UNL A   1      40.833  26.844  28.454  1.00  0.00     0.049 A 
ATOM     42  N   UNL A   1      43.534  27.544  27.332  1.00  0.00    -0.248 NA
ATOM     43  C   UNL A   1      43.675  25.386  26.454  1.00  0.00     0.031 C 
ATOM     44  C   UNL A   1      39.527  26.546  29.046  1.00  0.00     0.029 A 
ATOM     45  N   UNL A   1      41.061  28.152  28.804  1.00  0.00    -0.354 N 
ATOM     46  C   UNL A   1      44.755  27.395  26.681  1.00  0.00     0.074 A 
ATOM     47  C   UNL A   1      44.809  26.028  26.208  1.00  0.00     0.031 C 
ATOM     48  C   UNL A   1      39.058  27.644  29.658  1.00  0.00     0.029 A 
ATOM     49  C   UNL A   1      40.053  28.707  29.560  1.00  0.00     0.049 A 
ATOM     50  H   UNL A   1      41.870  28.646  28.538  1.00  0.00     0.167 HD
ATOM     51  C   UNL A   1      45.730  28.319  26.488  1.00  0.00     0.034 A 
ATOM     52  C   UNL A   1      39.950  29.924  30.130  1.00  0.00     0.034 A 
ATOM     53  C   UNL A   1      45.655  29.679  26.967  1.00  0.00     0.049 A 
ATOM     54  C   UNL A   1      41.080  30.907  29.961  1.00  0.00     0.074 A 
ATOM     55  C   UNL A   1      46.553  30.713  26.761  1.00  0.00     0.029 A 
ATOM     56  N   UNL A   1      44.641  30.191  27.766  1.00  0.00    -0.354 N 
ATOM     57  N   UNL A   1      42.200  30.770  29.289  1.00  0.00    -0.248 NA
ATOM     58  C   UNL A   1      40.934  32.207  30.630  1.00  0.00     0.031 C 
ATOM     59  C   UNL A   1      46.131  31.817  27.510  1.00  0.00     0.029 A 
ATOM     60  C   UNL A   1      44.922  31.506  28.110  1.00  0.00     0.049 A 
ATOM     61  H   UNL A   1      43.840  29.693  28.048  1.00  0.00     0.167 HD
ATOM     62  C   UNL A   1      42.877  31.978  29.433  1.00  0.00     0.074 A 
ATOM     63  C   UNL A   1      42.034  32.835  30.240  1.00  0.00     0.031 C 
ATOM     64  C   UNL A   1      44.086  32.346  28.937  1.00  0.00     0.034 A 
BRANCH  51  65
ATOM     65  C   UNL A   1      46.980  27.876  25.764  1.00  0.00     0.023 A 
ATOM     66  C   UNL A   1      47.174  28.122  24.394  1.00  0.00     0.031 A 
ATOM     67  C   UNL A   1      47.993  27.187  26.456  1.00  0.00     0.131 A 
ATOM     68  C   UNL A   1      48.312  27.619  23.745  1.00  0.00     0.055 A 
ATOM     69  C   UNL A   1      49.163  26.764  25.823  1.00  0.00     0.041 A 
ATOM     70  F   UNL A   1      47.858  26.903  27.761  1.00  0.00    -0.206 F 
ATOM     71  C   UNL A   1      49.321  26.965  24.455  1.00  0.00     0.022 A 
BRANCH  68  72
ATOM     72  S   UNL A   1      48.383  27.699  21.934  1.00  0.00     0.124 S 
ATOM     73  O   UNL A   1      48.573  26.293  21.584  1.00  0.00    -0.237 OA
ATOM     74  O   UNL A   1      47.086  28.272  21.593  1.00  0.00    -0.237 OA
ATOM     75  O   UNL A   1      49.535  28.559  21.673  1.00  0.00    -0.744 OA
ENDBRANCH  68  72
ENDBRANCH  51  65
BRANCH  52  76
ATOM     76  C   UNL A   1      38.745  30.284  30.935  1.00  0.00     0.023 A 
ATOM     77  C   UNL A   1      37.675  30.981  30.353  1.00  0.00     0.031 A 
ATOM     78  C   UNL A   1      38.663  29.974  32.305  1.00  0.00     0.131 A 
ATOM     79  C   UNL A   1      36.590  31.386  31.145  1.00  0.00     0.055 A 
ATOM     80  C   UNL A   1      37.554  30.327  33.075  1.00  0.00     0.041 A 
ATOM     81  F   UNL A   1      39.659  29.310  32.913  1.00  0.00    -0.206 F 
ATOM     82  C   UNL A   1      36.514  31.049  32.498  1.00  0.00     0.022 A 
BRANCH  79  83
ATOM     83  S   UNL A   1      35.319  32.443  30.399  1.00  0.00     0.124 S 
ATOM     84  O   UNL A   1      36.098  33.614  30.013  1.00  0.00    -0.237 OA
ATOM     85  O   UNL A   1      34.833  31.606  29.307  1.00  0.00    -0.237 OA
ATOM     86  O   UNL A   1      34.370  32.655  31.490  1.00  0.00    -0.744 OA
ENDBRANCH  79  83
ENDBRANCH  52  76
BRANCH  64  87
ATOM     87  C   UNL A   1      44.554  33.750  29.235  1.00  0.00     0.023 A 
ATOM     88  C   UNL A   1      44.195  34.839  28.421  1.00  0.00     0.031 A 
ATOM     89  C   UNL A   1      45.373  34.003  30.351  1.00  0.00     0.131 A 
ATOM     90  C   UNL A   1      44.691  36.121  28.706  1.00  0.00     0.055 A 
ATOM     91  C   UNL A   1      45.810  35.291  30.667  1.00  0.00     0.041 A 
ATOM     92  F   UNL A   1      45.754  33.002  31.161  1.00  0.00    -0.206 F 
ATOM     93  C   UNL A   1      45.479  36.356  29.836  1.00  0.00     0.022 A 
BRANCH  90  94
ATOM     94  S   UNL A   1      44.363  37.463  27.532  1.00  0.00     0.124 S 
ATOM     95  O   UNL A   1      45.663  37.630  26.890  1.00  0.00    -0.237 OA
ATOM     96  O   UNL A   1      43.308  36.898  26.697  1.00  0.00    -0.237 OA
ATOM     97  O   UNL A   1      43.946  38.573  28.388  1.00  0.00    -0.744 OA
ENDBRANCH  90  94
ENDBRANCH  64  87
ENDBRANCH  38  39
ENDBRANCH  30  33
ENDBRANCH  28  29
ENDBRANCH  27  28
ENDBRANCH   1  27
TORSDOF 17
ENDMDL
