MODEL 1
REMARK VINA RESULT:     -10.9      0.000      0.000
REMARK SMILES O=C1NC(=S)S/C1=C\c1ccc(OCc2cn(-c3ccc(C(=O)NCCCCCCNC(=O)c4ccc(-c5c6nc(c(-c7cc(S(=O)(=O)[O-])ccc7F)c7ccc([nH]7)c(-c7cc(S(=O)(=O)[O-])ccc7F)c7nc(c(-c8cc(S(=O)(=O)[O-])ccc8F)c8ccc5[nH]8)C=C7)C=C6)cc4)cc3)nn2)cc1
REMARK SMILES IDX 26 1 25 2 24 3 22 4 23 5 21 7 18 8 19 9 98 10 20 11 97 12
REMARK SMILES IDX 17 13 15 14 16 15 100 16 99 17 14 18 13 19 12 20 9 21 10 22
REMARK SMILES IDX 102 23 11 24 101 25 8 26 1 27 2 28 3 29 7 30 4 31 6 33 5 34
REMARK SMILES IDX 27 35 28 36 29 37 30 38 31 39 32 40 33 42 34 43 35 44 96 45
REMARK SMILES IDX 36 46 95 47 37 48 38 49 39 50 89 51 40 52 94 53 88 54 90 55
REMARK SMILES IDX 41 56 93 57 87 58 86 59 42 61 74 62 54 63 73 64 55 65 58 66
REMARK SMILES IDX 72 67 91 68 56 69 57 70 71 72 92 73 59 74 43 75 44 76 52 77
REMARK SMILES IDX 45 78 51 79 53 80 50 81 46 82 47 83 48 84 49 85 75 86 76 87
REMARK SMILES IDX 84 88 77 89 83 90 85 91 82 92 78 93 79 94 80 95 81 96 60 97
REMARK SMILES IDX 61 98 69 99 62 100 68 101 70 102 67 103 63 104 64 105 65 106
REMARK SMILES IDX 66 107
REMARK H PARENT 24 6 3 32 31 41 90 60 58 71
REMARK Flexibility Score: inf
ROOT
ATOM      1  C   UNL A   1      38.919  34.154  29.367  1.00  0.00     0.021 C 
ENDROOT
BRANCH   1   2
ATOM      2  C   UNL A   1      39.853  34.214  30.577  1.00  0.00     0.116 C 
BRANCH   2   3
ATOM      3  N   UNL A   1      39.135  34.721  31.728  1.00  0.00    -0.352 N 
ATOM      4  C   UNL A   1      38.930  34.232  32.991  1.00  0.00     0.251 C 
ATOM      5  O   UNL A   1      38.233  34.908  33.750  1.00  0.00    -0.269 OA
ATOM      6  H   UNL A   1      38.707  35.595  31.572  1.00  0.00     0.163 HD
BRANCH   4   7
ATOM      7  C   UNL A   1      39.580  32.993  33.507  1.00  0.00     0.039 A 
ATOM      8  C   UNL A   1      40.479  30.516  34.473  1.00  0.00     0.066 A 
ATOM      9  C   UNL A   1      39.833  30.588  33.234  1.00  0.00     0.029 A 
ATOM     10  C   UNL A   1      40.757  31.683  35.185  1.00  0.00     0.029 A 
ATOM     11  C   UNL A   1      39.357  31.817  32.775  1.00  0.00     0.016 A 
ATOM     12  C   UNL A   1      40.367  32.918  34.660  1.00  0.00     0.016 A 
BRANCH   8  13
ATOM     13  N   UNL A   1      40.860  29.260  34.985  1.00  0.00    -0.220 N 
ATOM     14  C   UNL A   1      41.464  27.183  35.272  1.00  0.00     0.120 A 
ATOM     15  C   UNL A   1      41.198  28.117  34.294  1.00  0.00     0.144 A 
ATOM     16  N   UNL A   1      41.348  27.791  36.495  1.00  0.00    -0.131 NA
ATOM     17  N   UNL A   1      41.018  29.057  36.309  1.00  0.00    -0.062 NA
BRANCH  14  18
ATOM     18  C   UNL A   1      41.940  25.770  35.178  1.00  0.00     0.289 C 
BRANCH  18  19
ATOM     19  O   UNL A   1      43.108  25.449  35.952  1.00  0.00    -0.487 OA
BRANCH  19  20
ATOM     20  C   UNL A   1      43.899  24.408  35.548  1.00  0.00     0.119 A 
ATOM     21  C   UNL A   1      45.848  22.561  34.720  1.00  0.00    -0.024 A 
ATOM     22  C   UNL A   1      46.028  23.289  35.897  1.00  0.00     0.012 A 
ATOM     23  C   UNL A   1      44.646  22.687  34.020  1.00  0.00     0.012 A 
ATOM     24  C   UNL A   1      45.058  24.213  36.304  1.00  0.00     0.047 A 
ATOM     25  C   UNL A   1      43.665  23.582  34.452  1.00  0.00     0.047 A 
BRANCH  21  26
ATOM     26  C   UNL A   1      46.905  21.689  34.203  1.00  0.00     0.029 C 
ATOM     27  O   UNL A   1      49.119  20.106  33.179  1.00  0.00    -0.268 OA
ATOM     28  C   UNL A   1      48.910  20.246  34.367  1.00  0.00     0.263 C 
ATOM     29  N   UNL A   1      49.689  19.731  35.368  1.00  0.00    -0.307 N 
ATOM     30  C   UNL A   1      47.811  21.057  34.963  1.00  0.00     0.080 C 
ATOM     31  C   UNL A   1      49.377  20.045  36.655  1.00  0.00     0.145 C 
ATOM     32  H   UNL A   1      50.455  19.146  35.162  1.00  0.00     0.171 HD
ATOM     33  S   UNL A   1      47.947  21.051  36.685  1.00  0.00    -0.055 SA
ATOM     34  S   UNL A   1      50.277  19.563  37.957  1.00  0.00    -0.052 S 
ENDBRANCH  21  26
ENDBRANCH  19  20
ENDBRANCH  18  19
ENDBRANCH  14  18
ENDBRANCH   8  13
ENDBRANCH   4   7
ENDBRANCH   2   3
ENDBRANCH   1   2
BRANCH   1  35
ATOM     35  C   UNL A   1      37.942  32.972  29.435  1.00  0.00     0.002 C 
BRANCH  35  36
ATOM     36  C   UNL A   1      36.508  33.340  29.851  1.00  0.00     0.002 C 
BRANCH  36  37
ATOM     37  C   UNL A   1      35.893  32.467  30.955  1.00  0.00     0.021 C 
BRANCH  37  38
ATOM     38  C   UNL A   1      36.424  31.043  30.950  1.00  0.00     0.116 C 
BRANCH  38  39
ATOM     39  N   UNL A   1      35.754  30.228  29.938  1.00  0.00    -0.352 N 
ATOM     40  C   UNL A   1      36.314  29.516  28.896  1.00  0.00     0.251 C 
ATOM     41  H   UNL A   1      34.773  30.180  30.010  1.00  0.00     0.163 HD
ATOM     42  O   UNL A   1      35.641  29.216  27.921  1.00  0.00    -0.269 OA
BRANCH  40  43
ATOM     43  C   UNL A   1      37.731  29.125  28.992  1.00  0.00     0.039 A 
ATOM     44  C   UNL A   1      38.155  28.137  29.885  1.00  0.00     0.014 A 
ATOM     45  C   UNL A   1      38.639  29.764  28.152  1.00  0.00     0.014 A 
ATOM     46  C   UNL A   1      39.491  27.744  29.867  1.00  0.00     0.010 A 
ATOM     47  C   UNL A   1      39.913  29.274  28.028  1.00  0.00     0.010 A 
ATOM     48  C   UNL A   1      40.362  28.307  28.920  1.00  0.00    -0.014 A 
BRANCH  48  49
ATOM     49  C   UNL A   1      41.715  27.794  28.726  1.00  0.00     0.031 A 
ATOM     50  C   UNL A   1      41.772  26.529  27.949  1.00  0.00     0.074 A 
ATOM     51  C   UNL A   1      42.813  28.536  28.996  1.00  0.00     0.049 A 
ATOM     52  N   UNL A   1      42.135  25.369  28.379  1.00  0.00    -0.248 NA
ATOM     53  C   UNL A   1      41.193  26.495  26.593  1.00  0.00     0.031 C 
ATOM     54  C   UNL A   1      42.868  29.904  29.522  1.00  0.00     0.029 A 
ATOM     55  N   UNL A   1      44.122  28.278  28.728  1.00  0.00    -0.354 N 
ATOM     56  C   UNL A   1      42.097  24.521  27.278  1.00  0.00     0.074 A 
ATOM     57  C   UNL A   1      41.293  25.196  26.296  1.00  0.00     0.031 C 
ATOM     58  C   UNL A   1      44.090  30.432  29.288  1.00  0.00     0.029 A 
ATOM     59  C   UNL A   1      44.949  29.403  28.729  1.00  0.00     0.049 A 
ATOM     60  H   UNL A   1      44.459  27.370  28.547  1.00  0.00     0.167 HD
ATOM     61  C   UNL A   1      42.957  23.469  27.180  1.00  0.00     0.034 A 
ATOM     62  C   UNL A   1      46.231  29.494  28.271  1.00  0.00     0.034 A 
ATOM     63  C   UNL A   1      43.594  23.211  28.456  1.00  0.00     0.049 A 
ATOM     64  C   UNL A   1      46.775  28.110  28.290  1.00  0.00     0.074 A 
ATOM     65  C   UNL A   1      43.123  22.940  29.728  1.00  0.00     0.029 A 
ATOM     66  N   UNL A   1      44.897  23.632  28.626  1.00  0.00    -0.354 N 
ATOM     67  N   UNL A   1      46.947  27.434  29.395  1.00  0.00    -0.248 NA
ATOM     68  C   UNL A   1      46.616  27.295  27.092  1.00  0.00     0.031 C 
ATOM     69  C   UNL A   1      43.957  23.709  30.592  1.00  0.00     0.029 A 
ATOM     70  C   UNL A   1      44.958  24.306  29.822  1.00  0.00     0.049 A 
ATOM     71  H   UNL A   1      45.645  23.477  28.005  1.00  0.00     0.167 HD
ATOM     72  C   UNL A   1      46.453  26.168  29.119  1.00  0.00     0.074 A 
ATOM     73  C   UNL A   1      46.361  26.111  27.659  1.00  0.00     0.031 C 
ATOM     74  C   UNL A   1      45.873  25.401  30.093  1.00  0.00     0.034 A 
BRANCH  61  75
ATOM     75  C   UNL A   1      43.531  22.924  25.888  1.00  0.00     0.023 A 
ATOM     76  C   UNL A   1      43.627  21.523  25.782  1.00  0.00     0.031 A 
ATOM     77  C   UNL A   1      44.246  23.662  24.920  1.00  0.00     0.131 A 
ATOM     78  C   UNL A   1      44.496  20.925  24.855  1.00  0.00     0.055 A 
ATOM     79  C   UNL A   1      45.052  23.059  23.950  1.00  0.00     0.041 A 
ATOM     80  F   UNL A   1      44.287  24.998  24.906  1.00  0.00    -0.206 F 
ATOM     81  C   UNL A   1      45.212  21.685  23.937  1.00  0.00     0.022 A 
BRANCH  78  82
ATOM     82  S   UNL A   1      44.819  19.151  25.012  1.00  0.00     0.124 S 
ATOM     83  O   UNL A   1      43.699  18.724  25.841  1.00  0.00    -0.237 OA
ATOM     84  O   UNL A   1      44.794  18.718  23.618  1.00  0.00    -0.237 OA
ATOM     85  O   UNL A   1      46.130  19.103  25.655  1.00  0.00    -0.744 OA
ENDBRANCH  78  82
ENDBRANCH  61  75
BRANCH  62  86
ATOM     86  C   UNL A   1      46.878  30.646  27.562  1.00  0.00     0.023 A 
ATOM     87  C   UNL A   1      46.163  31.768  27.079  1.00  0.00     0.031 A 
ATOM     88  C   UNL A   1      48.289  30.762  27.557  1.00  0.00     0.131 A 
ATOM     89  C   UNL A   1      46.853  32.925  26.627  1.00  0.00     0.055 A 
ATOM     90  C   UNL A   1      48.963  31.902  27.108  1.00  0.00     0.041 A 
ATOM     91  F   UNL A   1      49.072  29.803  28.073  1.00  0.00    -0.206 F 
ATOM     92  C   UNL A   1      48.247  32.994  26.651  1.00  0.00     0.022 A 
BRANCH  89  93
ATOM     93  S   UNL A   1      45.948  34.418  26.090  1.00  0.00     0.124 S 
ATOM     94  O   UNL A   1      46.922  35.476  26.332  1.00  0.00    -0.237 OA
ATOM     95  O   UNL A   1      45.644  34.121  24.696  1.00  0.00    -0.237 OA
ATOM     96  O   UNL A   1      44.780  34.447  26.973  1.00  0.00    -0.744 OA
ENDBRANCH  89  93
ENDBRANCH  62  86
BRANCH  74  97
ATOM     97  C   UNL A   1      46.008  25.830  31.544  1.00  0.00     0.023 A 
ATOM     98  C   UNL A   1      47.165  25.663  32.340  1.00  0.00     0.031 A 
ATOM     99  C   UNL A   1      44.947  26.574  32.093  1.00  0.00     0.131 A 
ATOM    100  C   UNL A   1      47.221  26.222  33.634  1.00  0.00     0.055 A 
ATOM    101  C   UNL A   1      45.017  27.149  33.361  1.00  0.00     0.041 A 
ATOM    102  F   UNL A   1      43.830  26.794  31.381  1.00  0.00    -0.206 F 
ATOM    103  C   UNL A   1      46.153  26.970  34.140  1.00  0.00     0.022 A 
BRANCH 100 104
ATOM    104  S   UNL A   1      48.681  25.971  34.698  1.00  0.00     0.124 S 
ATOM    105  O   UNL A   1      49.744  26.676  33.992  1.00  0.00    -0.237 OA
ATOM    106  O   UNL A   1      48.256  26.558  35.965  1.00  0.00    -0.237 OA
ATOM    107  O   UNL A   1      48.833  24.515  34.726  1.00  0.00    -0.744 OA
ENDBRANCH 100 104
ENDBRANCH  74  97
ENDBRANCH  48  49
ENDBRANCH  40  43
ENDBRANCH  38  39
ENDBRANCH  37  38
ENDBRANCH  36  37
ENDBRANCH  35  36
ENDBRANCH   1  35
TORSDOF 21
ENDMDL
MODEL 2
REMARK VINA RESULT:     -10.4      3.933     10.648
REMARK SMILES O=C1NC(=S)S/C1=C\c1ccc(OCc2cn(-c3ccc(C(=O)NCCCCCCNC(=O)c4ccc(-c5c6nc(c(-c7cc(S(=O)(=O)[O-])ccc7F)c7ccc([nH]7)c(-c7cc(S(=O)(=O)[O-])ccc7F)c7nc(c(-c8cc(S(=O)(=O)[O-])ccc8F)c8ccc5[nH]8)C=C7)C=C6)cc4)cc3)nn2)cc1
REMARK SMILES IDX 26 1 25 2 24 3 22 4 23 5 21 7 18 8 19 9 98 10 20 11 97 12
REMARK SMILES IDX 17 13 15 14 16 15 100 16 99 17 14 18 13 19 12 20 9 21 10 22
REMARK SMILES IDX 102 23 11 24 101 25 8 26 1 27 2 28 3 29 7 30 4 31 6 33 5 34
REMARK SMILES IDX 27 35 28 36 29 37 30 38 31 39 32 40 33 42 34 43 35 44 96 45
REMARK SMILES IDX 36 46 95 47 37 48 38 49 39 50 89 51 40 52 94 53 88 54 90 55
REMARK SMILES IDX 41 56 93 57 87 58 86 59 42 61 74 62 54 63 73 64 55 65 58 66
REMARK SMILES IDX 72 67 91 68 56 69 57 70 71 72 92 73 59 74 43 75 44 76 52 77
REMARK SMILES IDX 45 78 51 79 53 80 50 81 46 82 47 83 48 84 49 85 75 86 76 87
REMARK SMILES IDX 84 88 77 89 83 90 85 91 82 92 78 93 79 94 80 95 81 96 60 97
REMARK SMILES IDX 61 98 69 99 62 100 68 101 70 102 67 103 63 104 64 105 65 106
REMARK SMILES IDX 66 107
REMARK H PARENT 24 6 3 32 31 41 90 60 58 71
REMARK Flexibility Score: inf
ROOT
ATOM      1  C   UNL A   1      37.105  33.761  35.269  1.00  0.00     0.021 C 
ENDROOT
BRANCH   1   2
ATOM      2  C   UNL A   1      37.280  33.459  36.758  1.00  0.00     0.116 C 
BRANCH   2   3
ATOM      3  N   UNL A   1      37.684  32.080  36.937  1.00  0.00    -0.352 N 
ATOM      4  C   UNL A   1      38.378  31.201  36.149  1.00  0.00     0.251 C 
ATOM      5  O   UNL A   1      38.540  30.061  36.586  1.00  0.00    -0.269 OA
ATOM      6  H   UNL A   1      37.403  31.696  37.799  1.00  0.00     0.163 HD
BRANCH   4   7
ATOM      7  C   UNL A   1      39.017  31.584  34.857  1.00  0.00     0.039 A 
ATOM      8  C   UNL A   1      40.230  32.637  32.555  1.00  0.00     0.066 A 
ATOM      9  C   UNL A   1      40.867  32.756  33.795  1.00  0.00     0.029 A 
ATOM     10  C   UNL A   1      39.040  31.918  32.448  1.00  0.00     0.029 A 
ATOM     11  C   UNL A   1      40.243  32.262  34.941  1.00  0.00     0.016 A 
ATOM     12  C   UNL A   1      38.482  31.337  33.589  1.00  0.00     0.016 A 
BRANCH   8  13
ATOM     13  N   UNL A   1      40.808  33.233  31.417  1.00  0.00    -0.220 N 
ATOM     14  C   UNL A   1      41.325  34.509  29.724  1.00  0.00     0.120 A 
ATOM     15  C   UNL A   1      40.455  34.407  30.789  1.00  0.00     0.144 A 
ATOM     16  N   UNL A   1      42.200  33.455  29.777  1.00  0.00    -0.131 NA
ATOM     17  N   UNL A   1      41.902  32.709  30.826  1.00  0.00    -0.062 NA
BRANCH  14  18
ATOM     18  C   UNL A   1      41.501  35.581  28.699  1.00  0.00     0.289 C 
BRANCH  18  19
ATOM     19  O   UNL A   1      42.843  36.066  28.522  1.00  0.00    -0.487 OA
BRANCH  19  20
ATOM     20  C   UNL A   1      43.135  37.347  28.904  1.00  0.00     0.119 A 
ATOM     21  C   UNL A   1      43.711  40.073  29.265  1.00  0.00    -0.024 A 
ATOM     22  C   UNL A   1      42.547  39.686  28.598  1.00  0.00     0.012 A 
ATOM     23  C   UNL A   1      44.524  39.093  29.837  1.00  0.00     0.012 A 
ATOM     24  C   UNL A   1      42.266  38.326  28.414  1.00  0.00     0.047 A 
ATOM     25  C   UNL A   1      44.218  37.740  29.684  1.00  0.00     0.047 A 
BRANCH  21  26
ATOM     26  C   UNL A   1      44.095  41.484  29.353  1.00  0.00     0.029 C 
ATOM     27  O   UNL A   1      44.693  44.328  29.447  1.00  0.00    -0.268 OA
ATOM     28  C   UNL A   1      44.115  43.751  30.347  1.00  0.00     0.263 C 
ATOM     29  N   UNL A   1      43.636  44.347  31.482  1.00  0.00    -0.307 N 
ATOM     30  C   UNL A   1      43.757  42.305  30.357  1.00  0.00     0.080 C 
ATOM     31  C   UNL A   1      42.931  43.584  32.363  1.00  0.00     0.145 C 
ATOM     32  H   UNL A   1      43.797  45.303  31.658  1.00  0.00     0.171 HD
ATOM     33  S   UNL A   1      42.862  41.935  31.789  1.00  0.00    -0.055 SA
ATOM     34  S   UNL A   1      42.224  44.188  33.732  1.00  0.00    -0.052 S 
ENDBRANCH  21  26
ENDBRANCH  19  20
ENDBRANCH  18  19
ENDBRANCH  14  18
ENDBRANCH   8  13
ENDBRANCH   4   7
ENDBRANCH   2   3
ENDBRANCH   1   2
BRANCH   1  35
ATOM     35  C   UNL A   1      35.630  33.844  34.854  1.00  0.00     0.002 C 
BRANCH  35  36
ATOM     36  C   UNL A   1      35.391  34.088  33.355  1.00  0.00     0.002 C 
BRANCH  36  37
ATOM     37  C   UNL A   1      34.600  32.994  32.621  1.00  0.00     0.021 C 
BRANCH  37  38
ATOM     38  C   UNL A   1      35.471  32.144  31.710  1.00  0.00     0.116 C 
BRANCH  38  39
ATOM     39  N   UNL A   1      34.798  31.861  30.444  1.00  0.00    -0.352 N 
ATOM     40  C   UNL A   1      35.357  31.497  29.235  1.00  0.00     0.251 C 
ATOM     41  H   UNL A   1      33.817  31.939  30.454  1.00  0.00     0.163 HD
ATOM     42  O   UNL A   1      34.743  31.674  28.192  1.00  0.00    -0.269 OA
BRANCH  40  43
ATOM     43  C   UNL A   1      36.698  30.888  29.233  1.00  0.00     0.039 A 
ATOM     44  C   UNL A   1      37.850  31.665  29.083  1.00  0.00     0.014 A 
ATOM     45  C   UNL A   1      36.785  29.508  29.398  1.00  0.00     0.014 A 
ATOM     46  C   UNL A   1      39.095  31.047  29.181  1.00  0.00     0.010 A 
ATOM     47  C   UNL A   1      38.001  28.928  29.644  1.00  0.00     0.010 A 
ATOM     48  C   UNL A   1      39.161  29.677  29.480  1.00  0.00    -0.014 A 
BRANCH  48  49
ATOM     49  C   UNL A   1      40.430  29.022  29.787  1.00  0.00     0.031 A 
ATOM     50  C   UNL A   1      40.641  28.771  31.237  1.00  0.00     0.074 A 
ATOM     51  C   UNL A   1      41.204  28.464  28.829  1.00  0.00     0.049 A 
ATOM     52  N   UNL A   1      41.528  29.316  31.998  1.00  0.00    -0.248 NA
ATOM     53  C   UNL A   1      39.651  27.967  31.976  1.00  0.00     0.031 C 
ATOM     54  C   UNL A   1      40.958  28.423  27.383  1.00  0.00     0.029 A 
ATOM     55  N   UNL A   1      42.316  27.689  28.954  1.00  0.00    -0.354 N 
ATOM     56  C   UNL A   1      41.387  28.714  33.244  1.00  0.00     0.074 A 
ATOM     57  C   UNL A   1      40.090  28.095  33.231  1.00  0.00     0.031 C 
ATOM     58  C   UNL A   1      41.726  27.466  26.818  1.00  0.00     0.029 A 
ATOM     59  C   UNL A   1      42.621  26.923  27.826  1.00  0.00     0.049 A 
ATOM     60  H   UNL A   1      42.861  27.670  29.773  1.00  0.00     0.167 HD
ATOM     61  C   UNL A   1      42.463  28.552  34.063  1.00  0.00     0.034 A 
ATOM     62  C   UNL A   1      43.512  25.895  27.735  1.00  0.00     0.034 A 
ATOM     63  C   UNL A   1      43.578  29.358  33.606  1.00  0.00     0.049 A 
ATOM     64  C   UNL A   1      44.481  26.090  28.847  1.00  0.00     0.074 A 
ATOM     65  C   UNL A   1      43.748  30.706  33.351  1.00  0.00     0.029 A 
ATOM     66  N   UNL A   1      44.605  28.723  32.940  1.00  0.00    -0.354 N 
ATOM     67  N   UNL A   1      45.284  27.119  28.912  1.00  0.00    -0.248 NA
ATOM     68  C   UNL A   1      44.189  25.459  30.127  1.00  0.00     0.031 C 
ATOM     69  C   UNL A   1      44.509  30.751  32.145  1.00  0.00     0.029 A 
ATOM     70  C   UNL A   1      44.864  29.445  31.799  1.00  0.00     0.049 A 
ATOM     71  H   UNL A   1      45.068  27.902  33.228  1.00  0.00     0.167 HD
ATOM     72  C   UNL A   1      45.212  27.544  30.231  1.00  0.00     0.074 A 
ATOM     73  C   UNL A   1      44.607  26.424  30.954  1.00  0.00     0.031 C 
ATOM     74  C   UNL A   1      45.356  28.865  30.562  1.00  0.00     0.034 A 
BRANCH  61  75
ATOM     75  C   UNL A   1      42.665  27.400  35.026  1.00  0.00     0.023 A 
ATOM     76  C   UNL A   1      43.514  26.362  34.598  1.00  0.00     0.031 A 
ATOM     77  C   UNL A   1      41.872  27.115  36.159  1.00  0.00     0.131 A 
ATOM     78  C   UNL A   1      43.454  25.088  35.187  1.00  0.00     0.055 A 
ATOM     79  C   UNL A   1      41.870  25.867  36.789  1.00  0.00     0.041 A 
ATOM     80  F   UNL A   1      40.989  27.981  36.666  1.00  0.00    -0.206 F 
ATOM     81  C   UNL A   1      42.635  24.833  36.281  1.00  0.00     0.022 A 
BRANCH  78  82
ATOM     82  S   UNL A   1      44.318  23.727  34.364  1.00  0.00     0.124 S 
ATOM     83  O   UNL A   1      44.713  22.905  35.501  1.00  0.00    -0.237 OA
ATOM     84  O   UNL A   1      43.269  23.183  33.506  1.00  0.00    -0.237 OA
ATOM     85  O   UNL A   1      45.412  24.396  33.664  1.00  0.00    -0.744 OA
ENDBRANCH  78  82
ENDBRANCH  61  75
BRANCH  62  86
ATOM     86  C   UNL A   1      43.388  24.633  26.935  1.00  0.00     0.023 A 
ATOM     87  C   UNL A   1      42.624  23.516  27.352  1.00  0.00     0.031 A 
ATOM     88  C   UNL A   1      43.852  24.601  25.599  1.00  0.00     0.131 A 
ATOM     89  C   UNL A   1      42.357  22.449  26.454  1.00  0.00     0.055 A 
ATOM     90  C   UNL A   1      43.589  23.546  24.719  1.00  0.00     0.041 A 
ATOM     91  F   UNL A   1      44.508  25.640  25.060  1.00  0.00    -0.206 F 
ATOM     92  C   UNL A   1      42.830  22.469  25.141  1.00  0.00     0.022 A 
BRANCH  89  93
ATOM     93  S   UNL A   1      41.294  21.045  26.941  1.00  0.00     0.124 S 
ATOM     94  O   UNL A   1      41.061  20.374  25.668  1.00  0.00    -0.237 OA
ATOM     95  O   UNL A   1      42.125  20.337  27.907  1.00  0.00    -0.237 OA
ATOM     96  O   UNL A   1      40.114  21.693  27.518  1.00  0.00    -0.744 OA
ENDBRANCH  89  93
ENDBRANCH  62  86
BRANCH  74  97
ATOM     97  C   UNL A   1      45.860  29.836  29.509  1.00  0.00     0.023 A 
ATOM     98  C   UNL A   1      45.056  30.473  28.535  1.00  0.00     0.031 A 
ATOM     99  C   UNL A   1      47.206  30.237  29.599  1.00  0.00     0.131 A 
ATOM    100  C   UNL A   1      45.612  31.459  27.693  1.00  0.00     0.055 A 
ATOM    101  C   UNL A   1      47.743  31.232  28.785  1.00  0.00     0.041 A 
ATOM    102  F   UNL A   1      48.018  29.693  30.521  1.00  0.00    -0.206 F 
ATOM    103  C   UNL A   1      46.950  31.844  27.824  1.00  0.00     0.022 A 
BRANCH 100 104
ATOM    104  S   UNL A   1      44.608  32.251  26.393  1.00  0.00     0.124 S 
ATOM    105  O   UNL A   1      43.567  31.267  26.117  1.00  0.00    -0.237 OA
ATOM    106  O   UNL A   1      44.167  33.484  27.037  1.00  0.00    -0.237 OA
ATOM    107  O   UNL A   1      45.562  32.447  25.300  1.00  0.00    -0.744 OA
ENDBRANCH 100 104
ENDBRANCH  74  97
ENDBRANCH  48  49
ENDBRANCH  40  43
ENDBRANCH  38  39
ENDBRANCH  37  38
ENDBRANCH  36  37
ENDBRANCH  35  36
ENDBRANCH   1  35
TORSDOF 21
ENDMDL
MODEL 3
REMARK VINA RESULT:     -10.1      3.979     10.819
REMARK SMILES O=C1NC(=S)S/C1=C\c1ccc(OCc2cn(-c3ccc(C(=O)NCCCCCCNC(=O)c4ccc(-c5c6nc(c(-c7cc(S(=O)(=O)[O-])ccc7F)c7ccc([nH]7)c(-c7cc(S(=O)(=O)[O-])ccc7F)c7nc(c(-c8cc(S(=O)(=O)[O-])ccc8F)c8ccc5[nH]8)C=C7)C=C6)cc4)cc3)nn2)cc1
REMARK SMILES IDX 26 1 25 2 24 3 22 4 23 5 21 7 18 8 19 9 98 10 20 11 97 12
REMARK SMILES IDX 17 13 15 14 16 15 100 16 99 17 14 18 13 19 12 20 9 21 10 22
REMARK SMILES IDX 102 23 11 24 101 25 8 26 1 27 2 28 3 29 7 30 4 31 6 33 5 34
REMARK SMILES IDX 27 35 28 36 29 37 30 38 31 39 32 40 33 42 34 43 35 44 96 45
REMARK SMILES IDX 36 46 95 47 37 48 38 49 39 50 89 51 40 52 94 53 88 54 90 55
REMARK SMILES IDX 41 56 93 57 87 58 86 59 42 61 74 62 54 63 73 64 55 65 58 66
REMARK SMILES IDX 72 67 91 68 56 69 57 70 71 72 92 73 59 74 43 75 44 76 52 77
REMARK SMILES IDX 45 78 51 79 53 80 50 81 46 82 47 83 48 84 49 85 75 86 76 87
REMARK SMILES IDX 84 88 77 89 83 90 85 91 82 92 78 93 79 94 80 95 81 96 60 97
REMARK SMILES IDX 61 98 69 99 62 100 68 101 70 102 67 103 63 104 64 105 65 106
REMARK SMILES IDX 66 107
REMARK H PARENT 24 6 3 32 31 41 90 60 58 71
REMARK Flexibility Score: inf
ROOT
ATOM      1  C   UNL A   1      37.407  33.568  35.504  1.00  0.00     0.021 C 
ENDROOT
BRANCH   1   2
ATOM      2  C   UNL A   1      37.592  32.935  36.884  1.00  0.00     0.116 C 
BRANCH   2   3
ATOM      3  N   UNL A   1      38.158  31.609  36.746  1.00  0.00    -0.352 N 
ATOM      4  C   UNL A   1      39.170  31.101  35.976  1.00  0.00     0.251 C 
ATOM      5  O   UNL A   1      39.397  29.894  36.070  1.00  0.00    -0.269 OA
ATOM      6  H   UNL A   1      37.727  30.936  37.321  1.00  0.00     0.163 HD
BRANCH   4   7
ATOM      7  C   UNL A   1      40.053  31.944  35.120  1.00  0.00     0.039 A 
ATOM      8  C   UNL A   1      41.643  33.798  33.736  1.00  0.00     0.066 A 
ATOM      9  C   UNL A   1      41.914  33.513  35.079  1.00  0.00     0.029 A 
ATOM     10  C   UNL A   1      40.644  33.097  33.061  1.00  0.00     0.029 A 
ATOM     11  C   UNL A   1      41.099  32.617  35.772  1.00  0.00     0.016 A 
ATOM     12  C   UNL A   1      39.906  32.125  33.742  1.00  0.00     0.016 A 
BRANCH   8  13
ATOM     13  N   UNL A   1      42.397  34.784  33.069  1.00  0.00    -0.220 N 
ATOM     14  C   UNL A   1      43.530  35.977  31.636  1.00  0.00     0.120 A 
ATOM     15  C   UNL A   1      42.817  34.804  31.757  1.00  0.00     0.144 A 
ATOM     16  N   UNL A   1      43.467  36.647  32.830  1.00  0.00    -0.131 NA
ATOM     17  N   UNL A   1      42.749  35.934  33.679  1.00  0.00    -0.062 NA
BRANCH  14  18
ATOM     18  C   UNL A   1      44.189  36.608  30.453  1.00  0.00     0.289 C 
BRANCH  18  19
ATOM     19  O   UNL A   1      43.597  36.316  29.176  1.00  0.00    -0.487 OA
BRANCH  19  20
ATOM     20  C   UNL A   1      43.443  37.334  28.274  1.00  0.00     0.119 A 
ATOM     21  C   UNL A   1      43.511  39.569  26.574  1.00  0.00    -0.024 A 
ATOM     22  C   UNL A   1      44.568  38.658  26.574  1.00  0.00     0.012 A 
ATOM     23  C   UNL A   1      42.381  39.300  27.349  1.00  0.00     0.012 A 
ATOM     24  C   UNL A   1      44.534  37.548  27.427  1.00  0.00     0.047 A 
ATOM     25  C   UNL A   1      42.337  38.171  28.169  1.00  0.00     0.047 A 
BRANCH  21  26
ATOM     26  C   UNL A   1      43.582  40.805  25.792  1.00  0.00     0.029 C 
ATOM     27  O   UNL A   1      43.571  43.320  24.330  1.00  0.00    -0.268 OA
ATOM     28  C   UNL A   1      44.166  43.176  25.380  1.00  0.00     0.263 C 
ATOM     29  N   UNL A   1      44.860  44.160  26.030  1.00  0.00    -0.307 N 
ATOM     30  C   UNL A   1      44.198  41.927  26.192  1.00  0.00     0.080 C 
ATOM     31  C   UNL A   1      45.404  43.870  27.245  1.00  0.00     0.145 C 
ATOM     32  H   UNL A   1      44.965  45.054  25.630  1.00  0.00     0.171 HD
ATOM     33  S   UNL A   1      45.085  42.200  27.649  1.00  0.00    -0.055 SA
ATOM     34  S   UNL A   1      46.197  44.982  28.179  1.00  0.00    -0.052 S 
ENDBRANCH  21  26
ENDBRANCH  19  20
ENDBRANCH  18  19
ENDBRANCH  14  18
ENDBRANCH   8  13
ENDBRANCH   4   7
ENDBRANCH   2   3
ENDBRANCH   1   2
BRANCH   1  35
ATOM     35  C   UNL A   1      35.936  33.866  35.184  1.00  0.00     0.002 C 
BRANCH  35  36
ATOM     36  C   UNL A   1      35.641  34.158  33.704  1.00  0.00     0.002 C 
BRANCH  36  37
ATOM     37  C   UNL A   1      34.690  33.172  33.008  1.00  0.00     0.021 C 
BRANCH  37  38
ATOM     38  C   UNL A   1      35.420  32.156  32.144  1.00  0.00     0.116 C 
BRANCH  38  39
ATOM     39  N   UNL A   1      34.754  31.977  30.856  1.00  0.00    -0.352 N 
ATOM     40  C   UNL A   1      35.318  31.708  29.624  1.00  0.00     0.251 C 
ATOM     41  H   UNL A   1      33.773  32.057  30.867  1.00  0.00     0.163 HD
ATOM     42  O   UNL A   1      34.710  31.970  28.596  1.00  0.00    -0.269 OA
BRANCH  40  43
ATOM     43  C   UNL A   1      36.657  31.097  29.581  1.00  0.00     0.039 A 
ATOM     44  C   UNL A   1      37.815  31.873  29.687  1.00  0.00     0.014 A 
ATOM     45  C   UNL A   1      36.736  29.714  29.444  1.00  0.00     0.014 A 
ATOM     46  C   UNL A   1      39.051  31.231  29.731  1.00  0.00     0.010 A 
ATOM     47  C   UNL A   1      37.933  29.077  29.640  1.00  0.00     0.010 A 
ATOM     48  C   UNL A   1      39.099  29.828  29.725  1.00  0.00    -0.014 A 
BRANCH  48  49
ATOM     49  C   UNL A   1      40.345  29.105  29.967  1.00  0.00     0.031 A 
ATOM     50  C   UNL A   1      40.588  28.791  31.399  1.00  0.00     0.074 A 
ATOM     51  C   UNL A   1      41.063  28.549  28.965  1.00  0.00     0.049 A 
ATOM     52  N   UNL A   1      41.523  29.266  32.150  1.00  0.00    -0.248 NA
ATOM     53  C   UNL A   1      39.585  28.005  32.140  1.00  0.00     0.031 C 
ATOM     54  C   UNL A   1      40.771  28.574  27.527  1.00  0.00     0.029 A 
ATOM     55  N   UNL A   1      42.140  27.720  29.025  1.00  0.00    -0.354 N 
ATOM     56  C   UNL A   1      41.392  28.625  33.377  1.00  0.00     0.074 A 
ATOM     57  C   UNL A   1      40.068  28.066  33.384  1.00  0.00     0.031 C 
ATOM     58  C   UNL A   1      41.476  27.604  26.904  1.00  0.00     0.029 A 
ATOM     59  C   UNL A   1      42.374  26.984  27.862  1.00  0.00     0.049 A 
ATOM     60  H   UNL A   1      42.709  27.645  29.826  1.00  0.00     0.167 HD
ATOM     61  C   UNL A   1      42.484  28.383  34.155  1.00  0.00     0.034 A 
ATOM     62  C   UNL A   1      43.213  25.921  27.705  1.00  0.00     0.034 A 
ATOM     63  C   UNL A   1      43.621  29.154  33.692  1.00  0.00     0.049 A 
ATOM     64  C   UNL A   1      44.224  26.029  28.791  1.00  0.00     0.074 A 
ATOM     65  C   UNL A   1      43.846  30.502  33.480  1.00  0.00     0.029 A 
ATOM     66  N   UNL A   1      44.596  28.498  32.970  1.00  0.00    -0.354 N 
ATOM     67  N   UNL A   1      45.075  27.017  28.867  1.00  0.00    -0.248 NA
ATOM     68  C   UNL A   1      43.942  25.365  30.057  1.00  0.00     0.031 C 
ATOM     69  C   UNL A   1      44.571  30.557  32.253  1.00  0.00     0.029 A 
ATOM     70  C   UNL A   1      44.853  29.250  31.849  1.00  0.00     0.049 A 
ATOM     71  H   UNL A   1      45.029  27.647  33.213  1.00  0.00     0.167 HD
ATOM     72  C   UNL A   1      45.064  27.395  30.202  1.00  0.00     0.074 A 
ATOM     73  C   UNL A   1      44.430  26.278  30.904  1.00  0.00     0.031 C 
ATOM     74  C   UNL A   1      45.279  28.695  30.576  1.00  0.00     0.034 A 
BRANCH  61  75
ATOM     75  C   UNL A   1      42.661  27.188  35.069  1.00  0.00     0.023 A 
ATOM     76  C   UNL A   1      43.500  26.157  34.603  1.00  0.00     0.031 A 
ATOM     77  C   UNL A   1      41.854  26.865  36.181  1.00  0.00     0.131 A 
ATOM     78  C   UNL A   1      43.417  24.860  35.136  1.00  0.00     0.055 A 
ATOM     79  C   UNL A   1      41.829  25.592  36.757  1.00  0.00     0.041 A 
ATOM     80  F   UNL A   1      40.978  27.720  36.718  1.00  0.00    -0.206 F 
ATOM     81  C   UNL A   1      42.584  24.569  36.211  1.00  0.00     0.022 A 
BRANCH  78  82
ATOM     82  S   UNL A   1      44.270  23.524  34.263  1.00  0.00     0.124 S 
ATOM     83  O   UNL A   1      45.473  24.203  33.798  1.00  0.00    -0.237 OA
ATOM     84  O   UNL A   1      44.453  22.541  35.326  1.00  0.00    -0.237 OA
ATOM     85  O   UNL A   1      43.322  23.145  33.219  1.00  0.00    -0.744 OA
ENDBRANCH  78  82
ENDBRANCH  61  75
BRANCH  62  86
ATOM     86  C   UNL A   1      43.006  24.696  26.864  1.00  0.00     0.023 A 
ATOM     87  C   UNL A   1      44.007  24.144  26.029  1.00  0.00     0.031 A 
ATOM     88  C   UNL A   1      41.854  23.898  27.060  1.00  0.00     0.131 A 
ATOM     89  C   UNL A   1      43.831  22.862  25.442  1.00  0.00     0.055 A 
ATOM     90  C   UNL A   1      41.684  22.639  26.477  1.00  0.00     0.041 A 
ATOM     91  F   UNL A   1      40.878  24.272  27.902  1.00  0.00    -0.206 F 
ATOM     92  C   UNL A   1      42.678  22.110  25.673  1.00  0.00     0.022 A 
BRANCH  89  93
ATOM     93  S   UNL A   1      45.149  22.091  24.438  1.00  0.00     0.124 S 
ATOM     94  O   UNL A   1      45.534  23.175  23.544  1.00  0.00    -0.237 OA
ATOM     95  O   UNL A   1      46.127  21.700  25.446  1.00  0.00    -0.237 OA
ATOM     96  O   UNL A   1      44.470  20.969  23.785  1.00  0.00    -0.744 OA
ENDBRANCH  89  93
ENDBRANCH  62  86
BRANCH  74  97
ATOM     97  C   UNL A   1      45.796  29.681  29.543  1.00  0.00     0.023 A 
ATOM     98  C   UNL A   1      44.996  30.369  28.601  1.00  0.00     0.031 A 
ATOM     99  C   UNL A   1      47.154  30.039  29.623  1.00  0.00     0.131 A 
ATOM    100  C   UNL A   1      45.568  31.362  27.779  1.00  0.00     0.055 A 
ATOM    101  C   UNL A   1      47.709  31.041  28.828  1.00  0.00     0.041 A 
ATOM    102  F   UNL A   1      47.964  29.445  30.515  1.00  0.00    -0.206 F 
ATOM    103  C   UNL A   1      46.919  31.704  27.898  1.00  0.00     0.022 A 
BRANCH 100 104
ATOM    104  S   UNL A   1      44.568  32.221  26.518  1.00  0.00     0.124 S 
ATOM    105  O   UNL A   1      43.557  31.235  26.154  1.00  0.00    -0.237 OA
ATOM    106  O   UNL A   1      44.087  33.396  27.239  1.00  0.00    -0.237 OA
ATOM    107  O   UNL A   1      45.537  32.516  25.460  1.00  0.00    -0.744 OA
ENDBRANCH 100 104
ENDBRANCH  74  97
ENDBRANCH  48  49
ENDBRANCH  40  43
ENDBRANCH  38  39
ENDBRANCH  37  38
ENDBRANCH  36  37
ENDBRANCH  35  36
ENDBRANCH   1  35
TORSDOF 21
ENDMDL
