MODEL 1
REMARK VINA RESULT:     -10.5      0.000      0.000
REMARK SMILES CCC(CC)(NC(=O)N(C)C1CC[NH2+]CC1)C(=O)NCCCCCCNC(=O)c1ccc(-c2c3nc(c(-c4cc(S(=O)(=O)[O-])ccc4F)c4ccc([nH]4)c(-c4cc(S(=O)(=O)[O-])ccc4F)c4nc(c(-c5cc(S(=O)(=O)[O-])ccc5F)c5ccc2[nH]5)C=C4)C=C3)cc1
REMARK SMILES IDX 22 1 21 2 20 3 19 4 17 5 18 6 3 8 2 9 1 10 4 11 5 12 6 13
REMARK SMILES IDX 7 14 8 16 9 17 10 18 11 19 12 20 16 21 13 22 15 23 14 24
REMARK SMILES IDX 23 27 24 28 25 29 26 30 27 31 28 33 29 34 30 35 91 36 31 37
REMARK SMILES IDX 90 38 32 39 33 40 34 41 84 42 35 43 89 44 83 45 85 46 36 47
REMARK SMILES IDX 88 48 82 49 81 50 37 52 69 53 49 54 68 55 50 56 53 57 67 58
REMARK SMILES IDX 86 59 51 60 52 61 66 63 87 64 54 65 38 66 39 67 47 68 40 69
REMARK SMILES IDX 46 70 48 71 45 72 41 73 42 74 43 75 44 76 70 77 71 78 79 79
REMARK SMILES IDX 72 80 78 81 80 82 77 83 73 84 74 85 75 86 76 87 55 88 56 89
REMARK SMILES IDX 64 90 57 91 63 92 65 93 62 94 58 95 59 96 60 97 61 98
REMARK H PARENT 19 7 6 15 14 25 14 26 26 32 85 51 53 62
REMARK Flexibility Score: inf
ROOT
ATOM      1  C   UNL A   1      32.942  29.805  26.235  1.00  0.00     0.002 C 
ENDROOT
BRANCH   1   2
ATOM      2  C   UNL A   1      32.861  28.600  27.167  1.00  0.00     0.021 C 
BRANCH   2   3
ATOM      3  C   UNL A   1      32.743  27.246  26.495  1.00  0.00     0.116 C 
BRANCH   3   4
ATOM      4  N   UNL A   1      31.367  26.809  26.315  1.00  0.00    -0.354 N 
ATOM      5  C   UNL A   1      30.692  26.318  25.231  1.00  0.00     0.245 C 
ATOM      6  O   UNL A   1      29.539  25.929  25.447  1.00  0.00    -0.272 OA
ATOM      7  H   UNL A   1      30.817  26.879  27.128  1.00  0.00     0.163 HD
BRANCH   5   8
ATOM      8  C   UNL A   1      31.383  26.130  23.839  1.00  0.00     0.120 C 
BRANCH   8   9
ATOM      9  C   UNL A   1      32.867  26.600  23.716  1.00  0.00     0.035 C 
ATOM     10  C   UNL A   1      33.675  26.088  22.528  1.00  0.00     0.007 C 
ENDBRANCH   8   9
BRANCH   8  11
ATOM     11  C   UNL A   1      30.508  27.062  22.907  1.00  0.00     0.035 C 
ATOM     12  C   UNL A   1      30.425  28.545  23.235  1.00  0.00     0.007 C 
ENDBRANCH   8  11
BRANCH   8  13
ATOM     13  N   UNL A   1      31.330  24.689  23.421  1.00  0.00    -0.323 N 
ATOM     14  C   UNL A   1      31.593  23.457  23.942  1.00  0.00     0.318 C 
ATOM     15  H   UNL A   1      31.009  24.610  22.493  1.00  0.00     0.166 HD
ATOM     16  O   UNL A   1      31.608  22.548  23.107  1.00  0.00    -0.249 OA
BRANCH  14  17
ATOM     17  N   UNL A   1      31.685  23.193  25.288  1.00  0.00    -0.324 N 
ATOM     18  C   UNL A   1      30.610  22.677  26.125  1.00  0.00     0.149 C 
BRANCH  17  19
ATOM     19  C   UNL A   1      32.968  23.388  26.055  1.00  0.00     0.097 C 
ATOM     20  C   UNL A   1      34.237  23.260  25.194  1.00  0.00     0.086 C 
ATOM     21  C   UNL A   1      33.171  22.736  27.445  1.00  0.00     0.086 C 
ATOM     22  C   UNL A   1      34.884  21.891  25.288  1.00  0.00     0.262 C 
ATOM     23  C   UNL A   1      34.023  21.470  27.470  1.00  0.00     0.262 C 
ATOM     24  N   UNL A   1      35.240  21.609  26.673  1.00  0.00    -0.346 N 
ATOM     25  H   UNL A   1      35.803  22.376  27.043  1.00  0.00     0.346 HD
ATOM     26  H   UNL A   1      35.777  20.743  26.718  1.00  0.00     0.346 HD
ENDBRANCH  17  19
ENDBRANCH  14  17
ENDBRANCH   8  13
ENDBRANCH   5   8
ENDBRANCH   3   4
ENDBRANCH   2   3
ENDBRANCH   1   2
BRANCH   1  27
ATOM     27  C   UNL A   1      31.594  30.463  25.958  1.00  0.00     0.002 C 
BRANCH  27  28
ATOM     28  C   UNL A   1      31.438  31.861  26.559  1.00  0.00     0.021 C 
BRANCH  28  29
ATOM     29  C   UNL A   1      32.688  32.391  27.253  1.00  0.00     0.116 C 
BRANCH  29  30
ATOM     30  N   UNL A   1      32.566  33.803  27.574  1.00  0.00    -0.352 N 
ATOM     31  C   UNL A   1      33.213  34.512  28.554  1.00  0.00     0.251 C 
ATOM     32  H   UNL A   1      31.936  34.316  27.018  1.00  0.00     0.163 HD
ATOM     33  O   UNL A   1      32.820  35.634  28.869  1.00  0.00    -0.269 OA
BRANCH  31  34
ATOM     34  C   UNL A   1      34.369  33.899  29.242  1.00  0.00     0.039 A 
ATOM     35  C   UNL A   1      34.142  32.990  30.275  1.00  0.00     0.014 A 
ATOM     36  C   UNL A   1      35.673  34.199  28.834  1.00  0.00     0.014 A 
ATOM     37  C   UNL A   1      35.226  32.331  30.860  1.00  0.00     0.010 A 
ATOM     38  C   UNL A   1      36.743  33.481  29.362  1.00  0.00     0.010 A 
ATOM     39  C   UNL A   1      36.531  32.540  30.382  1.00  0.00    -0.014 A 
BRANCH  39  40
ATOM     40  C   UNL A   1      37.686  31.786  30.939  1.00  0.00     0.031 A 
ATOM     41  C   UNL A   1      38.217  32.121  32.305  1.00  0.00     0.074 A 
ATOM     42  C   UNL A   1      38.289  30.839  30.192  1.00  0.00     0.049 A 
ATOM     43  N   UNL A   1      39.252  31.629  32.935  1.00  0.00    -0.248 NA
ATOM     44  C   UNL A   1      37.505  33.171  33.050  1.00  0.00     0.031 C 
ATOM     45  C   UNL A   1      37.887  30.448  28.838  1.00  0.00     0.029 A 
ATOM     46  N   UNL A   1      39.370  30.035  30.458  1.00  0.00    -0.354 N 
ATOM     47  C   UNL A   1      39.321  32.312  34.145  1.00  0.00     0.074 A 
ATOM     48  C   UNL A   1      38.262  33.298  34.129  1.00  0.00     0.031 C 
ATOM     49  C   UNL A   1      38.690  29.462  28.408  1.00  0.00     0.029 A 
ATOM     50  C   UNL A   1      39.699  29.187  29.426  1.00  0.00     0.049 A 
ATOM     51  H   UNL A   1      39.864  30.064  31.309  1.00  0.00     0.167 HD
ATOM     52  C   UNL A   1      40.173  32.117  35.182  1.00  0.00     0.034 A 
ATOM     53  C   UNL A   1      40.708  28.300  29.305  1.00  0.00     0.034 A 
ATOM     54  C   UNL A   1      41.220  31.125  35.182  1.00  0.00     0.049 A 
ATOM     55  C   UNL A   1      41.672  28.135  30.453  1.00  0.00     0.074 A 
ATOM     56  C   UNL A   1      42.106  30.809  36.198  1.00  0.00     0.029 A 
ATOM     57  N   UNL A   1      41.534  30.295  34.113  1.00  0.00    -0.354 N 
ATOM     58  N   UNL A   1      41.692  28.754  31.611  1.00  0.00    -0.248 NA
ATOM     59  C   UNL A   1      42.744  27.147  30.281  1.00  0.00     0.031 C 
ATOM     60  C   UNL A   1      43.004  29.852  35.715  1.00  0.00     0.029 A 
ATOM     61  C   UNL A   1      42.624  29.498  34.430  1.00  0.00     0.049 A 
ATOM     62  H   UNL A   1      41.052  30.276  33.254  1.00  0.00     0.167 HD
ATOM     63  C   UNL A   1      42.759  28.204  32.317  1.00  0.00     0.074 A 
ATOM     64  C   UNL A   1      43.345  27.195  31.460  1.00  0.00     0.031 C 
ATOM     65  C   UNL A   1      43.208  28.502  33.564  1.00  0.00     0.034 A 
BRANCH  52  66
ATOM     66  C   UNL A   1      40.021  33.015  36.388  1.00  0.00     0.023 A 
ATOM     67  C   UNL A   1      39.286  32.617  37.519  1.00  0.00     0.031 A 
ATOM     68  C   UNL A   1      40.602  34.295  36.400  1.00  0.00     0.131 A 
ATOM     69  C   UNL A   1      39.088  33.515  38.578  1.00  0.00     0.055 A 
ATOM     70  C   UNL A   1      40.474  35.152  37.495  1.00  0.00     0.041 A 
ATOM     71  F   UNL A   1      41.295  34.742  35.342  1.00  0.00    -0.206 F 
ATOM     72  C   UNL A   1      39.699  34.770  38.587  1.00  0.00     0.022 A 
BRANCH  69  73
ATOM     73  S   UNL A   1      37.896  33.077  39.873  1.00  0.00     0.124 S 
ATOM     74  O   UNL A   1      38.482  31.852  40.411  1.00  0.00    -0.237 OA
ATOM     75  O   UNL A   1      37.937  34.244  40.747  1.00  0.00    -0.237 OA
ATOM     76  O   UNL A   1      36.645  32.891  39.139  1.00  0.00    -0.744 OA
ENDBRANCH  69  73
ENDBRANCH  52  66
BRANCH  53  77
ATOM     77  C   UNL A   1      40.877  27.512  28.048  1.00  0.00     0.023 A 
ATOM     78  C   UNL A   1      40.510  26.158  27.987  1.00  0.00     0.031 A 
ATOM     79  C   UNL A   1      41.454  28.088  26.903  1.00  0.00     0.131 A 
ATOM     80  C   UNL A   1      40.773  25.412  26.827  1.00  0.00     0.055 A 
ATOM     81  C   UNL A   1      41.657  27.359  25.730  1.00  0.00     0.041 A 
ATOM     82  F   UNL A   1      41.824  29.379  26.904  1.00  0.00    -0.206 F 
ATOM     83  C   UNL A   1      41.328  26.008  25.692  1.00  0.00     0.022 A 
BRANCH  80  84
ATOM     84  S   UNL A   1      40.469  23.624  26.856  1.00  0.00     0.124 S 
ATOM     85  O   UNL A   1      40.515  23.340  28.285  1.00  0.00    -0.237 OA
ATOM     86  O   UNL A   1      39.157  23.529  26.223  1.00  0.00    -0.237 OA
ATOM     87  O   UNL A   1      41.576  23.079  26.073  1.00  0.00    -0.744 OA
ENDBRANCH  80  84
ENDBRANCH  53  77
BRANCH  65  88
ATOM     88  C   UNL A   1      44.367  27.689  34.092  1.00  0.00     0.023 A 
ATOM     89  C   UNL A   1      44.172  26.508  34.829  1.00  0.00     0.031 A 
ATOM     90  C   UNL A   1      45.689  28.108  33.854  1.00  0.00     0.131 A 
ATOM     91  C   UNL A   1      45.277  25.818  35.350  1.00  0.00     0.055 A 
ATOM     92  C   UNL A   1      46.786  27.380  34.316  1.00  0.00     0.041 A 
ATOM     93  F   UNL A   1      45.935  29.231  33.160  1.00  0.00    -0.206 F 
ATOM     94  C   UNL A   1      46.583  26.235  35.080  1.00  0.00     0.022 A 
BRANCH  91  95
ATOM     95  S   UNL A   1      44.985  24.420  36.467  1.00  0.00     0.124 S 
ATOM     96  O   UNL A   1      44.223  23.508  35.620  1.00  0.00    -0.237 OA
ATOM     97  O   UNL A   1      46.341  23.996  36.800  1.00  0.00    -0.237 OA
ATOM     98  O   UNL A   1      44.232  25.014  37.571  1.00  0.00    -0.744 OA
ENDBRANCH  91  95
ENDBRANCH  65  88
ENDBRANCH  39  40
ENDBRANCH  31  34
ENDBRANCH  29  30
ENDBRANCH  28  29
ENDBRANCH  27  28
ENDBRANCH   1  27
TORSDOF 21
ENDMDL
MODEL 2
REMARK VINA RESULT:     -10.2      5.981      9.658
REMARK SMILES CCC(CC)(NC(=O)N(C)C1CC[NH2+]CC1)C(=O)NCCCCCCNC(=O)c1ccc(-c2c3nc(c(-c4cc(S(=O)(=O)[O-])ccc4F)c4ccc([nH]4)c(-c4cc(S(=O)(=O)[O-])ccc4F)c4nc(c(-c5cc(S(=O)(=O)[O-])ccc5F)c5ccc2[nH]5)C=C4)C=C3)cc1
REMARK SMILES IDX 22 1 21 2 20 3 19 4 17 5 18 6 3 8 2 9 1 10 4 11 5 12 6 13
REMARK SMILES IDX 7 14 8 16 9 17 10 18 11 19 12 20 16 21 13 22 15 23 14 24
REMARK SMILES IDX 23 27 24 28 25 29 26 30 27 31 28 33 29 34 30 35 91 36 31 37
REMARK SMILES IDX 90 38 32 39 33 40 34 41 84 42 35 43 89 44 83 45 85 46 36 47
REMARK SMILES IDX 88 48 82 49 81 50 37 52 69 53 49 54 68 55 50 56 53 57 67 58
REMARK SMILES IDX 86 59 51 60 52 61 66 63 87 64 54 65 38 66 39 67 47 68 40 69
REMARK SMILES IDX 46 70 48 71 45 72 41 73 42 74 43 75 44 76 70 77 71 78 79 79
REMARK SMILES IDX 72 80 78 81 80 82 77 83 73 84 74 85 75 86 76 87 55 88 56 89
REMARK SMILES IDX 64 90 57 91 63 92 65 93 62 94 58 95 59 96 60 97 61 98
REMARK H PARENT 19 7 6 15 14 25 14 26 26 32 85 51 53 62
REMARK Flexibility Score: inf
ROOT
ATOM      1  C   UNL A   1      36.177  22.187  24.400  1.00  0.00     0.002 C 
ENDROOT
BRANCH   1   2
ATOM      2  C   UNL A   1      34.800  21.951  23.786  1.00  0.00     0.021 C 
BRANCH   2   3
ATOM      3  C   UNL A   1      33.627  21.997  24.746  1.00  0.00     0.116 C 
BRANCH   3   4
ATOM      4  N   UNL A   1      32.366  22.329  24.101  1.00  0.00    -0.354 N 
ATOM      5  C   UNL A   1      31.704  23.515  23.932  1.00  0.00     0.245 C 
ATOM      6  O   UNL A   1      30.691  23.468  23.226  1.00  0.00    -0.272 OA
ATOM      7  H   UNL A   1      31.901  21.554  23.711  1.00  0.00     0.163 HD
BRANCH   5   8
ATOM      8  C   UNL A   1      32.272  24.867  24.478  1.00  0.00     0.120 C 
BRANCH   8   9
ATOM      9  C   UNL A   1      33.735  25.235  24.076  1.00  0.00     0.035 C 
ATOM     10  C   UNL A   1      34.758  25.394  25.197  1.00  0.00     0.007 C 
ENDBRANCH   8   9
BRANCH   8  11
ATOM     11  C   UNL A   1      32.253  24.625  26.042  1.00  0.00     0.035 C 
ATOM     12  C   UNL A   1      30.917  24.368  26.721  1.00  0.00     0.007 C 
ENDBRANCH   8  11
BRANCH   8  13
ATOM     13  N   UNL A   1      31.389  26.008  24.065  1.00  0.00    -0.323 N 
ATOM     14  C   UNL A   1      31.265  27.347  24.293  1.00  0.00     0.318 C 
ATOM     15  H   UNL A   1      30.692  25.698  23.443  1.00  0.00     0.166 HD
ATOM     16  O   UNL A   1      30.205  27.832  23.885  1.00  0.00    -0.249 OA
BRANCH  14  17
ATOM     17  N   UNL A   1      32.270  28.141  24.790  1.00  0.00    -0.324 N 
ATOM     18  C   UNL A   1      33.230  28.892  23.991  1.00  0.00     0.149 C 
BRANCH  17  19
ATOM     19  C   UNL A   1      32.468  28.348  26.270  1.00  0.00     0.097 C 
ATOM     20  C   UNL A   1      31.685  29.543  26.844  1.00  0.00     0.086 C 
ATOM     21  C   UNL A   1      33.876  28.248  26.906  1.00  0.00     0.086 C 
ATOM     22  C   UNL A   1      32.530  30.795  26.985  1.00  0.00     0.262 C 
ATOM     23  C   UNL A   1      34.565  29.576  27.213  1.00  0.00     0.262 C 
ATOM     24  N   UNL A   1      33.665  30.527  27.860  1.00  0.00    -0.346 N 
ATOM     25  H   UNL A   1      33.331  30.134  28.741  1.00  0.00     0.346 HD
ATOM     26  H   UNL A   1      34.165  31.397  28.045  1.00  0.00     0.346 HD
ENDBRANCH  17  19
ENDBRANCH  14  17
ENDBRANCH   8  13
ENDBRANCH   5   8
ENDBRANCH   3   4
ENDBRANCH   2   3
ENDBRANCH   1   2
BRANCH   1  27
ATOM     27  C   UNL A   1      36.617  21.093  25.368  1.00  0.00     0.002 C 
BRANCH  27  28
ATOM     28  C   UNL A   1      37.887  20.352  24.949  1.00  0.00     0.021 C 
BRANCH  28  29
ATOM     29  C   UNL A   1      39.132  20.733  25.744  1.00  0.00     0.116 C 
BRANCH  29  30
ATOM     30  N   UNL A   1      40.011  19.595  25.943  1.00  0.00    -0.352 N 
ATOM     31  C   UNL A   1      41.372  19.591  26.122  1.00  0.00     0.251 C 
ATOM     32  H   UNL A   1      39.576  18.712  25.948  1.00  0.00     0.163 HD
ATOM     33  O   UNL A   1      42.006  18.543  26.022  1.00  0.00    -0.269 OA
BRANCH  31  34
ATOM     34  C   UNL A   1      42.063  20.865  26.409  1.00  0.00     0.039 A 
ATOM     35  C   UNL A   1      42.443  21.687  25.348  1.00  0.00     0.014 A 
ATOM     36  C   UNL A   1      42.297  21.259  27.731  1.00  0.00     0.014 A 
ATOM     37  C   UNL A   1      43.004  22.939  25.616  1.00  0.00     0.010 A 
ATOM     38  C   UNL A   1      42.780  22.538  27.994  1.00  0.00     0.010 A 
ATOM     39  C   UNL A   1      43.140  23.391  26.939  1.00  0.00    -0.014 A 
BRANCH  39  40
ATOM     40  C   UNL A   1      43.660  24.753  27.238  1.00  0.00     0.031 A 
ATOM     41  C   UNL A   1      42.738  25.810  27.779  1.00  0.00     0.074 A 
ATOM     42  C   UNL A   1      44.948  25.050  26.970  1.00  0.00     0.049 A 
ATOM     43  N   UNL A   1      42.981  27.068  28.038  1.00  0.00    -0.248 NA
ATOM     44  C   UNL A   1      41.348  25.403  28.038  1.00  0.00     0.031 C 
ATOM     45  C   UNL A   1      45.932  24.119  26.411  1.00  0.00     0.029 A 
ATOM     46  N   UNL A   1      45.653  26.218  27.125  1.00  0.00    -0.354 N 
ATOM     47  C   UNL A   1      41.778  27.606  28.481  1.00  0.00     0.074 A 
ATOM     48  C   UNL A   1      40.791  26.551  28.392  1.00  0.00     0.031 C 
ATOM     49  C   UNL A   1      47.114  24.743  26.299  1.00  0.00     0.029 A 
ATOM     50  C   UNL A   1      46.965  26.132  26.722  1.00  0.00     0.049 A 
ATOM     51  H   UNL A   1      45.255  27.042  27.489  1.00  0.00     0.167 HD
ATOM     52  C   UNL A   1      41.525  28.856  28.942  1.00  0.00     0.034 A 
ATOM     53  C   UNL A   1      47.935  27.069  26.682  1.00  0.00     0.034 A 
ATOM     54  C   UNL A   1      42.523  29.895  29.029  1.00  0.00     0.049 A 
ATOM     55  C   UNL A   1      47.618  28.465  27.155  1.00  0.00     0.074 A 
ATOM     56  C   UNL A   1      42.388  31.179  29.527  1.00  0.00     0.029 A 
ATOM     57  N   UNL A   1      43.838  29.775  28.596  1.00  0.00    -0.354 N 
ATOM     58  N   UNL A   1      46.486  28.943  27.619  1.00  0.00    -0.248 NA
ATOM     59  C   UNL A   1      48.710  29.445  27.107  1.00  0.00     0.031 C 
ATOM     60  C   UNL A   1      43.592  31.859  29.320  1.00  0.00     0.029 A 
ATOM     61  C   UNL A   1      44.512  30.975  28.779  1.00  0.00     0.049 A 
ATOM     62  H   UNL A   1      44.234  28.958  28.215  1.00  0.00     0.167 HD
ATOM     63  C   UNL A   1      46.742  30.272  27.949  1.00  0.00     0.074 A 
ATOM     64  C   UNL A   1      48.137  30.512  27.645  1.00  0.00     0.031 C 
ATOM     65  C   UNL A   1      45.901  31.206  28.462  1.00  0.00     0.034 A 
BRANCH  52  66
ATOM     66  C   UNL A   1      40.108  29.172  29.361  1.00  0.00     0.023 A 
ATOM     67  C   UNL A   1      39.723  29.196  30.714  1.00  0.00     0.031 A 
ATOM     68  C   UNL A   1      39.121  29.434  28.394  1.00  0.00     0.131 A 
ATOM     69  C   UNL A   1      38.379  29.399  31.057  1.00  0.00     0.055 A 
ATOM     70  C   UNL A   1      37.801  29.722  28.747  1.00  0.00     0.041 A 
ATOM     71  F   UNL A   1      39.420  29.403  27.086  1.00  0.00    -0.206 F 
ATOM     72  C   UNL A   1      37.419  29.690  30.085  1.00  0.00     0.022 A 
BRANCH  69  73
ATOM     73  S   UNL A   1      37.875  29.127  32.778  1.00  0.00     0.124 S 
ATOM     74  O   UNL A   1      36.639  29.903  32.849  1.00  0.00    -0.237 OA
ATOM     75  O   UNL A   1      37.725  27.677  32.836  1.00  0.00    -0.237 OA
ATOM     76  O   UNL A   1      38.989  29.671  33.552  1.00  0.00    -0.744 OA
ENDBRANCH  69  73
ENDBRANCH  52  66
BRANCH  53  77
ATOM     77  C   UNL A   1      49.293  26.731  26.159  1.00  0.00     0.023 A 
ATOM     78  C   UNL A   1      49.715  27.178  24.897  1.00  0.00     0.031 A 
ATOM     79  C   UNL A   1      50.170  25.915  26.895  1.00  0.00     0.131 A 
ATOM     80  C   UNL A   1      50.955  26.763  24.386  1.00  0.00     0.055 A 
ATOM     81  C   UNL A   1      51.429  25.556  26.408  1.00  0.00     0.041 A 
ATOM     82  F   UNL A   1      49.819  25.459  28.108  1.00  0.00    -0.206 F 
ATOM     83  C   UNL A   1      51.822  25.970  25.140  1.00  0.00     0.022 A 
BRANCH  80  84
ATOM     84  S   UNL A   1      51.378  27.196  22.675  1.00  0.00     0.124 S 
ATOM     85  O   UNL A   1      52.632  26.478  22.490  1.00  0.00    -0.237 OA
ATOM     86  O   UNL A   1      50.227  26.682  21.939  1.00  0.00    -0.237 OA
ATOM     87  O   UNL A   1      51.491  28.653  22.712  1.00  0.00    -0.744 OA
ENDBRANCH  80  84
ENDBRANCH  53  77
BRANCH  65  88
ATOM     88  C   UNL A   1      46.485  32.564  28.772  1.00  0.00     0.023 A 
ATOM     89  C   UNL A   1      46.488  33.606  27.827  1.00  0.00     0.031 A 
ATOM     90  C   UNL A   1      47.051  32.818  30.034  1.00  0.00     0.131 A 
ATOM     91  C   UNL A   1      47.094  34.832  28.140  1.00  0.00     0.055 A 
ATOM     92  C   UNL A   1      47.592  34.061  30.363  1.00  0.00     0.041 A 
ATOM     93  F   UNL A   1      47.081  31.859  30.974  1.00  0.00    -0.206 F 
ATOM     94  C   UNL A   1      47.628  35.073  29.409  1.00  0.00     0.022 A 
BRANCH  91  95
ATOM     95  S   UNL A   1      47.264  36.079  26.833  1.00  0.00     0.124 S 
ATOM     96  O   UNL A   1      46.443  37.170  27.347  1.00  0.00    -0.237 OA
ATOM     97  O   UNL A   1      48.703  36.319  26.815  1.00  0.00    -0.237 OA
ATOM     98  O   UNL A   1      46.732  35.409  25.647  1.00  0.00    -0.744 OA
ENDBRANCH  91  95
ENDBRANCH  65  88
ENDBRANCH  39  40
ENDBRANCH  31  34
ENDBRANCH  29  30
ENDBRANCH  28  29
ENDBRANCH  27  28
ENDBRANCH   1  27
TORSDOF 21
ENDMDL
MODEL 3
REMARK VINA RESULT:     -10.1      2.092      2.407
REMARK SMILES CCC(CC)(NC(=O)N(C)C1CC[NH2+]CC1)C(=O)NCCCCCCNC(=O)c1ccc(-c2c3nc(c(-c4cc(S(=O)(=O)[O-])ccc4F)c4ccc([nH]4)c(-c4cc(S(=O)(=O)[O-])ccc4F)c4nc(c(-c5cc(S(=O)(=O)[O-])ccc5F)c5ccc2[nH]5)C=C4)C=C3)cc1
REMARK SMILES IDX 22 1 21 2 20 3 19 4 17 5 18 6 3 8 2 9 1 10 4 11 5 12 6 13
REMARK SMILES IDX 7 14 8 16 9 17 10 18 11 19 12 20 16 21 13 22 15 23 14 24
REMARK SMILES IDX 23 27 24 28 25 29 26 30 27 31 28 33 29 34 30 35 91 36 31 37
REMARK SMILES IDX 90 38 32 39 33 40 34 41 84 42 35 43 89 44 83 45 85 46 36 47
REMARK SMILES IDX 88 48 82 49 81 50 37 52 69 53 49 54 68 55 50 56 53 57 67 58
REMARK SMILES IDX 86 59 51 60 52 61 66 63 87 64 54 65 38 66 39 67 47 68 40 69
REMARK SMILES IDX 46 70 48 71 45 72 41 73 42 74 43 75 44 76 70 77 71 78 79 79
REMARK SMILES IDX 72 80 78 81 80 82 77 83 73 84 74 85 75 86 76 87 55 88 56 89
REMARK SMILES IDX 64 90 57 91 63 92 65 93 62 94 58 95 59 96 60 97 61 98
REMARK H PARENT 19 7 6 15 14 25 14 26 26 32 85 51 53 62
REMARK Flexibility Score: inf
ROOT
ATOM      1  C   UNL A   1      31.785  29.686  26.438  1.00  0.00     0.002 C 
ENDROOT
BRANCH   1   2
ATOM      2  C   UNL A   1      31.733  28.322  27.120  1.00  0.00     0.021 C 
BRANCH   2   3
ATOM      3  C   UNL A   1      32.172  27.140  26.278  1.00  0.00     0.116 C 
BRANCH   3   4
ATOM      4  N   UNL A   1      31.081  26.522  25.539  1.00  0.00    -0.354 N 
ATOM      5  C   UNL A   1      30.825  26.411  24.199  1.00  0.00     0.245 C 
ATOM      6  O   UNL A   1      29.851  25.714  23.894  1.00  0.00    -0.272 OA
ATOM      7  H   UNL A   1      30.398  26.103  26.111  1.00  0.00     0.163 HD
BRANCH   5   8
ATOM      8  C   UNL A   1      31.785  27.011  23.118  1.00  0.00     0.120 C 
BRANCH   8   9
ATOM      9  C   UNL A   1      33.062  27.744  23.635  1.00  0.00     0.035 C 
ATOM     10  C   UNL A   1      33.989  28.367  22.596  1.00  0.00     0.007 C 
ENDBRANCH   8   9
BRANCH   8  11
ATOM     11  C   UNL A   1      30.863  28.092  22.421  1.00  0.00     0.035 C 
ATOM     12  C   UNL A   1      30.104  29.074  23.300  1.00  0.00     0.007 C 
ENDBRANCH   8  11
BRANCH   8  13
ATOM     13  N   UNL A   1      32.232  25.940  22.167  1.00  0.00    -0.323 N 
ATOM     14  C   UNL A   1      33.002  24.815  22.174  1.00  0.00     0.318 C 
ATOM     15  H   UNL A   1      31.859  26.097  21.269  1.00  0.00     0.166 HD
ATOM     16  O   UNL A   1      33.262  24.374  21.050  1.00  0.00    -0.249 OA
BRANCH  14  17
ATOM     17  N   UNL A   1      33.345  24.122  23.310  1.00  0.00    -0.324 N 
ATOM     18  C   UNL A   1      32.468  23.225  24.052  1.00  0.00     0.149 C 
BRANCH  17  19
ATOM     19  C   UNL A   1      34.726  24.200  23.908  1.00  0.00     0.097 C 
ATOM     20  C   UNL A   1      35.682  23.097  23.419  1.00  0.00     0.086 C 
ATOM     21  C   UNL A   1      34.925  24.479  25.418  1.00  0.00     0.086 C 
ATOM     22  C   UNL A   1      35.790  21.932  24.385  1.00  0.00     0.262 C 
ATOM     23  C   UNL A   1      35.245  23.264  26.285  1.00  0.00     0.262 C 
ATOM     24  N   UNL A   1      36.262  22.408  25.679  1.00  0.00    -0.346 N 
ATOM     25  H   UNL A   1      37.124  22.941  25.552  1.00  0.00     0.346 HD
ATOM     26  H   UNL A   1      36.444  21.611  26.290  1.00  0.00     0.346 HD
ENDBRANCH  17  19
ENDBRANCH  14  17
ENDBRANCH   8  13
ENDBRANCH   5   8
ENDBRANCH   3   4
ENDBRANCH   2   3
ENDBRANCH   1   2
BRANCH   1  27
ATOM     27  C   UNL A   1      32.985  30.535  26.845  1.00  0.00     0.002 C 
BRANCH  27  28
ATOM     28  C   UNL A   1      32.626  31.809  27.611  1.00  0.00     0.021 C 
BRANCH  28  29
ATOM     29  C   UNL A   1      33.470  33.025  27.242  1.00  0.00     0.116 C 
BRANCH  29  30
ATOM     30  N   UNL A   1      33.008  34.224  27.920  1.00  0.00    -0.352 N 
ATOM     31  C   UNL A   1      33.346  34.680  29.169  1.00  0.00     0.251 C 
ATOM     32  H   UNL A   1      32.368  34.780  27.419  1.00  0.00     0.163 HD
ATOM     33  O   UNL A   1      32.684  35.566  29.705  1.00  0.00    -0.269 OA
BRANCH  31  34
ATOM     34  C   UNL A   1      34.497  34.073  29.869  1.00  0.00     0.039 A 
ATOM     35  C   UNL A   1      34.265  33.134  30.874  1.00  0.00     0.014 A 
ATOM     36  C   UNL A   1      35.804  34.408  29.500  1.00  0.00     0.014 A 
ATOM     37  C   UNL A   1      35.348  32.481  31.468  1.00  0.00     0.010 A 
ATOM     38  C   UNL A   1      36.876  33.698  30.036  1.00  0.00     0.010 A 
ATOM     39  C   UNL A   1      36.660  32.728  31.027  1.00  0.00    -0.014 A 
BRANCH  39  40
ATOM     40  C   UNL A   1      37.816  31.983  31.593  1.00  0.00     0.031 A 
ATOM     41  C   UNL A   1      38.410  32.401  32.910  1.00  0.00     0.074 A 
ATOM     42  C   UNL A   1      38.364  30.968  30.894  1.00  0.00     0.049 A 
ATOM     43  N   UNL A   1      39.456  31.926  33.534  1.00  0.00    -0.248 NA
ATOM     44  C   UNL A   1      37.755  33.521  33.603  1.00  0.00     0.031 C 
ATOM     45  C   UNL A   1      37.897  30.493  29.589  1.00  0.00     0.029 A 
ATOM     46  N   UNL A   1      39.433  30.155  31.177  1.00  0.00    -0.354 N 
ATOM     47  C   UNL A   1      39.592  32.691  34.688  1.00  0.00     0.074 A 
ATOM     48  C   UNL A   1      38.558  33.703  34.640  1.00  0.00     0.031 C 
ATOM     49  C   UNL A   1      38.657  29.456  29.201  1.00  0.00     0.029 A 
ATOM     50  C   UNL A   1      39.699  29.226  30.197  1.00  0.00     0.049 A 
ATOM     51  H   UNL A   1      39.962  30.231  32.004  1.00  0.00     0.167 HD
ATOM     52  C   UNL A   1      40.479  32.547  35.702  1.00  0.00     0.034 A 
ATOM     53  C   UNL A   1      40.679  28.304  30.103  1.00  0.00     0.034 A 
ATOM     54  C   UNL A   1      41.500  31.528  35.735  1.00  0.00     0.049 A 
ATOM     55  C   UNL A   1      41.684  28.195  31.222  1.00  0.00     0.074 A 
ATOM     56  C   UNL A   1      42.418  31.260  36.736  1.00  0.00     0.029 A 
ATOM     57  N   UNL A   1      41.749  30.615  34.717  1.00  0.00    -0.354 N 
ATOM     58  N   UNL A   1      41.766  28.895  32.331  1.00  0.00    -0.248 NA
ATOM     59  C   UNL A   1      42.722  27.166  31.081  1.00  0.00     0.031 C 
ATOM     60  C   UNL A   1      43.270  30.246  36.291  1.00  0.00     0.029 A 
ATOM     61  C   UNL A   1      42.830  29.812  35.050  1.00  0.00     0.049 A 
ATOM     62  H   UNL A   1      41.232  30.548  33.882  1.00  0.00     0.167 HD
ATOM     63  C   UNL A   1      42.846  28.366  33.034  1.00  0.00     0.074 A 
ATOM     64  C   UNL A   1      43.371  27.282  32.231  1.00  0.00     0.031 C 
ATOM     65  C   UNL A   1      43.353  28.740  34.237  1.00  0.00     0.034 A 
BRANCH  52  66
ATOM     66  C   UNL A   1      40.399  33.533  36.844  1.00  0.00     0.023 A 
ATOM     67  C   UNL A   1      41.264  34.639  36.929  1.00  0.00     0.031 A 
ATOM     68  C   UNL A   1      39.460  33.355  37.875  1.00  0.00     0.131 A 
ATOM     69  C   UNL A   1      41.223  35.478  38.053  1.00  0.00     0.055 A 
ATOM     70  C   UNL A   1      39.365  34.244  38.948  1.00  0.00     0.041 A 
ATOM     71  F   UNL A   1      38.622  32.306  37.864  1.00  0.00    -0.206 F 
ATOM     72  C   UNL A   1      40.261  35.304  39.050  1.00  0.00     0.022 A 
BRANCH  69  73
ATOM     73  S   UNL A   1      42.541  36.704  38.267  1.00  0.00     0.124 S 
ATOM     74  O   UNL A   1      43.628  35.881  38.792  1.00  0.00    -0.237 OA
ATOM     75  O   UNL A   1      42.722  37.212  36.911  1.00  0.00    -0.237 OA
ATOM     76  O   UNL A   1      41.973  37.656  39.219  1.00  0.00    -0.744 OA
ENDBRANCH  69  73
ENDBRANCH  52  66
BRANCH  53  77
ATOM     77  C   UNL A   1      40.777  27.423  28.901  1.00  0.00     0.023 A 
ATOM     78  C   UNL A   1      41.746  27.652  27.912  1.00  0.00     0.031 A 
ATOM     79  C   UNL A   1      39.869  26.368  28.701  1.00  0.00     0.131 A 
ATOM     80  C   UNL A   1      41.753  26.872  26.744  1.00  0.00     0.055 A 
ATOM     81  C   UNL A   1      39.919  25.555  27.567  1.00  0.00     0.041 A 
ATOM     82  F   UNL A   1      38.921  26.103  29.614  1.00  0.00    -0.206 F 
ATOM     83  C   UNL A   1      40.857  25.815  26.573  1.00  0.00     0.022 A 
BRANCH  80  84
ATOM     84  S   UNL A   1      42.889  27.325  25.405  1.00  0.00     0.124 S 
ATOM     85  O   UNL A   1      44.071  27.742  26.148  1.00  0.00    -0.237 OA
ATOM     86  O   UNL A   1      43.003  26.070  24.667  1.00  0.00    -0.237 OA
ATOM     87  O   UNL A   1      42.180  28.394  24.705  1.00  0.00    -0.744 OA
ENDBRANCH  80  84
ENDBRANCH  53  77
BRANCH  65  88
ATOM     88  C   UNL A   1      44.510  27.934  34.778  1.00  0.00     0.023 A 
ATOM     89  C   UNL A   1      44.315  26.737  35.488  1.00  0.00     0.031 A 
ATOM     90  C   UNL A   1      45.831  28.376  34.581  1.00  0.00     0.131 A 
ATOM     91  C   UNL A   1      45.418  26.053  36.023  1.00  0.00     0.055 A 
ATOM     92  C   UNL A   1      46.927  27.657  35.056  1.00  0.00     0.041 A 
ATOM     93  F   UNL A   1      46.077  29.516  33.914  1.00  0.00    -0.206 F 
ATOM     94  C   UNL A   1      46.724  26.495  35.793  1.00  0.00     0.022 A 
BRANCH  91  95
ATOM     95  S   UNL A   1      45.120  24.629  37.106  1.00  0.00     0.124 S 
ATOM     96  O   UNL A   1      44.157  25.171  38.060  1.00  0.00    -0.237 OA
ATOM     97  O   UNL A   1      44.602  23.631  36.176  1.00  0.00    -0.237 OA
ATOM     98  O   UNL A   1      46.441  24.336  37.659  1.00  0.00    -0.744 OA
ENDBRANCH  91  95
ENDBRANCH  65  88
ENDBRANCH  39  40
ENDBRANCH  31  34
ENDBRANCH  29  30
ENDBRANCH  28  29
ENDBRANCH  27  28
ENDBRANCH   1  27
TORSDOF 21
ENDMDL
