MODEL 1
REMARK VINA RESULT:     -10.8      0.000      0.000
REMARK SMILES N#Cc1cccc(CSc2ccnc(C(=O)NCCCCCCNC(=O)c3ccc(-c4c5nc(c(-c6cc(S(=O)(=O)[O-])ccc6F)c6ccc([nH]6)c(-c6cc(S(=O)(=O)[O-])ccc6F)c6nc(c(-c7cc(S(=O)(=O)[O-])ccc7F)c7ccc4[nH]7)C=C6)C=C5)cc3)c2)c1
REMARK SMILES IDX 20 1 19 2 18 3 17 4 15 5 16 6 14 8 10 9 11 10 90 11 12 12
REMARK SMILES IDX 13 13 9 14 8 15 7 16 3 17 4 18 91 19 5 20 6 21 2 22 1 23
REMARK SMILES IDX 21 24 22 25 23 26 24 27 25 28 26 30 27 31 28 32 89 33 29 34
REMARK SMILES IDX 88 35 30 36 31 37 32 38 82 39 33 40 87 41 81 42 83 43 34 44
REMARK SMILES IDX 86 45 80 46 79 47 35 49 67 50 47 51 66 52 48 53 51 54 65 55
REMARK SMILES IDX 84 56 49 57 50 58 64 60 85 61 52 62 36 63 37 64 45 65 38 66
REMARK SMILES IDX 44 67 46 68 43 69 39 70 40 71 41 72 42 73 68 74 69 75 77 76
REMARK SMILES IDX 70 77 76 78 78 79 75 80 71 81 72 82 73 83 74 84 53 85 54 86
REMARK SMILES IDX 62 87 55 88 61 89 63 90 60 91 56 92 57 93 58 94 59 95
REMARK H PARENT 17 7 24 29 83 48 51 59
REMARK Flexibility Score: inf
ROOT
ATOM      1  C   UNL A   1      33.258  27.820  25.386  1.00  0.00     0.002 C 
ENDROOT
BRANCH   1   2
ATOM      2  C   UNL A   1      33.202  26.917  24.157  1.00  0.00     0.021 C 
BRANCH   2   3
ATOM      3  C   UNL A   1      32.049  27.217  23.209  1.00  0.00     0.116 C 
BRANCH   3   4
ATOM      4  N   UNL A   1      32.296  26.746  21.861  1.00  0.00    -0.351 N 
ATOM      5  C   UNL A   1      32.786  25.580  21.314  1.00  0.00     0.269 C 
ATOM      6  O   UNL A   1      32.898  25.577  20.084  1.00  0.00    -0.268 OA
ATOM      7  H   UNL A   1      32.059  27.413  21.177  1.00  0.00     0.163 HD
BRANCH   5   8
ATOM      8  C   UNL A   1      33.200  24.360  22.099  1.00  0.00     0.129 A 
ATOM      9  C   UNL A   1      34.731  23.007  23.353  1.00  0.00     0.011 A 
ATOM     10  C   UNL A   1      33.779  22.002  23.413  1.00  0.00     0.035 A 
ATOM     11  C   UNL A   1      34.406  24.225  22.764  1.00  0.00     0.049 A 
ATOM     12  C   UNL A   1      32.560  22.238  22.811  1.00  0.00     0.113 A 
ATOM     13  N   UNL A   1      32.269  23.368  22.132  1.00  0.00    -0.251 NA
BRANCH   9  14
ATOM     14  S   UNL A   1      36.373  22.800  24.018  1.00  0.00    -0.121 SA
BRANCH  14  15
ATOM     15  C   UNL A   1      36.143  23.589  25.668  1.00  0.00     0.110 C 
BRANCH  15  16
ATOM     16  C   UNL A   1      34.798  23.267  26.280  1.00  0.00    -0.036 A 
ATOM     17  C   UNL A   1      32.490  23.869  26.770  1.00  0.00     0.052 A 
ATOM     18  C   UNL A   1      32.359  22.722  27.560  1.00  0.00     0.019 A 
ATOM     19  C   UNL A   1      33.708  24.141  26.131  1.00  0.00     0.024 A 
ATOM     20  C   UNL A   1      33.422  21.829  27.678  1.00  0.00     0.002 A 
ATOM     21  C   UNL A   1      34.622  22.088  27.021  1.00  0.00     0.004 A 
BRANCH  17  22
ATOM     22  C   UNL A   1      31.378  24.761  26.629  1.00  0.00     0.099 C 
ATOM     23  N   UNL A   1      30.488  25.498  26.501  1.00  0.00    -0.192 NA
ENDBRANCH  17  22
ENDBRANCH  15  16
ENDBRANCH  14  15
ENDBRANCH   9  14
ENDBRANCH   5   8
ENDBRANCH   3   4
ENDBRANCH   2   3
ENDBRANCH   1   2
BRANCH   1  24
ATOM     24  C   UNL A   1      33.309  29.322  25.084  1.00  0.00     0.002 C 
BRANCH  24  25
ATOM     25  C   UNL A   1      32.059  30.111  25.490  1.00  0.00     0.021 C 
BRANCH  25  26
ATOM     26  C   UNL A   1      32.116  30.684  26.901  1.00  0.00     0.116 C 
BRANCH  26  27
ATOM     27  N   UNL A   1      32.254  32.130  26.880  1.00  0.00    -0.352 N 
ATOM     28  C   UNL A   1      33.173  32.922  27.517  1.00  0.00     0.251 C 
ATOM     29  H   UNL A   1      31.593  32.608  26.329  1.00  0.00     0.163 HD
ATOM     30  O   UNL A   1      32.969  34.127  27.623  1.00  0.00    -0.269 OA
BRANCH  28  31
ATOM     31  C   UNL A   1      34.394  32.312  28.083  1.00  0.00     0.039 A 
ATOM     32  C   UNL A   1      35.542  33.094  28.220  1.00  0.00     0.014 A 
ATOM     33  C   UNL A   1      34.406  30.968  28.469  1.00  0.00     0.014 A 
ATOM     34  C   UNL A   1      36.687  32.539  28.792  1.00  0.00     0.010 A 
ATOM     35  C   UNL A   1      35.517  30.445  29.121  1.00  0.00     0.010 A 
ATOM     36  C   UNL A   1      36.674  31.221  29.281  1.00  0.00    -0.014 A 
BRANCH  36  37
ATOM     37  C   UNL A   1      37.865  30.644  29.955  1.00  0.00     0.031 A 
ATOM     38  C   UNL A   1      38.202  31.044  31.366  1.00  0.00     0.074 A 
ATOM     39  C   UNL A   1      38.662  29.791  29.281  1.00  0.00     0.049 A 
ATOM     40  N   UNL A   1      39.220  30.685  32.105  1.00  0.00    -0.248 NA
ATOM     41  C   UNL A   1      37.291  31.994  32.022  1.00  0.00     0.031 C 
ATOM     42  C   UNL A   1      38.451  29.355  27.898  1.00  0.00     0.029 A 
ATOM     43  N   UNL A   1      39.806  29.136  29.663  1.00  0.00    -0.354 N 
ATOM     44  C   UNL A   1      39.075  31.365  33.308  1.00  0.00     0.074 A 
ATOM     45  C   UNL A   1      37.910  32.212  33.171  1.00  0.00     0.031 C 
ATOM     46  C   UNL A   1      39.408  28.477  27.564  1.00  0.00     0.029 A 
ATOM     47  C   UNL A   1      40.336  28.332  28.681  1.00  0.00     0.049 A 
ATOM     48  H   UNL A   1      40.208  29.233  30.556  1.00  0.00     0.167 HD
ATOM     49  C   UNL A   1      39.829  31.272  34.431  1.00  0.00     0.034 A 
ATOM     50  C   UNL A   1      41.453  27.578  28.673  1.00  0.00     0.034 A 
ATOM     51  C   UNL A   1      40.988  30.421  34.546  1.00  0.00     0.049 A 
ATOM     52  C   UNL A   1      42.309  27.537  29.914  1.00  0.00     0.074 A 
ATOM     53  C   UNL A   1      41.798  30.217  35.649  1.00  0.00     0.029 A 
ATOM     54  N   UNL A   1      41.515  29.645  33.521  1.00  0.00    -0.354 N 
ATOM     55  N   UNL A   1      42.131  28.151  31.061  1.00  0.00    -0.248 NA
ATOM     56  C   UNL A   1      43.511  26.696  29.862  1.00  0.00     0.031 C 
ATOM     57  C   UNL A   1      42.864  29.398  35.265  1.00  0.00     0.029 A 
ATOM     58  C   UNL A   1      42.664  28.999  33.954  1.00  0.00     0.049 A 
ATOM     59  H   UNL A   1      41.128  29.565  32.618  1.00  0.00     0.167 HD
ATOM     60  C   UNL A   1      43.180  27.738  31.880  1.00  0.00     0.074 A 
ATOM     61  C   UNL A   1      43.974  26.813  31.098  1.00  0.00     0.031 C 
ATOM     62  C   UNL A   1      43.456  28.087  33.161  1.00  0.00     0.034 A 
BRANCH  49  63
ATOM     63  C   UNL A   1      39.442  32.138  35.607  1.00  0.00     0.023 A 
ATOM     64  C   UNL A   1      38.687  31.635  36.681  1.00  0.00     0.031 A 
ATOM     65  C   UNL A   1      39.817  33.493  35.648  1.00  0.00     0.131 A 
ATOM     66  C   UNL A   1      38.265  32.496  37.705  1.00  0.00     0.055 A 
ATOM     67  C   UNL A   1      39.475  34.322  36.717  1.00  0.00     0.041 A 
ATOM     68  F   UNL A   1      40.516  34.039  34.640  1.00  0.00    -0.206 F 
ATOM     69  C   UNL A   1      38.680  33.828  37.748  1.00  0.00     0.022 A 
BRANCH  66  70
ATOM     70  S   UNL A   1      37.031  31.891  38.889  1.00  0.00     0.124 S 
ATOM     71  O   UNL A   1      36.917  30.487  38.503  1.00  0.00    -0.237 OA
ATOM     72  O   UNL A   1      37.672  32.151  40.172  1.00  0.00    -0.237 OA
ATOM     73  O   UNL A   1      35.852  32.706  38.602  1.00  0.00    -0.744 OA
ENDBRANCH  66  70
ENDBRANCH  49  63
BRANCH  50  74
ATOM     74  C   UNL A   1      41.843  26.816  27.450  1.00  0.00     0.023 A 
ATOM     75  C   UNL A   1      41.634  25.431  27.359  1.00  0.00     0.031 A 
ATOM     76  C   UNL A   1      42.480  27.457  26.371  1.00  0.00     0.131 A 
ATOM     77  C   UNL A   1      42.107  24.724  26.243  1.00  0.00     0.055 A 
ATOM     78  C   UNL A   1      42.886  26.760  25.232  1.00  0.00     0.041 A 
ATOM     79  F   UNL A   1      42.710  28.779  26.405  1.00  0.00    -0.206 F 
ATOM     80  C   UNL A   1      42.714  25.381  25.170  1.00  0.00     0.022 A 
BRANCH  77  81
ATOM     81  S   UNL A   1      42.021  22.912  26.263  1.00  0.00     0.124 S 
ATOM     82  O   UNL A   1      40.582  22.687  26.337  1.00  0.00    -0.237 OA
ATOM     83  O   UNL A   1      42.662  22.563  25.000  1.00  0.00    -0.237 OA
ATOM     84  O   UNL A   1      42.772  22.551  27.464  1.00  0.00    -0.744 OA
ENDBRANCH  77  81
ENDBRANCH  50  74
BRANCH  62  85
ATOM     85  C   UNL A   1      44.643  27.422  33.819  1.00  0.00     0.023 A 
ATOM     86  C   UNL A   1      45.932  27.980  33.771  1.00  0.00     0.031 A 
ATOM     87  C   UNL A   1      44.480  26.200  34.499  1.00  0.00     0.131 A 
ATOM     88  C   UNL A   1      47.015  27.288  34.333  1.00  0.00     0.055 A 
ATOM     89  C   UNL A   1      45.548  25.556  35.125  1.00  0.00     0.041 A 
ATOM     90  F   UNL A   1      43.274  25.614  34.572  1.00  0.00    -0.206 F 
ATOM     91  C   UNL A   1      46.828  26.092  35.030  1.00  0.00     0.022 A 
BRANCH  88  92
ATOM     92  S   UNL A   1      48.693  27.910  34.035  1.00  0.00     0.124 S 
ATOM     93  O   UNL A   1      48.739  29.081  34.904  1.00  0.00    -0.237 OA
ATOM     94  O   UNL A   1      49.521  26.780  34.444  1.00  0.00    -0.237 OA
ATOM     95  O   UNL A   1      48.703  28.199  32.602  1.00  0.00    -0.744 OA
ENDBRANCH  88  92
ENDBRANCH  62  85
ENDBRANCH  36  37
ENDBRANCH  28  31
ENDBRANCH  26  27
ENDBRANCH  25  26
ENDBRANCH  24  25
ENDBRANCH   1  24
TORSDOF 20
ENDMDL
MODEL 2
REMARK VINA RESULT:     -10.7      9.658     14.236
REMARK SMILES N#Cc1cccc(CSc2ccnc(C(=O)NCCCCCCNC(=O)c3ccc(-c4c5nc(c(-c6cc(S(=O)(=O)[O-])ccc6F)c6ccc([nH]6)c(-c6cc(S(=O)(=O)[O-])ccc6F)c6nc(c(-c7cc(S(=O)(=O)[O-])ccc7F)c7ccc4[nH]7)C=C6)C=C5)cc3)c2)c1
REMARK SMILES IDX 20 1 19 2 18 3 17 4 15 5 16 6 14 8 10 9 11 10 90 11 12 12
REMARK SMILES IDX 13 13 9 14 8 15 7 16 3 17 4 18 91 19 5 20 6 21 2 22 1 23
REMARK SMILES IDX 21 24 22 25 23 26 24 27 25 28 26 30 27 31 28 32 89 33 29 34
REMARK SMILES IDX 88 35 30 36 31 37 32 38 82 39 33 40 87 41 81 42 83 43 34 44
REMARK SMILES IDX 86 45 80 46 79 47 35 49 67 50 47 51 66 52 48 53 51 54 65 55
REMARK SMILES IDX 84 56 49 57 50 58 64 60 85 61 52 62 36 63 37 64 45 65 38 66
REMARK SMILES IDX 44 67 46 68 43 69 39 70 40 71 41 72 42 73 68 74 69 75 77 76
REMARK SMILES IDX 70 77 76 78 78 79 75 80 71 81 72 82 73 83 74 84 53 85 54 86
REMARK SMILES IDX 62 87 55 88 61 89 63 90 60 91 56 92 57 93 58 94 59 95
REMARK H PARENT 17 7 24 29 83 48 51 59
REMARK Flexibility Score: inf
ROOT
ATOM      1  C   UNL A   1      43.447  40.404  26.050  1.00  0.00     0.002 C 
ENDROOT
BRANCH   1   2
ATOM      2  C   UNL A   1      41.984  40.687  25.716  1.00  0.00     0.021 C 
BRANCH   2   3
ATOM      3  C   UNL A   1      41.780  41.672  24.573  1.00  0.00     0.116 C 
BRANCH   3   4
ATOM      4  N   UNL A   1      42.744  42.756  24.592  1.00  0.00    -0.351 N 
ATOM      5  C   UNL A   1      43.305  43.573  23.635  1.00  0.00     0.269 C 
ATOM      6  O   UNL A   1      44.152  44.370  24.050  1.00  0.00    -0.268 OA
ATOM      7  H   UNL A   1      43.073  42.954  25.498  1.00  0.00     0.163 HD
BRANCH   5   8
ATOM      8  C   UNL A   1      42.975  43.539  22.163  1.00  0.00     0.129 A 
ATOM      9  C   UNL A   1      43.464  43.769  19.827  1.00  0.00     0.011 A 
ATOM     10  C   UNL A   1      42.133  43.517  19.534  1.00  0.00     0.035 A 
ATOM     11  C   UNL A   1      43.901  43.695  21.147  1.00  0.00     0.049 A 
ATOM     12  C   UNL A   1      41.279  43.273  20.591  1.00  0.00     0.113 A 
ATOM     13  N   UNL A   1      41.661  43.316  21.884  1.00  0.00    -0.251 NA
BRANCH   9  14
ATOM     14  S   UNL A   1      44.654  44.178  18.564  1.00  0.00    -0.121 SA
BRANCH  14  15
ATOM     15  C   UNL A   1      43.513  44.484  17.148  1.00  0.00     0.110 C 
BRANCH  15  16
ATOM     16  C   UNL A   1      43.322  45.958  16.869  1.00  0.00    -0.036 A 
ATOM     17  C   UNL A   1      44.155  48.246  16.879  1.00  0.00     0.052 A 
ATOM     18  C   UNL A   1      42.891  48.708  16.498  1.00  0.00     0.019 A 
ATOM     19  C   UNL A   1      44.370  46.873  17.065  1.00  0.00     0.024 A 
ATOM     20  C   UNL A   1      41.859  47.803  16.260  1.00  0.00     0.002 A 
ATOM     21  C   UNL A   1      42.081  46.438  16.420  1.00  0.00     0.004 A 
BRANCH  17  22
ATOM     22  C   UNL A   1      45.218  49.184  17.087  1.00  0.00     0.099 C 
ATOM     23  N   UNL A   1      46.085  49.936  17.274  1.00  0.00    -0.192 NA
ENDBRANCH  17  22
ENDBRANCH  15  16
ENDBRANCH  14  15
ENDBRANCH   9  14
ENDBRANCH   5   8
ENDBRANCH   3   4
ENDBRANCH   2   3
ENDBRANCH   1   2
BRANCH   1  24
ATOM     24  C   UNL A   1      43.696  39.881  27.470  1.00  0.00     0.002 C 
BRANCH  24  25
ATOM     25  C   UNL A   1      45.025  39.143  27.667  1.00  0.00     0.021 C 
BRANCH  25  26
ATOM     26  C   UNL A   1      45.035  38.183  28.850  1.00  0.00     0.116 C 
BRANCH  26  27
ATOM     27  N   UNL A   1      46.389  37.917  29.305  1.00  0.00    -0.352 N 
ATOM     28  C   UNL A   1      46.931  36.750  29.776  1.00  0.00     0.251 C 
ATOM     29  H   UNL A   1      47.004  38.684  29.270  1.00  0.00     0.163 HD
ATOM     30  O   UNL A   1      47.996  36.775  30.384  1.00  0.00    -0.269 OA
BRANCH  28  31
ATOM     31  C   UNL A   1      46.218  35.474  29.559  1.00  0.00     0.039 A 
ATOM     32  C   UNL A   1      45.714  35.187  28.289  1.00  0.00     0.014 A 
ATOM     33  C   UNL A   1      46.042  34.568  30.609  1.00  0.00     0.014 A 
ATOM     34  C   UNL A   1      45.077  33.966  28.063  1.00  0.00     0.010 A 
ATOM     35  C   UNL A   1      45.489  33.317  30.359  1.00  0.00     0.010 A 
ATOM     36  C   UNL A   1      44.991  33.005  29.086  1.00  0.00    -0.014 A 
BRANCH  36  37
ATOM     37  C   UNL A   1      44.377  31.676  28.837  1.00  0.00     0.031 A 
ATOM     38  C   UNL A   1      42.997  31.373  29.353  1.00  0.00     0.074 A 
ATOM     39  C   UNL A   1      45.080  30.732  28.180  1.00  0.00     0.049 A 
ATOM     40  N   UNL A   1      42.312  30.261  29.275  1.00  0.00    -0.248 NA
ATOM     41  C   UNL A   1      42.307  32.452  30.075  1.00  0.00     0.031 C 
ATOM     42  C   UNL A   1      46.439  30.903  27.660  1.00  0.00     0.029 A 
ATOM     43  N   UNL A   1      44.753  29.445  27.834  1.00  0.00    -0.354 N 
ATOM     44  C   UNL A   1      41.115  30.504  29.939  1.00  0.00     0.074 A 
ATOM     45  C   UNL A   1      41.200  31.845  30.475  1.00  0.00     0.031 C 
ATOM     46  C   UNL A   1      46.813  29.780  27.028  1.00  0.00     0.029 A 
ATOM     47  C   UNL A   1      45.749  28.787  27.149  1.00  0.00     0.049 A 
ATOM     48  H   UNL A   1      43.888  29.032  28.054  1.00  0.00     0.167 HD
ATOM     49  C   UNL A   1      40.037  29.692  30.068  1.00  0.00     0.034 A 
ATOM     50  C   UNL A   1      45.808  27.523  26.687  1.00  0.00     0.034 A 
ATOM     51  C   UNL A   1      39.974  28.356  29.526  1.00  0.00     0.049 A 
ATOM     52  C   UNL A   1      44.619  26.619  26.896  1.00  0.00     0.074 A 
ATOM     53  C   UNL A   1      38.917  27.464  29.561  1.00  0.00     0.029 A 
ATOM     54  N   UNL A   1      41.013  27.711  28.868  1.00  0.00    -0.354 N 
ATOM     55  N   UNL A   1      43.475  26.880  27.486  1.00  0.00    -0.248 NA
ATOM     56  C   UNL A   1      44.725  25.253  26.368  1.00  0.00     0.031 C 
ATOM     57  C   UNL A   1      39.346  26.253  29.012  1.00  0.00     0.029 A 
ATOM     58  C   UNL A   1      40.636  26.419  28.533  1.00  0.00     0.049 A 
ATOM     59  H   UNL A   1      41.890  28.114  28.666  1.00  0.00     0.167 HD
ATOM     60  C   UNL A   1      42.712  25.721  27.366  1.00  0.00     0.074 A 
ATOM     61  C   UNL A   1      43.521  24.768  26.635  1.00  0.00     0.031 C 
ATOM     62  C   UNL A   1      41.456  25.471  27.814  1.00  0.00     0.034 A 
BRANCH  49  63
ATOM     63  C   UNL A   1      38.858  30.216  30.853  1.00  0.00     0.023 A 
ATOM     64  C   UNL A   1      37.796  30.896  30.231  1.00  0.00     0.031 A 
ATOM     65  C   UNL A   1      38.800  30.050  32.249  1.00  0.00     0.131 A 
ATOM     66  C   UNL A   1      36.769  31.453  31.007  1.00  0.00     0.055 A 
ATOM     67  C   UNL A   1      37.727  30.523  33.005  1.00  0.00     0.041 A 
ATOM     68  F   UNL A   1      39.796  29.432  32.905  1.00  0.00    -0.206 F 
ATOM     69  C   UNL A   1      36.710  31.243  32.386  1.00  0.00     0.022 A 
BRANCH  66  70
ATOM     70  S   UNL A   1      35.604  32.592  30.211  1.00  0.00     0.124 S 
ATOM     71  O   UNL A   1      34.424  32.446  31.059  1.00  0.00    -0.237 OA
ATOM     72  O   UNL A   1      36.301  33.870  30.302  1.00  0.00    -0.237 OA
ATOM     73  O   UNL A   1      35.462  32.050  28.861  1.00  0.00    -0.744 OA
ENDBRANCH  66  70
ENDBRANCH  49  63
BRANCH  50  74
ATOM     74  C   UNL A   1      47.037  27.023  26.002  1.00  0.00     0.023 A 
ATOM     75  C   UNL A   1      48.044  26.352  26.712  1.00  0.00     0.031 A 
ATOM     76  C   UNL A   1      47.244  27.255  24.629  1.00  0.00     0.131 A 
ATOM     77  C   UNL A   1      49.234  25.988  26.064  1.00  0.00     0.055 A 
ATOM     78  C   UNL A   1      48.399  26.829  23.973  1.00  0.00     0.041 A 
ATOM     79  F   UNL A   1      46.316  27.896  23.901  1.00  0.00    -0.206 F 
ATOM     80  C   UNL A   1      49.411  26.204  24.695  1.00  0.00     0.022 A 
BRANCH  77  81
ATOM     81  S   UNL A   1      50.599  25.329  27.061  1.00  0.00     0.124 S 
ATOM     82  O   UNL A   1      49.929  24.281  27.821  1.00  0.00    -0.237 OA
ATOM     83  O   UNL A   1      51.535  24.882  26.035  1.00  0.00    -0.237 OA
ATOM     84  O   UNL A   1      51.036  26.485  27.841  1.00  0.00    -0.744 OA
ENDBRANCH  77  81
ENDBRANCH  50  74
BRANCH  62  85
ATOM     85  C   UNL A   1      40.856  24.125  27.477  1.00  0.00     0.023 A 
ATOM     86  C   UNL A   1      39.763  23.994  26.603  1.00  0.00     0.031 A 
ATOM     87  C   UNL A   1      41.384  22.953  28.051  1.00  0.00     0.131 A 
ATOM     88  C   UNL A   1      39.195  22.732  26.379  1.00  0.00     0.055 A 
ATOM     89  C   UNL A   1      40.864  21.692  27.762  1.00  0.00     0.041 A 
ATOM     90  F   UNL A   1      42.423  23.017  28.899  1.00  0.00    -0.206 F 
ATOM     91  C   UNL A   1      39.753  21.577  26.933  1.00  0.00     0.022 A 
BRANCH  88  92
ATOM     92  S   UNL A   1      37.639  22.630  25.451  1.00  0.00     0.124 S 
ATOM     93  O   UNL A   1      37.719  23.813  24.600  1.00  0.00    -0.237 OA
ATOM     94  O   UNL A   1      37.766  21.346  24.770  1.00  0.00    -0.237 OA
ATOM     95  O   UNL A   1      36.614  22.681  26.492  1.00  0.00    -0.744 OA
ENDBRANCH  88  92
ENDBRANCH  62  85
ENDBRANCH  36  37
ENDBRANCH  28  31
ENDBRANCH  26  27
ENDBRANCH  25  26
ENDBRANCH  24  25
ENDBRANCH   1  24
TORSDOF 20
ENDMDL
MODEL 3
REMARK VINA RESULT:     -10.7      1.797      2.450
REMARK SMILES N#Cc1cccc(CSc2ccnc(C(=O)NCCCCCCNC(=O)c3ccc(-c4c5nc(c(-c6cc(S(=O)(=O)[O-])ccc6F)c6ccc([nH]6)c(-c6cc(S(=O)(=O)[O-])ccc6F)c6nc(c(-c7cc(S(=O)(=O)[O-])ccc7F)c7ccc4[nH]7)C=C6)C=C5)cc3)c2)c1
REMARK SMILES IDX 20 1 19 2 18 3 17 4 15 5 16 6 14 8 10 9 11 10 90 11 12 12
REMARK SMILES IDX 13 13 9 14 8 15 7 16 3 17 4 18 91 19 5 20 6 21 2 22 1 23
REMARK SMILES IDX 21 24 22 25 23 26 24 27 25 28 26 30 27 31 28 32 89 33 29 34
REMARK SMILES IDX 88 35 30 36 31 37 32 38 82 39 33 40 87 41 81 42 83 43 34 44
REMARK SMILES IDX 86 45 80 46 79 47 35 49 67 50 47 51 66 52 48 53 51 54 65 55
REMARK SMILES IDX 84 56 49 57 50 58 64 60 85 61 52 62 36 63 37 64 45 65 38 66
REMARK SMILES IDX 44 67 46 68 43 69 39 70 40 71 41 72 42 73 68 74 69 75 77 76
REMARK SMILES IDX 70 77 76 78 78 79 75 80 71 81 72 82 73 83 74 84 53 85 54 86
REMARK SMILES IDX 62 87 55 88 61 89 63 90 60 91 56 92 57 93 58 94 59 95
REMARK H PARENT 17 7 24 29 83 48 51 59
REMARK Flexibility Score: inf
ROOT
ATOM      1  C   UNL A   1      32.261  28.055  24.718  1.00  0.00     0.002 C 
ENDROOT
BRANCH   1   2
ATOM      2  C   UNL A   1      31.976  28.433  23.267  1.00  0.00     0.021 C 
BRANCH   2   3
ATOM      3  C   UNL A   1      31.176  27.394  22.493  1.00  0.00     0.116 C 
BRANCH   3   4
ATOM      4  N   UNL A   1      31.983  26.671  21.529  1.00  0.00    -0.351 N 
ATOM      5  C   UNL A   1      32.529  25.408  21.472  1.00  0.00     0.269 C 
ATOM      6  O   UNL A   1      33.217  25.173  20.475  1.00  0.00    -0.268 OA
ATOM      7  H   UNL A   1      32.187  27.208  20.729  1.00  0.00     0.163 HD
BRANCH   5   8
ATOM      8  C   UNL A   1      32.362  24.342  22.527  1.00  0.00     0.129 A 
ATOM      9  C   UNL A   1      32.194  23.524  24.775  1.00  0.00     0.011 A 
ATOM     10  C   UNL A   1      32.148  22.227  24.289  1.00  0.00     0.035 A 
ATOM     11  C   UNL A   1      32.216  24.590  23.880  1.00  0.00     0.049 A 
ATOM     12  C   UNL A   1      32.201  22.053  22.921  1.00  0.00     0.113 A 
ATOM     13  N   UNL A   1      32.343  23.069  22.044  1.00  0.00    -0.251 NA
BRANCH   9  14
ATOM     14  S   UNL A   1      32.216  23.884  26.520  1.00  0.00    -0.121 SA
BRANCH  14  15
ATOM     15  C   UNL A   1      33.418  22.606  27.088  1.00  0.00     0.110 C 
BRANCH  15  16
ATOM     16  C   UNL A   1      34.740  22.694  26.361  1.00  0.00    -0.036 A 
ATOM     17  C   UNL A   1      36.721  21.635  25.420  1.00  0.00     0.052 A 
ATOM     18  C   UNL A   1      37.269  22.895  25.155  1.00  0.00     0.019 A 
ATOM     19  C   UNL A   1      35.459  21.535  26.023  1.00  0.00     0.024 A 
ATOM     20  C   UNL A   1      36.544  24.047  25.448  1.00  0.00     0.002 A 
ATOM     21  C   UNL A   1      35.280  23.946  26.023  1.00  0.00     0.004 A 
BRANCH  17  22
ATOM     22  C   UNL A   1      37.462  20.457  25.082  1.00  0.00     0.099 C 
ATOM     23  N   UNL A   1      38.080  19.508  24.816  1.00  0.00    -0.192 NA
ENDBRANCH  17  22
ENDBRANCH  15  16
ENDBRANCH  14  15
ENDBRANCH   9  14
ENDBRANCH   5   8
ENDBRANCH   3   4
ENDBRANCH   2   3
ENDBRANCH   1   2
BRANCH   1  24
ATOM     24  C   UNL A   1      32.818  29.190  25.585  1.00  0.00     0.002 C 
BRANCH  24  25
ATOM     25  C   UNL A   1      31.959  30.459  25.626  1.00  0.00     0.021 C 
BRANCH  25  26
ATOM     26  C   UNL A   1      31.859  31.099  27.006  1.00  0.00     0.116 C 
BRANCH  26  27
ATOM     27  N   UNL A   1      32.021  32.540  26.933  1.00  0.00    -0.352 N 
ATOM     28  C   UNL A   1      32.962  33.338  27.530  1.00  0.00     0.251 C 
ATOM     29  H   UNL A   1      31.360  33.011  26.376  1.00  0.00     0.163 HD
ATOM     30  O   UNL A   1      32.780  34.549  27.598  1.00  0.00    -0.269 OA
BRANCH  28  31
ATOM     31  C   UNL A   1      34.182  32.727  28.098  1.00  0.00     0.039 A 
ATOM     32  C   UNL A   1      35.384  33.433  28.041  1.00  0.00     0.014 A 
ATOM     33  C   UNL A   1      34.137  31.456  28.680  1.00  0.00     0.014 A 
ATOM     34  C   UNL A   1      36.532  32.883  28.613  1.00  0.00     0.010 A 
ATOM     35  C   UNL A   1      35.259  30.951  29.327  1.00  0.00     0.010 A 
ATOM     36  C   UNL A   1      36.472  31.654  29.293  1.00  0.00    -0.014 A 
BRANCH  36  37
ATOM     37  C   UNL A   1      37.671  31.093  29.965  1.00  0.00     0.031 A 
ATOM     38  C   UNL A   1      37.986  31.471  31.388  1.00  0.00     0.074 A 
ATOM     39  C   UNL A   1      38.496  30.276  29.281  1.00  0.00     0.049 A 
ATOM     40  N   UNL A   1      39.006  31.122  32.128  1.00  0.00    -0.248 NA
ATOM     41  C   UNL A   1      37.044  32.382  32.056  1.00  0.00     0.031 C 
ATOM     42  C   UNL A   1      38.309  29.865  27.888  1.00  0.00     0.029 A 
ATOM     43  N   UNL A   1      39.653  29.642  29.660  1.00  0.00    -0.354 N 
ATOM     44  C   UNL A   1      38.833  31.772  33.345  1.00  0.00     0.074 A 
ATOM     45  C   UNL A   1      37.647  32.592  33.215  1.00  0.00     0.031 C 
ATOM     46  C   UNL A   1      39.291  29.018  27.543  1.00  0.00     0.029 A 
ATOM     47  C   UNL A   1      40.213  28.873  28.665  1.00  0.00     0.049 A 
ATOM     48  H   UNL A   1      40.045  29.730  30.558  1.00  0.00     0.167 HD
ATOM     49  C   UNL A   1      39.579  31.674  34.473  1.00  0.00     0.034 A 
ATOM     50  C   UNL A   1      41.349  28.149  28.652  1.00  0.00     0.034 A 
ATOM     51  C   UNL A   1      40.759  30.851  34.580  1.00  0.00     0.049 A 
ATOM     52  C   UNL A   1      42.194  28.103  29.900  1.00  0.00     0.074 A 
ATOM     53  C   UNL A   1      41.564  30.644  35.686  1.00  0.00     0.029 A 
ATOM     54  N   UNL A   1      41.314  30.111  33.544  1.00  0.00    -0.354 N 
ATOM     55  N   UNL A   1      41.991  28.687  31.058  1.00  0.00    -0.248 NA
ATOM     56  C   UNL A   1      43.418  27.294  29.841  1.00  0.00     0.031 C 
ATOM     57  C   UNL A   1      42.654  29.861  35.295  1.00  0.00     0.029 A 
ATOM     58  C   UNL A   1      42.475  29.486  33.973  1.00  0.00     0.049 A 
ATOM     59  H   UNL A   1      40.938  30.041  32.636  1.00  0.00     0.167 HD
ATOM     60  C   UNL A   1      43.042  28.283  31.878  1.00  0.00     0.074 A 
ATOM     61  C   UNL A   1      43.867  27.396  31.083  1.00  0.00     0.031 C 
ATOM     62  C   UNL A   1      43.299  28.612  33.169  1.00  0.00     0.034 A 
BRANCH  49  63
ATOM     63  C   UNL A   1      39.159  32.504  35.663  1.00  0.00     0.023 A 
ATOM     64  C   UNL A   1      39.555  33.845  35.809  1.00  0.00     0.031 A 
ATOM     65  C   UNL A   1      38.364  31.942  36.678  1.00  0.00     0.131 A 
ATOM     66  C   UNL A   1      39.225  34.550  36.975  1.00  0.00     0.055 A 
ATOM     67  C   UNL A   1      37.959  32.679  37.792  1.00  0.00     0.041 A 
ATOM     68  F   UNL A   1      37.975  30.658  36.610  1.00  0.00    -0.206 F 
ATOM     69  C   UNL A   1      38.403  33.988  37.954  1.00  0.00     0.022 A 
BRANCH  66  70
ATOM     70  S   UNL A   1      40.023  36.153  37.271  1.00  0.00     0.124 S 
ATOM     71  O   UNL A   1      41.380  35.744  37.624  1.00  0.00    -0.237 OA
ATOM     72  O   UNL A   1      39.871  36.822  35.985  1.00  0.00    -0.237 OA
ATOM     73  O   UNL A   1      39.247  36.724  38.371  1.00  0.00    -0.744 OA
ENDBRANCH  66  70
ENDBRANCH  49  63
BRANCH  50  74
ATOM     74  C   UNL A   1      41.769  27.424  27.417  1.00  0.00     0.023 A 
ATOM     75  C   UNL A   1      41.668  26.027  27.324  1.00  0.00     0.031 A 
ATOM     76  C   UNL A   1      42.328  28.116  26.326  1.00  0.00     0.131 A 
ATOM     77  C   UNL A   1      42.170  25.362  26.194  1.00  0.00     0.055 A 
ATOM     78  C   UNL A   1      42.761  27.457  25.175  1.00  0.00     0.041 A 
ATOM     79  F   UNL A   1      42.453  29.453  26.362  1.00  0.00    -0.206 F 
ATOM     80  C   UNL A   1      42.697  26.069  25.110  1.00  0.00     0.022 A 
BRANCH  77  81
ATOM     81  S   UNL A   1      42.228  23.549  26.208  1.00  0.00     0.124 S 
ATOM     82  O   UNL A   1      43.095  23.292  27.352  1.00  0.00    -0.237 OA
ATOM     83  O   UNL A   1      40.821  23.202  26.376  1.00  0.00    -0.237 OA
ATOM     84  O   UNL A   1      42.799  23.219  24.904  1.00  0.00    -0.744 OA
ENDBRANCH  77  81
ENDBRANCH  50  74
BRANCH  62  85
ATOM     85  C   UNL A   1      44.496  27.963  33.824  1.00  0.00     0.023 A 
ATOM     86  C   UNL A   1      45.765  28.568  33.823  1.00  0.00     0.031 A 
ATOM     87  C   UNL A   1      44.365  26.710  34.452  1.00  0.00     0.131 A 
ATOM     88  C   UNL A   1      46.862  27.893  34.378  1.00  0.00     0.055 A 
ATOM     89  C   UNL A   1      45.443  26.080  35.072  1.00  0.00     0.041 A 
ATOM     90  F   UNL A   1      43.180  26.079  34.477  1.00  0.00    -0.206 F 
ATOM     91  C   UNL A   1      46.705  26.664  35.024  1.00  0.00     0.022 A 
BRANCH  88  92
ATOM     92  S   UNL A   1      48.521  28.585  34.138  1.00  0.00     0.124 S 
ATOM     93  O   UNL A   1      49.065  28.539  35.492  1.00  0.00    -0.237 OA
ATOM     94  O   UNL A   1      49.112  27.654  33.182  1.00  0.00    -0.237 OA
ATOM     95  O   UNL A   1      48.262  29.926  33.619  1.00  0.00    -0.744 OA
ENDBRANCH  88  92
ENDBRANCH  62  85
ENDBRANCH  36  37
ENDBRANCH  28  31
ENDBRANCH  26  27
ENDBRANCH  25  26
ENDBRANCH  24  25
ENDBRANCH   1  24
TORSDOF 20
ENDMDL
