MODEL 1
REMARK VINA RESULT:     -11.2      0.000      0.000
REMARK SMILES CC[C@H](C)[C@H](NC(=O)[C@H](C)Oc1ccc2c(C)c(C)c(=O)oc2c1C)C(=O)NCCCCCCNC(=O)c1ccc(-c2c3nc(c(-c4cc(S(=O)(=O)[O-])ccc4F)c4ccc([nH]4)c(-c4cc(S(=O)(=O)[O-])ccc4F)c4nc(c(-c5cc(S(=O)(=O)[O-])ccc5F)c5ccc2[nH]5)C=C4)C=C3)cc1
REMARK SMILES IDX 31 1 30 2 29 3 28 4 26 5 27 6 5 8 3 9 4 10 2 11 1 12 6 13
REMARK SMILES IDX 7 14 8 16 9 17 10 18 11 19 12 20 13 21 24 22 14 23 23 24
REMARK SMILES IDX 25 25 15 26 22 27 16 28 20 29 17 30 18 31 21 32 19 33 32 34
REMARK SMILES IDX 33 35 34 36 35 37 36 38 37 40 38 41 39 42 100 43 40 44 99 45
REMARK SMILES IDX 41 46 42 47 43 48 93 49 44 50 98 51 92 52 94 53 45 54 97 55
REMARK SMILES IDX 91 56 90 57 46 59 78 60 58 61 77 62 59 63 62 64 76 65 95 66
REMARK SMILES IDX 60 67 61 68 75 70 96 71 63 72 47 73 48 74 56 75 49 76 55 77
REMARK SMILES IDX 57 78 54 79 50 80 51 81 52 82 53 83 79 84 80 85 88 86 81 87
REMARK SMILES IDX 87 88 89 89 86 90 82 91 83 92 84 93 85 94 64 95 65 96 73 97
REMARK SMILES IDX 66 98 72 99 74 100 71 101 67 102 68 103 69 104 70 105
REMARK H PARENT 28 7 6 15 35 39 94 58 62 69
REMARK Flexibility Score: inf
ROOT
ATOM      1  C   UNL A   1      33.236  28.824  25.640  1.00  0.00     0.002 C 
ENDROOT
BRANCH   1   2
ATOM      2  C   UNL A   1      33.707  28.635  24.193  1.00  0.00     0.021 C 
BRANCH   2   3
ATOM      3  C   UNL A   1      32.684  28.990  23.124  1.00  0.00     0.116 C 
BRANCH   3   4
ATOM      4  N   UNL A   1      32.378  27.868  22.274  1.00  0.00    -0.354 N 
ATOM      5  C   UNL A   1      31.232  27.154  22.178  1.00  0.00     0.242 C 
ATOM      6  O   UNL A   1      31.133  26.381  21.218  1.00  0.00    -0.273 OA
ATOM      7  H   UNL A   1      33.106  27.578  21.679  1.00  0.00     0.163 HD
BRANCH   5   8
ATOM      8  C   UNL A   1      30.052  27.344  23.156  1.00  0.00     0.174 C 
BRANCH   8   9
ATOM      9  C   UNL A   1      29.094  28.541  22.830  1.00  0.00     0.018 C 
ATOM     10  C   UNL A   1      27.598  28.324  23.089  1.00  0.00     0.010 C 
BRANCH   9  11
ATOM     11  C   UNL A   1      29.584  29.852  23.488  1.00  0.00     0.002 C 
ATOM     12  C   UNL A   1      29.186  31.116  22.740  1.00  0.00     0.004 C 
ENDBRANCH   9  11
ENDBRANCH   8   9
BRANCH   8  13
ATOM     13  N   UNL A   1      30.407  27.231  24.572  1.00  0.00    -0.341 N 
ATOM     14  C   UNL A   1      30.666  26.163  25.371  1.00  0.00     0.261 C 
ATOM     15  H   UNL A   1      30.470  28.096  25.035  1.00  0.00     0.164 HD
ATOM     16  O   UNL A   1      30.799  26.421  26.576  1.00  0.00    -0.271 OA
BRANCH  14  17
ATOM     17  C   UNL A   1      30.860  24.693  24.881  1.00  0.00     0.258 C 
ATOM     18  C   UNL A   1      30.662  23.663  25.993  1.00  0.00     0.064 C 
BRANCH  17  19
ATOM     19  O   UNL A   1      31.842  24.264  23.934  1.00  0.00    -0.480 OA
BRANCH  19  20
ATOM     20  C   UNL A   1      33.042  23.908  24.470  1.00  0.00     0.127 A 
ATOM     21  C   UNL A   1      33.756  24.872  25.183  1.00  0.00     0.047 A 
ATOM     22  C   UNL A   1      33.532  22.606  24.354  1.00  0.00     0.035 A 
ATOM     23  C   UNL A   1      35.049  24.595  25.641  1.00  0.00     0.016 A 
ATOM     24  C   UNL A   1      34.831  22.356  24.834  1.00  0.00     0.145 A 
ATOM     25  C   UNL A   1      32.732  21.500  23.727  1.00  0.00     0.052 C 
ATOM     26  C   UNL A   1      35.629  23.339  25.428  1.00  0.00     0.021 A 
ATOM     27  O   UNL A   1      35.330  21.051  24.662  1.00  0.00    -0.422 OA
ATOM     28  C   UNL A   1      37.044  23.036  25.720  1.00  0.00    -0.030 A 
ATOM     29  C   UNL A   1      36.615  20.695  25.030  1.00  0.00     0.339 A 
ATOM     30  C   UNL A   1      37.924  24.174  26.175  1.00  0.00     0.045 C 
ATOM     31  C   UNL A   1      37.509  21.786  25.503  1.00  0.00     0.038 A 
ATOM     32  O   UNL A   1      36.988  19.529  24.958  1.00  0.00    -0.246 OA
ATOM     33  C   UNL A   1      38.948  21.392  25.707  1.00  0.00     0.052 C 
ENDBRANCH  19  20
ENDBRANCH  17  19
ENDBRANCH  14  17
ENDBRANCH   8  13
ENDBRANCH   5   8
ENDBRANCH   3   4
ENDBRANCH   2   3
ENDBRANCH   1   2
BRANCH   1  34
ATOM     34  C   UNL A   1      32.367  30.055  25.916  1.00  0.00     0.002 C 
BRANCH  34  35
ATOM     35  C   UNL A   1      32.543  30.706  27.288  1.00  0.00     0.021 C 
BRANCH  35  36
ATOM     36  C   UNL A   1      33.609  31.789  27.366  1.00  0.00     0.116 C 
BRANCH  36  37
ATOM     37  N   UNL A   1      33.060  33.102  27.657  1.00  0.00    -0.352 N 
ATOM     38  C   UNL A   1      33.459  33.978  28.638  1.00  0.00     0.251 C 
ATOM     39  H   UNL A   1      32.315  33.398  27.085  1.00  0.00     0.163 HD
ATOM     40  O   UNL A   1      32.851  35.020  28.840  1.00  0.00    -0.269 OA
BRANCH  38  41
ATOM     41  C   UNL A   1      34.623  33.609  29.468  1.00  0.00     0.039 A 
ATOM     42  C   UNL A   1      34.449  32.680  30.492  1.00  0.00     0.014 A 
ATOM     43  C   UNL A   1      35.893  34.114  29.164  1.00  0.00     0.014 A 
ATOM     44  C   UNL A   1      35.564  32.212  31.186  1.00  0.00     0.010 A 
ATOM     45  C   UNL A   1      37.009  33.609  29.824  1.00  0.00     0.010 A 
ATOM     46  C   UNL A   1      36.853  32.654  30.839  1.00  0.00    -0.014 A 
BRANCH  46  47
ATOM     47  C   UNL A   1      38.043  32.110  31.537  1.00  0.00     0.031 A 
ATOM     48  C   UNL A   1      38.977  31.179  30.820  1.00  0.00     0.074 A 
ATOM     49  C   UNL A   1      38.269  32.444  32.823  1.00  0.00     0.049 A 
ATOM     50  N   UNL A   1      40.099  30.658  31.241  1.00  0.00    -0.248 NA
ATOM     51  C   UNL A   1      38.596  30.769  29.458  1.00  0.00     0.031 C 
ATOM     52  C   UNL A   1      37.399  33.295  33.636  1.00  0.00     0.029 A 
ATOM     53  N   UNL A   1      39.298  32.114  33.669  1.00  0.00    -0.354 N 
ATOM     54  C   UNL A   1      40.566  29.873  30.196  1.00  0.00     0.074 A 
ATOM     55  C   UNL A   1      39.575  29.932  29.144  1.00  0.00     0.031 C 
ATOM     56  C   UNL A   1      37.946  33.446  34.853  1.00  0.00     0.029 A 
ATOM     57  C   UNL A   1      39.196  32.692  34.914  1.00  0.00     0.049 A 
ATOM     58  H   UNL A   1      40.039  31.521  33.410  1.00  0.00     0.167 HD
ATOM     59  C   UNL A   1      41.732  29.193  30.108  1.00  0.00     0.034 A 
ATOM     60  C   UNL A   1      40.026  32.635  35.976  1.00  0.00     0.034 A 
ATOM     61  C   UNL A   1      42.719  29.151  31.154  1.00  0.00     0.049 A 
ATOM     62  C   UNL A   1      41.318  31.868  35.851  1.00  0.00     0.074 A 
ATOM     63  C   UNL A   1      43.956  28.531  31.139  1.00  0.00     0.029 A 
ATOM     64  N   UNL A   1      42.586  29.752  32.396  1.00  0.00    -0.354 N 
ATOM     65  N   UNL A   1      41.795  31.220  34.816  1.00  0.00    -0.248 NA
ATOM     66  C   UNL A   1      42.191  31.835  37.033  1.00  0.00     0.031 C 
ATOM     67  C   UNL A   1      44.556  28.727  32.384  1.00  0.00     0.029 A 
ATOM     68  C   UNL A   1      43.712  29.504  33.163  1.00  0.00     0.049 A 
ATOM     69  H   UNL A   1      41.807  30.278  32.690  1.00  0.00     0.167 HD
ATOM     70  C   UNL A   1      43.035  30.726  35.212  1.00  0.00     0.074 A 
ATOM     71  C   UNL A   1      43.243  31.169  36.575  1.00  0.00     0.031 C 
ATOM     72  C   UNL A   1      43.916  29.966  34.513  1.00  0.00     0.034 A 
BRANCH  59  73
ATOM     73  C   UNL A   1      42.042  28.474  28.824  1.00  0.00     0.023 A 
ATOM     74  C   UNL A   1      41.802  27.094  28.704  1.00  0.00     0.031 A 
ATOM     75  C   UNL A   1      42.682  29.139  27.763  1.00  0.00     0.131 A 
ATOM     76  C   UNL A   1      42.228  26.416  27.555  1.00  0.00     0.055 A 
ATOM     77  C   UNL A   1      43.075  28.464  26.608  1.00  0.00     0.041 A 
ATOM     78  F   UNL A   1      42.926  30.458  27.833  1.00  0.00    -0.206 F 
ATOM     79  C   UNL A   1      42.857  27.094  26.504  1.00  0.00     0.022 A 
BRANCH  76  80
ATOM     80  S   UNL A   1      42.000  24.625  27.389  1.00  0.00     0.124 S 
ATOM     81  O   UNL A   1      40.811  24.392  28.207  1.00  0.00    -0.237 OA
ATOM     82  O   UNL A   1      41.808  24.476  25.950  1.00  0.00    -0.237 OA
ATOM     83  O   UNL A   1      43.236  24.066  27.926  1.00  0.00    -0.744 OA
ENDBRANCH  76  80
ENDBRANCH  59  73
BRANCH  60  84
ATOM     84  C   UNL A   1      39.693  33.398  37.211  1.00  0.00     0.023 A 
ATOM     85  C   UNL A   1      39.066  32.779  38.307  1.00  0.00     0.031 A 
ATOM     86  C   UNL A   1      39.939  34.781  37.282  1.00  0.00     0.131 A 
ATOM     87  C   UNL A   1      38.673  33.550  39.409  1.00  0.00     0.055 A 
ATOM     88  C   UNL A   1      39.597  35.534  38.406  1.00  0.00     0.041 A 
ATOM     89  F   UNL A   1      40.523  35.415  36.253  1.00  0.00    -0.206 F 
ATOM     90  C   UNL A   1      38.950  34.919  39.473  1.00  0.00     0.022 A 
BRANCH  87  91
ATOM     91  S   UNL A   1      37.706  32.819  40.759  1.00  0.00     0.124 S 
ATOM     92  O   UNL A   1      37.988  31.396  40.601  1.00  0.00    -0.237 OA
ATOM     93  O   UNL A   1      38.304  33.454  41.931  1.00  0.00    -0.237 OA
ATOM     94  O   UNL A   1      36.338  33.229  40.464  1.00  0.00    -0.744 OA
ENDBRANCH  87  91
ENDBRANCH  60  84
BRANCH  72  95
ATOM     95  C   UNL A   1      45.198  29.554  35.190  1.00  0.00     0.023 A 
ATOM     96  C   UNL A   1      45.243  28.380  35.964  1.00  0.00     0.031 A 
ATOM     97  C   UNL A   1      46.326  30.392  35.177  1.00  0.00     0.131 A 
ATOM     98  C   UNL A   1      46.387  28.089  36.718  1.00  0.00     0.055 A 
ATOM     99  C   UNL A   1      47.477  30.078  35.901  1.00  0.00     0.041 A 
ATOM    100  F   UNL A   1      46.323  31.527  34.461  1.00  0.00    -0.206 F 
ATOM    101  C   UNL A   1      47.506  28.928  36.684  1.00  0.00     0.022 A 
BRANCH  98 102
ATOM    102  S   UNL A   1      46.441  26.650  37.819  1.00  0.00     0.124 S 
ATOM    103  O   UNL A   1      47.828  26.211  37.674  1.00  0.00    -0.237 OA
ATOM    104  O   UNL A   1      46.106  27.239  39.112  1.00  0.00    -0.237 OA
ATOM    105  O   UNL A   1      45.442  25.743  37.265  1.00  0.00    -0.744 OA
ENDBRANCH  98 102
ENDBRANCH  72  95
ENDBRANCH  46  47
ENDBRANCH  38  41
ENDBRANCH  36  37
ENDBRANCH  35  36
ENDBRANCH  34  35
ENDBRANCH   1  34
TORSDOF 22
ENDMDL
MODEL 2
REMARK VINA RESULT:     -11.1      5.606     11.197
REMARK SMILES CC[C@H](C)[C@H](NC(=O)[C@H](C)Oc1ccc2c(C)c(C)c(=O)oc2c1C)C(=O)NCCCCCCNC(=O)c1ccc(-c2c3nc(c(-c4cc(S(=O)(=O)[O-])ccc4F)c4ccc([nH]4)c(-c4cc(S(=O)(=O)[O-])ccc4F)c4nc(c(-c5cc(S(=O)(=O)[O-])ccc5F)c5ccc2[nH]5)C=C4)C=C3)cc1
REMARK SMILES IDX 31 1 30 2 29 3 28 4 26 5 27 6 5 8 3 9 4 10 2 11 1 12 6 13
REMARK SMILES IDX 7 14 8 16 9 17 10 18 11 19 12 20 13 21 24 22 14 23 23 24
REMARK SMILES IDX 25 25 15 26 22 27 16 28 20 29 17 30 18 31 21 32 19 33 32 34
REMARK SMILES IDX 33 35 34 36 35 37 36 38 37 40 38 41 39 42 100 43 40 44 99 45
REMARK SMILES IDX 41 46 42 47 43 48 93 49 44 50 98 51 92 52 94 53 45 54 97 55
REMARK SMILES IDX 91 56 90 57 46 59 78 60 58 61 77 62 59 63 62 64 76 65 95 66
REMARK SMILES IDX 60 67 61 68 75 70 96 71 63 72 47 73 48 74 56 75 49 76 55 77
REMARK SMILES IDX 57 78 54 79 50 80 51 81 52 82 53 83 79 84 80 85 88 86 81 87
REMARK SMILES IDX 87 88 89 89 86 90 82 91 83 92 84 93 85 94 64 95 65 96 73 97
REMARK SMILES IDX 66 98 72 99 74 100 71 101 67 102 68 103 69 104 70 105
REMARK H PARENT 28 7 6 15 35 39 94 58 62 69
REMARK Flexibility Score: inf
ROOT
ATOM      1  C   UNL A   1      39.196  23.381  27.230  1.00  0.00     0.002 C 
ENDROOT
BRANCH   1   2
ATOM      2  C   UNL A   1      38.178  24.130  26.362  1.00  0.00     0.021 C 
BRANCH   2   3
ATOM      3  C   UNL A   1      37.874  23.490  25.016  1.00  0.00     0.116 C 
BRANCH   3   4
ATOM      4  N   UNL A   1      37.123  22.268  25.154  1.00  0.00    -0.354 N 
ATOM      5  C   UNL A   1      35.885  21.967  24.698  1.00  0.00     0.242 C 
ATOM      6  O   UNL A   1      35.543  20.780  24.746  1.00  0.00    -0.273 OA
ATOM      7  H   UNL A   1      37.574  21.550  25.653  1.00  0.00     0.163 HD
BRANCH   5   8
ATOM      8  C   UNL A   1      34.958  23.024  24.058  1.00  0.00     0.174 C 
BRANCH   8   9
ATOM      9  C   UNL A   1      34.247  23.993  25.064  1.00  0.00     0.018 C 
ATOM     10  C   UNL A   1      34.493  23.748  26.558  1.00  0.00     0.010 C 
BRANCH   9  11
ATOM     11  C   UNL A   1      34.501  25.473  24.697  1.00  0.00     0.002 C 
ATOM     12  C   UNL A   1      34.424  26.434  25.875  1.00  0.00     0.004 C 
ENDBRANCH   9  11
ENDBRANCH   8   9
BRANCH   8  13
ATOM     13  N   UNL A   1      34.082  22.510  23.003  1.00  0.00    -0.341 N 
ATOM     14  C   UNL A   1      32.922  21.804  23.035  1.00  0.00     0.261 C 
ATOM     15  H   UNL A   1      34.395  22.715  22.093  1.00  0.00     0.164 HD
ATOM     16  O   UNL A   1      32.512  21.404  21.935  1.00  0.00    -0.271 OA
BRANCH  14  17
ATOM     17  C   UNL A   1      32.069  21.523  24.313  1.00  0.00     0.258 C 
ATOM     18  C   UNL A   1      32.145  20.067  24.771  1.00  0.00     0.064 C 
BRANCH  17  19
ATOM     19  O   UNL A   1      30.790  22.097  24.591  1.00  0.00    -0.480 OA
BRANCH  19  20
ATOM     20  C   UNL A   1      30.760  23.459  24.603  1.00  0.00     0.127 A 
ATOM     21  C   UNL A   1      30.600  24.124  23.386  1.00  0.00     0.047 A 
ATOM     22  C   UNL A   1      30.841  24.177  25.797  1.00  0.00     0.035 A 
ATOM     23  C   UNL A   1      30.693  25.520  23.329  1.00  0.00     0.016 A 
ATOM     24  C   UNL A   1      30.922  25.579  25.707  1.00  0.00     0.145 A 
ATOM     25  C   UNL A   1      30.863  23.503  27.139  1.00  0.00     0.052 C 
ATOM     26  C   UNL A   1      30.906  26.269  24.491  1.00  0.00     0.021 A 
ATOM     27  O   UNL A   1      31.056  26.285  26.918  1.00  0.00    -0.422 OA
ATOM     28  C   UNL A   1      31.193  27.717  24.483  1.00  0.00    -0.030 A 
ATOM     29  C   UNL A   1      31.211  27.659  26.961  1.00  0.00     0.339 A 
ATOM     30  C   UNL A   1      31.363  28.390  23.143  1.00  0.00     0.045 C 
ATOM     31  C   UNL A   1      31.363  28.362  25.658  1.00  0.00     0.038 A 
ATOM     32  O   UNL A   1      31.226  28.256  28.032  1.00  0.00    -0.246 OA
ATOM     33  C   UNL A   1      31.722  29.821  25.757  1.00  0.00     0.052 C 
ENDBRANCH  19  20
ENDBRANCH  17  19
ENDBRANCH  14  17
ENDBRANCH   8  13
ENDBRANCH   5   8
ENDBRANCH   3   4
ENDBRANCH   2   3
ENDBRANCH   1   2
BRANCH   1  34
ATOM     34  C   UNL A   1      40.271  22.587  26.482  1.00  0.00     0.002 C 
BRANCH  34  35
ATOM     35  C   UNL A   1      40.084  21.070  26.452  1.00  0.00     0.021 C 
BRANCH  35  36
ATOM     36  C   UNL A   1      41.196  20.260  27.102  1.00  0.00     0.116 C 
BRANCH  36  37
ATOM     37  N   UNL A   1      41.985  19.510  26.140  1.00  0.00    -0.352 N 
ATOM     38  C   UNL A   1      43.076  19.948  25.428  1.00  0.00     0.251 C 
ATOM     39  H   UNL A   1      41.705  18.580  25.980  1.00  0.00     0.163 HD
ATOM     40  O   UNL A   1      43.598  19.244  24.575  1.00  0.00    -0.269 OA
BRANCH  38  41
ATOM     41  C   UNL A   1      43.578  21.311  25.694  1.00  0.00     0.039 A 
ATOM     42  C   UNL A   1      43.473  22.272  24.690  1.00  0.00     0.014 A 
ATOM     43  C   UNL A   1      44.061  21.647  26.964  1.00  0.00     0.014 A 
ATOM     44  C   UNL A   1      43.807  23.596  24.975  1.00  0.00     0.010 A 
ATOM     45  C   UNL A   1      44.345  22.977  27.260  1.00  0.00     0.010 A 
ATOM     46  C   UNL A   1      44.220  23.962  26.268  1.00  0.00    -0.014 A 
BRANCH  46  47
ATOM     47  C   UNL A   1      44.515  25.379  26.587  1.00  0.00     0.031 A 
ATOM     48  C   UNL A   1      43.432  26.274  27.114  1.00  0.00     0.074 A 
ATOM     49  C   UNL A   1      45.757  25.861  26.382  1.00  0.00     0.049 A 
ATOM     50  N   UNL A   1      43.515  27.516  27.510  1.00  0.00    -0.248 NA
ATOM     51  C   UNL A   1      42.076  25.706  27.195  1.00  0.00     0.031 C 
ATOM     52  C   UNL A   1      46.873  25.097  25.822  1.00  0.00     0.029 A 
ATOM     53  N   UNL A   1      46.291  27.101  26.626  1.00  0.00    -0.354 N 
ATOM     54  C   UNL A   1      42.232  27.875  27.901  1.00  0.00     0.074 A 
ATOM     55  C   UNL A   1      41.374  26.742  27.634  1.00  0.00     0.031 C 
ATOM     56  C   UNL A   1      47.967  25.876  25.794  1.00  0.00     0.029 A 
ATOM     57  C   UNL A   1      47.629  27.197  26.318  1.00  0.00     0.049 A 
ATOM     58  H   UNL A   1      45.767  27.851  26.989  1.00  0.00     0.167 HD
ATOM     59  C   UNL A   1      41.815  29.032  28.464  1.00  0.00     0.034 A 
ATOM     60  C   UNL A   1      48.488  28.227  26.461  1.00  0.00     0.034 A 
ATOM     61  C   UNL A   1      42.679  30.150  28.739  1.00  0.00     0.049 A 
ATOM     62  C   UNL A   1      47.996  29.506  27.090  1.00  0.00     0.074 A 
ATOM     63  C   UNL A   1      42.358  31.347  29.356  1.00  0.00     0.029 A 
ATOM     64  N   UNL A   1      44.026  30.210  28.421  1.00  0.00    -0.354 N 
ATOM     65  N   UNL A   1      46.803  29.790  27.555  1.00  0.00    -0.248 NA
ATOM     66  C   UNL A   1      48.968  30.599  27.228  1.00  0.00     0.031 C 
ATOM     67  C   UNL A   1      43.504  32.144  29.378  1.00  0.00     0.029 A 
ATOM     68  C   UNL A   1      44.549  31.430  28.813  1.00  0.00     0.049 A 
ATOM     69  H   UNL A   1      44.536  29.491  27.982  1.00  0.00     0.167 HD
ATOM     70  C   UNL A   1      46.887  31.083  28.063  1.00  0.00     0.074 A 
ATOM     71  C   UNL A   1      48.255  31.517  27.869  1.00  0.00     0.031 C 
ATOM     72  C   UNL A   1      45.918  31.844  28.630  1.00  0.00     0.034 A 
BRANCH  59  73
ATOM     73  C   UNL A   1      40.371  29.145  28.872  1.00  0.00     0.023 A 
ATOM     74  C   UNL A   1      40.000  29.016  30.221  1.00  0.00     0.031 A 
ATOM     75  C   UNL A   1      39.358  29.265  27.904  1.00  0.00     0.131 A 
ATOM     76  C   UNL A   1      38.642  28.980  30.564  1.00  0.00     0.055 A 
ATOM     77  C   UNL A   1      38.008  29.262  28.255  1.00  0.00     0.041 A 
ATOM     78  F   UNL A   1      39.668  29.397  26.604  1.00  0.00    -0.206 F 
ATOM     79  C   UNL A   1      37.645  29.109  29.590  1.00  0.00     0.022 A 
BRANCH  76  80
ATOM     80  S   UNL A   1      38.119  28.746  32.284  1.00  0.00     0.124 S 
ATOM     81  O   UNL A   1      38.999  29.669  32.998  1.00  0.00    -0.237 OA
ATOM     82  O   UNL A   1      36.714  29.139  32.229  1.00  0.00    -0.237 OA
ATOM     83  O   UNL A   1      38.374  27.333  32.536  1.00  0.00    -0.744 OA
ENDBRANCH  76  80
ENDBRANCH  59  73
BRANCH  60  84
ATOM     84  C   UNL A   1      49.917  28.050  26.080  1.00  0.00     0.023 A 
ATOM     85  C   UNL A   1      50.331  28.134  24.738  1.00  0.00     0.031 A 
ATOM     86  C   UNL A   1      50.879  27.726  27.052  1.00  0.00     0.131 A 
ATOM     87  C   UNL A   1      51.664  27.859  24.404  1.00  0.00     0.055 A 
ATOM     88  C   UNL A   1      52.217  27.509  26.721  1.00  0.00     0.041 A 
ATOM     89  F   UNL A   1      50.525  27.622  28.343  1.00  0.00    -0.206 F 
ATOM     90  C   UNL A   1      52.613  27.564  25.389  1.00  0.00     0.022 A 
BRANCH  87  91
ATOM     91  S   UNL A   1      52.193  27.783  22.670  1.00  0.00     0.124 S 
ATOM     92  O   UNL A   1      52.973  29.010  22.536  1.00  0.00    -0.237 OA
ATOM     93  O   UNL A   1      52.961  26.541  22.648  1.00  0.00    -0.237 OA
ATOM     94  O   UNL A   1      50.937  27.748  21.928  1.00  0.00    -0.744 OA
ENDBRANCH  87  91
ENDBRANCH  60  84
BRANCH  72  95
ATOM     95  C   UNL A   1      46.280  33.232  29.094  1.00  0.00     0.023 A 
ATOM     96  C   UNL A   1      46.157  34.325  28.216  1.00  0.00     0.031 A 
ATOM     97  C   UNL A   1      46.868  33.446  30.351  1.00  0.00     0.131 A 
ATOM     98  C   UNL A   1      46.644  35.581  28.599  1.00  0.00     0.055 A 
ATOM     99  C   UNL A   1      47.318  34.708  30.742  1.00  0.00     0.041 A 
ATOM    100  F   UNL A   1      47.015  32.430  31.217  1.00  0.00    -0.206 F 
ATOM    101  C   UNL A   1      47.217  35.779  29.859  1.00  0.00     0.022 A 
BRANCH  98 102
ATOM    102  S   UNL A   1      46.613  36.986  27.453  1.00  0.00     0.124 S 
ATOM    103  O   UNL A   1      47.669  37.840  27.994  1.00  0.00    -0.237 OA
ATOM    104  O   UNL A   1      46.920  36.348  26.176  1.00  0.00    -0.237 OA
ATOM    105  O   UNL A   1      45.260  37.516  27.580  1.00  0.00    -0.744 OA
ENDBRANCH  98 102
ENDBRANCH  72  95
ENDBRANCH  46  47
ENDBRANCH  38  41
ENDBRANCH  36  37
ENDBRANCH  35  36
ENDBRANCH  34  35
ENDBRANCH   1  34
TORSDOF 22
ENDMDL
MODEL 3
REMARK VINA RESULT:     -10.8      5.105      9.500
REMARK SMILES CC[C@H](C)[C@H](NC(=O)[C@H](C)Oc1ccc2c(C)c(C)c(=O)oc2c1C)C(=O)NCCCCCCNC(=O)c1ccc(-c2c3nc(c(-c4cc(S(=O)(=O)[O-])ccc4F)c4ccc([nH]4)c(-c4cc(S(=O)(=O)[O-])ccc4F)c4nc(c(-c5cc(S(=O)(=O)[O-])ccc5F)c5ccc2[nH]5)C=C4)C=C3)cc1
REMARK SMILES IDX 31 1 30 2 29 3 28 4 26 5 27 6 5 8 3 9 4 10 2 11 1 12 6 13
REMARK SMILES IDX 7 14 8 16 9 17 10 18 11 19 12 20 13 21 24 22 14 23 23 24
REMARK SMILES IDX 25 25 15 26 22 27 16 28 20 29 17 30 18 31 21 32 19 33 32 34
REMARK SMILES IDX 33 35 34 36 35 37 36 38 37 40 38 41 39 42 100 43 40 44 99 45
REMARK SMILES IDX 41 46 42 47 43 48 93 49 44 50 98 51 92 52 94 53 45 54 97 55
REMARK SMILES IDX 91 56 90 57 46 59 78 60 58 61 77 62 59 63 62 64 76 65 95 66
REMARK SMILES IDX 60 67 61 68 75 70 96 71 63 72 47 73 48 74 56 75 49 76 55 77
REMARK SMILES IDX 57 78 54 79 50 80 51 81 52 82 53 83 79 84 80 85 88 86 81 87
REMARK SMILES IDX 87 88 89 89 86 90 82 91 83 92 84 93 85 94 64 95 65 96 73 97
REMARK SMILES IDX 66 98 72 99 74 100 71 101 67 102 68 103 69 104 70 105
REMARK H PARENT 28 7 6 15 35 39 94 58 62 69
REMARK Flexibility Score: inf
ROOT
ATOM      1  C   UNL A   1      39.100  24.659  27.314  1.00  0.00     0.002 C 
ENDROOT
BRANCH   1   2
ATOM      2  C   UNL A   1      38.392  24.266  26.012  1.00  0.00     0.021 C 
BRANCH   2   3
ATOM      3  C   UNL A   1      37.036  23.599  26.183  1.00  0.00     0.116 C 
BRANCH   3   4
ATOM      4  N   UNL A   1      37.088  22.186  25.906  1.00  0.00    -0.354 N 
ATOM      5  C   UNL A   1      36.102  21.358  25.489  1.00  0.00     0.242 C 
ATOM      6  O   UNL A   1      36.440  20.233  25.104  1.00  0.00    -0.273 OA
ATOM      7  H   UNL A   1      37.966  21.762  26.040  1.00  0.00     0.163 HD
BRANCH   5   8
ATOM      8  C   UNL A   1      34.626  21.805  25.403  1.00  0.00     0.174 C 
BRANCH   8   9
ATOM      9  C   UNL A   1      33.644  21.078  26.385  1.00  0.00     0.018 C 
ATOM     10  C   UNL A   1      33.046  21.920  27.519  1.00  0.00     0.010 C 
BRANCH   9  11
ATOM     11  C   UNL A   1      32.538  20.317  25.617  1.00  0.00     0.002 C 
ATOM     12  C   UNL A   1      32.870  18.862  25.319  1.00  0.00     0.004 C 
ENDBRANCH   9  11
ENDBRANCH   8   9
BRANCH   8  13
ATOM     13  N   UNL A   1      34.110  21.950  24.040  1.00  0.00    -0.341 N 
ATOM     14  C   UNL A   1      33.598  23.009  23.360  1.00  0.00     0.261 C 
ATOM     15  H   UNL A   1      34.138  21.119  23.515  1.00  0.00     0.164 HD
ATOM     16  O   UNL A   1      33.118  22.745  22.248  1.00  0.00    -0.271 OA
BRANCH  14  17
ATOM     17  C   UNL A   1      33.628  24.494  23.843  1.00  0.00     0.258 C 
ATOM     18  C   UNL A   1      32.457  24.846  24.760  1.00  0.00     0.064 C 
BRANCH  17  19
ATOM     19  O   UNL A   1      34.027  25.611  23.044  1.00  0.00    -0.480 OA
BRANCH  19  20
ATOM     20  C   UNL A   1      33.293  26.743  23.230  1.00  0.00     0.127 A 
ATOM     21  C   UNL A   1      33.705  27.640  24.217  1.00  0.00     0.047 A 
ATOM     22  C   UNL A   1      32.186  27.030  22.430  1.00  0.00     0.035 A 
ATOM     23  C   UNL A   1      32.915  28.751  24.534  1.00  0.00     0.016 A 
ATOM     24  C   UNL A   1      31.417  28.161  22.767  1.00  0.00     0.145 A 
ATOM     25  C   UNL A   1      31.795  26.172  21.261  1.00  0.00     0.052 C 
ATOM     26  C   UNL A   1      31.725  29.001  23.841  1.00  0.00     0.021 A 
ATOM     27  O   UNL A   1      30.274  28.406  21.983  1.00  0.00    -0.422 OA
ATOM     28  C   UNL A   1      30.757  30.042  24.239  1.00  0.00    -0.030 A 
ATOM     29  C   UNL A   1      29.401  29.445  22.252  1.00  0.00     0.339 A 
ATOM     30  C   UNL A   1      31.027  30.798  25.517  1.00  0.00     0.045 C 
ATOM     31  C   UNL A   1      29.645  30.227  23.494  1.00  0.00     0.038 A 
ATOM     32  O   UNL A   1      28.469  29.693  21.495  1.00  0.00    -0.246 OA
ATOM     33  C   UNL A   1      28.566  31.216  23.849  1.00  0.00     0.052 C 
ENDBRANCH  19  20
ENDBRANCH  17  19
ENDBRANCH  14  17
ENDBRANCH   8  13
ENDBRANCH   5   8
ENDBRANCH   3   4
ENDBRANCH   2   3
ENDBRANCH   1   2
BRANCH   1  34
ATOM     34  C   UNL A   1      40.375  23.881  27.655  1.00  0.00     0.002 C 
BRANCH  34  35
ATOM     35  C   UNL A   1      40.563  22.550  26.926  1.00  0.00     0.021 C 
BRANCH  35  36
ATOM     36  C   UNL A   1      41.972  21.977  26.964  1.00  0.00     0.116 C 
BRANCH  36  37
ATOM     37  N   UNL A   1      42.567  21.853  25.645  1.00  0.00    -0.352 N 
ATOM     38  C   UNL A   1      43.239  22.820  24.935  1.00  0.00     0.251 C 
ATOM     39  H   UNL A   1      42.478  20.975  25.209  1.00  0.00     0.163 HD
ATOM     40  O   UNL A   1      43.614  22.615  23.789  1.00  0.00    -0.269 OA
BRANCH  38  41
ATOM     41  C   UNL A   1      43.465  24.127  25.582  1.00  0.00     0.039 A 
ATOM     42  C   UNL A   1      42.976  25.276  24.962  1.00  0.00     0.014 A 
ATOM     43  C   UNL A   1      44.074  24.194  26.841  1.00  0.00     0.014 A 
ATOM     44  C   UNL A   1      43.052  26.497  25.631  1.00  0.00     0.010 A 
ATOM     45  C   UNL A   1      44.103  25.404  27.527  1.00  0.00     0.010 A 
ATOM     46  C   UNL A   1      43.591  26.565  26.927  1.00  0.00    -0.014 A 
BRANCH  46  47
ATOM     47  C   UNL A   1      43.615  27.853  27.661  1.00  0.00     0.031 A 
ATOM     48  C   UNL A   1      44.904  28.605  27.821  1.00  0.00     0.074 A 
ATOM     49  C   UNL A   1      42.475  28.333  28.196  1.00  0.00     0.049 A 
ATOM     50  N   UNL A   1      45.109  29.773  28.369  1.00  0.00    -0.248 NA
ATOM     51  C   UNL A   1      46.124  27.956  27.313  1.00  0.00     0.031 C 
ATOM     52  C   UNL A   1      41.176  27.660  28.150  1.00  0.00     0.029 A 
ATOM     53  N   UNL A   1      42.224  29.498  28.876  1.00  0.00    -0.354 N 
ATOM     54  C   UNL A   1      46.473  30.008  28.260  1.00  0.00     0.074 A 
ATOM     55  C   UNL A   1      47.059  28.833  27.652  1.00  0.00     0.031 C 
ATOM     56  C   UNL A   1      40.259  28.438  28.748  1.00  0.00     0.029 A 
ATOM     57  C   UNL A   1      40.904  29.656  29.233  1.00  0.00     0.049 A 
ATOM     58  H   UNL A   1      42.921  30.159  29.088  1.00  0.00     0.167 HD
ATOM     59  C   UNL A   1      47.168  31.116  28.603  1.00  0.00     0.034 A 
ATOM     60  C   UNL A   1      40.283  30.674  29.863  1.00  0.00     0.034 A 
ATOM     61  C   UNL A   1      46.575  32.287  29.194  1.00  0.00     0.049 A 
ATOM     62  C   UNL A   1      41.082  31.897  30.235  1.00  0.00     0.074 A 
ATOM     63  C   UNL A   1      47.189  33.480  29.529  1.00  0.00     0.029 A 
ATOM     64  N   UNL A   1      45.237  32.413  29.535  1.00  0.00    -0.354 N 
ATOM     65  N   UNL A   1      42.352  32.147  30.026  1.00  0.00    -0.248 NA
ATOM     66  C   UNL A   1      40.363  32.982  30.917  1.00  0.00     0.031 C 
ATOM     67  C   UNL A   1      46.230  34.316  30.105  1.00  0.00     0.029 A 
ATOM     68  C   UNL A   1      45.009  33.660  30.092  1.00  0.00     0.049 A 
ATOM     69  H   UNL A   1      44.551  31.721  29.399  1.00  0.00     0.167 HD
ATOM     70  C   UNL A   1      42.578  33.426  30.525  1.00  0.00     0.074 A 
ATOM     71  C   UNL A   1      41.308  33.907  31.027  1.00  0.00     0.031 C 
ATOM     72  C   UNL A   1      43.735  34.134  30.571  1.00  0.00     0.034 A 
BRANCH  59  73
ATOM     73  C   UNL A   1      48.642  31.152  28.307  1.00  0.00     0.023 A 
ATOM     74  C   UNL A   1      49.560  30.562  29.193  1.00  0.00     0.031 A 
ATOM     75  C   UNL A   1      49.139  31.872  27.206  1.00  0.00     0.131 A 
ATOM     76  C   UNL A   1      50.934  30.729  28.976  1.00  0.00     0.055 A 
ATOM     77  C   UNL A   1      50.508  32.007  26.978  1.00  0.00     0.041 A 
ATOM     78  F   UNL A   1      48.296  32.447  26.332  1.00  0.00    -0.206 F 
ATOM     79  C   UNL A   1      51.413  31.442  27.871  1.00  0.00     0.022 A 
BRANCH  76  80
ATOM     80  S   UNL A   1      52.152  30.043  30.131  1.00  0.00     0.124 S 
ATOM     81  O   UNL A   1      53.345  29.942  29.292  1.00  0.00    -0.237 OA
ATOM     82  O   UNL A   1      52.200  31.071  31.166  1.00  0.00    -0.237 OA
ATOM     83  O   UNL A   1      51.571  28.766  30.531  1.00  0.00    -0.744 OA
ENDBRANCH  76  80
ENDBRANCH  59  73
BRANCH  60  84
ATOM     84  C   UNL A   1      38.813  30.608  30.095  1.00  0.00     0.023 A 
ATOM     85  C   UNL A   1      37.904  31.190  29.194  1.00  0.00     0.031 A 
ATOM     86  C   UNL A   1      38.302  30.017  31.264  1.00  0.00     0.131 A 
ATOM     87  C   UNL A   1      36.536  31.201  29.497  1.00  0.00     0.055 A 
ATOM     88  C   UNL A   1      36.933  29.980  31.534  1.00  0.00     0.041 A 
ATOM     89  F   UNL A   1      39.135  29.461  32.158  1.00  0.00    -0.206 F 
ATOM     90  C   UNL A   1      36.043  30.585  30.653  1.00  0.00     0.022 A 
BRANCH  87  91
ATOM     91  S   UNL A   1      35.356  32.097  28.449  1.00  0.00     0.124 S 
ATOM     92  O   UNL A   1      36.213  33.085  27.801  1.00  0.00    -0.237 OA
ATOM     93  O   UNL A   1      34.857  31.031  27.584  1.00  0.00    -0.237 OA
ATOM     94  O   UNL A   1      34.385  32.629  29.399  1.00  0.00    -0.744 OA
ENDBRANCH  87  91
ENDBRANCH  60  84
BRANCH  72  95
ATOM     95  C   UNL A   1      43.704  35.512  31.181  1.00  0.00     0.023 A 
ATOM     96  C   UNL A   1      43.670  36.651  30.355  1.00  0.00     0.031 A 
ATOM     97  C   UNL A   1      43.844  35.695  32.567  1.00  0.00     0.131 A 
ATOM     98  C   UNL A   1      43.804  37.924  30.921  1.00  0.00     0.055 A 
ATOM     99  C   UNL A   1      43.939  36.968  33.130  1.00  0.00     0.041 A 
ATOM    100  F   UNL A   1      43.892  34.638  33.392  1.00  0.00    -0.206 F 
ATOM    101  C   UNL A   1      43.931  38.089  32.304  1.00  0.00     0.022 A 
BRANCH  98 102
ATOM    102  S   UNL A   1      43.884  39.408  29.882  1.00  0.00     0.124 S 
ATOM    103  O   UNL A   1      45.321  39.670  29.840  1.00  0.00    -0.237 OA
ATOM    104  O   UNL A   1      43.299  38.937  28.629  1.00  0.00    -0.237 OA
ATOM    105  O   UNL A   1      43.094  40.394  30.611  1.00  0.00    -0.744 OA
ENDBRANCH  98 102
ENDBRANCH  72  95
ENDBRANCH  46  47
ENDBRANCH  38  41
ENDBRANCH  36  37
ENDBRANCH  35  36
ENDBRANCH  34  35
ENDBRANCH   1  34
TORSDOF 22
ENDMDL
