MODEL 1
REMARK VINA RESULT:     -12.5      0.000      0.000
REMARK SMILES O=C(NCCCCCCNC(=O)[C@@H]1[C@@H](C(=O)Nc2cccc([N+](=O)[O-])c2)[C@@H]2C=C[C@H]1O2)c1ccc(-c2c3nc(c(-c4cc(S(=O)(=O)[O-])ccc4F)c4ccc([nH]4)c(-c4cc(S(=O)(=O)[O-])ccc4F)c4nc(c(-c5cc(S(=O)(=O)[O-])ccc5F)c5ccc2[nH]5)C=C4)C=C3)cc1
REMARK SMILES IDX 6 1 5 2 4 3 3 4 1 5 2 6 32 8 33 9 94 10 34 11 93 12 35 13
REMARK SMILES IDX 36 14 37 15 87 16 38 17 92 18 86 19 88 20 39 21 91 22 85 23
REMARK SMILES IDX 84 24 40 26 72 27 52 28 71 29 53 30 56 31 70 32 89 33 54 34
REMARK SMILES IDX 55 35 69 37 90 38 57 39 41 40 42 41 50 42 43 43 49 44 51 45
REMARK SMILES IDX 48 46 44 47 45 48 46 49 47 50 73 51 74 52 82 53 75 54 81 55
REMARK SMILES IDX 83 56 80 57 76 58 77 59 78 60 79 61 58 62 59 63 67 64 60 65
REMARK SMILES IDX 66 66 68 67 65 68 61 69 62 70 63 71 64 72 7 73 8 74 9 75
REMARK SMILES IDX 10 76 11 77 12 79 13 80 14 81 30 82 27 83 29 84 31 85 28 86
REMARK SMILES IDX 15 87 16 88 17 89 18 91 19 92 26 93 20 94 22 95 21 96 23 97
REMARK SMILES IDX 24 98 25 99
REMARK H PARENT 3 7 88 25 56 36 10 78 17 90
REMARK Flexibility Score: inf
ROOT
ATOM      1  C   UNL A   1      31.396  30.601  25.944  1.00  0.00     0.002 C 
ENDROOT
BRANCH   1   2
ATOM      2  C   UNL A   1      31.408  32.021  26.517  1.00  0.00     0.021 C 
BRANCH   2   3
ATOM      3  C   UNL A   1      32.761  32.491  27.025  1.00  0.00     0.116 C 
BRANCH   3   4
ATOM      4  N   UNL A   1      32.694  33.830  27.579  1.00  0.00    -0.352 N 
ATOM      5  O   UNL A   1      33.109  35.433  29.107  1.00  0.00    -0.269 OA
ATOM      6  C   UNL A   1      33.426  34.361  28.611  1.00  0.00     0.251 C 
ATOM      7  H   UNL A   1      32.039  34.435  27.161  1.00  0.00     0.163 HD
BRANCH   6   8
ATOM      8  C   UNL A   1      34.598  33.612  29.112  1.00  0.00     0.039 A 
ATOM      9  C   UNL A   1      35.890  34.010  28.750  1.00  0.00     0.014 A 
ATOM     10  C   UNL A   1      34.402  32.521  29.959  1.00  0.00     0.014 A 
ATOM     11  C   UNL A   1      36.982  33.257  29.158  1.00  0.00     0.010 A 
ATOM     12  C   UNL A   1      35.510  31.821  30.444  1.00  0.00     0.010 A 
ATOM     13  C   UNL A   1      36.807  32.187  30.049  1.00  0.00    -0.014 A 
BRANCH  13  14
ATOM     14  C   UNL A   1      38.001  31.574  30.677  1.00  0.00     0.031 A 
ATOM     15  C   UNL A   1      38.827  30.548  29.959  1.00  0.00     0.074 A 
ATOM     16  C   UNL A   1      38.318  31.967  31.929  1.00  0.00     0.049 A 
ATOM     17  N   UNL A   1      39.876  29.897  30.388  1.00  0.00    -0.248 NA
ATOM     18  C   UNL A   1      38.424  30.201  28.588  1.00  0.00     0.031 C 
ATOM     19  C   UNL A   1      37.568  32.955  32.713  1.00  0.00     0.029 A 
ATOM     20  N   UNL A   1      39.342  31.598  32.761  1.00  0.00    -0.354 N 
ATOM     21  C   UNL A   1      40.251  29.048  29.354  1.00  0.00     0.074 A 
ATOM     22  C   UNL A   1      39.306  29.258  28.277  1.00  0.00     0.031 C 
ATOM     23  C   UNL A   1      38.174  33.136  33.894  1.00  0.00     0.029 A 
ATOM     24  C   UNL A   1      39.299  32.216  33.991  1.00  0.00     0.049 A 
ATOM     25  H   UNL A   1      40.041  30.954  32.505  1.00  0.00     0.167 HD
ATOM     26  C   UNL A   1      41.289  28.176  29.320  1.00  0.00     0.034 A 
ATOM     27  C   UNL A   1      40.051  32.031  35.092  1.00  0.00     0.034 A 
ATOM     28  C   UNL A   1      42.218  27.994  30.410  1.00  0.00     0.049 A 
ATOM     29  C   UNL A   1      41.158  31.014  35.035  1.00  0.00     0.074 A 
ATOM     30  C   UNL A   1      43.344  27.189  30.452  1.00  0.00     0.029 A 
ATOM     31  N   UNL A   1      42.121  28.603  31.655  1.00  0.00    -0.354 N 
ATOM     32  N   UNL A   1      41.535  30.263  34.024  1.00  0.00    -0.248 NA
ATOM     33  C   UNL A   1      41.940  30.816  36.260  1.00  0.00     0.031 C 
ATOM     34  C   UNL A   1      43.874  27.243  31.744  1.00  0.00     0.029 A 
ATOM     35  C   UNL A   1      43.134  28.148  32.487  1.00  0.00     0.049 A 
ATOM     36  H   UNL A   1      41.435  29.261  31.909  1.00  0.00     0.167 HD
ATOM     37  C   UNL A   1      42.609  29.514  34.493  1.00  0.00     0.074 A 
ATOM     38  C   UNL A   1      42.841  29.932  35.860  1.00  0.00     0.031 C 
ATOM     39  C   UNL A   1      43.336  28.562  33.855  1.00  0.00     0.034 A 
BRANCH  26  40
ATOM     40  C   UNL A   1      41.456  27.312  28.095  1.00  0.00     0.023 A 
ATOM     41  C   UNL A   1      41.067  25.962  28.071  1.00  0.00     0.031 A 
ATOM     42  C   UNL A   1      41.966  27.873  26.908  1.00  0.00     0.131 A 
ATOM     43  C   UNL A   1      41.222  25.212  26.895  1.00  0.00     0.055 A 
ATOM     44  C   UNL A   1      42.060  27.138  25.726  1.00  0.00     0.041 A 
ATOM     45  F   UNL A   1      42.372  29.152  26.880  1.00  0.00    -0.206 F 
ATOM     46  C   UNL A   1      41.692  25.797  25.715  1.00  0.00     0.022 A 
BRANCH  43  47
ATOM     47  S   UNL A   1      40.880  23.431  26.945  1.00  0.00     0.124 S 
ATOM     48  O   UNL A   1      41.309  23.085  28.298  1.00  0.00    -0.237 OA
ATOM     49  O   UNL A   1      39.444  23.377  26.699  1.00  0.00    -0.237 OA
ATOM     50  O   UNL A   1      41.717  22.889  25.877  1.00  0.00    -0.744 OA
ENDBRANCH  43  47
ENDBRANCH  26  40
BRANCH  27  51
ATOM     51  C   UNL A   1      39.743  32.762  36.355  1.00  0.00     0.023 A 
ATOM     52  C   UNL A   1      38.824  32.251  37.282  1.00  0.00     0.031 A 
ATOM     53  C   UNL A   1      40.312  34.023  36.619  1.00  0.00     0.131 A 
ATOM     54  C   UNL A   1      38.450  33.023  38.393  1.00  0.00     0.055 A 
ATOM     55  C   UNL A   1      39.994  34.753  37.765  1.00  0.00     0.041 A 
ATOM     56  F   UNL A   1      41.196  34.565  35.766  1.00  0.00    -0.206 F 
ATOM     57  C   UNL A   1      39.041  34.262  38.650  1.00  0.00     0.022 A 
BRANCH  54  58
ATOM     58  S   UNL A   1      37.075  32.442  39.422  1.00  0.00     0.124 S 
ATOM     59  O   UNL A   1      35.927  32.720  38.565  1.00  0.00    -0.237 OA
ATOM     60  O   UNL A   1      37.411  31.034  39.607  1.00  0.00    -0.237 OA
ATOM     61  O   UNL A   1      37.174  33.270  40.621  1.00  0.00    -0.744 OA
ENDBRANCH  54  58
ENDBRANCH  27  51
BRANCH  39  62
ATOM     62  C   UNL A   1      44.459  27.933  34.638  1.00  0.00     0.023 A 
ATOM     63  C   UNL A   1      44.293  26.704  35.300  1.00  0.00     0.031 A 
ATOM     64  C   UNL A   1      45.702  28.580  34.744  1.00  0.00     0.131 A 
ATOM     65  C   UNL A   1      45.332  26.189  36.089  1.00  0.00     0.055 A 
ATOM     66  C   UNL A   1      46.756  28.029  35.474  1.00  0.00     0.041 A 
ATOM     67  F   UNL A   1      45.914  29.758  34.136  1.00  0.00    -0.206 F 
ATOM     68  C   UNL A   1      46.569  26.834  36.163  1.00  0.00     0.022 A 
BRANCH  65  69
ATOM     69  S   UNL A   1      45.011  24.714  37.094  1.00  0.00     0.124 S 
ATOM     70  O   UNL A   1      44.196  23.907  36.193  1.00  0.00    -0.237 OA
ATOM     71  O   UNL A   1      46.357  24.216  37.356  1.00  0.00    -0.237 OA
ATOM     72  O   UNL A   1      44.309  25.242  38.262  1.00  0.00    -0.744 OA
ENDBRANCH  65  69
ENDBRANCH  39  62
ENDBRANCH  13  14
ENDBRANCH   6   8
ENDBRANCH   3   4
ENDBRANCH   2   3
ENDBRANCH   1   2
BRANCH   1  73
ATOM     73  C   UNL A   1      32.210  29.565  26.721  1.00  0.00     0.002 C 
BRANCH  73  74
ATOM     74  C   UNL A   1      31.468  28.280  27.069  1.00  0.00     0.021 C 
BRANCH  74  75
ATOM     75  C   UNL A   1      31.522  27.196  26.001  1.00  0.00     0.116 C 
BRANCH  75  76
ATOM     76  N   UNL A   1      32.650  26.301  26.149  1.00  0.00    -0.356 N 
ATOM     77  C   UNL A   1      33.671  25.957  25.329  1.00  0.00     0.227 C 
ATOM     78  H   UNL A   1      32.683  25.852  27.025  1.00  0.00     0.163 HD
ATOM     79  O   UNL A   1      34.539  25.226  25.830  1.00  0.00    -0.275 OA
BRANCH  77  80
ATOM     80  C   UNL A   1      33.774  26.275  23.847  1.00  0.00     0.127 C 
ATOM     81  C   UNL A   1      32.621  26.929  23.047  1.00  0.00     0.127 C 
ATOM     82  C   UNL A   1      34.029  24.978  23.057  1.00  0.00     0.155 C 
ATOM     83  C   UNL A   1      32.423  25.912  21.915  1.00  0.00     0.155 C 
ATOM     84  C   UNL A   1      32.885  24.017  23.098  1.00  0.00     0.004 C 
ATOM     85  O   UNL A   1      33.792  25.461  21.717  1.00  0.00    -0.365 OA
ATOM     86  C   UNL A   1      31.888  24.596  22.410  1.00  0.00     0.004 C 
BRANCH  81  87
ATOM     87  C   UNL A   1      32.845  28.402  22.673  1.00  0.00     0.231 C 
ATOM     88  O   UNL A   1      34.014  28.778  22.499  1.00  0.00    -0.274 OA
ATOM     89  N   UNL A   1      31.891  29.321  22.358  1.00  0.00    -0.325 N 
ATOM     90  H   UNL A   1      32.240  30.144  21.946  1.00  0.00     0.169 HD
BRANCH  89  91
ATOM     91  C   UNL A   1      30.507  29.300  22.515  1.00  0.00     0.048 A 
ATOM     92  C   UNL A   1      29.884  28.073  22.746  1.00  0.00     0.026 A 
ATOM     93  C   UNL A   1      29.750  30.462  22.452  1.00  0.00     0.111 A 
ATOM     94  C   UNL A   1      28.536  28.036  23.112  1.00  0.00     0.009 A 
ATOM     95  C   UNL A   1      28.425  30.433  22.894  1.00  0.00     0.271 A 
ATOM     96  C   UNL A   1      27.812  29.222  23.233  1.00  0.00     0.086 A 
BRANCH  95  97
ATOM     97  N   UNL A   1      27.724  31.701  23.123  1.00  0.00     0.062 N 
ATOM     98  O   UNL A   1      28.141  32.703  22.522  1.00  0.00    -0.258 OA
ATOM     99  O   UNL A   1      26.766  31.699  23.909  1.00  0.00    -0.258 OA
ENDBRANCH  95  97
ENDBRANCH  89  91
ENDBRANCH  81  87
ENDBRANCH  77  80
ENDBRANCH  75  76
ENDBRANCH  74  75
ENDBRANCH  73  74
ENDBRANCH   1  73
TORSDOF 19
ENDMDL
MODEL 2
REMARK VINA RESULT:     -12.5      2.110      3.443
REMARK SMILES O=C(NCCCCCCNC(=O)[C@@H]1[C@@H](C(=O)Nc2cccc([N+](=O)[O-])c2)[C@@H]2C=C[C@H]1O2)c1ccc(-c2c3nc(c(-c4cc(S(=O)(=O)[O-])ccc4F)c4ccc([nH]4)c(-c4cc(S(=O)(=O)[O-])ccc4F)c4nc(c(-c5cc(S(=O)(=O)[O-])ccc5F)c5ccc2[nH]5)C=C4)C=C3)cc1
REMARK SMILES IDX 6 1 5 2 4 3 3 4 1 5 2 6 32 8 33 9 94 10 34 11 93 12 35 13
REMARK SMILES IDX 36 14 37 15 87 16 38 17 92 18 86 19 88 20 39 21 91 22 85 23
REMARK SMILES IDX 84 24 40 26 72 27 52 28 71 29 53 30 56 31 70 32 89 33 54 34
REMARK SMILES IDX 55 35 69 37 90 38 57 39 41 40 42 41 50 42 43 43 49 44 51 45
REMARK SMILES IDX 48 46 44 47 45 48 46 49 47 50 73 51 74 52 82 53 75 54 81 55
REMARK SMILES IDX 83 56 80 57 76 58 77 59 78 60 79 61 58 62 59 63 67 64 60 65
REMARK SMILES IDX 66 66 68 67 65 68 61 69 62 70 63 71 64 72 7 73 8 74 9 75
REMARK SMILES IDX 10 76 11 77 12 79 13 80 14 81 30 82 27 83 29 84 31 85 28 86
REMARK SMILES IDX 15 87 16 88 17 89 18 91 19 92 26 93 20 94 22 95 21 96 23 97
REMARK SMILES IDX 24 98 25 99
REMARK H PARENT 3 7 88 25 56 36 10 78 17 90
REMARK Flexibility Score: inf
ROOT
ATOM      1  C   UNL A   1      31.762  30.657  26.277  1.00  0.00     0.002 C 
ENDROOT
BRANCH   1   2
ATOM      2  C   UNL A   1      31.520  32.050  26.862  1.00  0.00     0.021 C 
BRANCH   2   3
ATOM      3  C   UNL A   1      32.770  32.758  27.361  1.00  0.00     0.116 C 
BRANCH   3   4
ATOM      4  N   UNL A   1      32.505  34.141  27.708  1.00  0.00    -0.352 N 
ATOM      5  O   UNL A   1      32.596  35.975  29.013  1.00  0.00    -0.269 OA
ATOM      6  C   UNL A   1      33.074  34.892  28.705  1.00  0.00     0.251 C 
ATOM      7  H   UNL A   1      31.829  34.599  27.157  1.00  0.00     0.163 HD
BRANCH   6   8
ATOM      8  C   UNL A   1      34.270  34.366  29.398  1.00  0.00     0.039 A 
ATOM      9  C   UNL A   1      34.127  33.606  30.563  1.00  0.00     0.014 A 
ATOM     10  C   UNL A   1      35.535  34.623  28.868  1.00  0.00     0.014 A 
ATOM     11  C   UNL A   1      35.254  33.182  31.252  1.00  0.00     0.010 A 
ATOM     12  C   UNL A   1      36.666  34.115  29.514  1.00  0.00     0.010 A 
ATOM     13  C   UNL A   1      36.532  33.388  30.708  1.00  0.00    -0.014 A 
BRANCH  13  14
ATOM     14  C   UNL A   1      37.691  32.697  31.319  1.00  0.00     0.031 A 
ATOM     15  C   UNL A   1      38.387  31.565  30.624  1.00  0.00     0.074 A 
ATOM     16  C   UNL A   1      38.098  33.119  32.535  1.00  0.00     0.049 A 
ATOM     17  N   UNL A   1      39.390  30.840  31.045  1.00  0.00    -0.248 NA
ATOM     18  C   UNL A   1      37.894  31.191  29.290  1.00  0.00     0.031 C 
ATOM     19  C   UNL A   1      37.477  34.210  33.296  1.00  0.00     0.029 A 
ATOM     20  N   UNL A   1      39.119  32.697  33.344  1.00  0.00    -0.354 N 
ATOM     21  C   UNL A   1      39.640  29.911  30.043  1.00  0.00     0.074 A 
ATOM     22  C   UNL A   1      38.672  30.156  28.995  1.00  0.00     0.031 C 
ATOM     23  C   UNL A   1      38.148  34.391  34.440  1.00  0.00     0.029 A 
ATOM     24  C   UNL A   1      39.187  33.375  34.541  1.00  0.00     0.049 A 
ATOM     25  H   UNL A   1      39.745  31.979  33.095  1.00  0.00     0.167 HD
ATOM     26  C   UNL A   1      40.591  28.945  30.014  1.00  0.00     0.034 A 
ATOM     27  C   UNL A   1      39.966  33.175  35.620  1.00  0.00     0.034 A 
ATOM     28  C   UNL A   1      41.547  28.730  31.074  1.00  0.00     0.049 A 
ATOM     29  C   UNL A   1      40.973  32.057  35.573  1.00  0.00     0.074 A 
ATOM     30  C   UNL A   1      42.595  27.826  31.114  1.00  0.00     0.029 A 
ATOM     31  N   UNL A   1      41.562  29.405  32.288  1.00  0.00    -0.354 N 
ATOM     32  N   UNL A   1      41.235  31.225  34.588  1.00  0.00    -0.248 NA
ATOM     33  C   UNL A   1      41.786  31.847  36.775  1.00  0.00     0.031 C 
ATOM     34  C   UNL A   1      43.185  27.893  32.380  1.00  0.00     0.029 A 
ATOM     35  C   UNL A   1      42.564  28.898  33.103  1.00  0.00     0.049 A 
ATOM     36  H   UNL A   1      40.950  30.135  32.535  1.00  0.00     0.167 HD
ATOM     37  C   UNL A   1      42.255  30.404  35.053  1.00  0.00     0.074 A 
ATOM     38  C   UNL A   1      42.584  30.864  36.387  1.00  0.00     0.031 C 
ATOM     39  C   UNL A   1      42.863  29.358  34.439  1.00  0.00     0.034 A 
BRANCH  26  40
ATOM     40  C   UNL A   1      40.625  28.010  28.830  1.00  0.00     0.023 A 
ATOM     41  C   UNL A   1      41.607  28.102  27.830  1.00  0.00     0.031 A 
ATOM     42  C   UNL A   1      39.680  26.970  28.734  1.00  0.00     0.131 A 
ATOM     43  C   UNL A   1      41.605  27.189  26.764  1.00  0.00     0.055 A 
ATOM     44  C   UNL A   1      39.721  26.029  27.705  1.00  0.00     0.041 A 
ATOM     45  F   UNL A   1      38.707  26.848  29.650  1.00  0.00    -0.206 F 
ATOM     46  C   UNL A   1      40.685  26.138  26.708  1.00  0.00     0.022 A 
BRANCH  43  47
ATOM     47  S   UNL A   1      42.772  27.440  25.399  1.00  0.00     0.124 S 
ATOM     48  O   UNL A   1      42.154  28.551  24.680  1.00  0.00    -0.237 OA
ATOM     49  O   UNL A   1      44.015  27.745  26.097  1.00  0.00    -0.237 OA
ATOM     50  O   UNL A   1      42.754  26.162  24.690  1.00  0.00    -0.744 OA
ENDBRANCH  43  47
ENDBRANCH  26  40
BRANCH  27  51
ATOM     51  C   UNL A   1      39.783  33.992  36.854  1.00  0.00     0.023 A 
ATOM     52  C   UNL A   1      39.295  33.419  38.036  1.00  0.00     0.031 A 
ATOM     53  C   UNL A   1      40.026  35.380  36.847  1.00  0.00     0.131 A 
ATOM     54  C   UNL A   1      39.001  34.236  39.139  1.00  0.00     0.055 A 
ATOM     55  C   UNL A   1      39.805  36.175  37.971  1.00  0.00     0.041 A 
ATOM     56  F   UNL A   1      40.491  35.985  35.742  1.00  0.00    -0.206 F 
ATOM     57  C   UNL A   1      39.269  35.606  39.121  1.00  0.00     0.022 A 
BRANCH  54  58
ATOM     58  S   UNL A   1      38.133  33.499  40.550  1.00  0.00     0.124 S 
ATOM     59  O   UNL A   1      38.319  34.519  41.576  1.00  0.00    -0.237 OA
ATOM     60  O   UNL A   1      36.778  33.355  40.027  1.00  0.00    -0.237 OA
ATOM     61  O   UNL A   1      38.851  32.248  40.776  1.00  0.00    -0.744 OA
ENDBRANCH  54  58
ENDBRANCH  27  51
BRANCH  39  62
ATOM     62  C   UNL A   1      43.958  28.665  35.209  1.00  0.00     0.023 A 
ATOM     63  C   UNL A   1      43.683  27.574  36.052  1.00  0.00     0.031 A 
ATOM     64  C   UNL A   1      45.286  29.114  35.118  1.00  0.00     0.131 A 
ATOM     65  C   UNL A   1      44.712  27.008  36.818  1.00  0.00     0.055 A 
ATOM     66  C   UNL A   1      46.318  28.503  35.830  1.00  0.00     0.041 A 
ATOM     67  F   UNL A   1      45.603  30.155  34.332  1.00  0.00    -0.206 F 
ATOM     68  C   UNL A   1      46.030  27.452  36.697  1.00  0.00     0.022 A 
BRANCH  65  69
ATOM     69  S   UNL A   1      44.285  25.745  38.048  1.00  0.00     0.124 S 
ATOM     70  O   UNL A   1      43.291  24.952  37.333  1.00  0.00    -0.237 OA
ATOM     71  O   UNL A   1      45.569  25.094  38.286  1.00  0.00    -0.237 OA
ATOM     72  O   UNL A   1      43.767  26.522  39.172  1.00  0.00    -0.744 OA
ENDBRANCH  65  69
ENDBRANCH  39  62
ENDBRANCH  13  14
ENDBRANCH   6   8
ENDBRANCH   3   4
ENDBRANCH   2   3
ENDBRANCH   1   2
BRANCH   1  73
ATOM     73  C   UNL A   1      32.207  29.586  27.276  1.00  0.00     0.002 C 
BRANCH  73  74
ATOM     74  C   UNL A   1      33.697  29.262  27.265  1.00  0.00     0.021 C 
BRANCH  74  75
ATOM     75  C   UNL A   1      34.107  28.149  26.311  1.00  0.00     0.116 C 
BRANCH  75  76
ATOM     76  N   UNL A   1      34.305  28.602  24.951  1.00  0.00    -0.356 N 
ATOM     77  C   UNL A   1      33.704  28.296  23.777  1.00  0.00     0.227 C 
ATOM     78  H   UNL A   1      35.023  29.270  24.862  1.00  0.00     0.163 HD
ATOM     79  O   UNL A   1      34.064  28.968  22.800  1.00  0.00    -0.275 OA
BRANCH  77  80
ATOM     80  C   UNL A   1      32.746  27.142  23.537  1.00  0.00     0.127 C 
ATOM     81  C   UNL A   1      32.260  26.735  22.125  1.00  0.00     0.127 C 
ATOM     82  C   UNL A   1      31.422  27.408  24.277  1.00  0.00     0.155 C 
ATOM     83  C   UNL A   1      30.737  26.809  22.294  1.00  0.00     0.155 C 
ATOM     84  C   UNL A   1      30.659  28.574  23.737  1.00  0.00     0.004 C 
ATOM     85  O   UNL A   1      30.601  26.381  23.679  1.00  0.00    -0.365 OA
ATOM     86  C   UNL A   1      30.249  28.215  22.510  1.00  0.00     0.004 C 
BRANCH  81  87
ATOM     87  C   UNL A   1      32.871  25.435  21.578  1.00  0.00     0.231 C 
ATOM     88  O   UNL A   1      33.044  25.354  20.352  1.00  0.00    -0.274 OA
ATOM     89  N   UNL A   1      33.393  24.407  22.303  1.00  0.00    -0.325 N 
ATOM     90  H   UNL A   1      33.922  23.766  21.776  1.00  0.00     0.169 HD
BRANCH  89  91
ATOM     91  C   UNL A   1      33.311  24.105  23.660  1.00  0.00     0.048 A 
ATOM     92  C   UNL A   1      34.404  24.404  24.474  1.00  0.00     0.026 A 
ATOM     93  C   UNL A   1      32.176  23.524  24.209  1.00  0.00     0.111 A 
ATOM     94  C   UNL A   1      34.284  24.308  25.863  1.00  0.00     0.009 A 
ATOM     95  C   UNL A   1      32.028  23.503  25.598  1.00  0.00     0.271 A 
ATOM     96  C   UNL A   1      33.077  23.901  26.433  1.00  0.00     0.086 A 
BRANCH  95  97
ATOM     97  N   UNL A   1      30.715  23.184  26.168  1.00  0.00     0.062 N 
ATOM     98  O   UNL A   1      30.126  24.083  26.788  1.00  0.00    -0.258 OA
ATOM     99  O   UNL A   1      30.276  22.036  26.007  1.00  0.00    -0.258 OA
ENDBRANCH  95  97
ENDBRANCH  89  91
ENDBRANCH  81  87
ENDBRANCH  77  80
ENDBRANCH  75  76
ENDBRANCH  74  75
ENDBRANCH  73  74
ENDBRANCH   1  73
TORSDOF 19
ENDMDL
MODEL 3
REMARK VINA RESULT:     -12.5      1.657      7.553
REMARK SMILES O=C(NCCCCCCNC(=O)[C@@H]1[C@@H](C(=O)Nc2cccc([N+](=O)[O-])c2)[C@@H]2C=C[C@H]1O2)c1ccc(-c2c3nc(c(-c4cc(S(=O)(=O)[O-])ccc4F)c4ccc([nH]4)c(-c4cc(S(=O)(=O)[O-])ccc4F)c4nc(c(-c5cc(S(=O)(=O)[O-])ccc5F)c5ccc2[nH]5)C=C4)C=C3)cc1
REMARK SMILES IDX 6 1 5 2 4 3 3 4 1 5 2 6 32 8 33 9 94 10 34 11 93 12 35 13
REMARK SMILES IDX 36 14 37 15 87 16 38 17 92 18 86 19 88 20 39 21 91 22 85 23
REMARK SMILES IDX 84 24 40 26 72 27 52 28 71 29 53 30 56 31 70 32 89 33 54 34
REMARK SMILES IDX 55 35 69 37 90 38 57 39 41 40 42 41 50 42 43 43 49 44 51 45
REMARK SMILES IDX 48 46 44 47 45 48 46 49 47 50 73 51 74 52 82 53 75 54 81 55
REMARK SMILES IDX 83 56 80 57 76 58 77 59 78 60 79 61 58 62 59 63 67 64 60 65
REMARK SMILES IDX 66 66 68 67 65 68 61 69 62 70 63 71 64 72 7 73 8 74 9 75
REMARK SMILES IDX 10 76 11 77 12 79 13 80 14 81 30 82 27 83 29 84 31 85 28 86
REMARK SMILES IDX 15 87 16 88 17 89 18 91 19 92 26 93 20 94 22 95 21 96 23 97
REMARK SMILES IDX 24 98 25 99
REMARK H PARENT 3 7 88 25 56 36 10 78 17 90
REMARK Flexibility Score: inf
ROOT
ATOM      1  C   UNL A   1      31.754  30.745  25.860  1.00  0.00     0.002 C 
ENDROOT
BRANCH   1   2
ATOM      2  C   UNL A   1      31.613  31.753  27.003  1.00  0.00     0.021 C 
BRANCH   2   3
ATOM      3  C   UNL A   1      32.890  32.496  27.359  1.00  0.00     0.116 C 
BRANCH   3   4
ATOM      4  N   UNL A   1      32.645  33.905  27.600  1.00  0.00    -0.352 N 
ATOM      5  O   UNL A   1      32.703  35.815  28.793  1.00  0.00    -0.269 OA
ATOM      6  C   UNL A   1      33.167  34.703  28.587  1.00  0.00     0.251 C 
ATOM      7  H   UNL A   1      32.025  34.346  26.974  1.00  0.00     0.163 HD
BRANCH   6   8
ATOM      8  C   UNL A   1      34.294  34.190  29.395  1.00  0.00     0.039 A 
ATOM      9  C   UNL A   1      34.044  33.419  30.536  1.00  0.00     0.014 A 
ATOM     10  C   UNL A   1      35.602  34.469  28.999  1.00  0.00     0.014 A 
ATOM     11  C   UNL A   1      35.102  33.007  31.334  1.00  0.00     0.010 A 
ATOM     12  C   UNL A   1      36.669  33.973  29.754  1.00  0.00     0.010 A 
ATOM     13  C   UNL A   1      36.425  33.236  30.924  1.00  0.00    -0.014 A 
BRANCH  13  14
ATOM     14  C   UNL A   1      37.527  32.559  31.647  1.00  0.00     0.031 A 
ATOM     15  C   UNL A   1      37.961  33.003  33.012  1.00  0.00     0.074 A 
ATOM     16  C   UNL A   1      38.136  31.526  31.028  1.00  0.00     0.049 A 
ATOM     17  N   UNL A   1      38.929  32.535  33.755  1.00  0.00    -0.248 NA
ATOM     18  C   UNL A   1      37.222  34.119  33.622  1.00  0.00     0.031 C 
ATOM     19  C   UNL A   1      37.789  31.025  29.693  1.00  0.00     0.029 A 
ATOM     20  N   UNL A   1      39.162  30.710  31.426  1.00  0.00    -0.354 N 
ATOM     21  C   UNL A   1      38.934  33.306  34.911  1.00  0.00     0.074 A 
ATOM     22  C   UNL A   1      37.877  34.284  34.765  1.00  0.00     0.031 C 
ATOM     23  C   UNL A   1      38.564  29.973  29.398  1.00  0.00     0.029 A 
ATOM     24  C   UNL A   1      39.521  29.778  30.478  1.00  0.00     0.049 A 
ATOM     25  H   UNL A   1      39.600  30.783  32.304  1.00  0.00     0.167 HD
ATOM     26  C   UNL A   1      39.753  33.199  35.986  1.00  0.00     0.034 A 
ATOM     27  C   UNL A   1      40.537  28.895  30.457  1.00  0.00     0.034 A 
ATOM     28  C   UNL A   1      40.796  32.207  36.103  1.00  0.00     0.049 A 
ATOM     29  C   UNL A   1      41.460  28.844  31.644  1.00  0.00     0.074 A 
ATOM     30  C   UNL A   1      41.635  31.967  37.178  1.00  0.00     0.029 A 
ATOM     31  N   UNL A   1      41.160  31.307  35.110  1.00  0.00    -0.354 N 
ATOM     32  N   UNL A   1      41.410  29.543  32.757  1.00  0.00    -0.248 NA
ATOM     33  C   UNL A   1      42.573  27.891  31.578  1.00  0.00     0.031 C 
ATOM     34  C   UNL A   1      42.559  30.987  36.804  1.00  0.00     0.029 A 
ATOM     35  C   UNL A   1      42.246  30.551  35.527  1.00  0.00     0.049 A 
ATOM     36  H   UNL A   1      40.714  31.219  34.237  1.00  0.00     0.167 HD
ATOM     37  C   UNL A   1      42.480  29.100  33.526  1.00  0.00     0.074 A 
ATOM     38  C   UNL A   1      43.130  28.051  32.768  1.00  0.00     0.031 C 
ATOM     39  C   UNL A   1      42.894  29.523  34.747  1.00  0.00     0.034 A 
BRANCH  26  40
ATOM     40  C   UNL A   1      39.600  34.201  37.103  1.00  0.00     0.023 A 
ATOM     41  C   UNL A   1      39.110  33.842  38.370  1.00  0.00     0.031 A 
ATOM     42  C   UNL A   1      40.007  35.534  36.907  1.00  0.00     0.131 A 
ATOM     43  C   UNL A   1      39.013  34.811  39.381  1.00  0.00     0.055 A 
ATOM     44  C   UNL A   1      39.966  36.478  37.934  1.00  0.00     0.041 A 
ATOM     45  F   UNL A   1      40.464  35.937  35.710  1.00  0.00    -0.206 F 
ATOM     46  C   UNL A   1      39.462  36.120  39.179  1.00  0.00     0.022 A 
BRANCH  43  47
ATOM     47  S   UNL A   1      38.213  34.362  40.946  1.00  0.00     0.124 S 
ATOM     48  O   UNL A   1      39.299  33.684  41.650  1.00  0.00    -0.237 OA
ATOM     49  O   UNL A   1      37.817  35.659  41.483  1.00  0.00    -0.237 OA
ATOM     50  O   UNL A   1      37.111  33.496  40.533  1.00  0.00    -0.744 OA
ENDBRANCH  43  47
ENDBRANCH  26  40
BRANCH  27  51
ATOM     51  C   UNL A   1      40.782  28.046  29.255  1.00  0.00     0.023 A 
ATOM     52  C   UNL A   1      41.774  28.379  28.323  1.00  0.00     0.031 A 
ATOM     53  C   UNL A   1      39.975  26.923  28.985  1.00  0.00     0.131 A 
ATOM     54  C   UNL A   1      41.891  27.643  27.134  1.00  0.00     0.055 A 
ATOM     55  C   UNL A   1      40.147  26.148  27.838  1.00  0.00     0.041 A 
ATOM     56  F   UNL A   1      39.007  26.557  29.841  1.00  0.00    -0.206 F 
ATOM     57  C   UNL A   1      41.097  26.520  26.893  1.00  0.00     0.022 A 
BRANCH  54  58
ATOM     58  S   UNL A   1      43.005  28.260  25.844  1.00  0.00     0.124 S 
ATOM     59  O   UNL A   1      42.313  27.839  24.630  1.00  0.00    -0.237 OA
ATOM     60  O   UNL A   1      43.012  29.694  26.113  1.00  0.00    -0.237 OA
ATOM     61  O   UNL A   1      44.261  27.566  26.119  1.00  0.00    -0.744 OA
ENDBRANCH  54  58
ENDBRANCH  27  51
BRANCH  39  62
ATOM     62  C   UNL A   1      44.096  28.827  35.332  1.00  0.00     0.023 A 
ATOM     63  C   UNL A   1      43.957  27.753  36.228  1.00  0.00     0.031 A 
ATOM     64  C   UNL A   1      45.394  29.257  35.009  1.00  0.00     0.131 A 
ATOM     65  C   UNL A   1      45.095  27.184  36.818  1.00  0.00     0.055 A 
ATOM     66  C   UNL A   1      46.525  28.642  35.546  1.00  0.00     0.041 A 
ATOM     67  F   UNL A   1      45.585  30.281  34.162  1.00  0.00    -0.206 F 
ATOM     68  C   UNL A   1      46.378  27.608  36.467  1.00  0.00     0.022 A 
BRANCH  65  69
ATOM     69  S   UNL A   1      44.869  25.946  38.123  1.00  0.00     0.124 S 
ATOM     70  O   UNL A   1      43.600  26.357  38.714  1.00  0.00    -0.237 OA
ATOM     71  O   UNL A   1      44.847  24.697  37.370  1.00  0.00    -0.237 OA
ATOM     72  O   UNL A   1      46.041  26.132  38.978  1.00  0.00    -0.744 OA
ENDBRANCH  65  69
ENDBRANCH  39  62
ENDBRANCH  13  14
ENDBRANCH   6   8
ENDBRANCH   3   4
ENDBRANCH   2   3
ENDBRANCH   1   2
BRANCH   1  73
ATOM     73  C   UNL A   1      32.687  29.563  26.129  1.00  0.00     0.002 C 
BRANCH  73  74
ATOM     74  C   UNL A   1      32.075  28.419  26.931  1.00  0.00     0.021 C 
BRANCH  74  75
ATOM     75  C   UNL A   1      31.759  27.166  26.127  1.00  0.00     0.116 C 
BRANCH  75  76
ATOM     76  N   UNL A   1      32.814  26.176  26.168  1.00  0.00    -0.356 N 
ATOM     77  C   UNL A   1      33.756  25.791  25.275  1.00  0.00     0.227 C 
ATOM     78  H   UNL A   1      32.855  25.682  27.018  1.00  0.00     0.163 HD
ATOM     79  O   UNL A   1      34.585  24.968  25.691  1.00  0.00    -0.275 OA
BRANCH  77  80
ATOM     80  C   UNL A   1      33.805  26.173  23.806  1.00  0.00     0.127 C 
ATOM     81  C   UNL A   1      32.628  26.869  23.079  1.00  0.00     0.127 C 
ATOM     82  C   UNL A   1      34.020  24.911  22.951  1.00  0.00     0.155 C 
ATOM     83  C   UNL A   1      32.379  25.905  21.912  1.00  0.00     0.155 C 
ATOM     84  C   UNL A   1      32.871  23.956  22.993  1.00  0.00     0.004 C 
ATOM     85  O   UNL A   1      33.736  25.455  21.642  1.00  0.00    -0.365 OA
ATOM     86  C   UNL A   1      31.854  24.571  22.369  1.00  0.00     0.004 C 
BRANCH  81  87
ATOM     87  C   UNL A   1      32.849  28.356  22.763  1.00  0.00     0.231 C 
ATOM     88  O   UNL A   1      34.019  28.750  22.646  1.00  0.00    -0.274 OA
ATOM     89  N   UNL A   1      31.897  29.275  22.440  1.00  0.00    -0.325 N 
ATOM     90  H   UNL A   1      32.252  30.115  22.069  1.00  0.00     0.169 HD
BRANCH  89  91
ATOM     91  C   UNL A   1      30.508  29.234  22.543  1.00  0.00     0.048 A 
ATOM     92  C   UNL A   1      29.899  28.010  22.818  1.00  0.00     0.026 A 
ATOM     93  C   UNL A   1      29.733  30.375  22.384  1.00  0.00     0.111 A 
ATOM     94  C   UNL A   1      28.538  27.965  23.131  1.00  0.00     0.009 A 
ATOM     95  C   UNL A   1      28.392  30.343  22.773  1.00  0.00     0.271 A 
ATOM     96  C   UNL A   1      27.787  29.141  23.156  1.00  0.00     0.086 A 
BRANCH  95  97
ATOM     97  N   UNL A   1      27.659  31.607  22.903  1.00  0.00     0.062 N 
ATOM     98  O   UNL A   1      26.911  31.738  23.884  1.00  0.00    -0.258 OA
ATOM     99  O   UNL A   1      27.821  32.465  22.022  1.00  0.00    -0.258 OA
ENDBRANCH  95  97
ENDBRANCH  89  91
ENDBRANCH  81  87
ENDBRANCH  77  80
ENDBRANCH  75  76
ENDBRANCH  74  75
ENDBRANCH  73  74
ENDBRANCH   1  73
TORSDOF 19
ENDMDL
