MODEL 1
REMARK VINA RESULT:     -11.4      0.000      0.000
REMARK SMILES COc1ccc(C[N@@H+]2C[C@@H](C(=O)NCCCCCCNC(=O)c3ccc(-c4c5nc(c(-c6cc(S(=O)(=O)[O-])ccc6F)c6ccc([nH]6)c(-c6cc(S(=O)(=O)[O-])ccc6F)c6nc(c(-c7cc(S(=O)(=O)[O-])ccc7F)c7ccc4[nH]7)C=C6)C=C5)cc3)[C@H](c3ccccc3OC)C2)c(OC)c1
REMARK SMILES IDX 16 1 15 2 14 3 13 4 11 5 12 6 10 8 8 9 9 10 95 11 86 13 7 14
REMARK SMILES IDX 6 15 3 16 4 17 99 18 5 19 96 20 2 21 1 22 97 23 98 24 87 25
REMARK SMILES IDX 88 26 92 27 89 28 91 29 90 30 93 31 94 32 17 33 18 34 19 35
REMARK SMILES IDX 20 36 21 37 22 39 23 40 24 41 85 42 25 43 84 44 26 45 27 46
REMARK SMILES IDX 28 47 78 48 29 49 83 50 77 51 79 52 30 53 82 54 76 55 75 56
REMARK SMILES IDX 31 58 63 59 43 60 62 61 44 62 47 63 61 64 80 65 45 66 46 67
REMARK SMILES IDX 60 69 81 70 48 71 32 72 33 73 41 74 34 75 40 76 42 77 39 78
REMARK SMILES IDX 35 79 36 80 37 81 38 82 64 83 65 84 73 85 66 86 72 87 74 88
REMARK SMILES IDX 71 89 67 90 68 91 69 92 70 93 49 94 50 95 58 96 51 97 57 98
REMARK SMILES IDX 59 99 56 100 52 101 53 102 54 103 55 104
REMARK H PARENT 13 7 8 12 20 38 79 57 47 68
REMARK Flexibility Score: inf
ROOT
ATOM      1  C   UNL A   1      30.507  28.814  24.644  1.00  0.00     0.002 C 
ENDROOT
BRANCH   1   2
ATOM      2  C   UNL A   1      29.606  28.336  23.505  1.00  0.00     0.021 C 
BRANCH   2   3
ATOM      3  C   UNL A   1      29.481  26.819  23.421  1.00  0.00     0.116 C 
BRANCH   3   4
ATOM      4  N   UNL A   1      29.166  26.208  24.702  1.00  0.00    -0.356 N 
ATOM      5  C   UNL A   1      29.985  25.480  25.526  1.00  0.00     0.229 C 
ATOM      6  O   UNL A   1      29.560  25.185  26.645  1.00  0.00    -0.275 OA
ATOM      7  H   UNL A   1      28.242  26.332  25.018  1.00  0.00     0.163 HD
BRANCH   5   8
ATOM      8  C   UNL A   1      31.312  24.964  25.000  1.00  0.00     0.146 C 
ATOM      9  N   UNL A   1      32.741  23.113  25.430  1.00  0.00    -0.330 N 
ATOM     10  C   UNL A   1      31.355  23.527  25.531  1.00  0.00     0.276 C 
ATOM     11  C   UNL A   1      33.515  24.324  25.752  1.00  0.00     0.272 C 
ATOM     12  H   UNL A   1      32.983  22.381  26.097  1.00  0.00     0.348 HD
ATOM     13  C   UNL A   1      32.638  25.599  25.493  1.00  0.00     0.096 C 
BRANCH   9  14
ATOM     14  C   UNL A   1      33.089  22.342  24.220  1.00  0.00     0.303 C 
BRANCH  14  15
ATOM     15  C   UNL A   1      33.319  20.843  24.333  1.00  0.00     0.048 A 
ATOM     16  C   UNL A   1      33.877  18.091  24.157  1.00  0.00     0.122 A 
ATOM     17  C   UNL A   1      32.643  18.574  23.745  1.00  0.00     0.047 A 
ATOM     18  C   UNL A   1      34.786  18.950  24.772  1.00  0.00     0.093 A 
ATOM     19  C   UNL A   1      32.361  19.938  23.837  1.00  0.00     0.017 A 
ATOM     20  C   UNL A   1      34.480  20.312  24.918  1.00  0.00     0.131 A 
BRANCH  16  21
ATOM     21  O   UNL A   1      34.182  16.808  23.798  1.00  0.00    -0.497 OA
ATOM     22  C   UNL A   1      33.440  15.824  24.512  1.00  0.00     0.278 C 
ENDBRANCH  16  21
BRANCH  20  23
ATOM     23  O   UNL A   1      35.298  21.205  25.563  1.00  0.00    -0.496 OA
ATOM     24  C   UNL A   1      36.483  21.567  24.865  1.00  0.00     0.278 C 
ENDBRANCH  20  23
ENDBRANCH  14  15
ENDBRANCH   9  14
BRANCH  13  25
ATOM     25  C   UNL A   1      33.241  26.651  24.535  1.00  0.00     0.004 A 
ATOM     26  C   UNL A   1      33.240  26.463  23.140  1.00  0.00     0.008 A 
ATOM     27  C   UNL A   1      33.857  27.840  24.969  1.00  0.00     0.122 A 
ATOM     28  C   UNL A   1      33.696  27.424  22.230  1.00  0.00     0.001 A 
ATOM     29  C   UNL A   1      34.273  28.838  24.063  1.00  0.00     0.047 A 
ATOM     30  C   UNL A   1      34.168  28.639  22.690  1.00  0.00     0.004 A 
BRANCH  27  31
ATOM     31  O   UNL A   1      34.370  27.954  26.236  1.00  0.00    -0.496 OA
ATOM     32  C   UNL A   1      33.426  28.372  27.205  1.00  0.00     0.278 C 
ENDBRANCH  27  31
ENDBRANCH  13  25
ENDBRANCH   5   8
ENDBRANCH   3   4
ENDBRANCH   2   3
ENDBRANCH   1   2
BRANCH   1  33
ATOM     33  C   UNL A   1      30.938  30.285  24.551  1.00  0.00     0.002 C 
BRANCH  33  34
ATOM     34  C   UNL A   1      30.807  31.098  25.843  1.00  0.00     0.021 C 
BRANCH  34  35
ATOM     35  C   UNL A   1      32.128  31.492  26.499  1.00  0.00     0.116 C 
BRANCH  35  36
ATOM     36  N   UNL A   1      32.159  32.900  26.864  1.00  0.00    -0.352 N 
ATOM     37  C   UNL A   1      32.995  33.561  27.724  1.00  0.00     0.251 C 
ATOM     38  H   UNL A   1      31.480  33.461  26.426  1.00  0.00     0.163 HD
ATOM     39  O   UNL A   1      32.731  34.721  28.053  1.00  0.00    -0.269 OA
BRANCH  37  40
ATOM     40  C   UNL A   1      34.192  32.889  28.271  1.00  0.00     0.039 A 
ATOM     41  C   UNL A   1      35.431  33.527  28.166  1.00  0.00     0.014 A 
ATOM     42  C   UNL A   1      34.102  31.630  28.871  1.00  0.00     0.014 A 
ATOM     43  C   UNL A   1      36.567  32.929  28.716  1.00  0.00     0.010 A 
ATOM     44  C   UNL A   1      35.223  31.067  29.479  1.00  0.00     0.010 A 
ATOM     45  C   UNL A   1      36.468  31.711  29.410  1.00  0.00    -0.014 A 
BRANCH  45  46
ATOM     46  C   UNL A   1      37.654  31.109  30.074  1.00  0.00     0.031 A 
ATOM     47  C   UNL A   1      37.992  31.471  31.497  1.00  0.00     0.074 A 
ATOM     48  C   UNL A   1      38.458  30.281  29.374  1.00  0.00     0.049 A 
ATOM     49  N   UNL A   1      39.014  31.098  32.222  1.00  0.00    -0.248 NA
ATOM     50  C   UNL A   1      37.073  32.391  32.187  1.00  0.00     0.031 C 
ATOM     51  C   UNL A   1      38.254  29.892  27.975  1.00  0.00     0.029 A 
ATOM     52  N   UNL A   1      39.611  29.627  29.732  1.00  0.00    -0.354 N 
ATOM     53  C   UNL A   1      38.875  31.750  33.443  1.00  0.00     0.074 A 
ATOM     54  C   UNL A   1      37.691  32.574  33.346  1.00  0.00     0.031 C 
ATOM     55  C   UNL A   1      39.236  29.055  27.604  1.00  0.00     0.029 A 
ATOM     56  C   UNL A   1      40.167  28.885  28.714  1.00  0.00     0.049 A 
ATOM     57  H   UNL A   1      40.003  29.683  30.633  1.00  0.00     0.167 HD
ATOM     58  C   UNL A   1      39.658  31.655  34.546  1.00  0.00     0.034 A 
ATOM     59  C   UNL A   1      41.308  28.166  28.673  1.00  0.00     0.034 A 
ATOM     60  C   UNL A   1      40.819  30.805  34.636  1.00  0.00     0.049 A 
ATOM     61  C   UNL A   1      42.160  28.087  29.917  1.00  0.00     0.074 A 
ATOM     62  C   UNL A   1      41.629  30.573  35.735  1.00  0.00     0.029 A 
ATOM     63  N   UNL A   1      41.347  30.060  33.590  1.00  0.00    -0.354 N 
ATOM     64  N   UNL A   1      41.966  28.649  31.088  1.00  0.00    -0.248 NA
ATOM     65  C   UNL A   1      43.377  27.267  29.839  1.00  0.00     0.031 C 
ATOM     66  C   UNL A   1      42.689  29.754  35.333  1.00  0.00     0.029 A 
ATOM     67  C   UNL A   1      42.494  29.402  34.008  1.00  0.00     0.049 A 
ATOM     68  H   UNL A   1      40.963  30.006  32.686  1.00  0.00     0.167 HD
ATOM     69  C   UNL A   1      43.018  28.218  31.893  1.00  0.00     0.074 A 
ATOM     70  C   UNL A   1      43.827  27.334  31.082  1.00  0.00     0.031 C 
ATOM     71  C   UNL A   1      43.292  28.525  33.187  1.00  0.00     0.034 A 
BRANCH  58  72
ATOM     72  C   UNL A   1      39.308  32.509  35.740  1.00  0.00     0.023 A 
ATOM     73  C   UNL A   1      39.727  33.847  35.850  1.00  0.00     0.031 A 
ATOM     74  C   UNL A   1      38.505  31.984  36.769  1.00  0.00     0.131 A 
ATOM     75  C   UNL A   1      39.376  34.598  36.982  1.00  0.00     0.055 A 
ATOM     76  C   UNL A   1      38.102  32.758  37.857  1.00  0.00     0.041 A 
ATOM     77  F   UNL A   1      38.093  30.707  36.727  1.00  0.00    -0.206 F 
ATOM     78  C   UNL A   1      38.544  34.072  37.972  1.00  0.00     0.022 A 
BRANCH  75  79
ATOM     79  S   UNL A   1      40.101  36.248  37.190  1.00  0.00     0.124 S 
ATOM     80  O   UNL A   1      41.485  35.922  37.526  1.00  0.00    -0.237 OA
ATOM     81  O   UNL A   1      39.886  36.855  35.882  1.00  0.00    -0.237 OA
ATOM     82  O   UNL A   1      39.323  36.829  38.283  1.00  0.00    -0.744 OA
ENDBRANCH  75  79
ENDBRANCH  58  72
BRANCH  59  83
ATOM     83  C   UNL A   1      41.741  27.486  27.415  1.00  0.00     0.023 A 
ATOM     84  C   UNL A   1      41.734  26.086  27.307  1.00  0.00     0.031 A 
ATOM     85  C   UNL A   1      42.254  28.224  26.332  1.00  0.00     0.131 A 
ATOM     86  C   UNL A   1      42.301  25.466  26.182  1.00  0.00     0.055 A 
ATOM     87  C   UNL A   1      42.750  27.603  25.183  1.00  0.00     0.041 A 
ATOM     88  F   UNL A   1      42.286  29.565  26.376  1.00  0.00    -0.206 F 
ATOM     89  C   UNL A   1      42.795  26.215  25.113  1.00  0.00     0.022 A 
BRANCH  86  90
ATOM     90  S   UNL A   1      42.513  23.664  26.202  1.00  0.00     0.124 S 
ATOM     91  O   UNL A   1      43.467  23.491  27.291  1.00  0.00    -0.237 OA
ATOM     92  O   UNL A   1      41.153  23.204  26.459  1.00  0.00    -0.237 OA
ATOM     93  O   UNL A   1      43.028  23.370  24.867  1.00  0.00    -0.744 OA
ENDBRANCH  86  90
ENDBRANCH  59  83
BRANCH  71  94
ATOM     94  C   UNL A   1      44.490  27.853  33.814  1.00  0.00     0.023 A 
ATOM     95  C   UNL A   1      44.385  26.616  34.475  1.00  0.00     0.031 A 
ATOM     96  C   UNL A   1      45.753  28.468  33.761  1.00  0.00     0.131 A 
ATOM     97  C   UNL A   1      45.509  26.066  35.109  1.00  0.00     0.055 A 
ATOM     98  C   UNL A   1      46.882  27.882  34.334  1.00  0.00     0.041 A 
ATOM     99  F   UNL A   1      45.913  29.651  33.146  1.00  0.00    -0.206 F 
ATOM    100  C   UNL A   1      46.760  26.681  35.026  1.00  0.00     0.022 A 
BRANCH  97 101
ATOM    101  S   UNL A   1      45.291  24.584  36.132  1.00  0.00     0.124 S 
ATOM    102  O   UNL A   1      44.943  23.576  35.136  1.00  0.00    -0.237 OA
ATOM    103  O   UNL A   1      46.604  24.438  36.754  1.00  0.00    -0.237 OA
ATOM    104  O   UNL A   1      44.211  24.953  37.045  1.00  0.00    -0.744 OA
ENDBRANCH  97 101
ENDBRANCH  71  94
ENDBRANCH  45  46
ENDBRANCH  37  40
ENDBRANCH  35  36
ENDBRANCH  34  35
ENDBRANCH  33  34
ENDBRANCH   1  33
TORSDOF 22
ENDMDL
MODEL 2
REMARK VINA RESULT:     -11.0      2.130      7.414
REMARK SMILES COc1ccc(C[N@@H+]2C[C@@H](C(=O)NCCCCCCNC(=O)c3ccc(-c4c5nc(c(-c6cc(S(=O)(=O)[O-])ccc6F)c6ccc([nH]6)c(-c6cc(S(=O)(=O)[O-])ccc6F)c6nc(c(-c7cc(S(=O)(=O)[O-])ccc7F)c7ccc4[nH]7)C=C6)C=C5)cc3)[C@H](c3ccccc3OC)C2)c(OC)c1
REMARK SMILES IDX 16 1 15 2 14 3 13 4 11 5 12 6 10 8 8 9 9 10 95 11 86 13 7 14
REMARK SMILES IDX 6 15 3 16 4 17 99 18 5 19 96 20 2 21 1 22 97 23 98 24 87 25
REMARK SMILES IDX 88 26 92 27 89 28 91 29 90 30 93 31 94 32 17 33 18 34 19 35
REMARK SMILES IDX 20 36 21 37 22 39 23 40 24 41 85 42 25 43 84 44 26 45 27 46
REMARK SMILES IDX 28 47 78 48 29 49 83 50 77 51 79 52 30 53 82 54 76 55 75 56
REMARK SMILES IDX 31 58 63 59 43 60 62 61 44 62 47 63 61 64 80 65 45 66 46 67
REMARK SMILES IDX 60 69 81 70 48 71 32 72 33 73 41 74 34 75 40 76 42 77 39 78
REMARK SMILES IDX 35 79 36 80 37 81 38 82 64 83 65 84 73 85 66 86 72 87 74 88
REMARK SMILES IDX 71 89 67 90 68 91 69 92 70 93 49 94 50 95 58 96 51 97 57 98
REMARK SMILES IDX 59 99 56 100 52 101 53 102 54 103 55 104
REMARK H PARENT 13 7 8 12 20 38 79 57 47 68
REMARK Flexibility Score: inf
ROOT
ATOM      1  C   UNL A   1      32.606  29.721  26.780  1.00  0.00     0.002 C 
ENDROOT
BRANCH   1   2
ATOM      2  C   UNL A   1      31.898  28.684  27.651  1.00  0.00     0.021 C 
BRANCH   2   3
ATOM      3  C   UNL A   1      32.238  27.244  27.285  1.00  0.00     0.116 C 
BRANCH   3   4
ATOM      4  N   UNL A   1      31.062  26.449  26.973  1.00  0.00    -0.356 N 
ATOM      5  C   UNL A   1      30.976  25.312  26.211  1.00  0.00     0.229 C 
ATOM      6  O   UNL A   1      29.903  24.705  26.204  1.00  0.00    -0.275 OA
ATOM      7  H   UNL A   1      30.215  26.770  27.360  1.00  0.00     0.163 HD
BRANCH   5   8
ATOM      8  C   UNL A   1      32.139  24.915  25.321  1.00  0.00     0.146 C 
ATOM      9  N   UNL A   1      33.889  23.306  25.377  1.00  0.00    -0.330 N 
ATOM     10  C   UNL A   1      32.556  23.553  25.890  1.00  0.00     0.276 C 
ATOM     11  C   UNL A   1      34.536  24.629  25.369  1.00  0.00     0.272 C 
ATOM     12  H   UNL A   1      34.430  22.680  25.972  1.00  0.00     0.348 HD
ATOM     13  C   UNL A   1      33.442  25.755  25.331  1.00  0.00     0.096 C 
BRANCH   9  14
ATOM     14  C   UNL A   1      33.960  22.468  24.164  1.00  0.00     0.303 C 
BRANCH  14  15
ATOM     15  C   UNL A   1      33.654  20.982  24.267  1.00  0.00     0.048 A 
ATOM     16  C   UNL A   1      33.238  18.206  24.078  1.00  0.00     0.122 A 
ATOM     17  C   UNL A   1      32.263  19.084  23.624  1.00  0.00     0.047 A 
ATOM     18  C   UNL A   1      34.360  18.700  24.740  1.00  0.00     0.093 A 
ATOM     19  C   UNL A   1      32.465  20.462  23.722  1.00  0.00     0.017 A 
ATOM     20  C   UNL A   1      34.536  20.084  24.891  1.00  0.00     0.131 A 
BRANCH  16  21
ATOM     21  O   UNL A   1      33.096  16.895  23.716  1.00  0.00    -0.497 OA
ATOM     22  C   UNL A   1      34.321  16.271  23.344  1.00  0.00     0.278 C 
ENDBRANCH  16  21
BRANCH  20  23
ATOM     23  O   UNL A   1      35.584  20.642  25.579  1.00  0.00    -0.496 OA
ATOM     24  C   UNL A   1      36.852  20.557  24.941  1.00  0.00     0.278 C 
ENDBRANCH  20  23
ENDBRANCH  14  15
ENDBRANCH   9  14
BRANCH  13  25
ATOM     25  C   UNL A   1      33.559  26.773  24.174  1.00  0.00     0.004 A 
ATOM     26  C   UNL A   1      33.993  28.092  24.396  1.00  0.00     0.008 A 
ATOM     27  C   UNL A   1      33.214  26.481  22.841  1.00  0.00     0.122 A 
ATOM     28  C   UNL A   1      34.196  29.023  23.369  1.00  0.00     0.001 A 
ATOM     29  C   UNL A   1      33.462  27.390  21.792  1.00  0.00     0.047 A 
ATOM     30  C   UNL A   1      33.978  28.655  22.055  1.00  0.00     0.004 A 
BRANCH  27  31
ATOM     31  O   UNL A   1      32.349  25.462  22.536  1.00  0.00    -0.496 OA
ATOM     32  C   UNL A   1      32.908  24.456  21.712  1.00  0.00     0.278 C 
ENDBRANCH  27  31
ENDBRANCH  13  25
ENDBRANCH   5   8
ENDBRANCH   3   4
ENDBRANCH   2   3
ENDBRANCH   1   2
BRANCH   1  33
ATOM     33  C   UNL A   1      31.671  30.683  26.033  1.00  0.00     0.002 C 
BRANCH  33  34
ATOM     34  C   UNL A   1      31.480  32.059  26.680  1.00  0.00     0.021 C 
BRANCH  34  35
ATOM     35  C   UNL A   1      32.719  32.634  27.361  1.00  0.00     0.116 C 
BRANCH  35  36
ATOM     36  N   UNL A   1      32.564  34.045  27.680  1.00  0.00    -0.352 N 
ATOM     37  C   UNL A   1      33.202  34.802  28.625  1.00  0.00     0.251 C 
ATOM     38  H   UNL A   1      31.902  34.527  27.133  1.00  0.00     0.163 HD
ATOM     39  O   UNL A   1      32.784  35.937  28.876  1.00  0.00    -0.269 OA
BRANCH  37  40
ATOM     40  C   UNL A   1      34.367  34.264  29.356  1.00  0.00     0.039 A 
ATOM     41  C   UNL A   1      34.148  33.489  30.498  1.00  0.00     0.014 A 
ATOM     42  C   UNL A   1      35.672  34.530  28.931  1.00  0.00     0.014 A 
ATOM     43  C   UNL A   1      35.235  32.934  31.178  1.00  0.00     0.010 A 
ATOM     44  C   UNL A   1      36.750  33.920  29.569  1.00  0.00     0.010 A 
ATOM     45  C   UNL A   1      36.544  33.114  30.699  1.00  0.00    -0.014 A 
BRANCH  45  46
ATOM     46  C   UNL A   1      37.700  32.456  31.364  1.00  0.00     0.031 A 
ATOM     47  C   UNL A   1      38.421  31.321  30.684  1.00  0.00     0.074 A 
ATOM     48  C   UNL A   1      38.061  32.844  32.605  1.00  0.00     0.049 A 
ATOM     49  N   UNL A   1      39.407  30.586  31.129  1.00  0.00    -0.248 NA
ATOM     50  C   UNL A   1      37.957  30.948  29.338  1.00  0.00     0.031 C 
ATOM     51  C   UNL A   1      37.409  33.904  33.380  1.00  0.00     0.029 A 
ATOM     52  N   UNL A   1      39.052  32.391  33.440  1.00  0.00    -0.354 N 
ATOM     53  C   UNL A   1      39.670  29.653  30.132  1.00  0.00     0.074 A 
ATOM     54  C   UNL A   1      38.711  29.889  29.074  1.00  0.00     0.031 C 
ATOM     55  C   UNL A   1      38.029  34.030  34.563  1.00  0.00     0.029 A 
ATOM     56  C   UNL A   1      39.088  33.031  34.658  1.00  0.00     0.049 A 
ATOM     57  H   UNL A   1      39.680  31.675  33.190  1.00  0.00     0.167 HD
ATOM     58  C   UNL A   1      40.632  28.699  30.098  1.00  0.00     0.034 A 
ATOM     59  C   UNL A   1      39.870  32.823  35.737  1.00  0.00     0.034 A 
ATOM     60  C   UNL A   1      41.599  28.497  31.149  1.00  0.00     0.049 A 
ATOM     61  C   UNL A   1      40.928  31.747  35.670  1.00  0.00     0.074 A 
ATOM     62  C   UNL A   1      42.667  27.615  31.173  1.00  0.00     0.029 A 
ATOM     63  N   UNL A   1      41.612  29.170  32.362  1.00  0.00    -0.354 N 
ATOM     64  N   UNL A   1      41.211  30.929  34.682  1.00  0.00    -0.248 NA
ATOM     65  C   UNL A   1      41.780  31.576  36.854  1.00  0.00     0.031 C 
ATOM     66  C   UNL A   1      43.274  27.698  32.430  1.00  0.00     0.029 A 
ATOM     67  C   UNL A   1      42.643  28.692  33.158  1.00  0.00     0.049 A 
ATOM     68  H   UNL A   1      40.982  29.881  32.620  1.00  0.00     0.167 HD
ATOM     69  C   UNL A   1      42.298  30.174  35.117  1.00  0.00     0.074 A 
ATOM     70  C   UNL A   1      42.631  30.650  36.442  1.00  0.00     0.031 C 
ATOM     71  C   UNL A   1      42.962  29.176  34.479  1.00  0.00     0.034 A 
BRANCH  58  72
ATOM     72  C   UNL A   1      40.677  27.778  28.903  1.00  0.00     0.023 A 
ATOM     73  C   UNL A   1      41.641  27.916  27.890  1.00  0.00     0.031 A 
ATOM     74  C   UNL A   1      39.761  26.714  28.801  1.00  0.00     0.131 A 
ATOM     75  C   UNL A   1      41.640  27.033  26.799  1.00  0.00     0.055 A 
ATOM     76  C   UNL A   1      39.810  25.799  27.750  1.00  0.00     0.041 A 
ATOM     77  F   UNL A   1      38.806  26.547  29.729  1.00  0.00    -0.206 F 
ATOM     78  C   UNL A   1      40.749  25.960  26.736  1.00  0.00     0.022 A 
BRANCH  75  79
ATOM     79  S   UNL A   1      42.760  27.363  25.411  1.00  0.00     0.124 S 
ATOM     80  O   UNL A   1      42.708  26.097  24.683  1.00  0.00    -0.237 OA
ATOM     81  O   UNL A   1      42.128  28.503  24.758  1.00  0.00    -0.237 OA
ATOM     82  O   UNL A   1      44.038  27.646  26.062  1.00  0.00    -0.744 OA
ENDBRANCH  75  79
ENDBRANCH  58  72
BRANCH  59  83
ATOM     83  C   UNL A   1      39.677  33.616  36.989  1.00  0.00     0.023 A 
ATOM     84  C   UNL A   1      39.051  33.055  38.114  1.00  0.00     0.031 A 
ATOM     85  C   UNL A   1      40.035  34.975  37.048  1.00  0.00     0.131 A 
ATOM     86  C   UNL A   1      38.731  33.865  39.215  1.00  0.00     0.055 A 
ATOM     87  C   UNL A   1      39.780  35.759  38.176  1.00  0.00     0.041 A 
ATOM     88  F   UNL A   1      40.637  35.567  36.005  1.00  0.00    -0.206 F 
ATOM     89  C   UNL A   1      39.104  35.209  39.260  1.00  0.00     0.022 A 
BRANCH  86  90
ATOM     90  S   UNL A   1      37.691  33.168  40.529  1.00  0.00     0.124 S 
ATOM     91  O   UNL A   1      36.452  32.894  39.810  1.00  0.00    -0.237 OA
ATOM     92  O   UNL A   1      38.467  32.004  40.941  1.00  0.00    -0.237 OA
ATOM     93  O   UNL A   1      37.618  34.248  41.511  1.00  0.00    -0.744 OA
ENDBRANCH  86  90
ENDBRANCH  59  83
BRANCH  71  94
ATOM     94  C   UNL A   1      44.149  28.573  35.194  1.00  0.00     0.023 A 
ATOM     95  C   UNL A   1      44.003  27.522  36.115  1.00  0.00     0.031 A 
ATOM     96  C   UNL A   1      45.442  29.070  34.957  1.00  0.00     0.131 A 
ATOM     97  C   UNL A   1      45.122  27.044  36.813  1.00  0.00     0.055 A 
ATOM     98  C   UNL A   1      46.562  28.544  35.602  1.00  0.00     0.041 A 
ATOM     99  F   UNL A   1      45.641  30.075  34.089  1.00  0.00    -0.206 F 
ATOM    100  C   UNL A   1      46.403  27.535  36.548  1.00  0.00     0.022 A 
BRANCH  97 101
ATOM    101  S   UNL A   1      44.869  25.842  38.147  1.00  0.00     0.124 S 
ATOM    102  O   UNL A   1      46.238  25.463  38.478  1.00  0.00    -0.237 OA
ATOM    103  O   UNL A   1      44.165  26.634  39.152  1.00  0.00    -0.237 OA
ATOM    104  O   UNL A   1      44.070  24.793  37.516  1.00  0.00    -0.744 OA
ENDBRANCH  97 101
ENDBRANCH  71  94
ENDBRANCH  45  46
ENDBRANCH  37  40
ENDBRANCH  35  36
ENDBRANCH  34  35
ENDBRANCH  33  34
ENDBRANCH   1  33
TORSDOF 22
ENDMDL
MODEL 3
REMARK VINA RESULT:     -10.9      2.741      3.586
REMARK SMILES COc1ccc(C[N@@H+]2C[C@@H](C(=O)NCCCCCCNC(=O)c3ccc(-c4c5nc(c(-c6cc(S(=O)(=O)[O-])ccc6F)c6ccc([nH]6)c(-c6cc(S(=O)(=O)[O-])ccc6F)c6nc(c(-c7cc(S(=O)(=O)[O-])ccc7F)c7ccc4[nH]7)C=C6)C=C5)cc3)[C@H](c3ccccc3OC)C2)c(OC)c1
REMARK SMILES IDX 16 1 15 2 14 3 13 4 11 5 12 6 10 8 8 9 9 10 95 11 86 13 7 14
REMARK SMILES IDX 6 15 3 16 4 17 99 18 5 19 96 20 2 21 1 22 97 23 98 24 87 25
REMARK SMILES IDX 88 26 92 27 89 28 91 29 90 30 93 31 94 32 17 33 18 34 19 35
REMARK SMILES IDX 20 36 21 37 22 39 23 40 24 41 85 42 25 43 84 44 26 45 27 46
REMARK SMILES IDX 28 47 78 48 29 49 83 50 77 51 79 52 30 53 82 54 76 55 75 56
REMARK SMILES IDX 31 58 63 59 43 60 62 61 44 62 47 63 61 64 80 65 45 66 46 67
REMARK SMILES IDX 60 69 81 70 48 71 32 72 33 73 41 74 34 75 40 76 42 77 39 78
REMARK SMILES IDX 35 79 36 80 37 81 38 82 64 83 65 84 73 85 66 86 72 87 74 88
REMARK SMILES IDX 71 89 67 90 68 91 69 92 70 93 49 94 50 95 58 96 51 97 57 98
REMARK SMILES IDX 59 99 56 100 52 101 53 102 54 103 55 104
REMARK H PARENT 13 7 8 12 20 38 79 57 47 68
REMARK Flexibility Score: inf
ROOT
ATOM      1  C   UNL A   1      31.252  27.114  26.508  1.00  0.00     0.002 C 
ENDROOT
BRANCH   1   2
ATOM      2  C   UNL A   1      30.219  26.511  25.557  1.00  0.00     0.021 C 
BRANCH   2   3
ATOM      3  C   UNL A   1      30.414  25.020  25.308  1.00  0.00     0.116 C 
BRANCH   3   4
ATOM      4  N   UNL A   1      30.728  24.283  26.520  1.00  0.00    -0.356 N 
ATOM      5  C   UNL A   1      31.900  23.658  26.860  1.00  0.00     0.229 C 
ATOM      6  O   UNL A   1      32.007  23.222  28.009  1.00  0.00    -0.275 OA
ATOM      7  H   UNL A   1      30.003  24.223  27.183  1.00  0.00     0.163 HD
BRANCH   5   8
ATOM      8  C   UNL A   1      32.958  23.417  25.799  1.00  0.00     0.146 C 
ATOM      9  N   UNL A   1      34.879  22.036  25.554  1.00  0.00    -0.330 N 
ATOM     10  C   UNL A   1      33.616  22.111  26.263  1.00  0.00     0.276 C 
ATOM     11  C   UNL A   1      35.352  23.429  25.489  1.00  0.00     0.272 C 
ATOM     12  H   UNL A   1      35.574  21.476  26.046  1.00  0.00     0.348 HD
ATOM     13  C   UNL A   1      34.137  24.411  25.643  1.00  0.00     0.096 C 
BRANCH   9  14
ATOM     14  C   UNL A   1      34.870  21.225  24.321  1.00  0.00     0.303 C 
BRANCH  14  15
ATOM     15  C   UNL A   1      34.217  19.852  24.337  1.00  0.00     0.048 A 
ATOM     16  C   UNL A   1      32.957  17.374  24.767  1.00  0.00     0.122 A 
ATOM     17  C   UNL A   1      34.330  17.489  24.934  1.00  0.00     0.047 A 
ATOM     18  C   UNL A   1      32.228  18.450  24.266  1.00  0.00     0.093 A 
ATOM     19  C   UNL A   1      34.959  18.717  24.716  1.00  0.00     0.017 A 
ATOM     20  C   UNL A   1      32.869  19.667  23.990  1.00  0.00     0.131 A 
BRANCH  16  21
ATOM     21  O   UNL A   1      32.378  16.232  25.247  1.00  0.00    -0.497 OA
ATOM     22  C   UNL A   1      33.290  15.149  25.399  1.00  0.00     0.278 C 
ENDBRANCH  16  21
BRANCH  20  23
ATOM     23  O   UNL A   1      32.229  20.750  23.442  1.00  0.00    -0.496 OA
ATOM     24  C   UNL A   1      31.876  20.625  22.069  1.00  0.00     0.278 C 
ENDBRANCH  20  23
ENDBRANCH  14  15
ENDBRANCH   9  14
BRANCH  13  25
ATOM     25  C   UNL A   1      33.957  25.447  24.510  1.00  0.00     0.004 A 
ATOM     26  C   UNL A   1      33.991  26.830  24.766  1.00  0.00     0.008 A 
ATOM     27  C   UNL A   1      33.714  25.100  23.167  1.00  0.00     0.122 A 
ATOM     28  C   UNL A   1      33.918  27.804  23.761  1.00  0.00     0.001 A 
ATOM     29  C   UNL A   1      33.691  26.068  22.142  1.00  0.00     0.047 A 
ATOM     30  C   UNL A   1      33.818  27.421  22.437  1.00  0.00     0.004 A 
BRANCH  27  31
ATOM     31  O   UNL A   1      33.180  23.883  22.832  1.00  0.00    -0.496 OA
ATOM     32  C   UNL A   1      32.980  23.703  21.442  1.00  0.00     0.278 C 
ENDBRANCH  27  31
ENDBRANCH  13  25
ENDBRANCH   5   8
ENDBRANCH   3   4
ENDBRANCH   2   3
ENDBRANCH   1   2
BRANCH   1  33
ATOM     33  C   UNL A   1      31.581  28.591  26.253  1.00  0.00     0.002 C 
BRANCH  33  34
ATOM     34  C   UNL A   1      32.222  29.342  27.425  1.00  0.00     0.021 C 
BRANCH  34  35
ATOM     35  C   UNL A   1      33.524  30.067  27.097  1.00  0.00     0.116 C 
BRANCH  35  36
ATOM     36  N   UNL A   1      33.554  31.415  27.643  1.00  0.00    -0.352 N 
ATOM     37  C   UNL A   1      34.443  31.986  28.514  1.00  0.00     0.251 C 
ATOM     38  H   UNL A   1      32.827  32.005  27.340  1.00  0.00     0.163 HD
ATOM     39  O   UNL A   1      34.180  33.083  29.016  1.00  0.00    -0.269 OA
BRANCH  37  40
ATOM     40  C   UNL A   1      35.697  31.289  28.869  1.00  0.00     0.039 A 
ATOM     41  C   UNL A   1      36.915  31.852  28.477  1.00  0.00     0.014 A 
ATOM     42  C   UNL A   1      35.678  30.081  29.570  1.00  0.00     0.014 A 
ATOM     43  C   UNL A   1      38.113  31.233  28.841  1.00  0.00     0.010 A 
ATOM     44  C   UNL A   1      36.874  29.502  29.991  1.00  0.00     0.010 A 
ATOM     45  C   UNL A   1      38.105  30.071  29.632  1.00  0.00    -0.014 A 
BRANCH  45  46
ATOM     46  C   UNL A   1      39.374  29.454  30.098  1.00  0.00     0.031 A 
ATOM     47  C   UNL A   1      40.135  30.058  31.250  1.00  0.00     0.074 A 
ATOM     48  C   UNL A   1      39.870  28.381  29.445  1.00  0.00     0.049 A 
ATOM     49  N   UNL A   1      41.285  29.699  31.758  1.00  0.00    -0.248 NA
ATOM     50  C   UNL A   1      39.535  31.234  31.900  1.00  0.00     0.031 C 
ATOM     51  C   UNL A   1      39.242  27.735  28.288  1.00  0.00     0.029 A 
ATOM     52  N   UNL A   1      41.015  27.652  29.646  1.00  0.00    -0.354 N 
ATOM     53  C   UNL A   1      41.558  30.612  32.770  1.00  0.00     0.074 A 
ATOM     54  C   UNL A   1      40.471  31.567  32.778  1.00  0.00     0.031 C 
ATOM     55  C   UNL A   1      40.000  26.698  27.899  1.00  0.00     0.029 A 
ATOM     56  C   UNL A   1      41.191  26.631  28.739  1.00  0.00     0.049 A 
ATOM     57  H   UNL A   1      41.652  27.840  30.373  1.00  0.00     0.167 HD
ATOM     58  C   UNL A   1      42.611  30.640  33.623  1.00  0.00     0.034 A 
ATOM     59  C   UNL A   1      42.205  25.755  28.587  1.00  0.00     0.034 A 
ATOM     60  C   UNL A   1      43.672  29.662  33.621  1.00  0.00     0.049 A 
ATOM     61  C   UNL A   1      43.367  25.817  29.549  1.00  0.00     0.074 A 
ATOM     62  C   UNL A   1      44.738  29.552  34.498  1.00  0.00     0.029 A 
ATOM     63  N   UNL A   1      43.811  28.637  32.696  1.00  0.00    -0.354 N 
ATOM     64  N   UNL A   1      43.565  26.642  30.552  1.00  0.00    -0.248 NA
ATOM     65  C   UNL A   1      44.434  24.825  29.369  1.00  0.00     0.031 C 
ATOM     66  C   UNL A   1      45.563  28.514  34.055  1.00  0.00     0.029 A 
ATOM     67  C   UNL A   1      44.968  27.918  32.955  1.00  0.00     0.049 A 
ATOM     68  H   UNL A   1      43.182  28.449  31.963  1.00  0.00     0.167 HD
ATOM     69  C   UNL A   1      44.762  26.239  31.142  1.00  0.00     0.074 A 
ATOM     70  C   UNL A   1      45.225  25.089  30.397  1.00  0.00     0.031 C 
ATOM     71  C   UNL A   1      45.419  26.772  32.203  1.00  0.00     0.034 A 
BRANCH  58  72
ATOM     72  C   UNL A   1      42.693  31.775  34.615  1.00  0.00     0.023 A 
ATOM     73  C   UNL A   1      42.121  31.690  35.895  1.00  0.00     0.031 A 
ATOM     74  C   UNL A   1      43.395  32.948  34.283  1.00  0.00     0.131 A 
ATOM     75  C   UNL A   1      42.224  32.775  36.780  1.00  0.00     0.055 A 
ATOM     76  C   UNL A   1      43.554  33.994  35.192  1.00  0.00     0.041 A 
ATOM     77  F   UNL A   1      43.945  33.093  33.066  1.00  0.00    -0.206 F 
ATOM     78  C   UNL A   1      42.959  33.914  36.448  1.00  0.00     0.022 A 
BRANCH  75  79
ATOM     79  S   UNL A   1      41.303  32.715  38.341  1.00  0.00     0.124 S 
ATOM     80  O   UNL A   1      39.988  32.266  37.891  1.00  0.00    -0.237 OA
ATOM     81  O   UNL A   1      42.072  31.756  39.126  1.00  0.00    -0.237 OA
ATOM     82  O   UNL A   1      41.351  34.095  38.821  1.00  0.00    -0.744 OA
ENDBRANCH  75  79
ENDBRANCH  58  72
BRANCH  59  83
ATOM     83  C   UNL A   1      42.200  24.762  27.470  1.00  0.00     0.023 A 
ATOM     84  C   UNL A   1      41.552  23.523  27.604  1.00  0.00     0.031 A 
ATOM     85  C   UNL A   1      42.920  25.000  26.285  1.00  0.00     0.131 A 
ATOM     86  C   UNL A   1      41.702  22.542  26.611  1.00  0.00     0.055 A 
ATOM     87  C   UNL A   1      43.004  24.047  25.267  1.00  0.00     0.041 A 
ATOM     88  F   UNL A   1      43.558  26.166  26.099  1.00  0.00    -0.206 F 
ATOM     89  C   UNL A   1      42.411  22.801  25.437  1.00  0.00     0.022 A 
BRANCH  86  90
ATOM     90  S   UNL A   1      41.075  20.871  26.942  1.00  0.00     0.124 S 
ATOM     91  O   UNL A   1      42.224  20.048  26.582  1.00  0.00    -0.237 OA
ATOM     92  O   UNL A   1      40.758  20.946  28.364  1.00  0.00    -0.237 OA
ATOM     93  O   UNL A   1      39.923  20.760  26.051  1.00  0.00    -0.744 OA
ENDBRANCH  86  90
ENDBRANCH  59  83
BRANCH  71  94
ATOM     94  C   UNL A   1      46.683  26.077  32.649  1.00  0.00     0.023 A 
ATOM     95  C   UNL A   1      47.930  26.359  32.063  1.00  0.00     0.031 A 
ATOM     96  C   UNL A   1      46.635  25.107  33.665  1.00  0.00     0.131 A 
ATOM     97  C   UNL A   1      49.065  25.634  32.455  1.00  0.00     0.055 A 
ATOM     98  C   UNL A   1      47.780  24.438  34.100  1.00  0.00     0.041 A 
ATOM     99  F   UNL A   1      45.471  24.795  34.259  1.00  0.00    -0.206 F 
ATOM    100  C   UNL A   1      49.002  24.690  33.483  1.00  0.00     0.022 A 
BRANCH  97 101
ATOM    101  S   UNL A   1      50.608  25.869  31.532  1.00  0.00     0.124 S 
ATOM    102  O   UNL A   1      51.616  25.648  32.564  1.00  0.00    -0.237 OA
ATOM    103  O   UNL A   1      50.516  24.840  30.501  1.00  0.00    -0.237 OA
ATOM    104  O   UNL A   1      50.511  27.244  31.044  1.00  0.00    -0.744 OA
ENDBRANCH  97 101
ENDBRANCH  71  94
ENDBRANCH  45  46
ENDBRANCH  37  40
ENDBRANCH  35  36
ENDBRANCH  34  35
ENDBRANCH  33  34
ENDBRANCH   1  33
TORSDOF 22
ENDMDL
