MODEL 1
REMARK VINA RESULT:     -10.9      0.000      0.000
REMARK SMILES CCc1cc(OCc2cccc(C)n2)c(C(=O)NCCCCCCNC(=O)c2ccc(-c3c4nc(c(-c5cc(S(=O)(=O)[O-])ccc5F)c5ccc([nH]5)c(-c5cc(S(=O)(=O)[O-])ccc5F)c5nc(c(-c6cc(S(=O)(=O)[O-])ccc6F)c6ccc3[nH]6)C=C5)C=C4)cc2)s1
REMARK SMILES IDX 21 1 20 2 19 3 18 4 16 5 17 6 15 8 3 9 4 10 91 11 5 12 2 13
REMARK SMILES IDX 1 14 6 15 7 16 8 17 9 18 14 19 10 20 12 21 11 22 13 23 22 24
REMARK SMILES IDX 23 25 24 26 25 27 26 28 27 30 28 31 29 32 90 33 30 34 89 35
REMARK SMILES IDX 31 36 32 37 33 38 83 39 34 40 88 41 82 42 84 43 35 44 87 45
REMARK SMILES IDX 81 46 80 47 36 49 68 50 48 51 67 52 49 53 52 54 66 55 85 56
REMARK SMILES IDX 50 57 51 58 65 60 86 61 53 62 37 63 38 64 46 65 39 66 45 67
REMARK SMILES IDX 47 68 44 69 40 70 41 71 42 72 43 73 69 74 70 75 78 76 71 77
REMARK SMILES IDX 77 78 79 79 76 80 72 81 73 82 74 83 75 84 54 85 55 86 63 87
REMARK SMILES IDX 56 88 62 89 64 90 61 91 57 92 58 93 59 94 60 95
REMARK H PARENT 18 7 25 29 84 48 52 59
REMARK Flexibility Score: inf
ROOT
ATOM      1  C   UNL A   1      31.740  26.832  26.268  1.00  0.00     0.002 C 
ENDROOT
BRANCH   1   2
ATOM      2  C   UNL A   1      30.322  26.323  25.976  1.00  0.00     0.021 C 
BRANCH   2   3
ATOM      3  C   UNL A   1      30.279  24.851  25.563  1.00  0.00     0.116 C 
BRANCH   3   4
ATOM      4  N   UNL A   1      30.696  24.000  26.647  1.00  0.00    -0.351 N 
ATOM      5  C   UNL A   1      31.864  23.321  26.877  1.00  0.00     0.265 C 
ATOM      6  O   UNL A   1      31.890  22.750  27.976  1.00  0.00    -0.268 OA
ATOM      7  H   UNL A   1      30.019  23.886  27.352  1.00  0.00     0.163 HD
BRANCH   5   8
ATOM      8  C   UNL A   1      32.997  23.285  25.953  1.00  0.00     0.134 A 
ATOM      9  C   UNL A   1      35.377  22.892  25.259  1.00  0.00     0.009 A 
ATOM     10  C   UNL A   1      34.497  22.909  24.201  1.00  0.00     0.062 A 
ATOM     11  S   UNL A   1      34.547  23.116  26.728  1.00  0.00    -0.131 S 
ATOM     12  C   UNL A   1      33.188  23.343  24.579  1.00  0.00     0.143 A 
BRANCH   9  13
ATOM     13  C   UNL A   1      36.871  22.777  25.178  1.00  0.00     0.043 C 
ATOM     14  C   UNL A   1      37.391  21.682  24.263  1.00  0.00     0.010 C 
ENDBRANCH   9  13
BRANCH  12  15
ATOM     15  O   UNL A   1      32.221  23.594  23.667  1.00  0.00    -0.486 OA
BRANCH  15  16
ATOM     16  C   UNL A   1      32.577  24.505  22.591  1.00  0.00     0.285 C 
BRANCH  16  17
ATOM     17  C   UNL A   1      32.472  26.022  22.688  1.00  0.00     0.078 A 
ATOM     18  C   UNL A   1      33.580  26.808  23.007  1.00  0.00     0.027 A 
ATOM     19  N   UNL A   1      31.239  26.564  22.524  1.00  0.00    -0.255 NA
ATOM     20  C   UNL A   1      33.436  28.189  23.069  1.00  0.00     0.004 A 
ATOM     21  C   UNL A   1      31.100  27.906  22.653  1.00  0.00     0.038 A 
ATOM     22  C   UNL A   1      32.176  28.750  22.899  1.00  0.00     0.023 A 
ATOM     23  C   UNL A   1      29.703  28.452  22.628  1.00  0.00     0.067 C 
ENDBRANCH  16  17
ENDBRANCH  15  16
ENDBRANCH  12  15
ENDBRANCH   5   8
ENDBRANCH   3   4
ENDBRANCH   2   3
ENDBRANCH   1   2
BRANCH   1  24
ATOM     24  C   UNL A   1      31.822  27.950  27.315  1.00  0.00     0.002 C 
BRANCH  24  25
ATOM     25  C   UNL A   1      31.780  29.377  26.755  1.00  0.00     0.021 C 
BRANCH  25  26
ATOM     26  C   UNL A   1      33.148  30.013  26.519  1.00  0.00     0.116 C 
BRANCH  26  27
ATOM     27  N   UNL A   1      33.134  31.438  26.806  1.00  0.00    -0.352 N 
ATOM     28  C   UNL A   1      33.905  32.167  27.672  1.00  0.00     0.251 C 
ATOM     29  H   UNL A   1      32.468  31.958  26.303  1.00  0.00     0.163 HD
ATOM     30  O   UNL A   1      33.564  33.319  27.953  1.00  0.00    -0.269 OA
BRANCH  28  31
ATOM     31  C   UNL A   1      35.126  31.591  28.277  1.00  0.00     0.039 A 
ATOM     32  C   UNL A   1      36.311  32.330  28.233  1.00  0.00     0.014 A 
ATOM     33  C   UNL A   1      35.127  30.308  28.837  1.00  0.00     0.014 A 
ATOM     34  C   UNL A   1      37.482  31.804  28.781  1.00  0.00     0.010 A 
ATOM     35  C   UNL A   1      36.281  29.811  29.443  1.00  0.00     0.010 A 
ATOM     36  C   UNL A   1      37.473  30.548  29.411  1.00  0.00    -0.014 A 
BRANCH  36  37
ATOM     37  C   UNL A   1      38.713  30.008  30.030  1.00  0.00     0.031 A 
ATOM     38  C   UNL A   1      39.146  30.464  31.398  1.00  0.00     0.074 A 
ATOM     39  C   UNL A   1      39.459  29.122  29.344  1.00  0.00     0.049 A 
ATOM     40  N   UNL A   1      40.181  30.088  32.107  1.00  0.00    -0.248 NA
ATOM     41  C   UNL A   1      38.324  31.499  32.040  1.00  0.00     0.031 C 
ATOM     42  C   UNL A   1      39.174  28.651  27.987  1.00  0.00     0.029 A 
ATOM     43  N   UNL A   1      40.608  28.456  29.690  1.00  0.00    -0.354 N 
ATOM     44  C   UNL A   1      40.137  30.844  33.274  1.00  0.00     0.074 A 
ATOM     45  C   UNL A   1      39.011  31.743  33.146  1.00  0.00     0.031 C 
ATOM     46  C   UNL A   1      40.100  27.749  27.629  1.00  0.00     0.029 A 
ATOM     47  C   UNL A   1      41.062  27.597  28.716  1.00  0.00     0.049 A 
ATOM     48  H   UNL A   1      41.063  28.581  30.553  1.00  0.00     0.167 HD
ATOM     49  C   UNL A   1      40.948  30.776  34.361  1.00  0.00     0.034 A 
ATOM     50  C   UNL A   1      42.129  26.774  28.704  1.00  0.00     0.034 A 
ATOM     51  C   UNL A   1      42.064  29.867  34.474  1.00  0.00     0.049 A 
ATOM     52  C   UNL A   1      43.001  26.701  29.930  1.00  0.00     0.074 A 
ATOM     53  C   UNL A   1      42.919  29.675  35.547  1.00  0.00     0.029 A 
ATOM     54  N   UNL A   1      42.489  29.001  33.473  1.00  0.00    -0.354 N 
ATOM     55  N   UNL A   1      42.908  27.373  31.054  1.00  0.00    -0.248 NA
ATOM     56  C   UNL A   1      44.109  25.739  29.890  1.00  0.00     0.031 C 
ATOM     57  C   UNL A   1      43.892  28.741  35.173  1.00  0.00     0.029 A 
ATOM     58  C   UNL A   1      43.607  28.293  33.893  1.00  0.00     0.049 A 
ATOM     59  H   UNL A   1      42.059  28.903  32.593  1.00  0.00     0.167 HD
ATOM     60  C   UNL A   1      43.935  26.899  31.865  1.00  0.00     0.074 A 
ATOM     61  C   UNL A   1      44.612  25.863  31.109  1.00  0.00     0.031 C 
ATOM     62  C   UNL A   1      44.290  27.283  33.118  1.00  0.00     0.034 A 
BRANCH  49  63
ATOM     63  C   UNL A   1      40.662  31.731  35.498  1.00  0.00     0.023 A 
ATOM     64  C   UNL A   1      39.517  31.599  36.305  1.00  0.00     0.031 A 
ATOM     65  C   UNL A   1      41.527  32.808  35.762  1.00  0.00     0.131 A 
ATOM     66  C   UNL A   1      39.225  32.569  37.276  1.00  0.00     0.055 A 
ATOM     67  C   UNL A   1      41.275  33.724  36.786  1.00  0.00     0.041 A 
ATOM     68  F   UNL A   1      42.627  32.999  35.017  1.00  0.00    -0.206 F 
ATOM     69  C   UNL A   1      40.109  33.618  37.539  1.00  0.00     0.022 A 
BRANCH  66  70
ATOM     70  S   UNL A   1      37.604  32.523  38.089  1.00  0.00     0.124 S 
ATOM     71  O   UNL A   1      37.852  33.324  39.285  1.00  0.00    -0.237 OA
ATOM     72  O   UNL A   1      36.732  33.125  37.087  1.00  0.00    -0.237 OA
ATOM     73  O   UNL A   1      37.383  31.100  38.335  1.00  0.00    -0.744 OA
ENDBRANCH  66  70
ENDBRANCH  49  63
BRANCH  50  74
ATOM     74  C   UNL A   1      42.428  25.946  27.502  1.00  0.00     0.023 A 
ATOM     75  C   UNL A   1      42.012  24.607  27.424  1.00  0.00     0.031 A 
ATOM     76  C   UNL A   1      43.163  26.474  26.426  1.00  0.00     0.131 A 
ATOM     77  C   UNL A   1      42.374  23.827  26.315  1.00  0.00     0.055 A 
ATOM     78  C   UNL A   1      43.479  25.707  25.304  1.00  0.00     0.041 A 
ATOM     79  F   UNL A   1      43.575  27.751  26.447  1.00  0.00    -0.206 F 
ATOM     80  C   UNL A   1      43.095  24.371  25.250  1.00  0.00     0.022 A 
BRANCH  77  81
ATOM     81  S   UNL A   1      41.950  22.063  26.319  1.00  0.00     0.124 S 
ATOM     82  O   UNL A   1      42.801  21.549  25.254  1.00  0.00    -0.237 OA
ATOM     83  O   UNL A   1      42.310  21.668  27.677  1.00  0.00    -0.237 OA
ATOM     84  O   UNL A   1      40.517  22.058  26.031  1.00  0.00    -0.744 OA
ENDBRANCH  77  81
ENDBRANCH  50  74
BRANCH  62  85
ATOM     85  C   UNL A   1      45.455  26.553  33.742  1.00  0.00     0.023 A 
ATOM     86  C   UNL A   1      45.269  25.384  34.502  1.00  0.00     0.031 A 
ATOM     87  C   UNL A   1      46.760  27.063  33.622  1.00  0.00     0.131 A 
ATOM     88  C   UNL A   1      46.355  24.810  35.179  1.00  0.00     0.055 A 
ATOM     89  C   UNL A   1      47.849  26.448  34.243  1.00  0.00     0.041 A 
ATOM     90  F   UNL A   1      46.998  28.177  32.911  1.00  0.00    -0.206 F 
ATOM     91  C   UNL A   1      47.647  25.325  35.043  1.00  0.00     0.022 A 
BRANCH  88  92
ATOM     92  S   UNL A   1      46.033  23.459  36.347  1.00  0.00     0.124 S 
ATOM     93  O   UNL A   1      47.341  22.817  36.436  1.00  0.00    -0.237 OA
ATOM     94  O   UNL A   1      45.593  24.177  37.539  1.00  0.00    -0.237 OA
ATOM     95  O   UNL A   1      44.999  22.670  35.681  1.00  0.00    -0.744 OA
ENDBRANCH  88  92
ENDBRANCH  62  85
ENDBRANCH  36  37
ENDBRANCH  28  31
ENDBRANCH  26  27
ENDBRANCH  25  26
ENDBRANCH  24  25
ENDBRANCH   1  24
TORSDOF 20
ENDMDL
MODEL 2
REMARK VINA RESULT:     -10.8      2.134      2.563
REMARK SMILES CCc1cc(OCc2cccc(C)n2)c(C(=O)NCCCCCCNC(=O)c2ccc(-c3c4nc(c(-c5cc(S(=O)(=O)[O-])ccc5F)c5ccc([nH]5)c(-c5cc(S(=O)(=O)[O-])ccc5F)c5nc(c(-c6cc(S(=O)(=O)[O-])ccc6F)c6ccc3[nH]6)C=C5)C=C4)cc2)s1
REMARK SMILES IDX 21 1 20 2 19 3 18 4 16 5 17 6 15 8 3 9 4 10 91 11 5 12 2 13
REMARK SMILES IDX 1 14 6 15 7 16 8 17 9 18 14 19 10 20 12 21 11 22 13 23 22 24
REMARK SMILES IDX 23 25 24 26 25 27 26 28 27 30 28 31 29 32 90 33 30 34 89 35
REMARK SMILES IDX 31 36 32 37 33 38 83 39 34 40 88 41 82 42 84 43 35 44 87 45
REMARK SMILES IDX 81 46 80 47 36 49 68 50 48 51 67 52 49 53 52 54 66 55 85 56
REMARK SMILES IDX 50 57 51 58 65 60 86 61 53 62 37 63 38 64 46 65 39 66 45 67
REMARK SMILES IDX 47 68 44 69 40 70 41 71 42 72 43 73 69 74 70 75 78 76 71 77
REMARK SMILES IDX 77 78 79 79 76 80 72 81 73 82 74 83 75 84 54 85 55 86 63 87
REMARK SMILES IDX 56 88 62 89 64 90 61 91 57 92 58 93 59 94 60 95
REMARK H PARENT 18 7 25 29 84 48 52 59
REMARK Flexibility Score: inf
ROOT
ATOM      1  C   UNL A   1      31.935  26.588  26.574  1.00  0.00     0.002 C 
ENDROOT
BRANCH   1   2
ATOM      2  C   UNL A   1      33.335  26.273  26.030  1.00  0.00     0.021 C 
BRANCH   2   3
ATOM      3  C   UNL A   1      33.633  24.775  25.955  1.00  0.00     0.116 C 
BRANCH   3   4
ATOM      4  N   UNL A   1      34.674  24.505  24.997  1.00  0.00    -0.351 N 
ATOM      5  C   UNL A   1      34.883  23.448  24.151  1.00  0.00     0.265 C 
ATOM      6  O   UNL A   1      35.856  23.607  23.401  1.00  0.00    -0.268 OA
ATOM      7  H   UNL A   1      35.359  25.210  24.939  1.00  0.00     0.163 HD
BRANCH   5   8
ATOM      8  C   UNL A   1      34.039  22.256  24.091  1.00  0.00     0.134 A 
ATOM      9  C   UNL A   1      33.173  20.020  24.836  1.00  0.00     0.009 A 
ATOM     10  C   UNL A   1      32.300  20.696  24.014  1.00  0.00     0.062 A 
ATOM     11  S   UNL A   1      34.571  20.950  25.112  1.00  0.00    -0.131 S 
ATOM     12  C   UNL A   1      32.886  21.861  23.426  1.00  0.00     0.143 A 
BRANCH   9  13
ATOM     13  C   UNL A   1      33.001  18.629  25.373  1.00  0.00     0.043 C 
ATOM     14  C   UNL A   1      33.812  17.556  24.668  1.00  0.00     0.010 C 
ENDBRANCH   9  13
BRANCH  12  15
ATOM     15  O   UNL A   1      32.261  22.572  22.460  1.00  0.00    -0.486 OA
BRANCH  15  16
ATOM     16  C   UNL A   1      31.417  23.666  22.914  1.00  0.00     0.285 C 
BRANCH  16  17
ATOM     17  C   UNL A   1      31.751  25.140  22.716  1.00  0.00     0.078 A 
ATOM     18  C   UNL A   1      32.968  25.540  22.163  1.00  0.00     0.027 A 
ATOM     19  N   UNL A   1      30.844  26.042  23.169  1.00  0.00    -0.255 NA
ATOM     20  C   UNL A   1      33.219  26.897  21.990  1.00  0.00     0.004 A 
ATOM     21  C   UNL A   1      31.130  27.361  23.054  1.00  0.00     0.038 A 
ATOM     22  C   UNL A   1      32.292  27.824  22.449  1.00  0.00     0.023 A 
ATOM     23  C   UNL A   1      30.184  28.323  23.710  1.00  0.00     0.067 C 
ENDBRANCH  16  17
ENDBRANCH  15  16
ENDBRANCH  12  15
ENDBRANCH   5   8
ENDBRANCH   3   4
ENDBRANCH   2   3
ENDBRANCH   1   2
BRANCH   1  24
ATOM     24  C   UNL A   1      31.868  27.787  27.529  1.00  0.00     0.002 C 
BRANCH  24  25
ATOM     25  C   UNL A   1      32.102  29.156  26.880  1.00  0.00     0.021 C 
BRANCH  25  26
ATOM     26  C   UNL A   1      33.528  29.689  27.003  1.00  0.00     0.116 C 
BRANCH  26  27
ATOM     27  N   UNL A   1      33.545  31.094  27.375  1.00  0.00    -0.352 N 
ATOM     28  C   UNL A   1      34.387  31.769  28.219  1.00  0.00     0.251 C 
ATOM     29  H   UNL A   1      32.845  31.644  26.958  1.00  0.00     0.163 HD
ATOM     30  O   UNL A   1      34.076  32.902  28.595  1.00  0.00    -0.269 OA
BRANCH  28  31
ATOM     31  C   UNL A   1      35.648  31.156  28.690  1.00  0.00     0.039 A 
ATOM     32  C   UNL A   1      36.859  31.762  28.348  1.00  0.00     0.014 A 
ATOM     33  C   UNL A   1      35.650  29.961  29.420  1.00  0.00     0.014 A 
ATOM     34  C   UNL A   1      38.065  31.196  28.765  1.00  0.00     0.010 A 
ATOM     35  C   UNL A   1      36.852  29.432  29.892  1.00  0.00     0.010 A 
ATOM     36  C   UNL A   1      38.072  30.037  29.560  1.00  0.00    -0.014 A 
BRANCH  36  37
ATOM     37  C   UNL A   1      39.356  29.460  30.037  1.00  0.00     0.031 A 
ATOM     38  C   UNL A   1      40.040  30.018  31.256  1.00  0.00     0.074 A 
ATOM     39  C   UNL A   1      39.917  28.445  29.352  1.00  0.00     0.049 A 
ATOM     40  N   UNL A   1      41.149  29.630  31.834  1.00  0.00    -0.248 NA
ATOM     41  C   UNL A   1      39.408  31.182  31.892  1.00  0.00     0.031 C 
ATOM     42  C   UNL A   1      39.379  27.861  28.121  1.00  0.00     0.029 A 
ATOM     43  N   UNL A   1      41.058  27.721  29.590  1.00  0.00    -0.354 N 
ATOM     44  C   UNL A   1      41.351  30.505  32.897  1.00  0.00     0.074 A 
ATOM     45  C   UNL A   1      40.283  31.481  32.841  1.00  0.00     0.031 C 
ATOM     46  C   UNL A   1      40.170  26.848  27.732  1.00  0.00     0.029 A 
ATOM     47  C   UNL A   1      41.285  26.728  28.665  1.00  0.00     0.049 A 
ATOM     48  H   UNL A   1      41.657  27.897  30.351  1.00  0.00     0.167 HD
ATOM     49  C   UNL A   1      42.323  30.482  33.844  1.00  0.00     0.034 A 
ATOM     50  C   UNL A   1      42.276  25.820  28.583  1.00  0.00     0.034 A 
ATOM     51  C   UNL A   1      43.378  29.497  33.888  1.00  0.00     0.049 A 
ATOM     52  C   UNL A   1      43.332  25.800  29.658  1.00  0.00     0.074 A 
ATOM     53  C   UNL A   1      44.383  29.345  34.828  1.00  0.00     0.029 A 
ATOM     54  N   UNL A   1      43.571  28.496  32.941  1.00  0.00    -0.354 N 
ATOM     55  N   UNL A   1      43.472  26.593  30.696  1.00  0.00    -0.248 NA
ATOM     56  C   UNL A   1      44.349  24.747  29.559  1.00  0.00     0.031 C 
ATOM     57  C   UNL A   1      45.215  28.295  34.420  1.00  0.00     0.029 A 
ATOM     58  C   UNL A   1      44.692  27.742  33.262  1.00  0.00     0.049 A 
ATOM     59  H   UNL A   1      42.996  28.344  32.157  1.00  0.00     0.167 HD
ATOM     60  C   UNL A   1      44.584  26.119  31.386  1.00  0.00     0.074 A 
ATOM     61  C   UNL A   1      45.054  24.955  30.661  1.00  0.00     0.031 C 
ATOM     62  C   UNL A   1      45.166  26.601  32.514  1.00  0.00     0.034 A 
BRANCH  49  63
ATOM     63  C   UNL A   1      42.295  31.572  34.892  1.00  0.00     0.023 A 
ATOM     64  C   UNL A   1      41.340  31.583  35.923  1.00  0.00     0.031 A 
ATOM     65  C   UNL A   1      43.216  32.635  34.841  1.00  0.00     0.131 A 
ATOM     66  C   UNL A   1      41.272  32.669  36.809  1.00  0.00     0.055 A 
ATOM     67  C   UNL A   1      43.196  33.673  35.777  1.00  0.00     0.041 A 
ATOM     68  F   UNL A   1      44.141  32.693  33.871  1.00  0.00    -0.206 F 
ATOM     69  C   UNL A   1      42.210  33.703  36.758  1.00  0.00     0.022 A 
BRANCH  66  70
ATOM     70  S   UNL A   1      39.852  32.786  37.933  1.00  0.00     0.124 S 
ATOM     71  O   UNL A   1      38.954  31.777  37.377  1.00  0.00    -0.237 OA
ATOM     72  O   UNL A   1      40.448  32.470  39.226  1.00  0.00    -0.237 OA
ATOM     73  O   UNL A   1      39.401  34.167  37.774  1.00  0.00    -0.744 OA
ENDBRANCH  66  70
ENDBRANCH  49  63
BRANCH  50  74
ATOM     74  C   UNL A   1      42.315  24.847  27.456  1.00  0.00     0.023 A 
ATOM     75  C   UNL A   1      41.545  23.673  27.485  1.00  0.00     0.031 A 
ATOM     76  C   UNL A   1      43.150  25.062  26.345  1.00  0.00     0.131 A 
ATOM     77  C   UNL A   1      41.660  22.736  26.447  1.00  0.00     0.055 A 
ATOM     78  C   UNL A   1      43.223  24.151  25.291  1.00  0.00     0.041 A 
ATOM     79  F   UNL A   1      43.897  26.174  26.263  1.00  0.00    -0.206 F 
ATOM     80  C   UNL A   1      42.485  22.973  25.345  1.00  0.00     0.022 A 
BRANCH  77  81
ATOM     81  S   UNL A   1      40.766  21.164  26.593  1.00  0.00     0.124 S 
ATOM     82  O   UNL A   1      41.610  20.267  25.814  1.00  0.00    -0.237 OA
ATOM     83  O   UNL A   1      40.763  20.951  28.037  1.00  0.00    -0.237 OA
ATOM     84  O   UNL A   1      39.461  21.460  26.008  1.00  0.00    -0.744 OA
ENDBRANCH  77  81
ENDBRANCH  50  74
BRANCH  62  85
ATOM     85  C   UNL A   1      46.365  25.842  33.030  1.00  0.00     0.023 A 
ATOM     86  C   UNL A   1      47.665  26.115  32.565  1.00  0.00     0.031 A 
ATOM     87  C   UNL A   1      46.201  24.798  33.957  1.00  0.00     0.131 A 
ATOM     88  C   UNL A   1      48.735  25.301  32.964  1.00  0.00     0.055 A 
ATOM     89  C   UNL A   1      47.281  24.034  34.403  1.00  0.00     0.041 A 
ATOM     90  F   UNL A   1      44.984  24.491  34.434  1.00  0.00    -0.206 F 
ATOM     91  C   UNL A   1      48.555  24.272  33.892  1.00  0.00     0.022 A 
BRANCH  88  92
ATOM     92  S   UNL A   1      50.343  25.522  32.152  1.00  0.00     0.124 S 
ATOM     93  O   UNL A   1      50.104  26.699  31.323  1.00  0.00    -0.237 OA
ATOM     94  O   UNL A   1      51.241  25.713  33.286  1.00  0.00    -0.237 OA
ATOM     95  O   UNL A   1      50.529  24.273  31.417  1.00  0.00    -0.744 OA
ENDBRANCH  88  92
ENDBRANCH  62  85
ENDBRANCH  36  37
ENDBRANCH  28  31
ENDBRANCH  26  27
ENDBRANCH  25  26
ENDBRANCH  24  25
ENDBRANCH   1  24
TORSDOF 20
ENDMDL
MODEL 3
REMARK VINA RESULT:     -10.7      2.770      8.496
REMARK SMILES CCc1cc(OCc2cccc(C)n2)c(C(=O)NCCCCCCNC(=O)c2ccc(-c3c4nc(c(-c5cc(S(=O)(=O)[O-])ccc5F)c5ccc([nH]5)c(-c5cc(S(=O)(=O)[O-])ccc5F)c5nc(c(-c6cc(S(=O)(=O)[O-])ccc6F)c6ccc3[nH]6)C=C5)C=C4)cc2)s1
REMARK SMILES IDX 21 1 20 2 19 3 18 4 16 5 17 6 15 8 3 9 4 10 91 11 5 12 2 13
REMARK SMILES IDX 1 14 6 15 7 16 8 17 9 18 14 19 10 20 12 21 11 22 13 23 22 24
REMARK SMILES IDX 23 25 24 26 25 27 26 28 27 30 28 31 29 32 90 33 30 34 89 35
REMARK SMILES IDX 31 36 32 37 33 38 83 39 34 40 88 41 82 42 84 43 35 44 87 45
REMARK SMILES IDX 81 46 80 47 36 49 68 50 48 51 67 52 49 53 52 54 66 55 85 56
REMARK SMILES IDX 50 57 51 58 65 60 86 61 53 62 37 63 38 64 46 65 39 66 45 67
REMARK SMILES IDX 47 68 44 69 40 70 41 71 42 72 43 73 69 74 70 75 78 76 71 77
REMARK SMILES IDX 77 78 79 79 76 80 72 81 73 82 74 83 75 84 54 85 55 86 63 87
REMARK SMILES IDX 56 88 62 89 64 90 61 91 57 92 58 93 59 94 60 95
REMARK H PARENT 18 7 25 29 84 48 52 59
REMARK Flexibility Score: inf
ROOT
ATOM      1  C   UNL A   1      32.450  29.901  26.248  1.00  0.00     0.002 C 
ENDROOT
BRANCH   1   2
ATOM      2  C   UNL A   1      31.994  28.879  27.297  1.00  0.00     0.021 C 
BRANCH   2   3
ATOM      3  C   UNL A   1      32.215  27.429  26.868  1.00  0.00     0.116 C 
BRANCH   3   4
ATOM      4  N   UNL A   1      30.984  26.684  26.918  1.00  0.00    -0.351 N 
ATOM      5  C   UNL A   1      30.444  25.754  26.069  1.00  0.00     0.265 C 
ATOM      6  O   UNL A   1      29.389  25.259  26.490  1.00  0.00    -0.268 OA
ATOM      7  H   UNL A   1      30.429  26.877  27.708  1.00  0.00     0.163 HD
BRANCH   5   8
ATOM      8  C   UNL A   1      31.047  25.340  24.802  1.00  0.00     0.134 A 
ATOM      9  C   UNL A   1      32.342  25.642  22.673  1.00  0.00     0.009 A 
ATOM     10  C   UNL A   1      32.258  24.330  23.078  1.00  0.00     0.062 A 
ATOM     11  S   UNL A   1      31.552  26.660  23.785  1.00  0.00    -0.131 S 
ATOM     12  C   UNL A   1      31.346  24.144  24.164  1.00  0.00     0.143 A 
BRANCH   9  13
ATOM     13  C   UNL A   1      32.959  26.149  21.402  1.00  0.00     0.043 C 
ATOM     14  C   UNL A   1      32.537  25.421  20.139  1.00  0.00     0.010 C 
ENDBRANCH   9  13
BRANCH  12  15
ATOM     15  O   UNL A   1      30.987  22.916  24.601  1.00  0.00    -0.486 OA
BRANCH  15  16
ATOM     16  C   UNL A   1      31.796  22.358  25.673  1.00  0.00     0.285 C 
BRANCH  16  17
ATOM     17  C   UNL A   1      33.114  21.624  25.454  1.00  0.00     0.078 A 
ATOM     18  C   UNL A   1      34.339  22.282  25.568  1.00  0.00     0.027 A 
ATOM     19  N   UNL A   1      33.038  20.324  25.071  1.00  0.00    -0.255 NA
ATOM     20  C   UNL A   1      35.514  21.565  25.373  1.00  0.00     0.004 A 
ATOM     21  C   UNL A   1      34.189  19.655  24.819  1.00  0.00     0.038 A 
ATOM     22  C   UNL A   1      35.442  20.234  24.984  1.00  0.00     0.023 A 
ATOM     23  C   UNL A   1      34.063  18.276  24.243  1.00  0.00     0.067 C 
ENDBRANCH  16  17
ENDBRANCH  15  16
ENDBRANCH  12  15
ENDBRANCH   5   8
ENDBRANCH   3   4
ENDBRANCH   2   3
ENDBRANCH   1   2
BRANCH   1  24
ATOM     24  C   UNL A   1      31.363  30.879  25.784  1.00  0.00     0.002 C 
BRANCH  24  25
ATOM     25  C   UNL A   1      31.291  32.198  26.563  1.00  0.00     0.021 C 
BRANCH  25  26
ATOM     26  C   UNL A   1      32.600  32.625  27.223  1.00  0.00     0.116 C 
BRANCH  26  27
ATOM     27  N   UNL A   1      32.575  34.027  27.607  1.00  0.00    -0.352 N 
ATOM     28  C   UNL A   1      33.237  34.673  28.616  1.00  0.00     0.251 C 
ATOM     29  H   UNL A   1      31.993  34.599  27.058  1.00  0.00     0.163 HD
ATOM     30  O   UNL A   1      32.884  35.812  28.930  1.00  0.00    -0.269 OA
BRANCH  28  31
ATOM     31  C   UNL A   1      34.355  34.023  29.335  1.00  0.00     0.039 A 
ATOM     32  C   UNL A   1      34.060  33.127  30.366  1.00  0.00     0.014 A 
ATOM     33  C   UNL A   1      35.689  34.328  29.038  1.00  0.00     0.014 A 
ATOM     34  C   UNL A   1      35.095  32.511  31.072  1.00  0.00     0.010 A 
ATOM     35  C   UNL A   1      36.722  33.662  29.699  1.00  0.00     0.010 A 
ATOM     36  C   UNL A   1      36.436  32.756  30.731  1.00  0.00    -0.014 A 
BRANCH  36  37
ATOM     37  C   UNL A   1      37.535  32.067  31.457  1.00  0.00     0.031 A 
ATOM     38  C   UNL A   1      38.312  30.959  30.797  1.00  0.00     0.074 A 
ATOM     39  C   UNL A   1      37.816  32.428  32.724  1.00  0.00     0.049 A 
ATOM     40  N   UNL A   1      39.316  30.261  31.263  1.00  0.00    -0.248 NA
ATOM     41  C   UNL A   1      37.884  30.566  29.447  1.00  0.00     0.031 C 
ATOM     42  C   UNL A   1      37.092  33.446  33.489  1.00  0.00     0.029 A 
ATOM     43  N   UNL A   1      38.782  31.987  33.592  1.00  0.00    -0.354 N 
ATOM     44  C   UNL A   1      39.636  29.343  30.267  1.00  0.00     0.074 A 
ATOM     45  C   UNL A   1      38.676  29.533  29.202  1.00  0.00     0.031 C 
ATOM     46  C   UNL A   1      37.661  33.575  34.698  1.00  0.00     0.029 A 
ATOM     47  C   UNL A   1      38.768  32.631  34.807  1.00  0.00     0.049 A 
ATOM     48  H   UNL A   1      39.423  31.276  33.365  1.00  0.00     0.167 HD
ATOM     49  C   UNL A   1      40.652  28.442  30.237  1.00  0.00     0.034 A 
ATOM     50  C   UNL A   1      39.563  32.483  35.885  1.00  0.00     0.034 A 
ATOM     51  C   UNL A   1      41.605  28.269  31.307  1.00  0.00     0.049 A 
ATOM     52  C   UNL A   1      40.696  31.492  35.818  1.00  0.00     0.074 A 
ATOM     53  C   UNL A   1      42.703  27.427  31.362  1.00  0.00     0.029 A 
ATOM     54  N   UNL A   1      41.569  28.948  32.521  1.00  0.00    -0.354 N 
ATOM     55  N   UNL A   1      41.028  30.677  34.843  1.00  0.00    -0.248 NA
ATOM     56  C   UNL A   1      41.572  31.419  36.993  1.00  0.00     0.031 C 
ATOM     57  C   UNL A   1      43.292  27.552  32.627  1.00  0.00     0.029 A 
ATOM     58  C   UNL A   1      42.608  28.525  33.338  1.00  0.00     0.049 A 
ATOM     59  H   UNL A   1      40.903  29.631  32.765  1.00  0.00     0.167 HD
ATOM     60  C   UNL A   1      42.168  30.009  35.280  1.00  0.00     0.074 A 
ATOM     61  C   UNL A   1      42.480  30.540  36.592  1.00  0.00     0.031 C 
ATOM     62  C   UNL A   1      42.891  29.043  34.657  1.00  0.00     0.034 A 
BRANCH  49  63
ATOM     63  C   UNL A   1      40.759  27.562  29.011  1.00  0.00     0.023 A 
ATOM     64  C   UNL A   1      41.713  27.807  28.007  1.00  0.00     0.031 A 
ATOM     65  C   UNL A   1      39.876  26.483  28.826  1.00  0.00     0.131 A 
ATOM     66  C   UNL A   1      41.709  27.040  26.831  1.00  0.00     0.055 A 
ATOM     67  C   UNL A   1      39.931  25.671  27.691  1.00  0.00     0.041 A 
ATOM     68  F   UNL A   1      38.931  26.208  29.739  1.00  0.00    -0.206 F 
ATOM     69  C   UNL A   1      40.840  25.958  26.677  1.00  0.00     0.022 A 
BRANCH  66  70
ATOM     70  S   UNL A   1      42.754  27.570  25.446  1.00  0.00     0.124 S 
ATOM     71  O   UNL A   1      43.990  27.934  26.134  1.00  0.00    -0.237 OA
ATOM     72  O   UNL A   1      42.812  26.370  24.619  1.00  0.00    -0.237 OA
ATOM     73  O   UNL A   1      42.017  28.691  24.868  1.00  0.00    -0.744 OA
ENDBRANCH  66  70
ENDBRANCH  49  63
BRANCH  50  74
ATOM     74  C   UNL A   1      39.330  33.296  37.111  1.00  0.00     0.023 A 
ATOM     75  C   UNL A   1      39.988  34.521  37.304  1.00  0.00     0.031 A 
ATOM     76  C   UNL A   1      38.466  32.842  38.124  1.00  0.00     0.131 A 
ATOM     77  C   UNL A   1      39.809  35.228  38.503  1.00  0.00     0.055 A 
ATOM     78  C   UNL A   1      38.254  33.574  39.293  1.00  0.00     0.041 A 
ATOM     79  F   UNL A   1      37.804  31.683  37.983  1.00  0.00    -0.206 F 
ATOM     80  C   UNL A   1      38.938  34.768  39.493  1.00  0.00     0.022 A 
BRANCH  77  81
ATOM     81  S   UNL A   1      40.792  36.727  38.781  1.00  0.00     0.124 S 
ATOM     82  O   UNL A   1      41.512  36.391  40.003  1.00  0.00    -0.237 OA
ATOM     83  O   UNL A   1      41.592  36.795  37.561  1.00  0.00    -0.237 OA
ATOM     84  O   UNL A   1      39.782  37.774  38.918  1.00  0.00    -0.744 OA
ENDBRANCH  77  81
ENDBRANCH  50  74
BRANCH  62  85
ATOM     85  C   UNL A   1      44.101  28.525  35.396  1.00  0.00     0.023 A 
ATOM     86  C   UNL A   1      44.008  27.448  36.296  1.00  0.00     0.031 A 
ATOM     87  C   UNL A   1      45.350  29.151  35.241  1.00  0.00     0.131 A 
ATOM     88  C   UNL A   1      45.122  27.082  37.066  1.00  0.00     0.055 A 
ATOM     89  C   UNL A   1      46.473  28.737  35.961  1.00  0.00     0.041 A 
ATOM     90  F   UNL A   1      45.499  30.185  34.398  1.00  0.00    -0.206 F 
ATOM     91  C   UNL A   1      46.358  27.709  36.894  1.00  0.00     0.022 A 
BRANCH  88  92
ATOM     92  S   UNL A   1      44.898  25.862  38.391  1.00  0.00     0.124 S 
ATOM     93  O   UNL A   1      46.276  25.566  38.767  1.00  0.00    -0.237 OA
ATOM     94  O   UNL A   1      44.114  26.607  39.370  1.00  0.00    -0.237 OA
ATOM     95  O   UNL A   1      44.187  24.768  37.732  1.00  0.00    -0.744 OA
ENDBRANCH  88  92
ENDBRANCH  62  85
ENDBRANCH  36  37
ENDBRANCH  28  31
ENDBRANCH  26  27
ENDBRANCH  25  26
ENDBRANCH  24  25
ENDBRANCH   1  24
TORSDOF 20
ENDMDL
