MODEL 1
REMARK VINA RESULT:     -11.7      0.000      0.000
REMARK SMILES O=C(CCc1cccnc1)Nc1cccc(F)c1C(=O)NCCCCCCNC(=O)c1ccc(-c2c3nc(c(-c4cc(S(=O)(=O)[O-])ccc4F)c4ccc([nH]4)c(-c4cc(S(=O)(=O)[O-])ccc4F)c4nc(c(-c5cc(S(=O)(=O)[O-])ccc5F)c5ccc2[nH]5)C=C4)C=C3)cc1
REMARK SMILES IDX 24 1 23 2 22 3 21 4 19 5 20 6 18 8 12 9 13 10 14 11 16 12
REMARK SMILES IDX 15 13 17 14 11 15 1 16 2 17 3 19 4 20 5 21 6 22 10 23 7 24
REMARK SMILES IDX 9 25 8 26 25 27 26 28 27 29 28 30 29 31 30 33 31 34 32 35
REMARK SMILES IDX 93 36 33 37 92 38 34 39 35 40 36 41 86 42 37 43 91 44 85 45
REMARK SMILES IDX 87 46 38 47 90 48 84 49 83 50 39 52 71 53 51 54 70 55 52 56
REMARK SMILES IDX 55 57 69 58 88 59 53 60 54 61 68 63 89 64 56 65 40 66 41 67
REMARK SMILES IDX 49 68 42 69 48 70 50 71 47 72 43 73 44 74 45 75 46 76 72 77
REMARK SMILES IDX 73 78 81 79 74 80 80 81 82 82 79 83 75 84 76 85 77 86 78 87
REMARK SMILES IDX 57 88 58 89 66 90 59 91 65 92 67 93 64 94 60 95 61 96 62 97
REMARK SMILES IDX 63 98
REMARK H PARENT 21 7 11 18 28 32 87 51 55 62
REMARK Flexibility Score: inf
ROOT
ATOM      1  C   UNL A   1      33.165  29.305  26.774  1.00  0.00     0.002 C 
ENDROOT
BRANCH   1   2
ATOM      2  C   UNL A   1      33.627  28.336  25.684  1.00  0.00     0.021 C 
BRANCH   2   3
ATOM      3  C   UNL A   1      33.649  26.845  26.016  1.00  0.00     0.116 C 
BRANCH   3   4
ATOM      4  N   UNL A   1      32.361  26.268  26.356  1.00  0.00    -0.352 N 
ATOM      5  C   UNL A   1      31.869  24.986  26.223  1.00  0.00     0.256 C 
ATOM      6  O   UNL A   1      30.785  24.747  26.762  1.00  0.00    -0.269 OA
ATOM      7  H   UNL A   1      31.725  26.904  26.752  1.00  0.00     0.163 HD
BRANCH   5   8
ATOM      8  C   UNL A   1      32.492  23.910  25.391  1.00  0.00     0.099 A 
ATOM      9  C   UNL A   1      32.415  23.979  23.971  1.00  0.00     0.056 A 
ATOM     10  C   UNL A   1      33.144  23.062  23.195  1.00  0.00     0.027 A 
ATOM     11  C   UNL A   1      33.866  22.031  23.789  1.00  0.00     0.005 A 
ATOM     12  C   UNL A   1      33.105  22.784  25.946  1.00  0.00     0.138 A 
ATOM     13  C   UNL A   1      33.813  21.869  25.166  1.00  0.00     0.040 A 
ATOM     14  F   UNL A   1      32.978  22.486  27.246  1.00  0.00    -0.206 F 
BRANCH   9  15
ATOM     15  N   UNL A   1      31.592  24.957  23.344  1.00  0.00    -0.325 N 
ATOM     16  O   UNL A   1      33.182  26.427  22.529  1.00  0.00    -0.275 OA
ATOM     17  C   UNL A   1      32.005  26.114  22.720  1.00  0.00     0.224 C 
ATOM     18  H   UNL A   1      30.622  24.789  23.358  1.00  0.00     0.169 HD
BRANCH  17  19
ATOM     19  C   UNL A   1      30.922  27.105  22.299  1.00  0.00     0.105 C 
BRANCH  19  20
ATOM     20  C   UNL A   1      29.737  27.358  23.227  1.00  0.00     0.047 C 
BRANCH  20  21
ATOM     21  C   UNL A   1      29.132  28.740  23.238  1.00  0.00    -0.029 A 
ATOM     22  C   UNL A   1      29.833  29.904  23.564  1.00  0.00     0.007 A 
ATOM     23  C   UNL A   1      27.774  28.884  22.948  1.00  0.00     0.114 A 
ATOM     24  C   UNL A   1      29.154  31.116  23.668  1.00  0.00     0.020 A 
ATOM     25  N   UNL A   1      27.097  30.053  23.007  1.00  0.00    -0.264 NA
ATOM     26  C   UNL A   1      27.799  31.136  23.392  1.00  0.00     0.111 A 
ENDBRANCH  20  21
ENDBRANCH  19  20
ENDBRANCH  17  19
ENDBRANCH   9  15
ENDBRANCH   5   8
ENDBRANCH   3   4
ENDBRANCH   2   3
ENDBRANCH   1   2
BRANCH   1  27
ATOM     27  C   UNL A   1      31.772  29.920  26.621  1.00  0.00     0.002 C 
BRANCH  27  28
ATOM     28  C   UNL A   1      31.673  31.442  26.728  1.00  0.00     0.021 C 
BRANCH  28  29
ATOM     29  C   UNL A   1      32.925  32.165  27.218  1.00  0.00     0.116 C 
BRANCH  29  30
ATOM     30  N   UNL A   1      32.676  33.554  27.564  1.00  0.00    -0.352 N 
ATOM     31  C   UNL A   1      33.258  34.332  28.539  1.00  0.00     0.251 C 
ATOM     32  H   UNL A   1      31.991  34.005  27.021  1.00  0.00     0.163 HD
ATOM     33  O   UNL A   1      32.800  35.440  28.786  1.00  0.00    -0.269 OA
BRANCH  31  34
ATOM     34  C   UNL A   1      34.414  33.815  29.309  1.00  0.00     0.039 A 
ATOM     35  C   UNL A   1      34.174  33.050  30.454  1.00  0.00     0.014 A 
ATOM     36  C   UNL A   1      35.725  34.078  28.904  1.00  0.00     0.014 A 
ATOM     37  C   UNL A   1      35.249  32.480  31.144  1.00  0.00     0.010 A 
ATOM     38  C   UNL A   1      36.791  33.453  29.553  1.00  0.00     0.010 A 
ATOM     39  C   UNL A   1      36.562  32.637  30.672  1.00  0.00    -0.014 A 
BRANCH  39  40
ATOM     40  C   UNL A   1      37.702  31.928  31.311  1.00  0.00     0.031 A 
ATOM     41  C   UNL A   1      38.160  32.307  32.692  1.00  0.00     0.074 A 
ATOM     42  C   UNL A   1      38.357  30.971  30.624  1.00  0.00     0.049 A 
ATOM     43  N   UNL A   1      39.183  31.859  33.374  1.00  0.00    -0.248 NA
ATOM     44  C   UNL A   1      37.378  33.339  33.390  1.00  0.00     0.031 C 
ATOM     45  C   UNL A   1      38.017  30.519  29.272  1.00  0.00     0.029 A 
ATOM     46  N   UNL A   1      39.442  30.201  30.964  1.00  0.00    -0.354 N 
ATOM     47  C   UNL A   1      39.167  32.548  34.581  1.00  0.00     0.074 A 
ATOM     48  C   UNL A   1      38.066  33.487  34.513  1.00  0.00     0.031 C 
ATOM     49  C   UNL A   1      38.847  29.527  28.917  1.00  0.00     0.029 A 
ATOM     50  C   UNL A   1      39.815  29.307  29.987  1.00  0.00     0.049 A 
ATOM     51  H   UNL A   1      39.910  30.281  31.827  1.00  0.00     0.167 HD
ATOM     52  C   UNL A   1      39.979  32.395  35.655  1.00  0.00     0.034 A 
ATOM     53  C   UNL A   1      40.826  28.417  29.947  1.00  0.00     0.034 A 
ATOM     54  C   UNL A   1      41.071  31.454  35.713  1.00  0.00     0.049 A 
ATOM     55  C   UNL A   1      41.756  28.310  31.126  1.00  0.00     0.074 A 
ATOM     56  C   UNL A   1      41.941  31.213  36.762  1.00  0.00     0.029 A 
ATOM     57  N   UNL A   1      41.444  30.601  34.685  1.00  0.00    -0.354 N 
ATOM     58  N   UNL A   1      41.736  28.982  32.253  1.00  0.00    -0.248 NA
ATOM     59  C   UNL A   1      42.845  27.328  31.029  1.00  0.00     0.031 C 
ATOM     60  C   UNL A   1      42.878  30.263  36.347  1.00  0.00     0.029 A 
ATOM     61  C   UNL A   1      42.546  29.851  35.067  1.00  0.00     0.049 A 
ATOM     62  H   UNL A   1      40.993  30.535  33.812  1.00  0.00     0.167 HD
ATOM     63  C   UNL A   1      42.790  28.483  33.011  1.00  0.00     0.074 A 
ATOM     64  C   UNL A   1      43.427  27.455  32.213  1.00  0.00     0.031 C 
ATOM     65  C   UNL A   1      43.184  28.836  34.260  1.00  0.00     0.034 A 
BRANCH  52  66
ATOM     66  C   UNL A   1      39.727  33.275  36.853  1.00  0.00     0.023 A 
ATOM     67  C   UNL A   1      38.982  32.818  37.954  1.00  0.00     0.031 A 
ATOM     68  C   UNL A   1      40.260  34.575  36.908  1.00  0.00     0.131 A 
ATOM     69  C   UNL A   1      38.754  33.669  39.044  1.00  0.00     0.055 A 
ATOM     70  C   UNL A   1      40.085  35.394  38.025  1.00  0.00     0.041 A 
ATOM     71  F   UNL A   1      40.965  35.068  35.878  1.00  0.00    -0.206 F 
ATOM     72  C   UNL A   1      39.322  34.945  39.099  1.00  0.00     0.022 A 
BRANCH  69  73
ATOM     73  S   UNL A   1      37.631  33.119  40.356  1.00  0.00     0.124 S 
ATOM     74  O   UNL A   1      38.328  31.941  40.866  1.00  0.00    -0.237 OA
ATOM     75  O   UNL A   1      37.592  34.273  41.246  1.00  0.00    -0.237 OA
ATOM     76  O   UNL A   1      36.385  32.840  39.645  1.00  0.00    -0.744 OA
ENDBRANCH  69  73
ENDBRANCH  52  66
BRANCH  53  77
ATOM     77  C   UNL A   1      41.005  27.551  28.749  1.00  0.00     0.023 A 
ATOM     78  C   UNL A   1      41.998  27.837  27.799  1.00  0.00     0.031 A 
ATOM     79  C   UNL A   1      40.201  26.416  28.546  1.00  0.00     0.131 A 
ATOM     80  C   UNL A   1      42.151  27.005  26.679  1.00  0.00     0.055 A 
ATOM     81  C   UNL A   1      40.383  25.570  27.451  1.00  0.00     0.041 A 
ATOM     82  F   UNL A   1      39.243  26.097  29.432  1.00  0.00    -0.206 F 
ATOM     83  C   UNL A   1      41.360  25.867  26.507  1.00  0.00     0.022 A 
BRANCH  80  84
ATOM     84  S   UNL A   1      43.391  27.446  25.430  1.00  0.00     0.124 S 
ATOM     85  O   UNL A   1      44.131  28.503  26.108  1.00  0.00    -0.237 OA
ATOM     86  O   UNL A   1      44.098  26.183  25.243  1.00  0.00    -0.237 OA
ATOM     87  O   UNL A   1      42.585  27.878  24.290  1.00  0.00    -0.744 OA
ENDBRANCH  80  84
ENDBRANCH  53  77
BRANCH  65  88
ATOM     88  C   UNL A   1      44.335  28.079  34.869  1.00  0.00     0.023 A 
ATOM     89  C   UNL A   1      44.160  26.822  35.472  1.00  0.00     0.031 A 
ATOM     90  C   UNL A   1      45.638  28.608  34.803  1.00  0.00     0.131 A 
ATOM     91  C   UNL A   1      45.266  26.148  36.012  1.00  0.00     0.055 A 
ATOM     92  C   UNL A   1      46.740  27.910  35.296  1.00  0.00     0.041 A 
ATOM     93  F   UNL A   1      45.859  29.805  34.236  1.00  0.00    -0.206 F 
ATOM     94  C   UNL A   1      46.556  26.675  35.911  1.00  0.00     0.022 A 
BRANCH  91  95
ATOM     95  S   UNL A   1      44.992  24.586  36.890  1.00  0.00     0.124 S 
ATOM     96  O   UNL A   1      43.983  23.942  36.055  1.00  0.00    -0.237 OA
ATOM     97  O   UNL A   1      46.318  23.976  36.872  1.00  0.00    -0.237 OA
ATOM     98  O   UNL A   1      44.526  25.010  38.209  1.00  0.00    -0.744 OA
ENDBRANCH  91  95
ENDBRANCH  65  88
ENDBRANCH  39  40
ENDBRANCH  31  34
ENDBRANCH  29  30
ENDBRANCH  28  29
ENDBRANCH  27  28
ENDBRANCH   1  27
TORSDOF 20
ENDMDL
MODEL 2
REMARK VINA RESULT:     -11.6      0.878      7.615
REMARK SMILES O=C(CCc1cccnc1)Nc1cccc(F)c1C(=O)NCCCCCCNC(=O)c1ccc(-c2c3nc(c(-c4cc(S(=O)(=O)[O-])ccc4F)c4ccc([nH]4)c(-c4cc(S(=O)(=O)[O-])ccc4F)c4nc(c(-c5cc(S(=O)(=O)[O-])ccc5F)c5ccc2[nH]5)C=C4)C=C3)cc1
REMARK SMILES IDX 24 1 23 2 22 3 21 4 19 5 20 6 18 8 12 9 13 10 14 11 16 12
REMARK SMILES IDX 15 13 17 14 11 15 1 16 2 17 3 19 4 20 5 21 6 22 10 23 7 24
REMARK SMILES IDX 9 25 8 26 25 27 26 28 27 29 28 30 29 31 30 33 31 34 32 35
REMARK SMILES IDX 93 36 33 37 92 38 34 39 35 40 36 41 86 42 37 43 91 44 85 45
REMARK SMILES IDX 87 46 38 47 90 48 84 49 83 50 39 52 71 53 51 54 70 55 52 56
REMARK SMILES IDX 55 57 69 58 88 59 53 60 54 61 68 63 89 64 56 65 40 66 41 67
REMARK SMILES IDX 49 68 42 69 48 70 50 71 47 72 43 73 44 74 45 75 46 76 72 77
REMARK SMILES IDX 73 78 81 79 74 80 80 81 82 82 79 83 75 84 76 85 77 86 78 87
REMARK SMILES IDX 57 88 58 89 66 90 59 91 65 92 67 93 64 94 60 95 61 96 62 97
REMARK SMILES IDX 63 98
REMARK H PARENT 21 7 11 18 28 32 87 51 55 62
REMARK Flexibility Score: inf
ROOT
ATOM      1  C   UNL A   1      33.252  29.326  26.756  1.00  0.00     0.002 C 
ENDROOT
BRANCH   1   2
ATOM      2  C   UNL A   1      33.588  28.321  25.652  1.00  0.00     0.021 C 
BRANCH   2   3
ATOM      3  C   UNL A   1      33.606  26.838  26.018  1.00  0.00     0.116 C 
BRANCH   3   4
ATOM      4  N   UNL A   1      32.323  26.280  26.404  1.00  0.00    -0.352 N 
ATOM      5  C   UNL A   1      31.733  25.066  26.126  1.00  0.00     0.256 C 
ATOM      6  O   UNL A   1      30.695  24.798  26.739  1.00  0.00    -0.269 OA
ATOM      7  H   UNL A   1      31.776  26.875  26.965  1.00  0.00     0.163 HD
BRANCH   5   8
ATOM      8  C   UNL A   1      32.191  24.110  25.070  1.00  0.00     0.099 A 
ATOM      9  C   UNL A   1      31.871  24.357  23.705  1.00  0.00     0.056 A 
ATOM     10  C   UNL A   1      32.445  23.553  22.705  1.00  0.00     0.027 A 
ATOM     11  C   UNL A   1      33.249  22.464  23.031  1.00  0.00     0.005 A 
ATOM     12  C   UNL A   1      32.880  22.930  25.365  1.00  0.00     0.138 A 
ATOM     13  C   UNL A   1      33.432  22.130  24.364  1.00  0.00     0.040 A 
ATOM     14  F   UNL A   1      32.976  22.470  26.619  1.00  0.00    -0.206 F 
BRANCH   9  15
ATOM     15  N   UNL A   1      30.962  25.396  23.358  1.00  0.00    -0.325 N 
ATOM     16  O   UNL A   1      32.407  26.997  22.523  1.00  0.00    -0.275 OA
ATOM     17  C   UNL A   1      31.274  26.637  22.848  1.00  0.00     0.224 C 
ATOM     18  H   UNL A   1      30.006  25.207  23.498  1.00  0.00     0.169 HD
BRANCH  17  19
ATOM     19  C   UNL A   1      30.141  27.655  22.744  1.00  0.00     0.105 C 
BRANCH  19  20
ATOM     20  C   UNL A   1      30.207  28.936  23.572  1.00  0.00     0.047 C 
BRANCH  20  21
ATOM     21  C   UNL A   1      29.516  30.163  23.028  1.00  0.00    -0.029 A 
ATOM     22  C   UNL A   1      29.061  31.224  23.815  1.00  0.00     0.007 A 
ATOM     23  C   UNL A   1      29.266  30.243  21.657  1.00  0.00     0.114 A 
ATOM     24  C   UNL A   1      28.324  32.252  23.232  1.00  0.00     0.020 A 
ATOM     25  N   UNL A   1      28.582  31.246  21.060  1.00  0.00    -0.264 NA
ATOM     26  C   UNL A   1      28.105  32.212  21.867  1.00  0.00     0.111 A 
ENDBRANCH  20  21
ENDBRANCH  19  20
ENDBRANCH  17  19
ENDBRANCH   9  15
ENDBRANCH   5   8
ENDBRANCH   3   4
ENDBRANCH   2   3
ENDBRANCH   1   2
BRANCH   1  27
ATOM     27  C   UNL A   1      31.867  29.975  26.715  1.00  0.00     0.002 C 
BRANCH  27  28
ATOM     28  C   UNL A   1      31.821  31.504  26.688  1.00  0.00     0.021 C 
BRANCH  28  29
ATOM     29  C   UNL A   1      32.945  32.224  27.427  1.00  0.00     0.116 C 
BRANCH  29  30
ATOM     30  N   UNL A   1      32.656  33.628  27.665  1.00  0.00    -0.352 N 
ATOM     31  C   UNL A   1      33.220  34.499  28.569  1.00  0.00     0.251 C 
ATOM     32  H   UNL A   1      31.952  34.014  27.095  1.00  0.00     0.163 HD
ATOM     33  O   UNL A   1      32.730  35.608  28.732  1.00  0.00    -0.269 OA
BRANCH  31  34
ATOM     34  C   UNL A   1      34.398  34.080  29.365  1.00  0.00     0.039 A 
ATOM     35  C   UNL A   1      34.194  33.360  30.545  1.00  0.00     0.014 A 
ATOM     36  C   UNL A   1      35.696  34.391  28.951  1.00  0.00     0.014 A 
ATOM     37  C   UNL A   1      35.293  32.881  31.265  1.00  0.00     0.010 A 
ATOM     38  C   UNL A   1      36.790  33.854  29.631  1.00  0.00     0.010 A 
ATOM     39  C   UNL A   1      36.599  33.083  30.787  1.00  0.00    -0.014 A 
BRANCH  39  40
ATOM     40  C   UNL A   1      37.771  32.465  31.462  1.00  0.00     0.031 A 
ATOM     41  C   UNL A   1      38.494  31.309  30.830  1.00  0.00     0.074 A 
ATOM     42  C   UNL A   1      38.153  32.918  32.674  1.00  0.00     0.049 A 
ATOM     43  N   UNL A   1      39.480  30.592  31.307  1.00  0.00    -0.248 NA
ATOM     44  C   UNL A   1      38.038  30.891  29.496  1.00  0.00     0.031 C 
ATOM     45  C   UNL A   1      37.526  34.026  33.398  1.00  0.00     0.029 A 
ATOM     46  N   UNL A   1      39.162  32.508  33.511  1.00  0.00    -0.354 N 
ATOM     47  C   UNL A   1      39.766  29.642  30.333  1.00  0.00     0.074 A 
ATOM     48  C   UNL A   1      38.810  29.838  29.264  1.00  0.00     0.031 C 
ATOM     49  C   UNL A   1      38.188  34.233  34.546  1.00  0.00     0.029 A 
ATOM     50  C   UNL A   1      39.250  33.240  34.672  1.00  0.00     0.049 A 
ATOM     51  H   UNL A   1      39.766  31.759  33.300  1.00  0.00     0.167 HD
ATOM     52  C   UNL A   1      40.749  28.710  30.322  1.00  0.00     0.034 A 
ATOM     53  C   UNL A   1      40.082  33.124  35.726  1.00  0.00     0.034 A 
ATOM     54  C   UNL A   1      41.699  28.526  31.392  1.00  0.00     0.049 A 
ATOM     55  C   UNL A   1      41.125  32.038  35.720  1.00  0.00     0.074 A 
ATOM     56  C   UNL A   1      42.742  27.619  31.467  1.00  0.00     0.029 A 
ATOM     57  N   UNL A   1      41.724  29.257  32.571  1.00  0.00    -0.354 N 
ATOM     58  N   UNL A   1      41.370  31.137  34.798  1.00  0.00    -0.248 NA
ATOM     59  C   UNL A   1      42.002  31.951  36.895  1.00  0.00     0.031 C 
ATOM     60  C   UNL A   1      43.356  27.758  32.715  1.00  0.00     0.029 A 
ATOM     61  C   UNL A   1      42.749  28.805  33.388  1.00  0.00     0.049 A 
ATOM     62  H   UNL A   1      41.106  29.991  32.795  1.00  0.00     0.167 HD
ATOM     63  C   UNL A   1      42.448  30.397  35.268  1.00  0.00     0.074 A 
ATOM     64  C   UNL A   1      42.806  30.953  36.557  1.00  0.00     0.031 C 
ATOM     65  C   UNL A   1      43.092  29.358  34.678  1.00  0.00     0.034 A 
BRANCH  52  66
ATOM     66  C   UNL A   1      40.841  27.806  29.119  1.00  0.00     0.023 A 
ATOM     67  C   UNL A   1      41.818  28.001  28.129  1.00  0.00     0.031 A 
ATOM     68  C   UNL A   1      39.960  26.719  28.974  1.00  0.00     0.131 A 
ATOM     69  C   UNL A   1      41.865  27.150  27.015  1.00  0.00     0.055 A 
ATOM     70  C   UNL A   1      40.054  25.836  27.897  1.00  0.00     0.041 A 
ATOM     71  F   UNL A   1      38.996  26.496  29.882  1.00  0.00    -0.206 F 
ATOM     72  C   UNL A   1      41.005  26.054  26.906  1.00  0.00     0.022 A 
BRANCH  69  73
ATOM     73  S   UNL A   1      43.008  27.546  25.666  1.00  0.00     0.124 S 
ATOM     74  O   UNL A   1      44.036  28.312  26.366  1.00  0.00    -0.237 OA
ATOM     75  O   UNL A   1      43.406  26.227  25.190  1.00  0.00    -0.237 OA
ATOM     76  O   UNL A   1      42.187  28.321  24.737  1.00  0.00    -0.744 OA
ENDBRANCH  69  73
ENDBRANCH  52  66
BRANCH  53  77
ATOM     77  C   UNL A   1      39.964  34.067  36.871  1.00  0.00     0.023 A 
ATOM     78  C   UNL A   1      39.446  33.640  38.104  1.00  0.00     0.031 A 
ATOM     79  C   UNL A   1      40.386  35.404  36.757  1.00  0.00     0.131 A 
ATOM     80  C   UNL A   1      39.347  34.546  39.170  1.00  0.00     0.055 A 
ATOM     81  C   UNL A   1      40.323  36.291  37.833  1.00  0.00     0.041 A 
ATOM     82  F   UNL A   1      40.897  35.857  35.601  1.00  0.00    -0.206 F 
ATOM     83  C   UNL A   1      39.795  35.863  39.047  1.00  0.00     0.022 A 
BRANCH  80  84
ATOM     84  S   UNL A   1      38.600  33.983  40.725  1.00  0.00     0.124 S 
ATOM     85  O   UNL A   1      37.842  35.160  41.133  1.00  0.00    -0.237 OA
ATOM     86  O   UNL A   1      37.817  32.832  40.287  1.00  0.00    -0.237 OA
ATOM     87  O   UNL A   1      39.756  33.663  41.560  1.00  0.00    -0.744 OA
ENDBRANCH  80  84
ENDBRANCH  53  77
BRANCH  65  88
ATOM     88  C   UNL A   1      44.280  28.775  35.396  1.00  0.00     0.023 A 
ATOM     89  C   UNL A   1      44.141  27.765  36.363  1.00  0.00     0.031 A 
ATOM     90  C   UNL A   1      45.580  29.208  35.072  1.00  0.00     0.131 A 
ATOM     91  C   UNL A   1      45.280  27.242  36.994  1.00  0.00     0.055 A 
ATOM     92  C   UNL A   1      46.711  28.649  35.666  1.00  0.00     0.041 A 
ATOM     93  F   UNL A   1      45.768  30.170  34.154  1.00  0.00    -0.206 F 
ATOM     94  C   UNL A   1      46.564  27.664  36.638  1.00  0.00     0.022 A 
BRANCH  91  95
ATOM     95  S   UNL A   1      45.061  26.027  38.322  1.00  0.00     0.124 S 
ATOM     96  O   UNL A   1      44.980  24.775  37.577  1.00  0.00    -0.237 OA
ATOM     97  O   UNL A   1      46.266  26.215  39.124  1.00  0.00    -0.237 OA
ATOM     98  O   UNL A   1      43.818  26.446  38.969  1.00  0.00    -0.744 OA
ENDBRANCH  91  95
ENDBRANCH  65  88
ENDBRANCH  39  40
ENDBRANCH  31  34
ENDBRANCH  29  30
ENDBRANCH  28  29
ENDBRANCH  27  28
ENDBRANCH   1  27
TORSDOF 20
ENDMDL
MODEL 3
REMARK VINA RESULT:     -11.5      5.184      8.266
REMARK SMILES O=C(CCc1cccnc1)Nc1cccc(F)c1C(=O)NCCCCCCNC(=O)c1ccc(-c2c3nc(c(-c4cc(S(=O)(=O)[O-])ccc4F)c4ccc([nH]4)c(-c4cc(S(=O)(=O)[O-])ccc4F)c4nc(c(-c5cc(S(=O)(=O)[O-])ccc5F)c5ccc2[nH]5)C=C4)C=C3)cc1
REMARK SMILES IDX 24 1 23 2 22 3 21 4 19 5 20 6 18 8 12 9 13 10 14 11 16 12
REMARK SMILES IDX 15 13 17 14 11 15 1 16 2 17 3 19 4 20 5 21 6 22 10 23 7 24
REMARK SMILES IDX 9 25 8 26 25 27 26 28 27 29 28 30 29 31 30 33 31 34 32 35
REMARK SMILES IDX 93 36 33 37 92 38 34 39 35 40 36 41 86 42 37 43 91 44 85 45
REMARK SMILES IDX 87 46 38 47 90 48 84 49 83 50 39 52 71 53 51 54 70 55 52 56
REMARK SMILES IDX 55 57 69 58 88 59 53 60 54 61 68 63 89 64 56 65 40 66 41 67
REMARK SMILES IDX 49 68 42 69 48 70 50 71 47 72 43 73 44 74 45 75 46 76 72 77
REMARK SMILES IDX 73 78 81 79 74 80 80 81 82 82 79 83 75 84 76 85 77 86 78 87
REMARK SMILES IDX 57 88 58 89 66 90 59 91 65 92 67 93 64 94 60 95 61 96 62 97
REMARK SMILES IDX 63 98
REMARK H PARENT 21 7 11 18 28 32 87 51 55 62
REMARK Flexibility Score: inf
ROOT
ATOM      1  C   UNL A   1      35.162  24.045  25.254  1.00  0.00     0.002 C 
ENDROOT
BRANCH   1   2
ATOM      2  C   UNL A   1      34.281  25.273  25.017  1.00  0.00     0.021 C 
BRANCH   2   3
ATOM      3  C   UNL A   1      33.464  25.804  26.193  1.00  0.00     0.116 C 
BRANCH   3   4
ATOM      4  N   UNL A   1      32.026  25.805  25.997  1.00  0.00    -0.352 N 
ATOM      5  C   UNL A   1      31.151  24.801  25.638  1.00  0.00     0.256 C 
ATOM      6  O   UNL A   1      29.946  25.059  25.718  1.00  0.00    -0.269 OA
ATOM      7  H   UNL A   1      31.598  26.677  26.149  1.00  0.00     0.163 HD
BRANCH   5   8
ATOM      8  C   UNL A   1      31.550  23.479  25.062  1.00  0.00     0.099 A 
ATOM      9  C   UNL A   1      31.786  23.360  23.663  1.00  0.00     0.056 A 
ATOM     10  C   UNL A   1      32.323  22.166  23.153  1.00  0.00     0.027 A 
ATOM     11  C   UNL A   1      32.543  21.066  23.979  1.00  0.00     0.005 A 
ATOM     12  C   UNL A   1      31.646  22.317  25.831  1.00  0.00     0.138 A 
ATOM     13  C   UNL A   1      32.165  21.131  25.311  1.00  0.00     0.040 A 
ATOM     14  F   UNL A   1      31.171  22.264  27.082  1.00  0.00    -0.206 F 
BRANCH   9  15
ATOM     15  N   UNL A   1      31.463  24.435  22.787  1.00  0.00    -0.325 N 
ATOM     16  O   UNL A   1      33.458  24.699  21.646  1.00  0.00    -0.275 OA
ATOM     17  C   UNL A   1      32.304  25.057  21.890  1.00  0.00     0.224 C 
ATOM     18  H   UNL A   1      30.538  24.770  22.826  1.00  0.00     0.169 HD
BRANCH  17  19
ATOM     19  C   UNL A   1      31.783  26.317  21.203  1.00  0.00     0.105 C 
BRANCH  19  20
ATOM     20  C   UNL A   1      30.964  27.324  22.008  1.00  0.00     0.047 C 
BRANCH  20  21
ATOM     21  C   UNL A   1      31.668  28.093  23.099  1.00  0.00    -0.029 A 
ATOM     22  C   UNL A   1      33.020  28.442  23.071  1.00  0.00     0.007 A 
ATOM     23  C   UNL A   1      30.949  28.452  24.240  1.00  0.00     0.114 A 
ATOM     24  C   UNL A   1      33.604  29.043  24.184  1.00  0.00     0.020 A 
ATOM     25  N   UNL A   1      31.482  29.066  25.321  1.00  0.00    -0.264 NA
ATOM     26  C   UNL A   1      32.803  29.321  25.277  1.00  0.00     0.111 A 
ENDBRANCH  20  21
ENDBRANCH  19  20
ENDBRANCH  17  19
ENDBRANCH   9  15
ENDBRANCH   5   8
ENDBRANCH   3   4
ENDBRANCH   2   3
ENDBRANCH   1   2
BRANCH   1  27
ATOM     27  C   UNL A   1      35.674  23.300  24.020  1.00  0.00     0.002 C 
BRANCH  27  28
ATOM     28  C   UNL A   1      36.254  21.904  24.246  1.00  0.00     0.021 C 
BRANCH  28  29
ATOM     29  C   UNL A   1      36.699  21.582  25.671  1.00  0.00     0.116 C 
BRANCH  29  30
ATOM     30  N   UNL A   1      37.746  20.576  25.722  1.00  0.00    -0.352 N 
ATOM     31  C   UNL A   1      39.081  20.715  26.024  1.00  0.00     0.251 C 
ATOM     32  H   UNL A   1      37.457  19.659  25.511  1.00  0.00     0.163 HD
ATOM     33  O   UNL A   1      39.844  19.772  25.857  1.00  0.00    -0.269 OA
BRANCH  31  34
ATOM     34  C   UNL A   1      39.599  22.013  26.518  1.00  0.00     0.039 A 
ATOM     35  C   UNL A   1      40.686  22.015  27.396  1.00  0.00     0.014 A 
ATOM     36  C   UNL A   1      39.019  23.220  26.118  1.00  0.00     0.014 A 
ATOM     37  C   UNL A   1      41.245  23.230  27.805  1.00  0.00     0.010 A 
ATOM     38  C   UNL A   1      39.619  24.429  26.472  1.00  0.00     0.010 A 
ATOM     39  C   UNL A   1      40.745  24.446  27.309  1.00  0.00    -0.014 A 
BRANCH  39  40
ATOM     40  C   UNL A   1      41.410  25.738  27.623  1.00  0.00     0.031 A 
ATOM     41  C   UNL A   1      40.662  26.828  28.340  1.00  0.00     0.074 A 
ATOM     42  C   UNL A   1      42.678  25.948  27.216  1.00  0.00     0.049 A 
ATOM     43  N   UNL A   1      41.049  28.045  28.624  1.00  0.00    -0.248 NA
ATOM     44  C   UNL A   1      39.293  26.515  28.778  1.00  0.00     0.031 C 
ATOM     45  C   UNL A   1      43.508  24.974  26.502  1.00  0.00     0.029 A 
ATOM     46  N   UNL A   1      43.496  27.043  27.346  1.00  0.00    -0.354 N 
ATOM     47  C   UNL A   1      39.976  28.643  29.276  1.00  0.00     0.074 A 
ATOM     48  C   UNL A   1      38.902  27.672  29.293  1.00  0.00     0.031 C 
ATOM     49  C   UNL A   1      44.725  25.499  26.295  1.00  0.00     0.029 A 
ATOM     50  C   UNL A   1      44.750  26.866  26.808  1.00  0.00     0.049 A 
ATOM     51  H   UNL A   1      43.212  27.879  27.783  1.00  0.00     0.167 HD
ATOM     52  C   UNL A   1      39.903  29.877  29.831  1.00  0.00     0.034 A 
ATOM     53  C   UNL A   1      45.800  27.706  26.725  1.00  0.00     0.034 A 
ATOM     54  C   UNL A   1      40.981  30.836  29.811  1.00  0.00     0.049 A 
ATOM     55  C   UNL A   1      45.673  29.096  27.290  1.00  0.00     0.074 A 
ATOM     56  C   UNL A   1      41.010  32.106  30.360  1.00  0.00     0.029 A 
ATOM     57  N   UNL A   1      42.218  30.633  29.215  1.00  0.00    -0.354 N 
ATOM     58  N   UNL A   1      44.645  29.650  27.888  1.00  0.00    -0.248 NA
ATOM     59  C   UNL A   1      46.845  29.974  27.168  1.00  0.00     0.031 C 
ATOM     60  C   UNL A   1      42.236  32.695  30.040  1.00  0.00     0.029 A 
ATOM     61  C   UNL A   1      43.006  31.764  29.361  1.00  0.00     0.049 A 
ATOM     62  H   UNL A   1      42.496  29.807  28.756  1.00  0.00     0.167 HD
ATOM     63  C   UNL A   1      45.057  30.931  28.241  1.00  0.00     0.074 A 
ATOM     64  C   UNL A   1      46.426  31.069  27.787  1.00  0.00     0.031 C 
ATOM     65  C   UNL A   1      44.366  31.899  28.894  1.00  0.00     0.034 A 
BRANCH  52  66
ATOM     66  C   UNL A   1      38.608  30.269  30.495  1.00  0.00     0.023 A 
ATOM     67  C   UNL A   1      37.647  31.045  29.826  1.00  0.00     0.031 A 
ATOM     68  C   UNL A   1      38.318  29.839  31.802  1.00  0.00     0.131 A 
ATOM     69  C   UNL A   1      36.460  31.404  30.480  1.00  0.00     0.055 A 
ATOM     70  C   UNL A   1      37.106  30.144  32.424  1.00  0.00     0.041 A 
ATOM     71  F   UNL A   1      39.208  29.110  32.494  1.00  0.00    -0.206 F 
ATOM     72  C   UNL A   1      36.172  30.938  31.765  1.00  0.00     0.022 A 
BRANCH  69  73
ATOM     73  S   UNL A   1      35.332  32.563  29.661  1.00  0.00     0.124 S 
ATOM     74  O   UNL A   1      36.255  33.338  28.835  1.00  0.00    -0.237 OA
ATOM     75  O   UNL A   1      34.427  31.673  28.945  1.00  0.00    -0.237 OA
ATOM     76  O   UNL A   1      34.731  33.299  30.772  1.00  0.00    -0.744 OA
ENDBRANCH  69  73
ENDBRANCH  52  66
BRANCH  53  77
ATOM     77  C   UNL A   1      47.065  27.251  26.086  1.00  0.00     0.023 A 
ATOM     78  C   UNL A   1      48.049  26.585  26.833  1.00  0.00     0.031 A 
ATOM     79  C   UNL A   1      47.301  27.459  24.715  1.00  0.00     0.131 A 
ATOM     80  C   UNL A   1      49.232  26.163  26.208  1.00  0.00     0.055 A 
ATOM     81  C   UNL A   1      48.462  27.003  24.089  1.00  0.00     0.041 A 
ATOM     82  F   UNL A   1      46.385  28.084  23.957  1.00  0.00    -0.206 F 
ATOM     83  C   UNL A   1      49.438  26.354  24.839  1.00  0.00     0.022 A 
BRANCH  80  84
ATOM     84  S   UNL A   1      50.517  25.375  27.217  1.00  0.00     0.124 S 
ATOM     85  O   UNL A   1      51.422  24.861  26.196  1.00  0.00    -0.237 OA
ATOM     86  O   UNL A   1      51.010  26.495  28.011  1.00  0.00    -0.237 OA
ATOM     87  O   UNL A   1      49.781  24.359  27.969  1.00  0.00    -0.744 OA
ENDBRANCH  80  84
ENDBRANCH  53  77
BRANCH  65  88
ATOM     88  C   UNL A   1      45.088  33.185  29.200  1.00  0.00     0.023 A 
ATOM     89  C   UNL A   1      44.928  34.333  28.406  1.00  0.00     0.031 A 
ATOM     90  C   UNL A   1      45.916  33.274  30.335  1.00  0.00     0.131 A 
ATOM     91  C   UNL A   1      45.609  35.513  28.740  1.00  0.00     0.055 A 
ATOM     92  C   UNL A   1      46.551  34.463  30.690  1.00  0.00     0.041 A 
ATOM     93  F   UNL A   1      46.103  32.206  31.128  1.00  0.00    -0.206 F 
ATOM     94  C   UNL A   1      46.404  35.590  29.887  1.00  0.00     0.022 A 
BRANCH  91  95
ATOM     95  S   UNL A   1      45.478  36.940  27.630  1.00  0.00     0.124 S 
ATOM     96  O   UNL A   1      45.459  38.055  28.571  1.00  0.00    -0.237 OA
ATOM     97  O   UNL A   1      46.680  36.817  26.812  1.00  0.00    -0.237 OA
ATOM     98  O   UNL A   1      44.222  36.708  26.919  1.00  0.00    -0.744 OA
ENDBRANCH  91  95
ENDBRANCH  65  88
ENDBRANCH  39  40
ENDBRANCH  31  34
ENDBRANCH  29  30
ENDBRANCH  28  29
ENDBRANCH  27  28
ENDBRANCH   1  27
TORSDOF 20
ENDMDL
