MODEL 1
REMARK VINA RESULT:     -10.7      0.000      0.000
REMARK SMILES CSc1ccccc1[C@H](C(=O)NCCCCCCNC(=O)c1ccc(-c2c3nc(c(-c4cc(S(=O)(=O)[O-])ccc4F)c4ccc([nH]4)c(-c4cc(S(=O)(=O)[O-])ccc4F)c4nc(c(-c5cc(S(=O)(=O)[O-])ccc5F)c5ccc2[nH]5)C=C4)C=C3)cc1)[N@H+](C)CCc1cnn(C)c1
REMARK SMILES IDX 15 1 14 2 13 3 12 4 10 5 11 6 9 8 8 9 3 10 4 11 5 12 7 13
REMARK SMILES IDX 6 14 2 15 1 16 85 17 86 18 87 20 88 21 89 22 90 23 94 24
REMARK SMILES IDX 91 25 92 26 93 27 16 28 17 29 18 30 19 31 20 32 21 34 22 35
REMARK SMILES IDX 23 36 84 37 24 38 83 39 25 40 26 41 27 42 77 43 28 44 82 45
REMARK SMILES IDX 76 46 78 47 29 48 81 49 75 50 74 51 30 53 62 54 42 55 61 56
REMARK SMILES IDX 43 57 46 58 60 59 79 60 44 61 45 62 59 64 80 65 47 66 31 67
REMARK SMILES IDX 32 68 40 69 33 70 39 71 41 72 38 73 34 74 35 75 36 76 37 77
REMARK SMILES IDX 63 78 64 79 72 80 65 81 71 82 73 83 70 84 66 85 67 86 68 87
REMARK SMILES IDX 69 88 48 89 49 90 57 91 50 92 56 93 58 94 55 95 51 96 52 97
REMARK SMILES IDX 53 98 54 99
REMARK H PARENT 12 7 85 19 19 33 78 52 46 63
REMARK Flexibility Score: inf
ROOT
ATOM      1  C   UNL A   1      32.059  27.844  24.040  1.00  0.00     0.002 C 
ENDROOT
BRANCH   1   2
ATOM      2  C   UNL A   1      31.783  26.333  24.182  1.00  0.00     0.021 C 
BRANCH   2   3
ATOM      3  C   UNL A   1      30.697  25.899  25.190  1.00  0.00     0.116 C 
BRANCH   3   4
ATOM      4  N   UNL A   1      31.265  25.286  26.372  1.00  0.00    -0.351 N 
ATOM      5  C   UNL A   1      31.329  23.936  26.551  1.00  0.00     0.283 C 
ATOM      6  O   UNL A   1      30.468  23.517  27.340  1.00  0.00    -0.268 OA
ATOM      7  H   UNL A   1      31.619  25.870  27.080  1.00  0.00     0.163 HD
BRANCH   5   8
ATOM      8  C   UNL A   1      32.309  22.989  25.768  1.00  0.00     0.306 C 
BRANCH   8   9
ATOM      9  C   UNL A   1      33.676  23.450  25.215  1.00  0.00     0.033 A 
ATOM     10  C   UNL A   1      34.071  23.151  23.884  1.00  0.00     0.017 A 
ATOM     11  C   UNL A   1      35.417  23.277  23.483  1.00  0.00     0.015 A 
ATOM     12  C   UNL A   1      36.390  23.696  24.382  1.00  0.00     0.001 A 
ATOM     13  C   UNL A   1      34.659  24.002  26.039  1.00  0.00     0.011 A 
ATOM     14  C   UNL A   1      36.005  24.085  25.655  1.00  0.00     0.001 A 
BRANCH  10  15
ATOM     15  S   UNL A   1      32.917  22.626  22.607  1.00  0.00    -0.129 SA
ATOM     16  C   UNL A   1      32.760  24.194  21.713  1.00  0.00     0.091 C 
ENDBRANCH  10  15
ENDBRANCH   8   9
BRANCH   8  17
ATOM     17  N   UNL A   1      32.548  21.733  26.570  1.00  0.00    -0.323 N 
ATOM     18  C   UNL A   1      33.187  22.093  27.845  1.00  0.00     0.333 C 
ATOM     19  H   UNL A   1      31.611  21.349  26.693  1.00  0.00     0.348 HD
BRANCH  17  20
ATOM     20  C   UNL A   1      33.238  20.583  25.927  1.00  0.00     0.267 C 
BRANCH  20  21
ATOM     21  C   UNL A   1      32.547  19.649  24.903  1.00  0.00     0.100 C 
BRANCH  21  22
ATOM     22  C   UNL A   1      32.972  18.230  24.657  1.00  0.00    -0.004 A 
ATOM     23  C   UNL A   1      33.170  17.680  23.359  1.00  0.00     0.139 A 
ATOM     24  C   UNL A   1      33.269  17.156  25.475  1.00  0.00     0.112 A 
ATOM     25  N   UNL A   1      33.760  16.483  23.377  1.00  0.00    -0.182 NA
ATOM     26  N   UNL A   1      33.976  16.275  24.687  1.00  0.00    -0.276 N 
ATOM     27  C   UNL A   1      35.124  15.487  25.089  1.00  0.00     0.173 C 
ENDBRANCH  21  22
ENDBRANCH  20  21
ENDBRANCH  17  20
ENDBRANCH   8  17
ENDBRANCH   5   8
ENDBRANCH   3   4
ENDBRANCH   2   3
ENDBRANCH   1   2
BRANCH   1  28
ATOM     28  C   UNL A   1      33.212  28.422  24.867  1.00  0.00     0.002 C 
BRANCH  28  29
ATOM     29  C   UNL A   1      32.920  29.740  25.583  1.00  0.00     0.021 C 
BRANCH  29  30
ATOM     30  C   UNL A   1      33.374  29.812  27.038  1.00  0.00     0.116 C 
BRANCH  30  31
ATOM     31  N   UNL A   1      33.494  31.176  27.525  1.00  0.00    -0.352 N 
ATOM     32  C   UNL A   1      34.470  31.728  28.326  1.00  0.00     0.251 C 
ATOM     33  H   UNL A   1      32.779  31.790  27.243  1.00  0.00     0.163 HD
ATOM     34  O   UNL A   1      34.326  32.858  28.773  1.00  0.00    -0.269 OA
BRANCH  32  35
ATOM     35  C   UNL A   1      35.674  30.934  28.674  1.00  0.00     0.039 A 
ATOM     36  C   UNL A   1      36.869  31.189  27.997  1.00  0.00     0.014 A 
ATOM     37  C   UNL A   1      35.631  29.963  29.678  1.00  0.00     0.014 A 
ATOM     38  C   UNL A   1      38.039  30.530  28.385  1.00  0.00     0.010 A 
ATOM     39  C   UNL A   1      36.812  29.360  30.111  1.00  0.00     0.010 A 
ATOM     40  C   UNL A   1      38.031  29.647  29.478  1.00  0.00    -0.014 A 
BRANCH  40  41
ATOM     41  C   UNL A   1      39.295  29.051  29.990  1.00  0.00     0.031 A 
ATOM     42  C   UNL A   1      39.986  29.639  31.191  1.00  0.00     0.074 A 
ATOM     43  C   UNL A   1      39.851  28.014  29.331  1.00  0.00     0.049 A 
ATOM     44  N   UNL A   1      41.120  29.290  31.744  1.00  0.00    -0.248 NA
ATOM     45  C   UNL A   1      39.327  30.781  31.841  1.00  0.00     0.031 C 
ATOM     46  C   UNL A   1      39.297  27.385  28.129  1.00  0.00     0.029 A 
ATOM     47  N   UNL A   1      41.006  27.308  29.567  1.00  0.00    -0.354 N 
ATOM     48  C   UNL A   1      41.316  30.174  32.800  1.00  0.00     0.074 A 
ATOM     49  C   UNL A   1      40.210  31.107  32.773  1.00  0.00     0.031 C 
ATOM     50  C   UNL A   1      40.096  26.376  27.750  1.00  0.00     0.029 A 
ATOM     51  C   UNL A   1      41.248  26.316  28.643  1.00  0.00     0.049 A 
ATOM     52  H   UNL A   1      41.605  27.495  30.326  1.00  0.00     0.167 HD
ATOM     53  C   UNL A   1      42.317  30.192  33.716  1.00  0.00     0.034 A 
ATOM     54  C   UNL A   1      42.289  25.468  28.515  1.00  0.00     0.034 A 
ATOM     55  C   UNL A   1      43.409  29.248  33.729  1.00  0.00     0.049 A 
ATOM     56  C   UNL A   1      43.409  25.536  29.524  1.00  0.00     0.074 A 
ATOM     57  C   UNL A   1      44.436  29.134  34.652  1.00  0.00     0.029 A 
ATOM     58  N   UNL A   1      43.631  28.269  32.769  1.00  0.00    -0.354 N 
ATOM     59  N   UNL A   1      43.540  26.333  30.558  1.00  0.00    -0.248 NA
ATOM     60  C   UNL A   1      44.513  24.585  29.352  1.00  0.00     0.031 C 
ATOM     61  C   UNL A   1      45.321  28.148  34.204  1.00  0.00     0.029 A 
ATOM     62  C   UNL A   1      44.802  27.581  33.051  1.00  0.00     0.049 A 
ATOM     63  H   UNL A   1      43.043  28.088  32.001  1.00  0.00     0.167 HD
ATOM     64  C   UNL A   1      44.734  25.962  31.172  1.00  0.00     0.074 A 
ATOM     65  C   UNL A   1      45.266  24.854  30.408  1.00  0.00     0.031 C 
ATOM     66  C   UNL A   1      45.336  26.490  32.268  1.00  0.00     0.034 A 
BRANCH  53  67
ATOM     67  C   UNL A   1      42.294  31.283  34.760  1.00  0.00     0.023 A 
ATOM     68  C   UNL A   1      42.933  32.519  34.557  1.00  0.00     0.031 A 
ATOM     69  C   UNL A   1      41.620  31.085  35.978  1.00  0.00     0.131 A 
ATOM     70  C   UNL A   1      42.939  33.481  35.579  1.00  0.00     0.055 A 
ATOM     71  C   UNL A   1      41.562  32.077  36.959  1.00  0.00     0.041 A 
ATOM     72  F   UNL A   1      41.009  29.919  36.240  1.00  0.00    -0.206 F 
ATOM     73  C   UNL A   1      42.235  33.280  36.768  1.00  0.00     0.022 A 
BRANCH  70  74
ATOM     74  S   UNL A   1      43.994  34.945  35.385  1.00  0.00     0.124 S 
ATOM     75  O   UNL A   1      43.167  35.793  34.528  1.00  0.00    -0.237 OA
ATOM     76  O   UNL A   1      44.161  35.396  36.761  1.00  0.00    -0.237 OA
ATOM     77  O   UNL A   1      45.199  34.417  34.750  1.00  0.00    -0.744 OA
ENDBRANCH  70  74
ENDBRANCH  53  67
BRANCH  54  78
ATOM     78  C   UNL A   1      42.347  24.504  27.376  1.00  0.00     0.023 A 
ATOM     79  C   UNL A   1      41.602  23.315  27.392  1.00  0.00     0.031 A 
ATOM     80  C   UNL A   1      43.193  24.735  26.276  1.00  0.00     0.131 A 
ATOM     81  C   UNL A   1      41.757  22.377  26.358  1.00  0.00     0.055 A 
ATOM     82  C   UNL A   1      43.296  23.828  25.219  1.00  0.00     0.041 A 
ATOM     83  F   UNL A   1      43.930  25.856  26.208  1.00  0.00    -0.206 F 
ATOM     84  C   UNL A   1      42.586  22.633  25.264  1.00  0.00     0.022 A 
BRANCH  81  85
ATOM     85  S   UNL A   1      40.936  20.767  26.516  1.00  0.00     0.124 S 
ATOM     86  O   UNL A   1      41.825  19.905  25.746  1.00  0.00    -0.237 OA
ATOM     87  O   UNL A   1      40.939  20.566  27.961  1.00  0.00    -0.237 OA
ATOM     88  O   UNL A   1      39.620  20.997  25.924  1.00  0.00    -0.744 OA
ENDBRANCH  81  85
ENDBRANCH  54  78
BRANCH  66  89
ATOM     89  C   UNL A   1      46.629  25.850  32.717  1.00  0.00     0.023 A 
ATOM     90  C   UNL A   1      46.643  24.762  33.608  1.00  0.00     0.031 A 
ATOM     91  C   UNL A   1      47.863  26.346  32.261  1.00  0.00     0.131 A 
ATOM     92  C   UNL A   1      47.866  24.244  34.058  1.00  0.00     0.055 A 
ATOM     93  C   UNL A   1      49.075  25.782  32.660  1.00  0.00     0.041 A 
ATOM     94  F   UNL A   1      47.911  27.388  31.415  1.00  0.00    -0.206 F 
ATOM     95  C   UNL A   1      49.081  24.734  33.575  1.00  0.00     0.022 A 
BRANCH  92  96
ATOM     96  S   UNL A   1      47.850  22.987  35.366  1.00  0.00     0.124 S 
ATOM     97  O   UNL A   1      48.106  23.788  36.559  1.00  0.00    -0.237 OA
ATOM     98  O   UNL A   1      46.505  22.433  35.250  1.00  0.00    -0.237 OA
ATOM     99  O   UNL A   1      48.929  22.079  34.984  1.00  0.00    -0.744 OA
ENDBRANCH  92  96
ENDBRANCH  66  89
ENDBRANCH  40  41
ENDBRANCH  32  35
ENDBRANCH  30  31
ENDBRANCH  29  30
ENDBRANCH  28  29
ENDBRANCH   1  28
TORSDOF 22
ENDMDL
MODEL 2
REMARK VINA RESULT:     -10.6      2.161      2.909
REMARK SMILES CSc1ccccc1[C@H](C(=O)NCCCCCCNC(=O)c1ccc(-c2c3nc(c(-c4cc(S(=O)(=O)[O-])ccc4F)c4ccc([nH]4)c(-c4cc(S(=O)(=O)[O-])ccc4F)c4nc(c(-c5cc(S(=O)(=O)[O-])ccc5F)c5ccc2[nH]5)C=C4)C=C3)cc1)[N@H+](C)CCc1cnn(C)c1
REMARK SMILES IDX 15 1 14 2 13 3 12 4 10 5 11 6 9 8 8 9 3 10 4 11 5 12 7 13
REMARK SMILES IDX 6 14 2 15 1 16 85 17 86 18 87 20 88 21 89 22 90 23 94 24
REMARK SMILES IDX 91 25 92 26 93 27 16 28 17 29 18 30 19 31 20 32 21 34 22 35
REMARK SMILES IDX 23 36 84 37 24 38 83 39 25 40 26 41 27 42 77 43 28 44 82 45
REMARK SMILES IDX 76 46 78 47 29 48 81 49 75 50 74 51 30 53 62 54 42 55 61 56
REMARK SMILES IDX 43 57 46 58 60 59 79 60 44 61 45 62 59 64 80 65 47 66 31 67
REMARK SMILES IDX 32 68 40 69 33 70 39 71 41 72 38 73 34 74 35 75 36 76 37 77
REMARK SMILES IDX 63 78 64 79 72 80 65 81 71 82 73 83 70 84 66 85 67 86 68 87
REMARK SMILES IDX 69 88 48 89 49 90 57 91 50 92 56 93 58 94 55 95 51 96 52 97
REMARK SMILES IDX 53 98 54 99
REMARK H PARENT 12 7 85 19 19 33 78 52 46 63
REMARK Flexibility Score: inf
ROOT
ATOM      1  C   UNL A   1      32.405  27.574  22.697  1.00  0.00     0.002 C 
ENDROOT
BRANCH   1   2
ATOM      2  C   UNL A   1      32.994  26.174  22.426  1.00  0.00     0.021 C 
BRANCH   2   3
ATOM      3  C   UNL A   1      32.001  25.007  22.246  1.00  0.00     0.116 C 
BRANCH   3   4
ATOM      4  N   UNL A   1      32.650  23.717  22.351  1.00  0.00    -0.351 N 
ATOM      5  C   UNL A   1      33.793  23.516  23.067  1.00  0.00     0.283 C 
ATOM      6  O   UNL A   1      34.797  23.421  22.346  1.00  0.00    -0.268 OA
ATOM      7  H   UNL A   1      32.249  22.951  21.882  1.00  0.00     0.163 HD
BRANCH   5   8
ATOM      8  C   UNL A   1      33.858  23.514  24.637  1.00  0.00     0.306 C 
BRANCH   8   9
ATOM      9  C   UNL A   1      33.123  24.545  25.521  1.00  0.00     0.033 A 
ATOM     10  C   UNL A   1      31.711  24.508  25.676  1.00  0.00     0.017 A 
ATOM     11  C   UNL A   1      31.012  25.615  26.200  1.00  0.00     0.015 A 
ATOM     12  C   UNL A   1      31.687  26.769  26.577  1.00  0.00     0.001 A 
ATOM     13  C   UNL A   1      33.770  25.667  26.043  1.00  0.00     0.011 A 
ATOM     14  C   UNL A   1      33.072  26.784  26.523  1.00  0.00     0.001 A 
BRANCH  10  15
ATOM     15  S   UNL A   1      30.710  23.073  25.257  1.00  0.00    -0.129 SA
ATOM     16  C   UNL A   1      30.062  22.696  26.907  1.00  0.00     0.091 C 
ENDBRANCH  10  15
ENDBRANCH   8   9
BRANCH   8  17
ATOM     17  N   UNL A   1      33.502  22.142  25.155  1.00  0.00    -0.323 N 
ATOM     18  C   UNL A   1      34.197  21.916  26.432  1.00  0.00     0.333 C 
ATOM     19  H   UNL A   1      32.488  22.183  25.260  1.00  0.00     0.348 HD
BRANCH  17  20
ATOM     20  C   UNL A   1      33.640  20.968  24.252  1.00  0.00     0.267 C 
BRANCH  20  21
ATOM     21  C   UNL A   1      32.483  19.979  23.971  1.00  0.00     0.100 C 
BRANCH  21  22
ATOM     22  C   UNL A   1      32.645  18.486  23.993  1.00  0.00    -0.004 A 
ATOM     23  C   UNL A   1      33.130  17.729  22.889  1.00  0.00     0.139 A 
ATOM     24  C   UNL A   1      32.418  17.503  24.939  1.00  0.00     0.112 A 
ATOM     25  N   UNL A   1      33.407  16.461  23.198  1.00  0.00    -0.182 NA
ATOM     26  N   UNL A   1      33.133  16.406  24.512  1.00  0.00    -0.276 N 
ATOM     27  C   UNL A   1      33.886  15.491  25.346  1.00  0.00     0.173 C 
ENDBRANCH  21  22
ENDBRANCH  20  21
ENDBRANCH  17  20
ENDBRANCH   8  17
ENDBRANCH   5   8
ENDBRANCH   3   4
ENDBRANCH   2   3
ENDBRANCH   1   2
BRANCH   1  28
ATOM     28  C   UNL A   1      33.280  28.557  23.482  1.00  0.00     0.002 C 
BRANCH  28  29
ATOM     29  C   UNL A   1      32.530  29.597  24.314  1.00  0.00     0.021 C 
BRANCH  29  30
ATOM     30  C   UNL A   1      33.057  29.811  25.730  1.00  0.00     0.116 C 
BRANCH  30  31
ATOM     31  N   UNL A   1      32.752  31.133  26.251  1.00  0.00    -0.352 N 
ATOM     32  C   UNL A   1      33.393  31.843  27.243  1.00  0.00     0.251 C 
ATOM     33  H   UNL A   1      31.981  31.583  25.838  1.00  0.00     0.163 HD
ATOM     34  O   UNL A   1      32.899  32.880  27.668  1.00  0.00    -0.269 OA
BRANCH  32  35
ATOM     35  C   UNL A   1      34.659  31.327  27.818  1.00  0.00     0.039 A 
ATOM     36  C   UNL A   1      35.721  32.212  28.014  1.00  0.00     0.014 A 
ATOM     37  C   UNL A   1      34.789  29.984  28.185  1.00  0.00     0.014 A 
ATOM     38  C   UNL A   1      36.882  31.769  28.655  1.00  0.00     0.010 A 
ATOM     39  C   UNL A   1      35.917  29.563  28.888  1.00  0.00     0.010 A 
ATOM     40  C   UNL A   1      36.971  30.454  29.142  1.00  0.00    -0.014 A 
BRANCH  40  41
ATOM     41  C   UNL A   1      38.140  30.014  29.951  1.00  0.00     0.031 A 
ATOM     42  C   UNL A   1      38.365  30.566  31.333  1.00  0.00     0.074 A 
ATOM     43  C   UNL A   1      39.032  29.159  29.411  1.00  0.00     0.049 A 
ATOM     44  N   UNL A   1      39.355  30.343  32.160  1.00  0.00    -0.248 NA
ATOM     45  C   UNL A   1      37.358  31.508  31.842  1.00  0.00     0.031 C 
ATOM     46  C   UNL A   1      38.944  28.589  28.064  1.00  0.00     0.029 A 
ATOM     47  N   UNL A   1      40.192  28.625  29.917  1.00  0.00    -0.354 N 
ATOM     48  C   UNL A   1      39.096  31.123  33.282  1.00  0.00     0.074 A 
ATOM     49  C   UNL A   1      37.885  31.865  33.004  1.00  0.00     0.031 C 
ATOM     50  C   UNL A   1      39.987  27.769  27.862  1.00  0.00     0.029 A 
ATOM     51  C   UNL A   1      40.851  27.795  29.038  1.00  0.00     0.049 A 
ATOM     52  H   UNL A   1      40.523  28.819  30.825  1.00  0.00     0.167 HD
ATOM     53  C   UNL A   1      39.796  31.198  34.442  1.00  0.00     0.034 A 
ATOM     54  C   UNL A   1      42.026  27.144  29.155  1.00  0.00     0.034 A 
ATOM     55  C   UNL A   1      41.000  30.445  34.702  1.00  0.00     0.049 A 
ATOM     56  C   UNL A   1      42.804  27.275  30.440  1.00  0.00     0.074 A 
ATOM     57  C   UNL A   1      41.747  30.394  35.868  1.00  0.00     0.029 A 
ATOM     58  N   UNL A   1      41.646  29.628  33.784  1.00  0.00    -0.354 N 
ATOM     59  N   UNL A   1      42.506  27.963  31.519  1.00  0.00    -0.248 NA
ATOM     60  C   UNL A   1      44.071  26.538  30.527  1.00  0.00     0.031 C 
ATOM     61  C   UNL A   1      42.885  29.618  35.627  1.00  0.00     0.029 A 
ATOM     62  C   UNL A   1      42.806  29.109  34.341  1.00  0.00     0.049 A 
ATOM     63  H   UNL A   1      41.328  29.443  32.871  1.00  0.00     0.167 HD
ATOM     64  C   UNL A   1      43.541  27.721  32.420  1.00  0.00     0.074 A 
ATOM     65  C   UNL A   1      44.452  26.804  31.768  1.00  0.00     0.031 C 
ATOM     66  C   UNL A   1      43.721  28.211  33.672  1.00  0.00     0.034 A 
BRANCH  53  67
ATOM     67  C   UNL A   1      39.295  32.147  35.505  1.00  0.00     0.023 A 
ATOM     68  C   UNL A   1      39.723  33.485  35.567  1.00  0.00     0.031 A 
ATOM     69  C   UNL A   1      38.372  31.708  36.470  1.00  0.00     0.131 A 
ATOM     70  C   UNL A   1      39.280  34.315  36.608  1.00  0.00     0.055 A 
ATOM     71  C   UNL A   1      37.873  32.562  37.457  1.00  0.00     0.041 A 
ATOM     72  F   UNL A   1      37.942  30.436  36.477  1.00  0.00    -0.206 F 
ATOM     73  C   UNL A   1      38.337  33.871  37.537  1.00  0.00     0.022 A 
BRANCH  70  74
ATOM     74  S   UNL A   1      40.056  35.942  36.810  1.00  0.00     0.124 S 
ATOM     75  O   UNL A   1      41.460  35.579  36.993  1.00  0.00    -0.237 OA
ATOM     76  O   UNL A   1      39.726  36.607  35.555  1.00  0.00    -0.237 OA
ATOM     77  O   UNL A   1      39.403  36.489  37.998  1.00  0.00    -0.744 OA
ENDBRANCH  70  74
ENDBRANCH  53  67
BRANCH  54  78
ATOM     78  C   UNL A   1      42.562  26.335  28.020  1.00  0.00     0.023 A 
ATOM     79  C   UNL A   1      42.258  24.971  27.892  1.00  0.00     0.031 A 
ATOM     80  C   UNL A   1      43.433  26.906  27.073  1.00  0.00     0.131 A 
ATOM     81  C   UNL A   1      42.860  24.211  26.876  1.00  0.00     0.055 A 
ATOM     82  C   UNL A   1      43.980  26.159  26.028  1.00  0.00     0.041 A 
ATOM     83  F   UNL A   1      43.760  28.206  27.147  1.00  0.00    -0.206 F 
ATOM     84  C   UNL A   1      43.706  24.800  25.934  1.00  0.00     0.022 A 
BRANCH  81  85
ATOM     85  S   UNL A   1      42.604  22.415  26.867  1.00  0.00     0.124 S 
ATOM     86  O   UNL A   1      43.752  21.956  26.094  1.00  0.00    -0.237 OA
ATOM     87  O   UNL A   1      42.620  22.100  28.292  1.00  0.00    -0.237 OA
ATOM     88  O   UNL A   1      41.307  22.260  26.212  1.00  0.00    -0.744 OA
ENDBRANCH  81  85
ENDBRANCH  54  78
BRANCH  66  89
ATOM     89  C   UNL A   1      44.942  27.740  34.426  1.00  0.00     0.023 A 
ATOM     90  C   UNL A   1      44.911  26.593  35.238  1.00  0.00     0.031 A 
ATOM     91  C   UNL A   1      46.149  28.457  34.342  1.00  0.00     0.131 A 
ATOM     92  C   UNL A   1      46.045  26.230  35.980  1.00  0.00     0.055 A 
ATOM     93  C   UNL A   1      47.294  28.052  35.029  1.00  0.00     0.041 A 
ATOM     94  F   UNL A   1      46.236  29.564  33.587  1.00  0.00    -0.206 F 
ATOM     95  C   UNL A   1      47.242  26.941  35.865  1.00  0.00     0.022 A 
BRANCH  92  96
ATOM     96  S   UNL A   1      45.904  24.876  37.178  1.00  0.00     0.124 S 
ATOM     97  O   UNL A   1      46.869  25.273  38.198  1.00  0.00    -0.237 OA
ATOM     98  O   UNL A   1      44.500  24.949  37.569  1.00  0.00    -0.237 OA
ATOM     99  O   UNL A   1      46.271  23.693  36.403  1.00  0.00    -0.744 OA
ENDBRANCH  92  96
ENDBRANCH  66  89
ENDBRANCH  40  41
ENDBRANCH  32  35
ENDBRANCH  30  31
ENDBRANCH  29  30
ENDBRANCH  28  29
ENDBRANCH   1  28
TORSDOF 22
ENDMDL
MODEL 3
REMARK VINA RESULT:     -10.5      3.700      8.743
REMARK SMILES CSc1ccccc1[C@H](C(=O)NCCCCCCNC(=O)c1ccc(-c2c3nc(c(-c4cc(S(=O)(=O)[O-])ccc4F)c4ccc([nH]4)c(-c4cc(S(=O)(=O)[O-])ccc4F)c4nc(c(-c5cc(S(=O)(=O)[O-])ccc5F)c5ccc2[nH]5)C=C4)C=C3)cc1)[N@H+](C)CCc1cnn(C)c1
REMARK SMILES IDX 15 1 14 2 13 3 12 4 10 5 11 6 9 8 8 9 3 10 4 11 5 12 7 13
REMARK SMILES IDX 6 14 2 15 1 16 85 17 86 18 87 20 88 21 89 22 90 23 94 24
REMARK SMILES IDX 91 25 92 26 93 27 16 28 17 29 18 30 19 31 20 32 21 34 22 35
REMARK SMILES IDX 23 36 84 37 24 38 83 39 25 40 26 41 27 42 77 43 28 44 82 45
REMARK SMILES IDX 76 46 78 47 29 48 81 49 75 50 74 51 30 53 62 54 42 55 61 56
REMARK SMILES IDX 43 57 46 58 60 59 79 60 44 61 45 62 59 64 80 65 47 66 31 67
REMARK SMILES IDX 32 68 40 69 33 70 39 71 41 72 38 73 34 74 35 75 36 76 37 77
REMARK SMILES IDX 63 78 64 79 72 80 65 81 71 82 73 83 70 84 66 85 67 86 68 87
REMARK SMILES IDX 69 88 48 89 49 90 57 91 50 92 56 93 58 94 55 95 51 96 52 97
REMARK SMILES IDX 53 98 54 99
REMARK H PARENT 12 7 85 19 19 33 78 52 46 63
REMARK Flexibility Score: inf
ROOT
ATOM      1  C   UNL A   1      31.639  29.572  26.571  1.00  0.00     0.002 C 
ENDROOT
BRANCH   1   2
ATOM      2  C   UNL A   1      32.453  28.474  27.286  1.00  0.00     0.021 C 
BRANCH   2   3
ATOM      3  C   UNL A   1      33.280  27.513  26.405  1.00  0.00     0.116 C 
BRANCH   3   4
ATOM      4  N   UNL A   1      32.686  27.323  25.099  1.00  0.00    -0.351 N 
ATOM      5  C   UNL A   1      33.022  26.292  24.273  1.00  0.00     0.283 C 
ATOM      6  O   UNL A   1      33.767  26.646  23.346  1.00  0.00    -0.268 OA
ATOM      7  H   UNL A   1      32.010  27.969  24.793  1.00  0.00     0.163 HD
BRANCH   5   8
ATOM      8  C   UNL A   1      32.607  24.796  24.518  1.00  0.00     0.306 C 
BRANCH   8   9
ATOM      9  C   UNL A   1      33.171  23.935  25.669  1.00  0.00     0.033 A 
ATOM     10  C   UNL A   1      34.386  23.213  25.521  1.00  0.00     0.017 A 
ATOM     11  C   UNL A   1      34.732  22.187  26.426  1.00  0.00     0.015 A 
ATOM     12  C   UNL A   1      33.893  21.858  27.482  1.00  0.00     0.001 A 
ATOM     13  C   UNL A   1      32.432  23.666  26.823  1.00  0.00     0.011 A 
ATOM     14  C   UNL A   1      32.754  22.617  27.696  1.00  0.00     0.001 A 
BRANCH  10  15
ATOM     15  S   UNL A   1      35.581  23.549  24.220  1.00  0.00    -0.129 SA
ATOM     16  C   UNL A   1      37.079  23.640  25.235  1.00  0.00     0.091 C 
ENDBRANCH  10  15
ENDBRANCH   8   9
BRANCH   8  17
ATOM     17  N   UNL A   1      31.102  24.692  24.574  1.00  0.00    -0.323 N 
ATOM     18  C   UNL A   1      30.629  23.940  23.402  1.00  0.00     0.333 C 
ATOM     19  H   UNL A   1      30.931  24.202  25.453  1.00  0.00     0.348 HD
BRANCH  17  20
ATOM     20  C   UNL A   1      30.297  25.926  24.783  1.00  0.00     0.267 C 
BRANCH  20  21
ATOM     21  C   UNL A   1      29.290  26.463  23.738  1.00  0.00     0.100 C 
BRANCH  21  22
ATOM     22  C   UNL A   1      29.353  27.848  23.161  1.00  0.00    -0.004 A 
ATOM     23  C   UNL A   1      30.468  28.348  22.430  1.00  0.00     0.139 A 
ATOM     24  C   UNL A   1      28.490  28.928  23.146  1.00  0.00     0.112 A 
ATOM     25  N   UNL A   1      30.223  29.509  21.820  1.00  0.00    -0.182 NA
ATOM     26  N   UNL A   1      28.937  29.744  22.130  1.00  0.00    -0.276 N 
ATOM     27  C   UNL A   1      28.114  30.477  21.189  1.00  0.00     0.173 C 
ENDBRANCH  21  22
ENDBRANCH  20  21
ENDBRANCH  17  20
ENDBRANCH   8  17
ENDBRANCH   5   8
ENDBRANCH   3   4
ENDBRANCH   2   3
ENDBRANCH   1   2
BRANCH   1  28
ATOM     28  C   UNL A   1      32.027  31.026  26.861  1.00  0.00     0.002 C 
BRANCH  28  29
ATOM     29  C   UNL A   1      33.384  31.230  27.535  1.00  0.00     0.021 C 
BRANCH  29  30
ATOM     30  C   UNL A   1      34.022  32.600  27.325  1.00  0.00     0.116 C 
BRANCH  30  31
ATOM     31  N   UNL A   1      33.332  33.660  28.042  1.00  0.00    -0.352 N 
ATOM     32  C   UNL A   1      33.572  34.151  29.306  1.00  0.00     0.251 C 
ATOM     33  H   UNL A   1      32.590  34.085  27.555  1.00  0.00     0.163 HD
ATOM     34  O   UNL A   1      32.785  34.939  29.814  1.00  0.00    -0.269 OA
BRANCH  32  35
ATOM     35  C   UNL A   1      34.764  33.693  30.060  1.00  0.00     0.039 A 
ATOM     36  C   UNL A   1      34.617  32.664  30.993  1.00  0.00     0.014 A 
ATOM     37  C   UNL A   1      36.023  34.256  29.831  1.00  0.00     0.014 A 
ATOM     38  C   UNL A   1      35.746  32.143  31.633  1.00  0.00     0.010 A 
ATOM     39  C   UNL A   1      37.153  33.688  30.415  1.00  0.00     0.010 A 
ATOM     40  C   UNL A   1      37.030  32.617  31.313  1.00  0.00    -0.014 A 
BRANCH  40  41
ATOM     41  C   UNL A   1      38.247  31.974  31.879  1.00  0.00     0.031 A 
ATOM     42  C   UNL A   1      38.965  30.892  31.118  1.00  0.00     0.074 A 
ATOM     43  C   UNL A   1      38.667  32.327  33.111  1.00  0.00     0.049 A 
ATOM     44  N   UNL A   1      40.004  30.181  31.477  1.00  0.00    -0.248 NA
ATOM     45  C   UNL A   1      38.431  30.551  29.792  1.00  0.00     0.031 C 
ATOM     46  C   UNL A   1      38.028  33.333  33.964  1.00  0.00     0.029 A 
ATOM     47  N   UNL A   1      39.723  31.880  33.868  1.00  0.00    -0.354 N 
ATOM     48  C   UNL A   1      40.243  29.303  30.426  1.00  0.00     0.074 A 
ATOM     49  C   UNL A   1      39.207  29.535  29.443  1.00  0.00     0.031 C 
ATOM     50  C   UNL A   1      38.717  33.442  35.111  1.00  0.00     0.029 A 
ATOM     51  C   UNL A   1      39.813  32.479  35.105  1.00  0.00     0.049 A 
ATOM     52  H   UNL A   1      40.356  31.193  33.555  1.00  0.00     0.167 HD
ATOM     53  C   UNL A   1      41.247  28.399  30.289  1.00  0.00     0.034 A 
ATOM     54  C   UNL A   1      40.667  32.264  36.127  1.00  0.00     0.034 A 
ATOM     55  C   UNL A   1      42.275  28.186  31.278  1.00  0.00     0.049 A 
ATOM     56  C   UNL A   1      41.748  31.226  35.963  1.00  0.00     0.074 A 
ATOM     57  C   UNL A   1      43.375  27.347  31.208  1.00  0.00     0.029 A 
ATOM     58  N   UNL A   1      42.325  28.798  32.524  1.00  0.00    -0.354 N 
ATOM     59  N   UNL A   1      42.002  30.454  34.931  1.00  0.00    -0.248 NA
ATOM     60  C   UNL A   1      42.662  31.037  37.096  1.00  0.00     0.031 C 
ATOM     61  C   UNL A   1      44.038  27.388  32.439  1.00  0.00     0.029 A 
ATOM     62  C   UNL A   1      43.407  28.320  33.248  1.00  0.00     0.049 A 
ATOM     63  H   UNL A   1      41.686  29.474  32.846  1.00  0.00     0.167 HD
ATOM     64  C   UNL A   1      43.120  29.703  35.287  1.00  0.00     0.074 A 
ATOM     65  C   UNL A   1      43.505  30.136  36.614  1.00  0.00     0.031 C 
ATOM     66  C   UNL A   1      43.769  28.743  34.581  1.00  0.00     0.034 A 
BRANCH  53  67
ATOM     67  C   UNL A   1      41.263  27.552  29.037  1.00  0.00     0.023 A 
ATOM     68  C   UNL A   1      42.213  27.749  28.019  1.00  0.00     0.031 A 
ATOM     69  C   UNL A   1      40.312  26.531  28.859  1.00  0.00     0.131 A 
ATOM     70  C   UNL A   1      42.153  26.982  26.846  1.00  0.00     0.055 A 
ATOM     71  C   UNL A   1      40.308  25.718  27.724  1.00  0.00     0.041 A 
ATOM     72  F   UNL A   1      39.366  26.309  29.784  1.00  0.00    -0.206 F 
ATOM     73  C   UNL A   1      41.224  25.949  26.703  1.00  0.00     0.022 A 
BRANCH  70  74
ATOM     74  S   UNL A   1      43.220  27.442  25.453  1.00  0.00     0.124 S 
ATOM     75  O   UNL A   1      43.723  26.139  25.023  1.00  0.00    -0.237 OA
ATOM     76  O   UNL A   1      42.286  28.099  24.545  1.00  0.00    -0.237 OA
ATOM     77  O   UNL A   1      44.220  28.317  26.062  1.00  0.00    -0.744 OA
ENDBRANCH  70  74
ENDBRANCH  53  67
BRANCH  54  78
ATOM     78  C   UNL A   1      40.521  33.018  37.407  1.00  0.00     0.023 A 
ATOM     79  C   UNL A   1      39.640  32.585  38.410  1.00  0.00     0.031 A 
ATOM     80  C   UNL A   1      41.226  34.217  37.625  1.00  0.00     0.131 A 
ATOM     81  C   UNL A   1      39.445  33.370  39.558  1.00  0.00     0.055 A 
ATOM     82  C   UNL A   1      41.075  34.962  38.796  1.00  0.00     0.041 A 
ATOM     83  F   UNL A   1      42.082  34.680  36.699  1.00  0.00    -0.206 F 
ATOM     84  C   UNL A   1      40.168  34.546  39.765  1.00  0.00     0.022 A 
BRANCH  81  85
ATOM     85  S   UNL A   1      38.150  32.884  40.732  1.00  0.00     0.124 S 
ATOM     86  O   UNL A   1      38.170  33.998  41.672  1.00  0.00    -0.237 OA
ATOM     87  O   UNL A   1      36.978  32.791  39.869  1.00  0.00    -0.237 OA
ATOM     88  O   UNL A   1      38.634  31.610  41.262  1.00  0.00    -0.744 OA
ENDBRANCH  81  85
ENDBRANCH  54  78
BRANCH  66  89
ATOM     89  C   UNL A   1      44.982  28.116  35.228  1.00  0.00     0.023 A 
ATOM     90  C   UNL A   1      44.878  26.968  36.033  1.00  0.00     0.031 A 
ATOM     91  C   UNL A   1      46.256  28.684  35.049  1.00  0.00     0.131 A 
ATOM     92  C   UNL A   1      46.017  26.460  36.676  1.00  0.00     0.055 A 
ATOM     93  C   UNL A   1      47.396  28.133  35.636  1.00  0.00     0.041 A 
ATOM     94  F   UNL A   1      46.415  29.785  34.296  1.00  0.00    -0.206 F 
ATOM     95  C   UNL A   1      47.278  27.023  36.466  1.00  0.00     0.022 A 
BRANCH  92  96
ATOM     96  S   UNL A   1      45.812  25.113  37.873  1.00  0.00     0.124 S 
ATOM     97  O   UNL A   1      46.533  24.021  37.228  1.00  0.00    -0.237 OA
ATOM     98  O   UNL A   1      46.432  25.664  39.074  1.00  0.00    -0.237 OA
ATOM     99  O   UNL A   1      44.362  24.940  37.949  1.00  0.00    -0.744 OA
ENDBRANCH  92  96
ENDBRANCH  66  89
ENDBRANCH  40  41
ENDBRANCH  32  35
ENDBRANCH  30  31
ENDBRANCH  29  30
ENDBRANCH  28  29
ENDBRANCH   1  28
TORSDOF 22
ENDMDL
