MODEL 1
REMARK VINA RESULT:     -14.2      0.000      0.000
REMARK SMILES Cc1ccccc1[C@@H]1[NH2+][C@@H](C(=O)NCCCCCCNC(=O)c2ccc(-c3c4nc(c(-c5cc(S(=O)(=O)[O-])ccc5F)c5ccc([nH]5)c(-c5cc(S(=O)(=O)[O-])ccc5F)c5nc(c(-c6cc(S(=O)(=O)[O-])ccc6F)c6ccc3[nH]6)C=C5)C=C4)cc2)CC2=c3ccccc3=N[C@@H]21
REMARK SMILES IDX 17 1 16 2 15 3 14 4 13 5 11 6 12 7 10 9 8 10 9 11 95 12
REMARK SMILES IDX 87 15 94 16 86 17 88 18 93 19 89 20 92 21 90 22 91 23 7 24
REMARK SMILES IDX 1 25 2 26 3 27 4 28 6 29 5 30 18 31 19 32 20 33 21 34 22 36
REMARK SMILES IDX 23 37 24 38 85 39 25 40 84 41 26 42 27 43 28 44 78 45 29 46
REMARK SMILES IDX 83 47 77 48 79 49 30 50 82 51 76 52 75 53 31 55 63 56 43 57
REMARK SMILES IDX 62 58 44 59 47 60 61 61 80 62 45 63 46 64 60 66 81 67 48 68
REMARK SMILES IDX 32 69 33 70 41 71 34 72 40 73 42 74 39 75 35 76 36 77 37 78
REMARK SMILES IDX 38 79 64 80 65 81 73 82 66 83 72 84 74 85 71 86 67 87 68 88
REMARK SMILES IDX 69 89 70 90 49 91 50 92 58 93 51 94 57 95 59 96 56 97 52 98
REMARK SMILES IDX 53 99 54 100 55 101
REMARK H PARENT 13 8 9 13 9 14 20 35 79 54 47 65
REMARK Flexibility Score: inf
ROOT
ATOM      1  C   UNL A   1      31.896  30.045  26.791  1.00  0.00     0.002 C 
ENDROOT
BRANCH   1   2
ATOM      2  C   UNL A   1      32.381  28.600  26.656  1.00  0.00     0.002 C 
BRANCH   2   3
ATOM      3  C   UNL A   1      31.437  27.487  27.129  1.00  0.00     0.021 C 
BRANCH   3   4
ATOM      4  C   UNL A   1      30.775  26.595  26.062  1.00  0.00     0.116 C 
BRANCH   4   5
ATOM      5  N   UNL A   1      30.493  25.175  26.343  1.00  0.00    -0.351 N 
ATOM      6  C   UNL A   1      31.439  24.194  26.686  1.00  0.00     0.278 C 
ATOM      7  O   UNL A   1      31.198  23.351  27.544  1.00  0.00    -0.268 OA
ATOM      8  H   UNL A   1      29.553  24.888  26.285  1.00  0.00     0.163 HD
BRANCH   6   9
ATOM      9  C   UNL A   1      32.649  24.168  25.757  1.00  0.00     0.277 C 
ATOM     10  C   UNL A   1      34.215  22.484  24.809  1.00  0.00     0.243 C 
ATOM     11  N   UNL A   1      33.121  22.784  25.776  1.00  0.00    -0.327 N 
ATOM     12  C   UNL A   1      34.617  23.652  23.801  1.00  0.00     0.196 C 
ATOM     13  H   UNL A   1      33.462  22.578  26.714  1.00  0.00     0.347 HD
ATOM     14  H   UNL A   1      32.328  22.205  25.501  1.00  0.00     0.347 HD
ATOM     15  C   UNL A   1      34.323  25.048  24.394  1.00  0.00    -0.024 C 
ATOM     16  N   UNL A   1      33.858  23.661  22.519  1.00  0.00    -0.270 NA
ATOM     17  C   UNL A   1      33.859  25.099  25.848  1.00  0.00     0.109 C 
ATOM     18  C   UNL A   1      33.754  25.851  23.482  1.00  0.00     0.002 A 
ATOM     19  C   UNL A   1      33.444  24.887  22.400  1.00  0.00     0.066 A 
ATOM     20  C   UNL A   1      32.953  27.036  23.653  1.00  0.00     0.010 A 
ATOM     21  C   UNL A   1      32.507  25.368  21.354  1.00  0.00     0.028 A 
ATOM     22  C   UNL A   1      32.005  27.326  22.749  1.00  0.00     0.001 A 
ATOM     23  C   UNL A   1      31.822  26.505  21.565  1.00  0.00     0.002 A 
BRANCH  10  24
ATOM     24  C   UNL A   1      34.089  20.999  24.405  1.00  0.00     0.015 A 
ATOM     25  C   UNL A   1      36.502  20.422  25.012  1.00  0.00     0.045 C 
ATOM     26  C   UNL A   1      35.086  20.044  24.690  1.00  0.00    -0.042 A 
ATOM     27  C   UNL A   1      34.742  18.674  24.757  1.00  0.00     0.004 A 
ATOM     28  C   UNL A   1      33.445  18.234  24.510  1.00  0.00     0.000 A 
ATOM     29  C   UNL A   1      32.831  20.496  24.011  1.00  0.00     0.010 A 
ATOM     30  C   UNL A   1      32.491  19.146  24.101  1.00  0.00     0.001 A 
ENDBRANCH  10  24
ENDBRANCH   6   9
ENDBRANCH   4   5
ENDBRANCH   3   4
ENDBRANCH   2   3
ENDBRANCH   1   2
BRANCH   1  31
ATOM     31  C   UNL A   1      32.948  31.084  27.177  1.00  0.00     0.021 C 
BRANCH  31  32
ATOM     32  C   UNL A   1      34.281  30.512  27.651  1.00  0.00     0.116 C 
BRANCH  32  33
ATOM     33  N   UNL A   1      34.962  31.358  28.617  1.00  0.00    -0.352 N 
ATOM     34  C   UNL A   1      36.028  31.090  29.455  1.00  0.00     0.251 C 
ATOM     35  H   UNL A   1      34.604  32.272  28.687  1.00  0.00     0.163 HD
ATOM     36  O   UNL A   1      36.280  31.844  30.384  1.00  0.00    -0.269 OA
BRANCH  34  37
ATOM     37  C   UNL A   1      36.972  29.983  29.137  1.00  0.00     0.039 A 
ATOM     38  C   UNL A   1      37.180  29.025  30.144  1.00  0.00     0.014 A 
ATOM     39  C   UNL A   1      37.780  29.973  28.004  1.00  0.00     0.014 A 
ATOM     40  C   UNL A   1      38.320  28.224  30.119  1.00  0.00     0.010 A 
ATOM     41  C   UNL A   1      38.946  29.234  28.010  1.00  0.00     0.010 A 
ATOM     42  C   UNL A   1      39.245  28.411  29.096  1.00  0.00    -0.014 A 
BRANCH  42  43
ATOM     43  C   UNL A   1      40.595  27.868  29.120  1.00  0.00     0.031 A 
ATOM     44  C   UNL A   1      40.861  26.498  28.656  1.00  0.00     0.074 A 
ATOM     45  C   UNL A   1      41.617  28.667  29.491  1.00  0.00     0.049 A 
ATOM     46  N   UNL A   1      41.884  25.799  29.009  1.00  0.00    -0.248 NA
ATOM     47  C   UNL A   1      39.956  25.788  27.764  1.00  0.00     0.031 C 
ATOM     48  C   UNL A   1      43.047  28.408  29.358  1.00  0.00     0.029 A 
ATOM     49  N   UNL A   1      41.540  29.794  30.307  1.00  0.00    -0.354 N 
ATOM     50  C   UNL A   1      41.935  24.691  28.198  1.00  0.00     0.074 A 
ATOM     51  C   UNL A   1      40.675  24.695  27.488  1.00  0.00     0.031 C 
ATOM     52  C   UNL A   1      43.700  29.142  30.272  1.00  0.00     0.029 A 
ATOM     53  C   UNL A   1      42.703  29.785  31.107  1.00  0.00     0.049 A 
ATOM     54  H   UNL A   1      40.819  30.464  30.322  1.00  0.00     0.167 HD
ATOM     55  C   UNL A   1      43.091  23.971  28.125  1.00  0.00     0.034 A 
ATOM     56  C   UNL A   1      42.594  29.659  32.463  1.00  0.00     0.034 A 
ATOM     57  C   UNL A   1      44.110  24.484  29.043  1.00  0.00     0.049 A 
ATOM     58  C   UNL A   1      43.217  28.386  33.016  1.00  0.00     0.074 A 
ATOM     59  C   UNL A   1      45.236  25.277  28.904  1.00  0.00     0.029 A 
ATOM     60  N   UNL A   1      43.871  24.403  30.403  1.00  0.00    -0.354 N 
ATOM     61  N   UNL A   1      43.778  27.458  32.287  1.00  0.00    -0.248 NA
ATOM     62  C   UNL A   1      43.185  28.022  34.434  1.00  0.00     0.031 C 
ATOM     63  C   UNL A   1      45.641  25.703  30.206  1.00  0.00     0.029 A 
ATOM     64  C   UNL A   1      44.777  25.147  31.131  1.00  0.00     0.049 A 
ATOM     65  H   UNL A   1      43.141  23.878  30.804  1.00  0.00     0.167 HD
ATOM     66  C   UNL A   1      44.104  26.385  33.076  1.00  0.00     0.074 A 
ATOM     67  C   UNL A   1      43.723  26.791  34.417  1.00  0.00     0.031 C 
ATOM     68  C   UNL A   1      44.615  25.222  32.575  1.00  0.00     0.034 A 
BRANCH  55  69
ATOM     69  C   UNL A   1      43.388  22.954  27.049  1.00  0.00     0.023 A 
ATOM     70  C   UNL A   1      42.788  21.680  27.128  1.00  0.00     0.031 A 
ATOM     71  C   UNL A   1      44.256  23.143  25.956  1.00  0.00     0.131 A 
ATOM     72  C   UNL A   1      43.131  20.648  26.237  1.00  0.00     0.055 A 
ATOM     73  C   UNL A   1      44.649  22.101  25.107  1.00  0.00     0.041 A 
ATOM     74  F   UNL A   1      44.715  24.357  25.623  1.00  0.00    -0.206 F 
ATOM     75  C   UNL A   1      44.096  20.839  25.253  1.00  0.00     0.022 A 
BRANCH  72  76
ATOM     76  S   UNL A   1      42.284  19.051  26.374  1.00  0.00     0.124 S 
ATOM     77  O   UNL A   1      43.094  18.195  25.513  1.00  0.00    -0.237 OA
ATOM     78  O   UNL A   1      42.361  18.787  27.807  1.00  0.00    -0.237 OA
ATOM     79  O   UNL A   1      40.941  19.336  25.870  1.00  0.00    -0.744 OA
ENDBRANCH  72  76
ENDBRANCH  55  69
BRANCH  56  80
ATOM     80  C   UNL A   1      41.376  30.352  32.991  1.00  0.00     0.023 A 
ATOM     81  C   UNL A   1      41.391  31.770  33.005  1.00  0.00     0.031 A 
ATOM     82  C   UNL A   1      40.132  29.712  33.066  1.00  0.00     0.131 A 
ATOM     83  C   UNL A   1      40.192  32.493  32.918  1.00  0.00     0.055 A 
ATOM     84  C   UNL A   1      38.937  30.443  33.053  1.00  0.00     0.041 A 
ATOM     85  F   UNL A   1      40.044  28.376  33.022  1.00  0.00    -0.206 F 
ATOM     86  C   UNL A   1      38.962  31.832  32.930  1.00  0.00     0.022 A 
BRANCH  83  87
ATOM     87  S   UNL A   1      40.243  34.270  32.517  1.00  0.00     0.124 S 
ATOM     88  O   UNL A   1      40.767  34.260  31.157  1.00  0.00    -0.237 OA
ATOM     89  O   UNL A   1      38.851  34.689  32.656  1.00  0.00    -0.237 OA
ATOM     90  O   UNL A   1      41.139  34.821  33.533  1.00  0.00    -0.744 OA
ENDBRANCH  83  87
ENDBRANCH  56  80
BRANCH  68  91
ATOM     91  C   UNL A   1      44.986  24.039  33.432  1.00  0.00     0.023 A 
ATOM     92  C   UNL A   1      46.323  23.721  33.716  1.00  0.00     0.031 A 
ATOM     93  C   UNL A   1      44.010  23.139  33.919  1.00  0.00     0.131 A 
ATOM     94  C   UNL A   1      46.640  22.593  34.495  1.00  0.00     0.055 A 
ATOM     95  C   UNL A   1      44.335  21.973  34.614  1.00  0.00     0.041 A 
ATOM     96  F   UNL A   1      42.698  23.379  33.781  1.00  0.00    -0.206 F 
ATOM     97  C   UNL A   1      45.659  21.698  34.917  1.00  0.00     0.022 A 
BRANCH  94  98
ATOM     98  S   UNL A   1      48.357  22.360  35.025  1.00  0.00     0.124 S 
ATOM     99  O   UNL A   1      48.690  21.055  34.466  1.00  0.00    -0.237 OA
ATOM    100  O   UNL A   1      49.015  23.505  34.401  1.00  0.00    -0.237 OA
ATOM    101  O   UNL A   1      48.279  22.412  36.483  1.00  0.00    -0.744 OA
ENDBRANCH  94  98
ENDBRANCH  68  91
ENDBRANCH  42  43
ENDBRANCH  34  37
ENDBRANCH  32  33
ENDBRANCH  31  32
ENDBRANCH   1  31
TORSDOF 17
ENDMDL
MODEL 2
REMARK VINA RESULT:     -13.6      3.995     10.590
REMARK SMILES Cc1ccccc1[C@@H]1[NH2+][C@@H](C(=O)NCCCCCCNC(=O)c2ccc(-c3c4nc(c(-c5cc(S(=O)(=O)[O-])ccc5F)c5ccc([nH]5)c(-c5cc(S(=O)(=O)[O-])ccc5F)c5nc(c(-c6cc(S(=O)(=O)[O-])ccc6F)c6ccc3[nH]6)C=C5)C=C4)cc2)CC2=c3ccccc3=N[C@@H]21
REMARK SMILES IDX 17 1 16 2 15 3 14 4 13 5 11 6 12 7 10 9 8 10 9 11 95 12
REMARK SMILES IDX 87 15 94 16 86 17 88 18 93 19 89 20 92 21 90 22 91 23 7 24
REMARK SMILES IDX 1 25 2 26 3 27 4 28 6 29 5 30 18 31 19 32 20 33 21 34 22 36
REMARK SMILES IDX 23 37 24 38 85 39 25 40 84 41 26 42 27 43 28 44 78 45 29 46
REMARK SMILES IDX 83 47 77 48 79 49 30 50 82 51 76 52 75 53 31 55 63 56 43 57
REMARK SMILES IDX 62 58 44 59 47 60 61 61 80 62 45 63 46 64 60 66 81 67 48 68
REMARK SMILES IDX 32 69 33 70 41 71 34 72 40 73 42 74 39 75 35 76 36 77 37 78
REMARK SMILES IDX 38 79 64 80 65 81 73 82 66 83 72 84 74 85 71 86 67 87 68 88
REMARK SMILES IDX 69 89 70 90 49 91 50 92 58 93 51 94 57 95 59 96 56 97 52 98
REMARK SMILES IDX 53 99 54 100 55 101
REMARK H PARENT 13 8 9 13 9 14 20 35 79 54 47 65
REMARK Flexibility Score: inf
ROOT
ATOM      1  C   UNL A   1      36.872  22.848  25.560  1.00  0.00     0.002 C 
ENDROOT
BRANCH   1   2
ATOM      2  C   UNL A   1      36.676  22.143  24.215  1.00  0.00     0.002 C 
BRANCH   2   3
ATOM      3  C   UNL A   1      35.936  22.910  23.113  1.00  0.00     0.021 C 
BRANCH   3   4
ATOM      4  C   UNL A   1      34.403  23.019  23.208  1.00  0.00     0.116 C 
BRANCH   4   5
ATOM      5  N   UNL A   1      33.656  23.898  22.288  1.00  0.00    -0.351 N 
ATOM      6  C   UNL A   1      33.547  25.295  22.384  1.00  0.00     0.278 C 
ATOM      7  O   UNL A   1      33.594  26.006  21.385  1.00  0.00    -0.268 OA
ATOM      8  H   UNL A   1      33.191  23.463  21.537  1.00  0.00     0.163 HD
BRANCH   6   9
ATOM      9  C   UNL A   1      33.156  25.778  23.777  1.00  0.00     0.277 C 
ATOM     10  C   UNL A   1      31.907  27.674  24.794  1.00  0.00     0.243 C 
ATOM     11  N   UNL A   1      32.515  27.076  23.572  1.00  0.00    -0.327 N 
ATOM     12  C   UNL A   1      31.911  26.769  26.108  1.00  0.00     0.196 C 
ATOM     13  H   UNL A   1      33.217  27.725  23.217  1.00  0.00     0.347 HD
ATOM     14  H   UNL A   1      31.748  26.918  22.918  1.00  0.00     0.347 HD
ATOM     15  C   UNL A   1      33.082  25.762  26.108  1.00  0.00    -0.024 C 
ATOM     16  N   UNL A   1      30.713  25.899  26.270  1.00  0.00    -0.270 NA
ATOM     17  C   UNL A   1      34.100  25.884  24.977  1.00  0.00     0.109 C 
ATOM     18  C   UNL A   1      32.676  24.549  26.514  1.00  0.00     0.002 A 
ATOM     19  C   UNL A   1      31.204  24.720  26.514  1.00  0.00     0.066 A 
ATOM     20  C   UNL A   1      33.258  23.249  26.296  1.00  0.00     0.010 A 
ATOM     21  C   UNL A   1      30.407  23.471  26.599  1.00  0.00     0.028 A 
ATOM     22  C   UNL A   1      32.458  22.175  26.219  1.00  0.00     0.001 A 
ATOM     23  C   UNL A   1      31.025  22.290  26.425  1.00  0.00     0.002 A 
BRANCH  10  24
ATOM     24  C   UNL A   1      30.713  28.544  24.347  1.00  0.00     0.015 A 
ATOM     25  C   UNL A   1      31.452  30.596  25.675  1.00  0.00     0.045 C 
ATOM     26  C   UNL A   1      30.636  29.927  24.609  1.00  0.00    -0.042 A 
ATOM     27  C   UNL A   1      29.823  30.748  23.794  1.00  0.00     0.004 A 
ATOM     28  C   UNL A   1      29.059  30.219  22.757  1.00  0.00     0.000 A 
ATOM     29  C   UNL A   1      29.808  28.033  23.392  1.00  0.00     0.010 A 
ATOM     30  C   UNL A   1      29.025  28.850  22.575  1.00  0.00     0.001 A 
ENDBRANCH  10  24
ENDBRANCH   6   9
ENDBRANCH   4   5
ENDBRANCH   3   4
ENDBRANCH   2   3
ENDBRANCH   1   2
BRANCH   1  31
ATOM     31  C   UNL A   1      38.233  23.499  25.796  1.00  0.00     0.021 C 
BRANCH  31  32
ATOM     32  C   UNL A   1      39.178  22.720  26.708  1.00  0.00     0.116 C 
BRANCH  32  33
ATOM     33  N   UNL A   1      40.578  23.060  26.516  1.00  0.00    -0.352 N 
ATOM     34  C   UNL A   1      41.199  24.290  26.412  1.00  0.00     0.251 C 
ATOM     35  H   UNL A   1      41.182  22.286  26.448  1.00  0.00     0.163 HD
ATOM     36  O   UNL A   1      42.342  24.363  25.983  1.00  0.00    -0.269 OA
BRANCH  34  37
ATOM     37  C   UNL A   1      40.551  25.508  26.972  1.00  0.00     0.039 A 
ATOM     38  C   UNL A   1      40.729  26.702  26.254  1.00  0.00     0.014 A 
ATOM     39  C   UNL A   1      39.971  25.548  28.237  1.00  0.00     0.014 A 
ATOM     40  C   UNL A   1      40.542  27.930  26.886  1.00  0.00     0.010 A 
ATOM     41  C   UNL A   1      39.853  26.759  28.890  1.00  0.00     0.010 A 
ATOM     42  C   UNL A   1      40.200  27.941  28.235  1.00  0.00    -0.014 A 
BRANCH  42  43
ATOM     43  C   UNL A   1      40.274  29.126  29.077  1.00  0.00     0.031 A 
ATOM     44  C   UNL A   1      39.186  30.116  29.075  1.00  0.00     0.074 A 
ATOM     45  C   UNL A   1      41.312  29.265  29.927  1.00  0.00     0.049 A 
ATOM     46  N   UNL A   1      39.324  31.346  29.433  1.00  0.00    -0.248 NA
ATOM     47  C   UNL A   1      37.838  29.791  28.629  1.00  0.00     0.031 C 
ATOM     48  C   UNL A   1      41.457  30.231  31.010  1.00  0.00     0.029 A 
ATOM     49  N   UNL A   1      42.576  28.689  29.799  1.00  0.00    -0.354 N 
ATOM     50  C   UNL A   1      38.068  31.893  29.544  1.00  0.00     0.074 A 
ATOM     51  C   UNL A   1      37.183  30.907  28.966  1.00  0.00     0.031 C 
ATOM     52  C   UNL A   1      42.765  30.401  31.258  1.00  0.00     0.029 A 
ATOM     53  C   UNL A   1      43.499  29.656  30.252  1.00  0.00     0.049 A 
ATOM     54  H   UNL A   1      42.783  27.789  29.462  1.00  0.00     0.167 HD
ATOM     55  C   UNL A   1      37.909  33.061  30.230  1.00  0.00     0.034 A 
ATOM     56  C   UNL A   1      44.419  30.175  29.385  1.00  0.00     0.034 A 
ATOM     57  C   UNL A   1      39.191  33.605  30.682  1.00  0.00     0.049 A 
ATOM     58  C   UNL A   1      44.256  31.667  29.135  1.00  0.00     0.074 A 
ATOM     59  C   UNL A   1      39.870  33.624  31.889  1.00  0.00     0.029 A 
ATOM     60  N   UNL A   1      40.105  34.018  29.729  1.00  0.00    -0.354 N 
ATOM     61  N   UNL A   1      43.312  32.407  29.652  1.00  0.00    -0.248 NA
ATOM     62  C   UNL A   1      45.103  32.427  28.214  1.00  0.00     0.031 C 
ATOM     63  C   UNL A   1      41.219  34.016  31.632  1.00  0.00     0.029 A 
ATOM     64  C   UNL A   1      41.348  34.259  30.276  1.00  0.00     0.049 A 
ATOM     65  H   UNL A   1      39.893  34.126  28.774  1.00  0.00     0.167 HD
ATOM     66  C   UNL A   1      43.364  33.666  29.112  1.00  0.00     0.074 A 
ATOM     67  C   UNL A   1      44.511  33.634  28.223  1.00  0.00     0.031 C 
ATOM     68  C   UNL A   1      42.438  34.632  29.388  1.00  0.00     0.034 A 
BRANCH  55  69
ATOM     69  C   UNL A   1      36.576  33.590  30.704  1.00  0.00     0.023 A 
ATOM     70  C   UNL A   1      35.692  34.159  29.765  1.00  0.00     0.031 A 
ATOM     71  C   UNL A   1      36.124  33.600  32.038  1.00  0.00     0.131 A 
ATOM     72  C   UNL A   1      34.500  34.789  30.163  1.00  0.00     0.055 A 
ATOM     73  C   UNL A   1      34.971  34.283  32.446  1.00  0.00     0.041 A 
ATOM     74  F   UNL A   1      36.743  32.898  32.997  1.00  0.00    -0.206 F 
ATOM     75  C   UNL A   1      34.158  34.896  31.507  1.00  0.00     0.022 A 
BRANCH  72  76
ATOM     76  S   UNL A   1      33.394  35.459  28.893  1.00  0.00     0.124 S 
ATOM     77  O   UNL A   1      32.809  34.250  28.321  1.00  0.00    -0.237 OA
ATOM     78  O   UNL A   1      32.500  36.302  29.679  1.00  0.00    -0.237 OA
ATOM     79  O   UNL A   1      34.301  36.184  28.003  1.00  0.00    -0.744 OA
ENDBRANCH  72  76
ENDBRANCH  55  69
BRANCH  56  80
ATOM     80  C   UNL A   1      44.889  29.156  28.395  1.00  0.00     0.023 A 
ATOM     81  C   UNL A   1      45.769  28.150  28.867  1.00  0.00     0.031 A 
ATOM     82  C   UNL A   1      44.202  28.912  27.198  1.00  0.00     0.131 A 
ATOM     83  C   UNL A   1      45.808  26.893  28.246  1.00  0.00     0.055 A 
ATOM     84  C   UNL A   1      44.301  27.679  26.542  1.00  0.00     0.041 A 
ATOM     85  F   UNL A   1      43.327  29.805  26.715  1.00  0.00    -0.206 F 
ATOM     86  C   UNL A   1      45.066  26.649  27.089  1.00  0.00     0.022 A 
BRANCH  83  87
ATOM     87  S   UNL A   1      46.612  25.496  29.097  1.00  0.00     0.124 S 
ATOM     88  O   UNL A   1      47.692  25.160  28.177  1.00  0.00    -0.237 OA
ATOM     89  O   UNL A   1      47.026  26.069  30.374  1.00  0.00    -0.237 OA
ATOM     90  O   UNL A   1      45.543  24.503  29.204  1.00  0.00    -0.744 OA
ENDBRANCH  83  87
ENDBRANCH  56  80
BRANCH  68  91
ATOM     91  C   UNL A   1      42.489  36.022  28.808  1.00  0.00     0.023 A 
ATOM     92  C   UNL A   1      42.905  37.127  29.567  1.00  0.00     0.031 A 
ATOM     93  C   UNL A   1      42.035  36.297  27.498  1.00  0.00     0.131 A 
ATOM     94  C   UNL A   1      42.914  38.417  29.008  1.00  0.00     0.055 A 
ATOM     95  C   UNL A   1      41.959  37.591  26.978  1.00  0.00     0.041 A 
ATOM     96  F   UNL A   1      41.688  35.318  26.651  1.00  0.00    -0.206 F 
ATOM     97  C   UNL A   1      42.412  38.663  27.731  1.00  0.00     0.022 A 
BRANCH  94  98
ATOM     98  S   UNL A   1      43.676  39.765  29.949  1.00  0.00     0.124 S 
ATOM     99  O   UNL A   1      44.933  39.978  29.240  1.00  0.00    -0.237 OA
ATOM    100  O   UNL A   1      42.680  40.823  29.807  1.00  0.00    -0.237 OA
ATOM    101  O   UNL A   1      43.807  39.215  31.296  1.00  0.00    -0.744 OA
ENDBRANCH  94  98
ENDBRANCH  68  91
ENDBRANCH  42  43
ENDBRANCH  34  37
ENDBRANCH  32  33
ENDBRANCH  31  32
ENDBRANCH   1  31
TORSDOF 17
ENDMDL
MODEL 3
REMARK VINA RESULT:     -13.5      2.278      2.821
REMARK SMILES Cc1ccccc1[C@@H]1[NH2+][C@@H](C(=O)NCCCCCCNC(=O)c2ccc(-c3c4nc(c(-c5cc(S(=O)(=O)[O-])ccc5F)c5ccc([nH]5)c(-c5cc(S(=O)(=O)[O-])ccc5F)c5nc(c(-c6cc(S(=O)(=O)[O-])ccc6F)c6ccc3[nH]6)C=C5)C=C4)cc2)CC2=c3ccccc3=N[C@@H]21
REMARK SMILES IDX 17 1 16 2 15 3 14 4 13 5 11 6 12 7 10 9 8 10 9 11 95 12
REMARK SMILES IDX 87 15 94 16 86 17 88 18 93 19 89 20 92 21 90 22 91 23 7 24
REMARK SMILES IDX 1 25 2 26 3 27 4 28 6 29 5 30 18 31 19 32 20 33 21 34 22 36
REMARK SMILES IDX 23 37 24 38 85 39 25 40 84 41 26 42 27 43 28 44 78 45 29 46
REMARK SMILES IDX 83 47 77 48 79 49 30 50 82 51 76 52 75 53 31 55 63 56 43 57
REMARK SMILES IDX 62 58 44 59 47 60 61 61 80 62 45 63 46 64 60 66 81 67 48 68
REMARK SMILES IDX 32 69 33 70 41 71 34 72 40 73 42 74 39 75 35 76 36 77 37 78
REMARK SMILES IDX 38 79 64 80 65 81 73 82 66 83 72 84 74 85 71 86 67 87 68 88
REMARK SMILES IDX 69 89 70 90 49 91 50 92 58 93 51 94 57 95 59 96 56 97 52 98
REMARK SMILES IDX 53 99 54 100 55 101
REMARK H PARENT 13 8 9 13 9 14 20 35 79 54 47 65
REMARK Flexibility Score: inf
ROOT
ATOM      1  C   UNL A   1      31.551  28.376  27.555  1.00  0.00     0.002 C 
ENDROOT
BRANCH   1   2
ATOM      2  C   UNL A   1      31.499  26.972  26.949  1.00  0.00     0.002 C 
BRANCH   2   3
ATOM      3  C   UNL A   1      30.558  26.747  25.759  1.00  0.00     0.021 C 
BRANCH   3   4
ATOM      4  C   UNL A   1      30.569  25.365  25.077  1.00  0.00     0.116 C 
BRANCH   4   5
ATOM      5  N   UNL A   1      29.973  24.194  25.748  1.00  0.00    -0.351 N 
ATOM      6  C   UNL A   1      30.588  23.401  26.731  1.00  0.00     0.278 C 
ATOM      7  O   UNL A   1      29.960  22.989  27.700  1.00  0.00    -0.268 OA
ATOM      8  H   UNL A   1      29.058  23.947  25.482  1.00  0.00     0.163 HD
BRANCH   6   9
ATOM      9  C   UNL A   1      31.996  22.950  26.351  1.00  0.00     0.277 C 
ATOM     10  C   UNL A   1      33.132  20.866  25.606  1.00  0.00     0.243 C 
ATOM     11  N   UNL A   1      31.897  21.506  26.141  1.00  0.00    -0.327 N 
ATOM     12  C   UNL A   1      34.326  21.844  25.206  1.00  0.00     0.196 C 
ATOM     13  H   UNL A   1      31.675  21.070  27.036  1.00  0.00     0.347 HD
ATOM     14  H   UNL A   1      31.173  21.367  25.436  1.00  0.00     0.347 HD
ATOM     15  C   UNL A   1      34.296  23.153  26.026  1.00  0.00    -0.024 C 
ATOM     16  N   UNL A   1      34.294  22.325  23.797  1.00  0.00    -0.270 NA
ATOM     17  C   UNL A   1      33.267  23.242  27.151  1.00  0.00     0.109 C 
ATOM     18  C   UNL A   1      34.524  24.220  25.244  1.00  0.00     0.002 A 
ATOM     19  C   UNL A   1      34.433  23.614  23.894  1.00  0.00     0.066 A 
ATOM     20  C   UNL A   1      34.199  25.609  25.442  1.00  0.00     0.010 A 
ATOM     21  C   UNL A   1      34.311  24.567  22.764  1.00  0.00     0.028 A 
ATOM     22  C   UNL A   1      33.936  26.381  24.377  1.00  0.00     0.001 A 
ATOM     23  C   UNL A   1      34.045  25.859  23.026  1.00  0.00     0.002 A 
BRANCH  10  24
ATOM     24  C   UNL A   1      32.702  19.640  24.772  1.00  0.00     0.015 A 
ATOM     25  C   UNL A   1      31.904  21.024  22.780  1.00  0.00     0.045 C 
ATOM     26  C   UNL A   1      32.327  19.734  23.417  1.00  0.00    -0.042 A 
ATOM     27  C   UNL A   1      32.421  18.593  22.586  1.00  0.00     0.004 A 
ATOM     28  C   UNL A   1      32.840  17.361  23.082  1.00  0.00     0.000 A 
ATOM     29  C   UNL A   1      32.968  18.345  25.264  1.00  0.00     0.010 A 
ATOM     30  C   UNL A   1      33.083  17.228  24.436  1.00  0.00     0.001 A 
ENDBRANCH  10  24
ENDBRANCH   6   9
ENDBRANCH   4   5
ENDBRANCH   3   4
ENDBRANCH   2   3
ENDBRANCH   1   2
BRANCH   1  31
ATOM     31  C   UNL A   1      32.170  29.471  26.687  1.00  0.00     0.021 C 
BRANCH  31  32
ATOM     32  C   UNL A   1      33.685  29.610  26.799  1.00  0.00     0.116 C 
BRANCH  32  33
ATOM     33  N   UNL A   1      34.104  30.787  27.543  1.00  0.00    -0.352 N 
ATOM     34  C   UNL A   1      35.133  30.958  28.450  1.00  0.00     0.251 C 
ATOM     35  H   UNL A   1      33.566  31.593  27.373  1.00  0.00     0.163 HD
ATOM     36  O   UNL A   1      35.154  31.947  29.170  1.00  0.00    -0.269 OA
BRANCH  34  37
ATOM     37  C   UNL A   1      36.301  30.035  28.445  1.00  0.00     0.039 A 
ATOM     38  C   UNL A   1      36.493  29.257  29.599  1.00  0.00     0.014 A 
ATOM     39  C   UNL A   1      37.287  30.061  27.463  1.00  0.00     0.014 A 
ATOM     40  C   UNL A   1      37.744  28.704  29.865  1.00  0.00     0.010 A 
ATOM     41  C   UNL A   1      38.546  29.578  27.755  1.00  0.00     0.010 A 
ATOM     42  C   UNL A   1      38.788  28.957  28.981  1.00  0.00    -0.014 A 
BRANCH  42  43
ATOM     43  C   UNL A   1      40.188  28.704  29.291  1.00  0.00     0.031 A 
ATOM     44  C   UNL A   1      40.849  27.477  28.822  1.00  0.00     0.074 A 
ATOM     45  C   UNL A   1      40.899  29.649  29.939  1.00  0.00     0.049 A 
ATOM     46  N   UNL A   1      41.901  26.967  29.363  1.00  0.00    -0.248 NA
ATOM     47  C   UNL A   1      40.342  26.698  27.700  1.00  0.00     0.031 C 
ATOM     48  C   UNL A   1      42.344  29.705  30.132  1.00  0.00     0.029 A 
ATOM     49  N   UNL A   1      40.395  30.640  30.780  1.00  0.00    -0.354 N 
ATOM     50  C   UNL A   1      42.374  25.989  28.522  1.00  0.00     0.074 A 
ATOM     51  C   UNL A   1      41.331  25.813  27.537  1.00  0.00     0.031 C 
ATOM     52  C   UNL A   1      42.601  30.452  31.217  1.00  0.00     0.029 A 
ATOM     53  C   UNL A   1      41.328  30.781  31.830  1.00  0.00     0.049 A 
ATOM     54  H   UNL A   1      39.557  31.142  30.665  1.00  0.00     0.167 HD
ATOM     55  C   UNL A   1      43.650  25.534  28.681  1.00  0.00     0.034 A 
ATOM     56  C   UNL A   1      40.958  30.488  33.112  1.00  0.00     0.034 A 
ATOM     57  C   UNL A   1      44.303  26.140  29.843  1.00  0.00     0.049 A 
ATOM     58  C   UNL A   1      41.716  29.317  33.719  1.00  0.00     0.074 A 
ATOM     59  C   UNL A   1      45.225  27.158  30.021  1.00  0.00     0.029 A 
ATOM     60  N   UNL A   1      43.799  25.864  31.101  1.00  0.00    -0.354 N 
ATOM     61  N   UNL A   1      42.615  28.609  33.089  1.00  0.00    -0.248 NA
ATOM     62  C   UNL A   1      41.459  28.800  35.065  1.00  0.00     0.031 C 
ATOM     63  C   UNL A   1      45.232  27.512  31.405  1.00  0.00     0.029 A 
ATOM     64  C   UNL A   1      44.335  26.692  32.065  1.00  0.00     0.049 A 
ATOM     65  H   UNL A   1      43.136  25.160  31.286  1.00  0.00     0.167 HD
ATOM     66  C   UNL A   1      42.994  27.545  33.867  1.00  0.00     0.074 A 
ATOM     67  C   UNL A   1      42.250  27.714  35.102  1.00  0.00     0.031 C 
ATOM     68  C   UNL A   1      43.850  26.574  33.432  1.00  0.00     0.034 A 
BRANCH  55  69
ATOM     69  C   UNL A   1      44.394  24.723  27.647  1.00  0.00     0.023 A 
ATOM     70  C   UNL A   1      45.345  25.367  26.829  1.00  0.00     0.031 A 
ATOM     71  C   UNL A   1      44.209  23.351  27.389  1.00  0.00     0.131 A 
ATOM     72  C   UNL A   1      45.970  24.699  25.760  1.00  0.00     0.055 A 
ATOM     73  C   UNL A   1      44.779  22.700  26.287  1.00  0.00     0.041 A 
ATOM     74  F   UNL A   1      43.518  22.564  28.224  1.00  0.00    -0.206 F 
ATOM     75  C   UNL A   1      45.655  23.379  25.455  1.00  0.00     0.022 A 
BRANCH  72  76
ATOM     76  S   UNL A   1      47.213  25.581  24.780  1.00  0.00     0.124 S 
ATOM     77  O   UNL A   1      47.483  24.637  23.700  1.00  0.00    -0.237 OA
ATOM     78  O   UNL A   1      46.503  26.801  24.411  1.00  0.00    -0.237 OA
ATOM     79  O   UNL A   1      48.315  25.770  25.722  1.00  0.00    -0.744 OA
ENDBRANCH  72  76
ENDBRANCH  55  69
BRANCH  56  80
ATOM     80  C   UNL A   1      39.531  30.855  33.378  1.00  0.00     0.023 A 
ATOM     81  C   UNL A   1      39.225  32.234  33.485  1.00  0.00     0.031 A 
ATOM     82  C   UNL A   1      38.476  29.971  33.114  1.00  0.00     0.131 A 
ATOM     83  C   UNL A   1      37.943  32.704  33.162  1.00  0.00     0.055 A 
ATOM     84  C   UNL A   1      37.181  30.441  32.864  1.00  0.00     0.041 A 
ATOM     85  F   UNL A   1      38.701  28.658  32.965  1.00  0.00    -0.206 F 
ATOM     86  C   UNL A   1      36.920  31.811  32.839  1.00  0.00     0.022 A 
BRANCH  83  87
ATOM     87  S   UNL A   1      37.681  34.488  32.899  1.00  0.00     0.124 S 
ATOM     88  O   UNL A   1      36.227  34.577  32.842  1.00  0.00    -0.237 OA
ATOM     89  O   UNL A   1      38.306  35.100  34.068  1.00  0.00    -0.237 OA
ATOM     90  O   UNL A   1      38.379  34.751  31.640  1.00  0.00    -0.744 OA
ENDBRANCH  83  87
ENDBRANCH  56  80
BRANCH  68  91
ATOM     91  C   UNL A   1      44.281  25.405  34.280  1.00  0.00     0.023 A 
ATOM     92  C   UNL A   1      45.636  25.122  34.517  1.00  0.00     0.031 A 
ATOM     93  C   UNL A   1      43.347  24.483  34.805  1.00  0.00     0.131 A 
ATOM     94  C   UNL A   1      46.009  24.007  35.288  1.00  0.00     0.055 A 
ATOM     95  C   UNL A   1      43.726  23.328  35.493  1.00  0.00     0.041 A 
ATOM     96  F   UNL A   1      42.025  24.688  34.714  1.00  0.00    -0.206 F 
ATOM     97  C   UNL A   1      45.067  23.089  35.749  1.00  0.00     0.022 A 
BRANCH  94  98
ATOM     98  S   UNL A   1      47.749  23.820  35.757  1.00  0.00     0.124 S 
ATOM     99  O   UNL A   1      47.792  24.436  37.078  1.00  0.00    -0.237 OA
ATOM    100  O   UNL A   1      47.908  22.369  35.727  1.00  0.00    -0.237 OA
ATOM    101  O   UNL A   1      48.469  24.542  34.710  1.00  0.00    -0.744 OA
ENDBRANCH  94  98
ENDBRANCH  68  91
ENDBRANCH  42  43
ENDBRANCH  34  37
ENDBRANCH  32  33
ENDBRANCH  31  32
ENDBRANCH   1  31
TORSDOF 17
ENDMDL
