MODEL 1
REMARK VINA RESULT:     -11.5      0.000      0.000
REMARK SMILES COc1ccc(-c2noc(CC(=O)NCCCCCCNC(=O)c3ccc(-c4c5nc(c(-c6cc(S(=O)(=O)[O-])ccc6F)c6ccc([nH]6)c(-c6cc(S(=O)(=O)[O-])ccc6F)c6nc(c(-c7cc(S(=O)(=O)[O-])ccc7F)c7ccc4[nH]7)C=C6)C=C5)cc3)c2-c2ccc(OC)cc2)cc1
REMARK SMILES IDX 17 1 16 2 15 3 14 4 12 5 13 6 11 8 10 9 7 10 8 11 87 12 9 13
REMARK SMILES IDX 6 14 3 15 4 16 97 17 5 18 96 19 2 20 1 21 88 22 89 23 95 24
REMARK SMILES IDX 90 25 94 26 91 27 92 28 93 29 18 30 19 31 20 32 21 33 22 34
REMARK SMILES IDX 23 36 24 37 25 38 86 39 26 40 85 41 27 42 28 43 29 44 79 45
REMARK SMILES IDX 30 46 84 47 78 48 80 49 31 50 83 51 77 52 76 53 32 55 64 56
REMARK SMILES IDX 44 57 63 58 45 59 48 60 62 61 81 62 46 63 47 64 61 66 82 67
REMARK SMILES IDX 49 68 33 69 34 70 42 71 35 72 41 73 43 74 40 75 36 76 37 77
REMARK SMILES IDX 38 78 39 79 65 80 66 81 74 82 67 83 73 84 75 85 72 86 68 87
REMARK SMILES IDX 69 88 70 89 71 90 50 91 51 92 59 93 52 94 58 95 60 96 57 97
REMARK SMILES IDX 53 98 54 99 55 100 56 101
REMARK H PARENT 14 7 21 35 80 54 48 65
REMARK Flexibility Score: inf
ROOT
ATOM      1  C   UNL A   1      32.491  29.813  26.673  1.00  0.00     0.002 C 
ENDROOT
BRANCH   1   2
ATOM      2  C   UNL A   1      33.658  29.405  25.765  1.00  0.00     0.021 C 
BRANCH   2   3
ATOM      3  C   UNL A   1      33.931  27.901  25.769  1.00  0.00     0.116 C 
BRANCH   3   4
ATOM      4  N   UNL A   1      32.751  27.165  26.177  1.00  0.00    -0.356 N 
ATOM      5  C   UNL A   1      31.975  26.317  25.443  1.00  0.00     0.227 C 
ATOM      6  O   UNL A   1      30.946  25.871  25.959  1.00  0.00    -0.275 OA
ATOM      7  H   UNL A   1      32.472  27.295  27.113  1.00  0.00     0.163 HD
BRANCH   5   8
ATOM      8  C   UNL A   1      32.436  25.846  24.078  1.00  0.00     0.179 C 
BRANCH   8   9
ATOM      9  C   UNL A   1      32.177  24.405  23.844  1.00  0.00     0.154 A 
ATOM     10  C   UNL A   1      32.025  22.205  23.620  1.00  0.00     0.122 A 
ATOM     11  N   UNL A   1      30.895  22.716  23.110  1.00  0.00    -0.079 NA
ATOM     12  C   UNL A   1      32.883  23.244  24.085  1.00  0.00     0.053 A 
ATOM     13  O   UNL A   1      30.986  24.085  23.269  1.00  0.00    -0.360 OA
BRANCH  10  14
ATOM     14  C   UNL A   1      32.262  20.769  23.685  1.00  0.00     0.005 A 
ATOM     15  C   UNL A   1      32.806  18.026  23.836  1.00  0.00     0.118 A 
ATOM     16  C   UNL A   1      32.480  18.612  22.611  1.00  0.00     0.047 A 
ATOM     17  C   UNL A   1      32.892  18.814  24.982  1.00  0.00     0.047 A 
ATOM     18  C   UNL A   1      32.191  19.977  22.535  1.00  0.00     0.014 A 
ATOM     19  C   UNL A   1      32.619  20.181  24.907  1.00  0.00     0.014 A 
BRANCH  15  20
ATOM     20  O   UNL A   1      33.078  16.685  23.810  1.00  0.00    -0.497 OA
ATOM     21  C   UNL A   1      34.202  16.306  24.597  1.00  0.00     0.278 C 
ENDBRANCH  15  20
ENDBRANCH  10  14
BRANCH  12  22
ATOM     22  C   UNL A   1      34.230  23.174  24.617  1.00  0.00    -0.012 A 
ATOM     23  C   UNL A   1      35.280  22.761  23.789  1.00  0.00     0.013 A 
ATOM     24  C   UNL A   1      34.504  23.515  25.946  1.00  0.00     0.013 A 
ATOM     25  C   UNL A   1      36.585  22.706  24.281  1.00  0.00     0.047 A 
ATOM     26  C   UNL A   1      35.816  23.455  26.436  1.00  0.00     0.047 A 
ATOM     27  C   UNL A   1      36.861  23.053  25.603  1.00  0.00     0.118 A 
BRANCH  27  28
ATOM     28  O   UNL A   1      38.178  22.958  25.951  1.00  0.00    -0.497 OA
ATOM     29  C   UNL A   1      38.825  21.715  25.716  1.00  0.00     0.278 C 
ENDBRANCH  27  28
ENDBRANCH  12  22
ENDBRANCH   8   9
ENDBRANCH   5   8
ENDBRANCH   3   4
ENDBRANCH   2   3
ENDBRANCH   1   2
BRANCH   1  30
ATOM     30  C   UNL A   1      31.486  30.780  26.035  1.00  0.00     0.002 C 
BRANCH  30  31
ATOM     31  C   UNL A   1      31.410  32.161  26.692  1.00  0.00     0.021 C 
BRANCH  31  32
ATOM     32  C   UNL A   1      32.754  32.722  27.148  1.00  0.00     0.116 C 
BRANCH  32  33
ATOM     33  N   UNL A   1      32.619  34.059  27.704  1.00  0.00    -0.352 N 
ATOM     34  C   UNL A   1      33.223  34.614  28.801  1.00  0.00     0.251 C 
ATOM     35  H   UNL A   1      32.002  34.654  27.219  1.00  0.00     0.163 HD
ATOM     36  O   UNL A   1      32.800  35.682  29.248  1.00  0.00    -0.269 OA
BRANCH  34  37
ATOM     37  C   UNL A   1      34.360  33.933  29.456  1.00  0.00     0.039 A 
ATOM     38  C   UNL A   1      35.662  34.307  29.110  1.00  0.00     0.014 A 
ATOM     39  C   UNL A   1      34.152  32.907  30.384  1.00  0.00     0.014 A 
ATOM     40  C   UNL A   1      36.750  33.688  29.729  1.00  0.00     0.010 A 
ATOM     41  C   UNL A   1      35.236  32.339  31.050  1.00  0.00     0.010 A 
ATOM     42  C   UNL A   1      36.547  32.718  30.725  1.00  0.00    -0.014 A 
BRANCH  42  43
ATOM     43  C   UNL A   1      37.697  32.085  31.423  1.00  0.00     0.031 A 
ATOM     44  C   UNL A   1      38.451  30.958  30.770  1.00  0.00     0.074 A 
ATOM     45  C   UNL A   1      38.031  32.495  32.662  1.00  0.00     0.049 A 
ATOM     46  N   UNL A   1      39.444  30.246  31.237  1.00  0.00    -0.248 NA
ATOM     47  C   UNL A   1      38.011  30.564  29.423  1.00  0.00     0.031 C 
ATOM     48  C   UNL A   1      37.352  33.555  33.412  1.00  0.00     0.029 A 
ATOM     49  N   UNL A   1      39.022  32.071  33.513  1.00  0.00    -0.354 N 
ATOM     50  C   UNL A   1      39.744  29.315  30.248  1.00  0.00     0.074 A 
ATOM     51  C   UNL A   1      38.782  29.514  29.183  1.00  0.00     0.031 C 
ATOM     52  C   UNL A   1      37.963  33.715  34.597  1.00  0.00     0.029 A 
ATOM     53  C   UNL A   1      39.045  32.742  34.713  1.00  0.00     0.049 A 
ATOM     54  H   UNL A   1      39.655  31.353  33.285  1.00  0.00     0.167 HD
ATOM     55  C   UNL A   1      40.742  28.397  30.219  1.00  0.00     0.034 A 
ATOM     56  C   UNL A   1      39.841  32.586  35.789  1.00  0.00     0.034 A 
ATOM     57  C   UNL A   1      41.697  28.217  31.286  1.00  0.00     0.049 A 
ATOM     58  C   UNL A   1      40.923  31.537  35.747  1.00  0.00     0.074 A 
ATOM     59  C   UNL A   1      42.776  27.351  31.341  1.00  0.00     0.029 A 
ATOM     60  N   UNL A   1      41.684  28.909  32.490  1.00  0.00    -0.354 N 
ATOM     61  N   UNL A   1      41.223  30.697  34.783  1.00  0.00    -0.248 NA
ATOM     62  C   UNL A   1      41.782  31.424  36.933  1.00  0.00     0.031 C 
ATOM     63  C   UNL A   1      43.372  27.471  32.602  1.00  0.00     0.029 A 
ATOM     64  C   UNL A   1      42.716  28.467  33.306  1.00  0.00     0.049 A 
ATOM     65  H   UNL A   1      41.037  29.611  32.731  1.00  0.00     0.167 HD
ATOM     66  C   UNL A   1      42.326  29.978  35.237  1.00  0.00     0.074 A 
ATOM     67  C   UNL A   1      42.645  30.495  36.552  1.00  0.00     0.031 C 
ATOM     68  C   UNL A   1      43.016  28.984  34.621  1.00  0.00     0.034 A 
BRANCH  55  69
ATOM     69  C   UNL A   1      40.830  27.505  29.002  1.00  0.00     0.023 A 
ATOM     70  C   UNL A   1      41.798  27.714  28.003  1.00  0.00     0.031 A 
ATOM     71  C   UNL A   1      39.922  26.447  28.824  1.00  0.00     0.131 A 
ATOM     72  C   UNL A   1      41.784  26.931  26.838  1.00  0.00     0.055 A 
ATOM     73  C   UNL A   1      39.966  25.618  27.702  1.00  0.00     0.041 A 
ATOM     74  F   UNL A   1      38.962  26.209  29.734  1.00  0.00    -0.206 F 
ATOM     75  C   UNL A   1      40.891  25.867  26.693  1.00  0.00     0.022 A 
BRANCH  72  76
ATOM     76  S   UNL A   1      42.854  27.416  25.456  1.00  0.00     0.124 S 
ATOM     77  O   UNL A   1      44.072  27.820  26.156  1.00  0.00    -0.237 OA
ATOM     78  O   UNL A   1      42.941  26.187  24.678  1.00  0.00    -0.237 OA
ATOM     79  O   UNL A   1      42.119  28.507  24.821  1.00  0.00    -0.744 OA
ENDBRANCH  72  76
ENDBRANCH  55  69
BRANCH  56  80
ATOM     80  C   UNL A   1      39.649  33.432  37.003  1.00  0.00     0.023 A 
ATOM     81  C   UNL A   1      40.423  34.585  37.212  1.00  0.00     0.031 A 
ATOM     82  C   UNL A   1      38.718  33.075  37.996  1.00  0.00     0.131 A 
ATOM     83  C   UNL A   1      40.290  35.310  38.406  1.00  0.00     0.055 A 
ATOM     84  C   UNL A   1      38.551  33.830  39.157  1.00  0.00     0.041 A 
ATOM     85  F   UNL A   1      37.950  31.984  37.845  1.00  0.00    -0.206 F 
ATOM     86  C   UNL A   1      39.351  34.949  39.373  1.00  0.00     0.022 A 
BRANCH  83  87
ATOM     87  S   UNL A   1      41.431  36.685  38.717  1.00  0.00     0.124 S 
ATOM     88  O   UNL A   1      40.510  37.774  39.019  1.00  0.00    -0.237 OA
ATOM     89  O   UNL A   1      42.216  36.179  39.838  1.00  0.00    -0.237 OA
ATOM     90  O   UNL A   1      42.159  36.814  37.456  1.00  0.00    -0.744 OA
ENDBRANCH  83  87
ENDBRANCH  56  80
BRANCH  68  91
ATOM     91  C   UNL A   1      44.212  28.426  35.353  1.00  0.00     0.023 A 
ATOM     92  C   UNL A   1      44.081  27.438  36.344  1.00  0.00     0.031 A 
ATOM     93  C   UNL A   1      45.503  28.902  35.062  1.00  0.00     0.131 A 
ATOM     94  C   UNL A   1      45.212  27.000  37.050  1.00  0.00     0.055 A 
ATOM     95  C   UNL A   1      46.632  28.418  35.724  1.00  0.00     0.041 A 
ATOM     96  F   UNL A   1      45.688  29.848  34.126  1.00  0.00    -0.206 F 
ATOM     97  C   UNL A   1      46.489  27.472  36.733  1.00  0.00     0.022 A 
BRANCH  94  98
ATOM     98  S   UNL A   1      44.983  25.874  38.453  1.00  0.00     0.124 S 
ATOM     99  O   UNL A   1      44.476  24.673  37.798  1.00  0.00    -0.237 OA
ATOM    100  O   UNL A   1      46.332  25.780  39.002  1.00  0.00    -0.237 OA
ATOM    101  O   UNL A   1      44.018  26.573  39.300  1.00  0.00    -0.744 OA
ENDBRANCH  94  98
ENDBRANCH  68  91
ENDBRANCH  42  43
ENDBRANCH  34  37
ENDBRANCH  32  33
ENDBRANCH  31  32
ENDBRANCH  30  31
ENDBRANCH   1  30
TORSDOF 21
ENDMDL
MODEL 2
REMARK VINA RESULT:     -11.2      1.608      3.189
REMARK SMILES COc1ccc(-c2noc(CC(=O)NCCCCCCNC(=O)c3ccc(-c4c5nc(c(-c6cc(S(=O)(=O)[O-])ccc6F)c6ccc([nH]6)c(-c6cc(S(=O)(=O)[O-])ccc6F)c6nc(c(-c7cc(S(=O)(=O)[O-])ccc7F)c7ccc4[nH]7)C=C6)C=C5)cc3)c2-c2ccc(OC)cc2)cc1
REMARK SMILES IDX 17 1 16 2 15 3 14 4 12 5 13 6 11 8 10 9 7 10 8 11 87 12 9 13
REMARK SMILES IDX 6 14 3 15 4 16 97 17 5 18 96 19 2 20 1 21 88 22 89 23 95 24
REMARK SMILES IDX 90 25 94 26 91 27 92 28 93 29 18 30 19 31 20 32 21 33 22 34
REMARK SMILES IDX 23 36 24 37 25 38 86 39 26 40 85 41 27 42 28 43 29 44 79 45
REMARK SMILES IDX 30 46 84 47 78 48 80 49 31 50 83 51 77 52 76 53 32 55 64 56
REMARK SMILES IDX 44 57 63 58 45 59 48 60 62 61 81 62 46 63 47 64 61 66 82 67
REMARK SMILES IDX 49 68 33 69 34 70 42 71 35 72 41 73 43 74 40 75 36 76 37 77
REMARK SMILES IDX 38 78 39 79 65 80 66 81 74 82 67 83 73 84 75 85 72 86 68 87
REMARK SMILES IDX 69 88 70 89 71 90 50 91 51 92 59 93 52 94 58 95 60 96 57 97
REMARK SMILES IDX 53 98 54 99 55 100 56 101
REMARK H PARENT 14 7 21 35 80 54 48 65
REMARK Flexibility Score: inf
ROOT
ATOM      1  C   UNL A   1      31.904  29.811  25.597  1.00  0.00     0.002 C 
ENDROOT
BRANCH   1   2
ATOM      2  C   UNL A   1      31.301  29.142  24.354  1.00  0.00     0.021 C 
BRANCH   2   3
ATOM      3  C   UNL A   1      30.850  27.702  24.601  1.00  0.00     0.116 C 
BRANCH   3   4
ATOM      4  N   UNL A   1      30.892  26.933  23.373  1.00  0.00    -0.356 N 
ATOM      5  C   UNL A   1      31.286  25.640  23.186  1.00  0.00     0.227 C 
ATOM      6  O   UNL A   1      31.342  25.207  22.031  1.00  0.00    -0.275 OA
ATOM      7  H   UNL A   1      30.595  27.409  22.563  1.00  0.00     0.163 HD
BRANCH   5   8
ATOM      8  C   UNL A   1      31.527  24.735  24.376  1.00  0.00     0.179 C 
BRANCH   8   9
ATOM      9  C   UNL A   1      32.966  24.551  24.684  1.00  0.00     0.154 A 
ATOM     10  C   UNL A   1      35.072  24.009  25.114  1.00  0.00     0.122 A 
ATOM     11  N   UNL A   1      35.016  25.349  25.127  1.00  0.00    -0.079 NA
ATOM     12  C   UNL A   1      33.786  23.453  24.853  1.00  0.00     0.053 A 
ATOM     13  O   UNL A   1      33.706  25.682  24.839  1.00  0.00    -0.360 OA
BRANCH  10  14
ATOM     14  C   UNL A   1      36.321  23.288  25.317  1.00  0.00     0.005 A 
ATOM     15  C   UNL A   1      38.674  21.831  25.745  1.00  0.00     0.118 A 
ATOM     16  C   UNL A   1      38.472  23.049  26.399  1.00  0.00     0.047 A 
ATOM     17  C   UNL A   1      37.689  21.324  24.901  1.00  0.00     0.047 A 
ATOM     18  C   UNL A   1      37.307  23.787  26.175  1.00  0.00     0.014 A 
ATOM     19  C   UNL A   1      36.517  22.051  24.686  1.00  0.00     0.014 A 
BRANCH  15  20
ATOM     20  O   UNL A   1      39.842  21.179  26.033  1.00  0.00    -0.497 OA
ATOM     21  C   UNL A   1      40.612  21.794  27.062  1.00  0.00     0.278 C 
ENDBRANCH  15  20
ENDBRANCH  10  14
BRANCH  12  22
ATOM     22  C   UNL A   1      33.352  22.070  24.840  1.00  0.00    -0.012 A 
ATOM     23  C   UNL A   1      33.057  21.449  23.621  1.00  0.00     0.013 A 
ATOM     24  C   UNL A   1      33.223  21.339  26.026  1.00  0.00     0.013 A 
ATOM     25  C   UNL A   1      32.655  20.113  23.591  1.00  0.00     0.047 A 
ATOM     26  C   UNL A   1      32.817  19.998  25.991  1.00  0.00     0.047 A 
ATOM     27  C   UNL A   1      32.534  19.380  24.772  1.00  0.00     0.118 A 
BRANCH  27  28
ATOM     28  O   UNL A   1      32.137  18.085  24.597  1.00  0.00    -0.497 OA
ATOM     29  C   UNL A   1      32.898  17.287  23.702  1.00  0.00     0.278 C 
ENDBRANCH  27  28
ENDBRANCH  12  22
ENDBRANCH   8   9
ENDBRANCH   5   8
ENDBRANCH   3   4
ENDBRANCH   2   3
ENDBRANCH   1   2
BRANCH   1  30
ATOM     30  C   UNL A   1      31.325  31.192  25.928  1.00  0.00     0.002 C 
BRANCH  30  31
ATOM     31  C   UNL A   1      31.786  31.784  27.263  1.00  0.00     0.021 C 
BRANCH  31  32
ATOM     32  C   UNL A   1      33.020  32.677  27.169  1.00  0.00     0.116 C 
BRANCH  32  33
ATOM     33  N   UNL A   1      32.745  34.025  27.642  1.00  0.00    -0.352 N 
ATOM     34  C   UNL A   1      33.239  34.684  28.737  1.00  0.00     0.251 C 
ATOM     35  H   UNL A   1      32.110  34.541  27.094  1.00  0.00     0.163 HD
ATOM     36  O   UNL A   1      32.706  35.734  29.102  1.00  0.00    -0.269 OA
BRANCH  34  37
ATOM     37  C   UNL A   1      34.390  34.135  29.487  1.00  0.00     0.039 A 
ATOM     38  C   UNL A   1      34.148  33.328  30.601  1.00  0.00     0.014 A 
ATOM     39  C   UNL A   1      35.704  34.439  29.116  1.00  0.00     0.014 A 
ATOM     40  C   UNL A   1      35.220  32.785  31.312  1.00  0.00     0.010 A 
ATOM     41  C   UNL A   1      36.771  33.842  29.785  1.00  0.00     0.010 A 
ATOM     42  C   UNL A   1      36.541  33.014  30.895  1.00  0.00    -0.014 A 
BRANCH  42  43
ATOM     43  C   UNL A   1      37.689  32.405  31.616  1.00  0.00     0.031 A 
ATOM     44  C   UNL A   1      38.445  31.258  31.003  1.00  0.00     0.074 A 
ATOM     45  C   UNL A   1      38.021  32.856  32.842  1.00  0.00     0.049 A 
ATOM     46  N   UNL A   1      39.438  30.562  31.496  1.00  0.00    -0.248 NA
ATOM     47  C   UNL A   1      38.009  30.818  29.669  1.00  0.00     0.031 C 
ATOM     48  C   UNL A   1      37.339  33.940  33.554  1.00  0.00     0.029 A 
ATOM     49  N   UNL A   1      39.009  32.462  33.708  1.00  0.00    -0.354 N 
ATOM     50  C   UNL A   1      39.741  29.599  30.539  1.00  0.00     0.074 A 
ATOM     51  C   UNL A   1      38.781  29.761  29.466  1.00  0.00     0.031 C 
ATOM     52  C   UNL A   1      37.947  34.140  34.735  1.00  0.00     0.029 A 
ATOM     53  C   UNL A   1      39.029  33.172  34.886  1.00  0.00     0.049 A 
ATOM     54  H   UNL A   1      39.644  31.737  33.507  1.00  0.00     0.167 HD
ATOM     55  C   UNL A   1      40.739  28.681  30.543  1.00  0.00     0.034 A 
ATOM     56  C   UNL A   1      39.823  33.053  35.969  1.00  0.00     0.034 A 
ATOM     57  C   UNL A   1      41.691  28.537  31.617  1.00  0.00     0.049 A 
ATOM     58  C   UNL A   1      40.906  32.003  35.964  1.00  0.00     0.074 A 
ATOM     59  C   UNL A   1      42.771  27.674  31.703  1.00  0.00     0.029 A 
ATOM     60  N   UNL A   1      41.676  29.269  32.798  1.00  0.00    -0.354 N 
ATOM     61  N   UNL A   1      41.209  31.131  35.029  1.00  0.00    -0.248 NA
ATOM     62  C   UNL A   1      41.762  31.930  37.155  1.00  0.00     0.031 C 
ATOM     63  C   UNL A   1      43.364  27.836  32.961  1.00  0.00     0.029 A 
ATOM     64  C   UNL A   1      42.706  28.855  33.630  1.00  0.00     0.049 A 
ATOM     65  H   UNL A   1      41.028  29.978  33.014  1.00  0.00     0.167 HD
ATOM     66  C   UNL A   1      42.310  30.429  35.509  1.00  0.00     0.074 A 
ATOM     67  C   UNL A   1      42.626  30.989  36.807  1.00  0.00     0.031 C 
ATOM     68  C   UNL A   1      43.003  29.415  34.928  1.00  0.00     0.034 A 
BRANCH  55  69
ATOM     69  C   UNL A   1      40.831  27.749  29.356  1.00  0.00     0.023 A 
ATOM     70  C   UNL A   1      41.827  27.899  28.376  1.00  0.00     0.031 A 
ATOM     71  C   UNL A   1      39.896  26.712  29.189  1.00  0.00     0.131 A 
ATOM     72  C   UNL A   1      41.819  27.080  27.236  1.00  0.00     0.055 A 
ATOM     73  C   UNL A   1      39.943  25.847  28.093  1.00  0.00     0.041 A 
ATOM     74  F   UNL A   1      38.909  26.530  30.081  1.00  0.00    -0.206 F 
ATOM     75  C   UNL A   1      40.899  26.038  27.100  1.00  0.00     0.022 A 
BRANCH  72  76
ATOM     76  S   UNL A   1      42.935  27.492  25.866  1.00  0.00     0.124 S 
ATOM     77  O   UNL A   1      42.217  26.932  24.723  1.00  0.00    -0.237 OA
ATOM     78  O   UNL A   1      42.996  28.946  25.934  1.00  0.00    -0.237 OA
ATOM     79  O   UNL A   1      44.174  26.798  26.214  1.00  0.00    -0.744 OA
ENDBRANCH  72  76
ENDBRANCH  55  69
BRANCH  56  80
ATOM     80  C   UNL A   1      39.627  33.938  37.153  1.00  0.00     0.023 A 
ATOM     81  C   UNL A   1      39.001  33.462  38.316  1.00  0.00     0.031 A 
ATOM     82  C   UNL A   1      40.023  35.288  37.123  1.00  0.00     0.131 A 
ATOM     83  C   UNL A   1      38.743  34.340  39.380  1.00  0.00     0.055 A 
ATOM     84  C   UNL A   1      39.813  36.143  38.205  1.00  0.00     0.041 A 
ATOM     85  F   UNL A   1      40.629  35.793  36.037  1.00  0.00    -0.206 F 
ATOM     86  C   UNL A   1      39.156  35.672  39.338  1.00  0.00     0.022 A 
BRANCH  83  87
ATOM     87  S   UNL A   1      37.774  33.733  40.789  1.00  0.00     0.124 S 
ATOM     88  O   UNL A   1      36.737  32.954  40.123  1.00  0.00    -0.237 OA
ATOM     89  O   UNL A   1      38.770  32.972  41.535  1.00  0.00    -0.237 OA
ATOM     90  O   UNL A   1      37.314  34.959  41.438  1.00  0.00    -0.744 OA
ENDBRANCH  83  87
ENDBRANCH  56  80
BRANCH  68  91
ATOM     91  C   UNL A   1      44.198  28.883  35.681  1.00  0.00     0.023 A 
ATOM     92  C   UNL A   1      44.092  27.796  36.567  1.00  0.00     0.031 A 
ATOM     93  C   UNL A   1      45.459  29.482  35.518  1.00  0.00     0.131 A 
ATOM     94  C   UNL A   1      45.214  27.381  37.301  1.00  0.00     0.055 A 
ATOM     95  C   UNL A   1      46.585  29.025  36.203  1.00  0.00     0.041 A 
ATOM     96  F   UNL A   1      45.618  30.525  34.686  1.00  0.00    -0.206 F 
ATOM     97  C   UNL A   1      46.464  27.977  37.111  1.00  0.00     0.022 A 
BRANCH  94  98
ATOM     98  S   UNL A   1      44.999  26.111  38.577  1.00  0.00     0.124 S 
ATOM     99  O   UNL A   1      44.237  26.827  39.594  1.00  0.00    -0.237 OA
ATOM    100  O   UNL A   1      44.277  25.065  37.859  1.00  0.00    -0.237 OA
ATOM    101  O   UNL A   1      46.369  25.768  38.954  1.00  0.00    -0.744 OA
ENDBRANCH  94  98
ENDBRANCH  68  91
ENDBRANCH  42  43
ENDBRANCH  34  37
ENDBRANCH  32  33
ENDBRANCH  31  32
ENDBRANCH  30  31
ENDBRANCH   1  30
TORSDOF 21
ENDMDL
MODEL 3
REMARK VINA RESULT:     -10.6      1.938      7.840
REMARK SMILES COc1ccc(-c2noc(CC(=O)NCCCCCCNC(=O)c3ccc(-c4c5nc(c(-c6cc(S(=O)(=O)[O-])ccc6F)c6ccc([nH]6)c(-c6cc(S(=O)(=O)[O-])ccc6F)c6nc(c(-c7cc(S(=O)(=O)[O-])ccc7F)c7ccc4[nH]7)C=C6)C=C5)cc3)c2-c2ccc(OC)cc2)cc1
REMARK SMILES IDX 17 1 16 2 15 3 14 4 12 5 13 6 11 8 10 9 7 10 8 11 87 12 9 13
REMARK SMILES IDX 6 14 3 15 4 16 97 17 5 18 96 19 2 20 1 21 88 22 89 23 95 24
REMARK SMILES IDX 90 25 94 26 91 27 92 28 93 29 18 30 19 31 20 32 21 33 22 34
REMARK SMILES IDX 23 36 24 37 25 38 86 39 26 40 85 41 27 42 28 43 29 44 79 45
REMARK SMILES IDX 30 46 84 47 78 48 80 49 31 50 83 51 77 52 76 53 32 55 64 56
REMARK SMILES IDX 44 57 63 58 45 59 48 60 62 61 81 62 46 63 47 64 61 66 82 67
REMARK SMILES IDX 49 68 33 69 34 70 42 71 35 72 41 73 43 74 40 75 36 76 37 77
REMARK SMILES IDX 38 78 39 79 65 80 66 81 74 82 67 83 73 84 75 85 72 86 68 87
REMARK SMILES IDX 69 88 70 89 71 90 50 91 51 92 59 93 52 94 58 95 60 96 57 97
REMARK SMILES IDX 53 98 54 99 55 100 56 101
REMARK H PARENT 14 7 21 35 80 54 48 65
REMARK Flexibility Score: inf
ROOT
ATOM      1  C   UNL A   1      32.163  28.945  23.907  1.00  0.00     0.002 C 
ENDROOT
BRANCH   1   2
ATOM      2  C   UNL A   1      30.636  28.793  23.906  1.00  0.00     0.021 C 
BRANCH   2   3
ATOM      3  C   UNL A   1      30.169  27.369  24.208  1.00  0.00     0.116 C 
BRANCH   3   4
ATOM      4  N   UNL A   1      30.582  26.459  23.158  1.00  0.00    -0.356 N 
ATOM      5  C   UNL A   1      31.292  25.299  23.261  1.00  0.00     0.227 C 
ATOM      6  O   UNL A   1      31.628  24.724  22.222  1.00  0.00    -0.275 OA
ATOM      7  H   UNL A   1      30.312  26.713  22.244  1.00  0.00     0.163 HD
BRANCH   5   8
ATOM      8  C   UNL A   1      31.549  24.678  24.619  1.00  0.00     0.179 C 
BRANCH   8   9
ATOM      9  C   UNL A   1      32.990  24.479  24.903  1.00  0.00     0.154 A 
ATOM     10  C   UNL A   1      35.100  23.916  25.286  1.00  0.00     0.122 A 
ATOM     11  N   UNL A   1      35.046  25.254  25.363  1.00  0.00    -0.079 NA
ATOM     12  C   UNL A   1      33.811  23.374  25.012  1.00  0.00     0.053 A 
ATOM     13  O   UNL A   1      33.733  25.600  25.104  1.00  0.00    -0.360 OA
BRANCH  10  14
ATOM     14  C   UNL A   1      36.350  23.185  25.442  1.00  0.00     0.005 A 
ATOM     15  C   UNL A   1      38.709  21.716  25.793  1.00  0.00     0.118 A 
ATOM     16  C   UNL A   1      38.595  23.001  26.328  1.00  0.00     0.047 A 
ATOM     17  C   UNL A   1      37.634  21.150  25.110  1.00  0.00     0.047 A 
ATOM     18  C   UNL A   1      37.426  23.744  26.140  1.00  0.00     0.014 A 
ATOM     19  C   UNL A   1      36.460  21.883  24.933  1.00  0.00     0.014 A 
BRANCH  15  20
ATOM     20  O   UNL A   1      39.888  21.065  26.034  1.00  0.00    -0.497 OA
ATOM     21  C   UNL A   1      39.848  19.670  25.750  1.00  0.00     0.278 C 
ENDBRANCH  15  20
ENDBRANCH  10  14
BRANCH  12  22
ATOM     22  C   UNL A   1      33.375  21.993  24.940  1.00  0.00    -0.012 A 
ATOM     23  C   UNL A   1      32.943  21.468  23.717  1.00  0.00     0.013 A 
ATOM     24  C   UNL A   1      33.380  21.170  26.071  1.00  0.00     0.013 A 
ATOM     25  C   UNL A   1      32.537  20.136  23.626  1.00  0.00     0.047 A 
ATOM     26  C   UNL A   1      32.969  19.833  25.976  1.00  0.00     0.047 A 
ATOM     27  C   UNL A   1      32.548  19.311  24.751  1.00  0.00     0.118 A 
BRANCH  27  28
ATOM     28  O   UNL A   1      32.132  18.032  24.521  1.00  0.00    -0.497 OA
ATOM     29  C   UNL A   1      32.528  17.040  25.457  1.00  0.00     0.278 C 
ENDBRANCH  27  28
ENDBRANCH  12  22
ENDBRANCH   8   9
ENDBRANCH   5   8
ENDBRANCH   3   4
ENDBRANCH   2   3
ENDBRANCH   1   2
BRANCH   1  30
ATOM     30  C   UNL A   1      32.784  29.183  25.289  1.00  0.00     0.002 C 
BRANCH  30  31
ATOM     31  C   UNL A   1      32.152  30.322  26.095  1.00  0.00     0.021 C 
BRANCH  31  32
ATOM     32  C   UNL A   1      33.015  30.843  27.241  1.00  0.00     0.116 C 
BRANCH  32  33
ATOM     33  N   UNL A   1      33.047  32.296  27.273  1.00  0.00    -0.352 N 
ATOM     34  C   UNL A   1      33.834  33.137  28.016  1.00  0.00     0.251 C 
ATOM     35  H   UNL A   1      32.409  32.743  26.671  1.00  0.00     0.163 HD
ATOM     36  O   UNL A   1      33.549  34.334  28.077  1.00  0.00    -0.269 OA
BRANCH  34  37
ATOM     37  C   UNL A   1      35.005  32.612  28.751  1.00  0.00     0.039 A 
ATOM     38  C   UNL A   1      34.799  31.939  29.959  1.00  0.00     0.014 A 
ATOM     39  C   UNL A   1      36.306  32.809  28.275  1.00  0.00     0.014 A 
ATOM     40  C   UNL A   1      35.890  31.421  30.660  1.00  0.00     0.010 A 
ATOM     41  C   UNL A   1      37.385  32.233  28.940  1.00  0.00     0.010 A 
ATOM     42  C   UNL A   1      37.190  31.539  30.144  1.00  0.00    -0.014 A 
BRANCH  42  43
ATOM     43  C   UNL A   1      38.354  30.952  30.859  1.00  0.00     0.031 A 
ATOM     44  C   UNL A   1      38.706  31.421  32.245  1.00  0.00     0.074 A 
ATOM     45  C   UNL A   1      39.119  30.031  30.242  1.00  0.00     0.049 A 
ATOM     46  N   UNL A   1      39.708  31.071  33.009  1.00  0.00    -0.248 NA
ATOM     47  C   UNL A   1      37.826  32.440  32.839  1.00  0.00     0.031 C 
ATOM     48  C   UNL A   1      38.899  29.523  28.886  1.00  0.00     0.029 A 
ATOM     49  N   UNL A   1      40.238  29.359  30.669  1.00  0.00    -0.354 N 
ATOM     50  C   UNL A   1      39.586  31.829  34.169  1.00  0.00     0.074 A 
ATOM     51  C   UNL A   1      38.449  32.704  33.978  1.00  0.00     0.031 C 
ATOM     52  C   UNL A   1      39.835  28.601  28.604  1.00  0.00     0.029 A 
ATOM     53  C   UNL A   1      40.748  28.485  29.736  1.00  0.00     0.049 A 
ATOM     54  H   UNL A   1      40.638  29.491  31.558  1.00  0.00     0.167 HD
ATOM     55  C   UNL A   1      40.338  31.782  35.297  1.00  0.00     0.034 A 
ATOM     56  C   UNL A   1      41.833  27.688  29.785  1.00  0.00     0.034 A 
ATOM     57  C   UNL A   1      41.464  30.898  35.475  1.00  0.00     0.049 A 
ATOM     58  C   UNL A   1      42.673  27.677  31.037  1.00  0.00     0.074 A 
ATOM     59  C   UNL A   1      42.265  30.735  36.592  1.00  0.00     0.029 A 
ATOM     60  N   UNL A   1      41.958  30.033  34.506  1.00  0.00    -0.354 N 
ATOM     61  N   UNL A   1      42.515  28.366  32.145  1.00  0.00    -0.248 NA
ATOM     62  C   UNL A   1      43.829  26.771  31.051  1.00  0.00     0.031 C 
ATOM     63  C   UNL A   1      43.280  29.824  36.276  1.00  0.00     0.029 A 
ATOM     64  C   UNL A   1      43.069  29.358  34.989  1.00  0.00     0.049 A 
ATOM     65  H   UNL A   1      41.574  29.916  33.606  1.00  0.00     0.167 HD
ATOM     66  C   UNL A   1      43.535  27.951  32.997  1.00  0.00     0.074 A 
ATOM     67  C   UNL A   1      44.289  26.943  32.281  1.00  0.00     0.031 C 
ATOM     68  C   UNL A   1      43.820  28.363  34.259  1.00  0.00     0.034 A 
BRANCH  55  69
ATOM     69  C   UNL A   1      39.974  32.734  36.414  1.00  0.00     0.023 A 
ATOM     70  C   UNL A   1      39.167  32.331  37.493  1.00  0.00     0.031 A 
ATOM     71  C   UNL A   1      40.418  34.067  36.390  1.00  0.00     0.131 A 
ATOM     72  C   UNL A   1      38.764  33.268  38.456  1.00  0.00     0.055 A 
ATOM     73  C   UNL A   1      40.083  34.975  37.396  1.00  0.00     0.041 A 
ATOM     74  F   UNL A   1      41.175  34.517  35.376  1.00  0.00    -0.206 F 
ATOM     75  C   UNL A   1      39.238  34.582  38.430  1.00  0.00     0.022 A 
BRANCH  72  76
ATOM     76  S   UNL A   1      37.498  32.782  39.661  1.00  0.00     0.124 S 
ATOM     77  O   UNL A   1      37.553  33.893  40.610  1.00  0.00    -0.237 OA
ATOM     78  O   UNL A   1      36.296  32.701  38.840  1.00  0.00    -0.237 OA
ATOM     79  O   UNL A   1      37.989  31.506  40.178  1.00  0.00    -0.744 OA
ENDBRANCH  72  76
ENDBRANCH  55  69
BRANCH  56  80
ATOM     80  C   UNL A   1      42.201  26.837  28.615  1.00  0.00     0.023 A 
ATOM     81  C   UNL A   1      43.345  27.115  27.851  1.00  0.00     0.031 A 
ATOM     82  C   UNL A   1      41.387  25.761  28.217  1.00  0.00     0.131 A 
ATOM     83  C   UNL A   1      43.618  26.359  26.700  1.00  0.00     0.055 A 
ATOM     84  C   UNL A   1      41.693  24.978  27.103  1.00  0.00     0.041 A 
ATOM     85  F   UNL A   1      40.284  25.450  28.915  1.00  0.00    -0.206 F 
ATOM     86  C   UNL A   1      42.807  25.286  26.329  1.00  0.00     0.022 A 
BRANCH  83  87
ATOM     87  S   UNL A   1      45.002  26.861  25.641  1.00  0.00     0.124 S 
ATOM     88  O   UNL A   1      44.447  28.023  24.956  1.00  0.00    -0.237 OA
ATOM     89  O   UNL A   1      46.049  27.133  26.620  1.00  0.00    -0.237 OA
ATOM     90  O   UNL A   1      45.228  25.688  24.798  1.00  0.00    -0.744 OA
ENDBRANCH  83  87
ENDBRANCH  56  80
BRANCH  68  91
ATOM     91  C   UNL A   1      44.973  27.683  34.957  1.00  0.00     0.023 A 
ATOM     92  C   UNL A   1      44.782  26.567  35.789  1.00  0.00     0.031 A 
ATOM     93  C   UNL A   1      46.282  28.172  34.795  1.00  0.00     0.131 A 
ATOM     94  C   UNL A   1      45.874  26.011  36.475  1.00  0.00     0.055 A 
ATOM     95  C   UNL A   1      47.373  27.577  35.431  1.00  0.00     0.041 A 
ATOM     96  F   UNL A   1      46.523  29.237  34.014  1.00  0.00    -0.206 F 
ATOM     97  C   UNL A   1      47.170  26.499  36.287  1.00  0.00     0.022 A 
BRANCH  94  98
ATOM     98  S   UNL A   1      45.564  24.701  37.690  1.00  0.00     0.124 S 
ATOM     99  O   UNL A   1      45.921  23.501  36.941  1.00  0.00    -0.237 OA
ATOM    100  O   UNL A   1      46.466  25.065  38.778  1.00  0.00    -0.237 OA
ATOM    101  O   UNL A   1      44.141  24.843  37.993  1.00  0.00    -0.744 OA
ENDBRANCH  94  98
ENDBRANCH  68  91
ENDBRANCH  42  43
ENDBRANCH  34  37
ENDBRANCH  32  33
ENDBRANCH  31  32
ENDBRANCH  30  31
ENDBRANCH   1  30
TORSDOF 21
ENDMDL
