MODEL 1
REMARK VINA RESULT:     -11.6      0.000      0.000
REMARK SMILES O=C(NCCCCCCNC(=O)[C@H]1[NH2+]CC[C@H]1c1cccc(Oc2ccccc2)c1)c1ccc(-c2c3nc(c(-c4cc(S(=O)(=O)[O-])ccc4F)c4ccc([nH]4)c(-c4cc(S(=O)(=O)[O-])ccc4F)c4nc(c(-c5cc(S(=O)(=O)[O-])ccc5F)c5ccc2[nH]5)C=C4)C=C3)cc1
REMARK SMILES IDX 6 1 5 2 4 3 3 4 1 5 2 6 31 8 32 9 93 10 33 11 92 12 34 13
REMARK SMILES IDX 35 14 36 15 86 16 37 17 91 18 85 19 87 20 38 21 90 22 84 23
REMARK SMILES IDX 83 24 39 26 71 27 51 28 70 29 52 30 55 31 69 32 88 33 53 34
REMARK SMILES IDX 54 35 68 37 89 38 56 39 40 40 41 41 49 42 42 43 48 44 50 45
REMARK SMILES IDX 47 46 43 47 44 48 45 49 46 50 72 51 73 52 81 53 74 54 80 55
REMARK SMILES IDX 82 56 79 57 75 58 76 59 77 60 78 61 57 62 58 63 66 64 59 65
REMARK SMILES IDX 65 66 67 67 64 68 60 69 61 70 62 71 63 72 7 73 8 74 9 75
REMARK SMILES IDX 10 76 11 77 12 79 13 80 14 81 17 82 15 83 16 86 18 87 19 88
REMARK SMILES IDX 30 89 20 90 22 91 21 92 23 93 24 94 25 95 29 96 26 97 28 98
REMARK SMILES IDX 27 99
REMARK H PARENT 3 7 87 25 55 36 10 78 14 84 14 85
REMARK Flexibility Score: inf
ROOT
ATOM      1  C   UNL A   1      32.092  26.456  26.449  1.00  0.00     0.002 C 
ENDROOT
BRANCH   1   2
ATOM      2  C   UNL A   1      32.114  27.867  27.034  1.00  0.00     0.021 C 
BRANCH   2   3
ATOM      3  C   UNL A   1      33.488  28.524  27.080  1.00  0.00     0.116 C 
BRANCH   3   4
ATOM      4  N   UNL A   1      33.413  29.971  27.191  1.00  0.00    -0.352 N 
ATOM      5  O   UNL A   1      34.032  32.016  27.914  1.00  0.00    -0.269 OA
ATOM      6  C   UNL A   1      34.314  30.834  27.771  1.00  0.00     0.251 C 
ATOM      7  H   UNL A   1      32.612  30.388  26.800  1.00  0.00     0.163 HD
BRANCH   6   8
ATOM      8  C   UNL A   1      35.617  30.311  28.239  1.00  0.00     0.039 A 
ATOM      9  C   UNL A   1      35.727  29.686  29.484  1.00  0.00     0.014 A 
ATOM     10  C   UNL A   1      36.741  30.457  27.423  1.00  0.00     0.014 A 
ATOM     11  C   UNL A   1      36.979  29.320  29.965  1.00  0.00     0.010 A 
ATOM     12  C   UNL A   1      37.987  30.016  27.875  1.00  0.00     0.010 A 
ATOM     13  C   UNL A   1      38.121  29.465  29.159  1.00  0.00    -0.014 A 
BRANCH  13  14
ATOM     14  C   UNL A   1      39.433  28.976  29.657  1.00  0.00     0.031 A 
ATOM     15  C   UNL A   1      40.124  29.643  30.812  1.00  0.00     0.074 A 
ATOM     16  C   UNL A   1      39.990  27.905  29.057  1.00  0.00     0.049 A 
ATOM     17  N   UNL A   1      41.277  29.357  31.360  1.00  0.00    -0.248 NA
ATOM     18  C   UNL A   1      39.435  30.787  31.426  1.00  0.00     0.031 C 
ATOM     19  C   UNL A   1      39.407  27.179  27.925  1.00  0.00     0.029 A 
ATOM     20  N   UNL A   1      41.156  27.233  29.317  1.00  0.00    -0.354 N 
ATOM     21  C   UNL A   1      41.463  30.292  32.374  1.00  0.00     0.074 A 
ATOM     22  C   UNL A   1      40.314  31.175  32.339  1.00  0.00     0.031 C 
ATOM     23  C   UNL A   1      40.198  26.143  27.612  1.00  0.00     0.029 A 
ATOM     24  C   UNL A   1      41.376  26.170  28.471  1.00  0.00     0.049 A 
ATOM     25  H   UNL A   1      41.775  27.485  30.038  1.00  0.00     0.167 HD
ATOM     26  C   UNL A   1      42.492  30.395  33.253  1.00  0.00     0.034 A 
ATOM     27  C   UNL A   1      42.421  25.326  28.377  1.00  0.00     0.034 A 
ATOM     28  C   UNL A   1      43.629  29.503  33.268  1.00  0.00     0.049 A 
ATOM     29  C   UNL A   1      43.571  25.491  29.332  1.00  0.00     0.074 A 
ATOM     30  C   UNL A   1      44.713  29.500  34.130  1.00  0.00     0.029 A 
ATOM     31  N   UNL A   1      43.838  28.462  32.370  1.00  0.00    -0.354 N 
ATOM     32  N   UNL A   1      43.724  26.372  30.294  1.00  0.00    -0.248 NA
ATOM     33  C   UNL A   1      44.686  24.548  29.191  1.00  0.00     0.031 C 
ATOM     34  C   UNL A   1      45.605  28.504  33.715  1.00  0.00     0.029 A 
ATOM     35  C   UNL A   1      45.046  27.833  32.638  1.00  0.00     0.049 A 
ATOM     36  H   UNL A   1      43.220  28.208  31.647  1.00  0.00     0.167 HD
ATOM     37  C   UNL A   1      44.946  26.076  30.886  1.00  0.00     0.074 A 
ATOM     38  C   UNL A   1      45.477  24.922  30.186  1.00  0.00     0.031 C 
ATOM     39  C   UNL A   1      45.573  26.698  31.917  1.00  0.00     0.034 A 
BRANCH  26  40
ATOM     40  C   UNL A   1      42.454  31.541  34.238  1.00  0.00     0.023 A 
ATOM     41  C   UNL A   1      41.635  31.513  35.380  1.00  0.00     0.031 A 
ATOM     42  C   UNL A   1      43.238  32.688  34.021  1.00  0.00     0.131 A 
ATOM     43  C   UNL A   1      41.566  32.635  36.222  1.00  0.00     0.055 A 
ATOM     44  C   UNL A   1      43.223  33.772  34.903  1.00  0.00     0.041 A 
ATOM     45  F   UNL A   1      44.027  32.784  32.938  1.00  0.00    -0.206 F 
ATOM     46  C   UNL A   1      42.372  33.754  36.004  1.00  0.00     0.022 A 
BRANCH  43  47
ATOM     47  S   UNL A   1      40.306  32.665  37.527  1.00  0.00     0.124 S 
ATOM     48  O   UNL A   1      39.848  34.051  37.465  1.00  0.00    -0.237 OA
ATOM     49  O   UNL A   1      39.354  31.658  37.071  1.00  0.00    -0.237 OA
ATOM     50  O   UNL A   1      41.052  32.316  38.733  1.00  0.00    -0.744 OA
ENDBRANCH  43  47
ENDBRANCH  26  40
BRANCH  27  51
ATOM     51  C   UNL A   1      42.442  24.278  27.319  1.00  0.00     0.023 A 
ATOM     52  C   UNL A   1      41.684  23.104  27.445  1.00  0.00     0.031 A 
ATOM     53  C   UNL A   1      43.237  24.433  26.168  1.00  0.00     0.131 A 
ATOM     54  C   UNL A   1      41.765  22.113  26.455  1.00  0.00     0.055 A 
ATOM     55  C   UNL A   1      43.273  23.468  25.161  1.00  0.00     0.041 A 
ATOM     56  F   UNL A   1      43.976  25.540  25.997  1.00  0.00    -0.206 F 
ATOM     57  C   UNL A   1      42.542  22.293  25.308  1.00  0.00     0.022 A 
BRANCH  54  58
ATOM     58  S   UNL A   1      40.892  20.546  26.723  1.00  0.00     0.124 S 
ATOM     59  O   UNL A   1      39.610  20.805  26.079  1.00  0.00    -0.237 OA
ATOM     60  O   UNL A   1      41.768  19.593  26.048  1.00  0.00    -0.237 OA
ATOM     61  O   UNL A   1      40.849  20.426  28.178  1.00  0.00    -0.744 OA
ENDBRANCH  54  58
ENDBRANCH  27  51
BRANCH  39  62
ATOM     62  C   UNL A   1      46.889  26.110  32.363  1.00  0.00     0.023 A 
ATOM     63  C   UNL A   1      48.092  26.398  31.694  1.00  0.00     0.031 A 
ATOM     64  C   UNL A   1      46.933  25.225  33.454  1.00  0.00     0.131 A 
ATOM     65  C   UNL A   1      49.278  25.762  32.087  1.00  0.00     0.055 A 
ATOM     66  C   UNL A   1      48.127  24.640  33.878  1.00  0.00     0.041 A 
ATOM     67  F   UNL A   1      45.813  24.911  34.125  1.00  0.00    -0.206 F 
ATOM     68  C   UNL A   1      49.306  24.897  33.184  1.00  0.00     0.022 A 
BRANCH  65  69
ATOM     69  S   UNL A   1      50.770  26.005  31.084  1.00  0.00     0.124 S 
ATOM     70  O   UNL A   1      51.641  24.940  31.572  1.00  0.00    -0.237 OA
ATOM     71  O   UNL A   1      50.263  25.842  29.725  1.00  0.00    -0.237 OA
ATOM     72  O   UNL A   1      51.197  27.360  31.426  1.00  0.00    -0.744 OA
ENDBRANCH  65  69
ENDBRANCH  39  62
ENDBRANCH  13  14
ENDBRANCH   6   8
ENDBRANCH   3   4
ENDBRANCH   2   3
ENDBRANCH   1   2
BRANCH   1  73
ATOM     73  C   UNL A   1      30.736  25.992  25.913  1.00  0.00     0.002 C 
BRANCH  73  74
ATOM     74  C   UNL A   1      30.534  24.472  25.848  1.00  0.00     0.021 C 
BRANCH  74  75
ATOM     75  C   UNL A   1      31.367  23.663  26.845  1.00  0.00     0.116 C 
BRANCH  75  76
ATOM     76  N   UNL A   1      31.317  22.255  26.510  1.00  0.00    -0.351 N 
ATOM     77  C   UNL A   1      32.270  21.527  25.870  1.00  0.00     0.278 C 
ATOM     78  H   UNL A   1      30.503  21.770  26.776  1.00  0.00     0.163 HD
ATOM     79  O   UNL A   1      31.873  20.656  25.088  1.00  0.00    -0.268 OA
BRANCH  77  80
ATOM     80  C   UNL A   1      33.763  21.816  26.037  1.00  0.00     0.280 C 
ATOM     81  N   UNL A   1      34.702  20.918  25.314  1.00  0.00    -0.335 N 
ATOM     82  C   UNL A   1      34.223  23.221  25.580  1.00  0.00     0.093 C 
ATOM     83  C   UNL A   1      36.010  21.589  25.420  1.00  0.00     0.262 C 
ATOM     84  H   UNL A   1      34.426  20.819  24.337  1.00  0.00     0.346 HD
ATOM     85  H   UNL A   1      34.717  19.976  25.705  1.00  0.00     0.346 HD
ATOM     86  C   UNL A   1      35.730  23.041  25.816  1.00  0.00     0.076 C 
BRANCH  82  87
ATOM     87  C   UNL A   1      33.843  23.633  24.147  1.00  0.00    -0.034 A 
ATOM     88  C   UNL A   1      33.575  22.723  23.113  1.00  0.00     0.004 A 
ATOM     89  C   UNL A   1      33.788  25.002  23.820  1.00  0.00     0.051 A 
ATOM     90  C   UNL A   1      33.252  23.163  21.825  1.00  0.00     0.004 A 
ATOM     91  C   UNL A   1      33.434  25.459  22.544  1.00  0.00     0.127 A 
ATOM     92  C   UNL A   1      33.174  24.526  21.544  1.00  0.00     0.047 A 
BRANCH  91  93
ATOM     93  O   UNL A   1      33.325  26.781  22.160  1.00  0.00    -0.457 OA
BRANCH  93  94
ATOM     94  C   UNL A   1      32.264  27.519  22.623  1.00  0.00     0.127 A 
ATOM     95  C   UNL A   1      32.522  28.638  23.417  1.00  0.00     0.047 A 
ATOM     96  C   UNL A   1      30.949  27.115  22.383  1.00  0.00     0.047 A 
ATOM     97  C   UNL A   1      31.458  29.392  23.918  1.00  0.00     0.004 A 
ATOM     98  C   UNL A   1      29.890  27.884  22.861  1.00  0.00     0.004 A 
ATOM     99  C   UNL A   1      30.144  29.024  23.626  1.00  0.00     0.000 A 
ENDBRANCH  93  94
ENDBRANCH  91  93
ENDBRANCH  82  87
ENDBRANCH  77  80
ENDBRANCH  75  76
ENDBRANCH  74  75
ENDBRANCH  73  74
ENDBRANCH   1  73
TORSDOF 19
ENDMDL
MODEL 2
REMARK VINA RESULT:     -11.4      4.392      8.947
REMARK SMILES O=C(NCCCCCCNC(=O)[C@H]1[NH2+]CC[C@H]1c1cccc(Oc2ccccc2)c1)c1ccc(-c2c3nc(c(-c4cc(S(=O)(=O)[O-])ccc4F)c4ccc([nH]4)c(-c4cc(S(=O)(=O)[O-])ccc4F)c4nc(c(-c5cc(S(=O)(=O)[O-])ccc5F)c5ccc2[nH]5)C=C4)C=C3)cc1
REMARK SMILES IDX 6 1 5 2 4 3 3 4 1 5 2 6 31 8 32 9 93 10 33 11 92 12 34 13
REMARK SMILES IDX 35 14 36 15 86 16 37 17 91 18 85 19 87 20 38 21 90 22 84 23
REMARK SMILES IDX 83 24 39 26 71 27 51 28 70 29 52 30 55 31 69 32 88 33 53 34
REMARK SMILES IDX 54 35 68 37 89 38 56 39 40 40 41 41 49 42 42 43 48 44 50 45
REMARK SMILES IDX 47 46 43 47 44 48 45 49 46 50 72 51 73 52 81 53 74 54 80 55
REMARK SMILES IDX 82 56 79 57 75 58 76 59 77 60 78 61 57 62 58 63 66 64 59 65
REMARK SMILES IDX 65 66 67 67 64 68 60 69 61 70 62 71 63 72 7 73 8 74 9 75
REMARK SMILES IDX 10 76 11 77 12 79 13 80 14 81 17 82 15 83 16 86 18 87 19 88
REMARK SMILES IDX 30 89 20 90 22 91 21 92 23 93 24 94 25 95 29 96 26 97 28 98
REMARK SMILES IDX 27 99
REMARK H PARENT 3 7 87 25 55 36 10 78 14 84 14 85
REMARK Flexibility Score: inf
ROOT
ATOM      1  C   UNL A   1      34.223  22.971  27.027  1.00  0.00     0.002 C 
ENDROOT
BRANCH   1   2
ATOM      2  C   UNL A   1      35.033  21.840  26.395  1.00  0.00     0.021 C 
BRANCH   2   3
ATOM      3  C   UNL A   1      36.394  22.251  25.847  1.00  0.00     0.116 C 
BRANCH   3   4
ATOM      4  N   UNL A   1      37.349  21.156  25.840  1.00  0.00    -0.352 N 
ATOM      5  O   UNL A   1      39.395  20.208  25.841  1.00  0.00    -0.269 OA
ATOM      6  C   UNL A   1      38.711  21.205  26.025  1.00  0.00     0.251 C 
ATOM      7  H   UNL A   1      36.970  20.261  25.681  1.00  0.00     0.163 HD
BRANCH   6   8
ATOM      8  C   UNL A   1      39.340  22.483  26.427  1.00  0.00     0.039 A 
ATOM      9  C   UNL A   1      38.926  23.690  25.857  1.00  0.00     0.014 A 
ATOM     10  C   UNL A   1      40.361  22.468  27.380  1.00  0.00     0.014 A 
ATOM     11  C   UNL A   1      39.615  24.863  26.147  1.00  0.00     0.010 A 
ATOM     12  C   UNL A   1      40.999  23.660  27.730  1.00  0.00     0.010 A 
ATOM     13  C   UNL A   1      40.648  24.864  27.099  1.00  0.00    -0.014 A 
BRANCH  13  14
ATOM     14  C   UNL A   1      41.303  26.147  27.464  1.00  0.00     0.031 A 
ATOM     15  C   UNL A   1      42.691  26.474  26.990  1.00  0.00     0.074 A 
ATOM     16  C   UNL A   1      40.618  27.026  28.223  1.00  0.00     0.049 A 
ATOM     17  N   UNL A   1      43.416  27.536  27.230  1.00  0.00    -0.248 NA
ATOM     18  C   UNL A   1      43.356  25.472  26.145  1.00  0.00     0.031 C 
ATOM     19  C   UNL A   1      39.264  26.812  28.741  1.00  0.00     0.029 A 
ATOM     20  N   UNL A   1      40.955  28.273  28.681  1.00  0.00    -0.354 N 
ATOM     21  C   UNL A   1      44.628  27.330  26.579  1.00  0.00     0.074 A 
ATOM     22  C   UNL A   1      44.549  26.020  25.963  1.00  0.00     0.031 C 
ATOM     23  C   UNL A   1      38.872  27.904  29.412  1.00  0.00     0.029 A 
ATOM     24  C   UNL A   1      39.967  28.865  29.434  1.00  0.00     0.049 A 
ATOM     25  H   UNL A   1      41.818  28.704  28.490  1.00  0.00     0.167 HD
ATOM     26  C   UNL A   1      45.699  28.159  26.501  1.00  0.00     0.034 A 
ATOM     27  C   UNL A   1      39.953  30.040  30.094  1.00  0.00     0.034 A 
ATOM     28  C   UNL A   1      45.756  29.460  27.126  1.00  0.00     0.049 A 
ATOM     29  C   UNL A   1      41.171  30.919  30.029  1.00  0.00     0.074 A 
ATOM     30  C   UNL A   1      46.780  30.392  27.087  1.00  0.00     0.029 A 
ATOM     31  N   UNL A   1      44.753  30.011  27.915  1.00  0.00    -0.354 N 
ATOM     32  N   UNL A   1      42.304  30.714  29.397  1.00  0.00    -0.248 NA
ATOM     33  C   UNL A   1      41.107  32.188  30.763  1.00  0.00     0.031 C 
ATOM     34  C   UNL A   1      46.424  31.473  27.903  1.00  0.00     0.029 A 
ATOM     35  C   UNL A   1      45.146  31.253  28.393  1.00  0.00     0.049 A 
ATOM     36  H   UNL A   1      43.889  29.581  28.108  1.00  0.00     0.167 HD
ATOM     37  C   UNL A   1      43.082  31.840  29.643  1.00  0.00     0.074 A 
ATOM     38  C   UNL A   1      42.279  32.727  30.462  1.00  0.00     0.031 C 
ATOM     39  C   UNL A   1      44.344  32.116  29.228  1.00  0.00     0.034 A 
BRANCH  26  40
ATOM     40  C   UNL A   1      46.913  27.659  25.750  1.00  0.00     0.023 A 
ATOM     41  C   UNL A   1      47.151  28.005  24.408  1.00  0.00     0.031 A 
ATOM     42  C   UNL A   1      47.837  26.808  26.382  1.00  0.00     0.131 A 
ATOM     43  C   UNL A   1      48.244  27.450  23.723  1.00  0.00     0.055 A 
ATOM     44  C   UNL A   1      48.965  26.318  25.718  1.00  0.00     0.041 A 
ATOM     45  F   UNL A   1      47.654  26.425  27.655  1.00  0.00    -0.206 F 
ATOM     46  C   UNL A   1      49.166  26.628  24.376  1.00  0.00     0.022 A 
BRANCH  43  47
ATOM     47  S   UNL A   1      48.368  27.706  21.932  1.00  0.00     0.124 S 
ATOM     48  O   UNL A   1      47.054  28.266  21.620  1.00  0.00    -0.237 OA
ATOM     49  O   UNL A   1      49.495  28.625  21.821  1.00  0.00    -0.237 OA
ATOM     50  O   UNL A   1      48.604  26.363  21.408  1.00  0.00    -0.744 OA
ENDBRANCH  43  47
ENDBRANCH  26  40
BRANCH  27  51
ATOM     51  C   UNL A   1      38.762  30.430  30.898  1.00  0.00     0.023 A 
ATOM     52  C   UNL A   1      37.699  31.141  30.322  1.00  0.00     0.031 A 
ATOM     53  C   UNL A   1      38.678  30.106  32.265  1.00  0.00     0.131 A 
ATOM     54  C   UNL A   1      36.613  31.538  31.118  1.00  0.00     0.055 A 
ATOM     55  C   UNL A   1      37.573  30.457  33.040  1.00  0.00     0.041 A 
ATOM     56  F   UNL A   1      39.666  29.421  32.862  1.00  0.00    -0.206 F 
ATOM     57  C   UNL A   1      36.537  31.188  32.469  1.00  0.00     0.022 A 
BRANCH  54  58
ATOM     58  S   UNL A   1      35.332  32.586  30.378  1.00  0.00     0.124 S 
ATOM     59  O   UNL A   1      34.890  31.768  29.255  1.00  0.00    -0.237 OA
ATOM     60  O   UNL A   1      34.385  32.729  31.479  1.00  0.00    -0.237 OA
ATOM     61  O   UNL A   1      36.054  33.804  30.019  1.00  0.00    -0.744 OA
ENDBRANCH  54  58
ENDBRANCH  27  51
BRANCH  39  62
ATOM     62  C   UNL A   1      44.911  33.456  29.631  1.00  0.00     0.023 A 
ATOM     63  C   UNL A   1      44.724  34.605  28.842  1.00  0.00     0.031 A 
ATOM     64  C   UNL A   1      45.673  33.575  30.807  1.00  0.00     0.131 A 
ATOM     65  C   UNL A   1      45.341  35.810  29.208  1.00  0.00     0.055 A 
ATOM     66  C   UNL A   1      46.236  34.791  31.196  1.00  0.00     0.041 A 
ATOM     67  F   UNL A   1      45.886  32.509  31.594  1.00  0.00    -0.206 F 
ATOM     68  C   UNL A   1      46.083  35.914  30.387  1.00  0.00     0.022 A 
BRANCH  65  69
ATOM     69  S   UNL A   1      45.243  37.219  28.070  1.00  0.00     0.124 S 
ATOM     70  O   UNL A   1      46.651  37.480  27.787  1.00  0.00    -0.237 OA
ATOM     71  O   UNL A   1      44.460  36.674  26.965  1.00  0.00    -0.237 OA
ATOM     72  O   UNL A   1      44.568  38.249  28.857  1.00  0.00    -0.744 OA
ENDBRANCH  65  69
ENDBRANCH  39  62
ENDBRANCH  13  14
ENDBRANCH   6   8
ENDBRANCH   3   4
ENDBRANCH   2   3
ENDBRANCH   1   2
BRANCH   1  73
ATOM     73  C   UNL A   1      32.958  22.532  27.769  1.00  0.00     0.002 C 
BRANCH  73  74
ATOM     74  C   UNL A   1      31.646  22.681  26.986  1.00  0.00     0.021 C 
BRANCH  74  75
ATOM     75  C   UNL A   1      31.253  24.121  26.646  1.00  0.00     0.116 C 
BRANCH  75  76
ATOM     76  N   UNL A   1      30.367  24.138  25.501  1.00  0.00    -0.351 N 
ATOM     77  C   UNL A   1      30.711  24.303  24.196  1.00  0.00     0.278 C 
ATOM     78  H   UNL A   1      29.408  24.017  25.687  1.00  0.00     0.163 HD
ATOM     79  O   UNL A   1      29.932  24.954  23.492  1.00  0.00    -0.268 OA
BRANCH  77  80
ATOM     80  C   UNL A   1      32.035  23.783  23.633  1.00  0.00     0.280 C 
ATOM     81  N   UNL A   1      32.101  23.580  22.162  1.00  0.00    -0.335 N 
ATOM     82  C   UNL A   1      33.269  24.678  23.904  1.00  0.00     0.093 C 
ATOM     83  C   UNL A   1      33.532  23.362  21.883  1.00  0.00     0.262 C 
ATOM     84  H   UNL A   1      31.758  24.403  21.668  1.00  0.00     0.346 HD
ATOM     85  H   UNL A   1      31.523  22.798  21.852  1.00  0.00     0.346 HD
ATOM     86  C   UNL A   1      34.302  23.866  23.107  1.00  0.00     0.076 C 
BRANCH  82  87
ATOM     87  C   UNL A   1      33.150  26.153  23.483  1.00  0.00    -0.034 A 
ATOM     88  C   UNL A   1      33.876  26.732  22.431  1.00  0.00     0.004 A 
ATOM     89  C   UNL A   1      32.290  27.003  24.206  1.00  0.00     0.051 A 
ATOM     90  C   UNL A   1      33.734  28.086  22.111  1.00  0.00     0.004 A 
ATOM     91  C   UNL A   1      32.112  28.352  23.877  1.00  0.00     0.127 A 
ATOM     92  C   UNL A   1      32.850  28.891  22.826  1.00  0.00     0.047 A 
BRANCH  91  93
ATOM     93  O   UNL A   1      31.264  29.236  24.515  1.00  0.00    -0.457 OA
BRANCH  93  94
ATOM     94  C   UNL A   1      30.091  29.591  23.895  1.00  0.00     0.127 A 
ATOM     95  C   UNL A   1      29.664  30.918  23.979  1.00  0.00     0.047 A 
ATOM     96  C   UNL A   1      29.294  28.634  23.266  1.00  0.00     0.047 A 
ATOM     97  C   UNL A   1      28.464  31.298  23.375  1.00  0.00     0.004 A 
ATOM     98  C   UNL A   1      28.110  29.021  22.640  1.00  0.00     0.004 A 
ATOM     99  C   UNL A   1      27.696  30.353  22.692  1.00  0.00     0.000 A 
ENDBRANCH  93  94
ENDBRANCH  91  93
ENDBRANCH  82  87
ENDBRANCH  77  80
ENDBRANCH  75  76
ENDBRANCH  74  75
ENDBRANCH  73  74
ENDBRANCH   1  73
TORSDOF 19
ENDMDL
MODEL 3
REMARK VINA RESULT:     -11.2      2.469      7.883
REMARK SMILES O=C(NCCCCCCNC(=O)[C@H]1[NH2+]CC[C@H]1c1cccc(Oc2ccccc2)c1)c1ccc(-c2c3nc(c(-c4cc(S(=O)(=O)[O-])ccc4F)c4ccc([nH]4)c(-c4cc(S(=O)(=O)[O-])ccc4F)c4nc(c(-c5cc(S(=O)(=O)[O-])ccc5F)c5ccc2[nH]5)C=C4)C=C3)cc1
REMARK SMILES IDX 6 1 5 2 4 3 3 4 1 5 2 6 31 8 32 9 93 10 33 11 92 12 34 13
REMARK SMILES IDX 35 14 36 15 86 16 37 17 91 18 85 19 87 20 38 21 90 22 84 23
REMARK SMILES IDX 83 24 39 26 71 27 51 28 70 29 52 30 55 31 69 32 88 33 53 34
REMARK SMILES IDX 54 35 68 37 89 38 56 39 40 40 41 41 49 42 42 43 48 44 50 45
REMARK SMILES IDX 47 46 43 47 44 48 45 49 46 50 72 51 73 52 81 53 74 54 80 55
REMARK SMILES IDX 82 56 79 57 75 58 76 59 77 60 78 61 57 62 58 63 66 64 59 65
REMARK SMILES IDX 65 66 67 67 64 68 60 69 61 70 62 71 63 72 7 73 8 74 9 75
REMARK SMILES IDX 10 76 11 77 12 79 13 80 14 81 17 82 15 83 16 86 18 87 19 88
REMARK SMILES IDX 30 89 20 90 22 91 21 92 23 93 24 94 25 95 29 96 26 97 28 98
REMARK SMILES IDX 27 99
REMARK H PARENT 3 7 87 25 55 36 10 78 14 84 14 85
REMARK Flexibility Score: inf
ROOT
ATOM      1  C   UNL A   1      32.453  26.362  25.960  1.00  0.00     0.002 C 
ENDROOT
BRANCH   1   2
ATOM      2  C   UNL A   1      32.020  27.798  26.255  1.00  0.00     0.021 C 
BRANCH   2   3
ATOM      3  C   UNL A   1      33.044  28.866  25.893  1.00  0.00     0.116 C 
BRANCH   3   4
ATOM      4  N   UNL A   1      32.575  30.211  26.178  1.00  0.00    -0.352 N 
ATOM      5  O   UNL A   1      32.508  32.179  27.277  1.00  0.00    -0.269 OA
ATOM      6  C   UNL A   1      33.110  31.141  27.039  1.00  0.00     0.251 C 
ATOM      7  H   UNL A   1      31.768  30.494  25.690  1.00  0.00     0.163 HD
BRANCH   6   8
ATOM      8  C   UNL A   1      34.409  30.861  27.689  1.00  0.00     0.039 A 
ATOM      9  C   UNL A   1      34.675  29.602  28.234  1.00  0.00     0.014 A 
ATOM     10  C   UNL A   1      35.367  31.876  27.761  1.00  0.00     0.014 A 
ATOM     11  C   UNL A   1      35.845  29.394  28.956  1.00  0.00     0.010 A 
ATOM     12  C   UNL A   1      36.577  31.640  28.419  1.00  0.00     0.010 A 
ATOM     13  C   UNL A   1      36.817  30.406  29.042  1.00  0.00    -0.014 A 
BRANCH  13  14
ATOM     14  C   UNL A   1      38.101  30.127  29.736  1.00  0.00     0.031 A 
ATOM     15  C   UNL A   1      39.163  29.280  29.094  1.00  0.00     0.074 A 
ATOM     16  C   UNL A   1      38.304  30.665  30.955  1.00  0.00     0.049 A 
ATOM     17  N   UNL A   1      40.331  28.925  29.565  1.00  0.00    -0.248 NA
ATOM     18  C   UNL A   1      38.872  28.756  27.752  1.00  0.00     0.031 C 
ATOM     19  C   UNL A   1      37.339  31.502  31.674  1.00  0.00     0.029 A 
ATOM     20  N   UNL A   1      39.382  30.601  31.800  1.00  0.00    -0.354 N 
ATOM     21  C   UNL A   1      40.912  28.123  28.587  1.00  0.00     0.074 A 
ATOM     22  C   UNL A   1      39.947  28.019  27.510  1.00  0.00     0.031 C 
ATOM     23  C   UNL A   1      37.883  31.904  32.832  1.00  0.00     0.029 A 
ATOM     24  C   UNL A   1      39.202  31.299  32.972  1.00  0.00     0.049 A 
ATOM     25  H   UNL A   1      40.204  30.105  31.588  1.00  0.00     0.167 HD
ATOM     26  C   UNL A   1      42.136  27.537  28.590  1.00  0.00     0.034 A 
ATOM     27  C   UNL A   1      39.996  31.418  34.052  1.00  0.00     0.034 A 
ATOM     28  C   UNL A   1      43.081  27.653  29.677  1.00  0.00     0.049 A 
ATOM     29  C   UNL A   1      41.329  30.720  34.048  1.00  0.00     0.074 A 
ATOM     30  C   UNL A   1      44.358  27.125  29.771  1.00  0.00     0.029 A 
ATOM     31  N   UNL A   1      42.849  28.335  30.866  1.00  0.00    -0.354 N 
ATOM     32  N   UNL A   1      41.868  29.977  33.109  1.00  0.00    -0.248 NA
ATOM     33  C   UNL A   1      42.160  30.879  35.247  1.00  0.00     0.031 C 
ATOM     34  C   UNL A   1      44.869  27.430  31.038  1.00  0.00     0.029 A 
ATOM     35  C   UNL A   1      43.944  28.213  31.710  1.00  0.00     0.049 A 
ATOM     36  H   UNL A   1      42.026  28.831  31.080  1.00  0.00     0.167 HD
ATOM     37  C   UNL A   1      43.112  29.595  33.599  1.00  0.00     0.074 A 
ATOM     38  C   UNL A   1      43.249  30.208  34.905  1.00  0.00     0.031 C 
ATOM     39  C   UNL A   1      44.057  28.811  33.020  1.00  0.00     0.034 A 
BRANCH  26  40
ATOM     40  C   UNL A   1      42.500  26.680  27.398  1.00  0.00     0.023 A 
ATOM     41  C   UNL A   1      42.099  25.336  27.299  1.00  0.00     0.031 A 
ATOM     42  C   UNL A   1      43.275  27.212  26.353  1.00  0.00     0.131 A 
ATOM     43  C   UNL A   1      42.531  24.553  26.217  1.00  0.00     0.055 A 
ATOM     44  C   UNL A   1      43.639  26.449  25.240  1.00  0.00     0.041 A 
ATOM     45  F   UNL A   1      43.706  28.483  26.398  1.00  0.00    -0.206 F 
ATOM     46  C   UNL A   1      43.278  25.106  25.175  1.00  0.00     0.022 A 
BRANCH  43  47
ATOM     47  S   UNL A   1      42.219  22.766  26.260  1.00  0.00     0.124 S 
ATOM     48  O   UNL A   1      42.729  22.345  24.957  1.00  0.00    -0.237 OA
ATOM     49  O   UNL A   1      42.994  22.337  27.417  1.00  0.00    -0.237 OA
ATOM     50  O   UNL A   1      40.768  22.674  26.411  1.00  0.00    -0.744 OA
ENDBRANCH  43  47
ENDBRANCH  26  40
BRANCH  27  51
ATOM     51  C   UNL A   1      39.537  32.196  35.235  1.00  0.00     0.023 A 
ATOM     52  C   UNL A   1      39.941  33.525  35.431  1.00  0.00     0.031 A 
ATOM     53  C   UNL A   1      38.694  31.612  36.199  1.00  0.00     0.131 A 
ATOM     54  C   UNL A   1      39.532  34.216  36.583  1.00  0.00     0.055 A 
ATOM     55  C   UNL A   1      38.247  32.319  37.315  1.00  0.00     0.041 A 
ATOM     56  F   UNL A   1      38.274  30.345  36.055  1.00  0.00    -0.206 F 
ATOM     57  C   UNL A   1      38.676  33.627  37.517  1.00  0.00     0.022 A 
BRANCH  54  58
ATOM     58  S   UNL A   1      40.195  35.877  36.879  1.00  0.00     0.124 S 
ATOM     59  O   UNL A   1      39.677  36.172  38.209  1.00  0.00    -0.237 OA
ATOM     60  O   UNL A   1      41.634  35.648  36.788  1.00  0.00    -0.237 OA
ATOM     61  O   UNL A   1      39.623  36.670  35.794  1.00  0.00    -0.744 OA
ENDBRANCH  54  58
ENDBRANCH  27  51
BRANCH  39  62
ATOM     62  C   UNL A   1      45.336  28.609  33.794  1.00  0.00     0.023 A 
ATOM     63  C   UNL A   1      45.493  27.544  34.698  1.00  0.00     0.031 A 
ATOM     64  C   UNL A   1      46.402  29.515  33.647  1.00  0.00     0.131 A 
ATOM     65  C   UNL A   1      46.664  27.443  35.463  1.00  0.00     0.055 A 
ATOM     66  C   UNL A   1      47.588  29.376  34.368  1.00  0.00     0.041 A 
ATOM     67  F   UNL A   1      46.304  30.554  32.802  1.00  0.00    -0.206 F 
ATOM     68  C   UNL A   1      47.718  28.343  35.292  1.00  0.00     0.022 A 
BRANCH  65  69
ATOM     69  S   UNL A   1      46.754  26.174  36.756  1.00  0.00     0.124 S 
ATOM     70  O   UNL A   1      48.180  26.154  37.063  1.00  0.00    -0.237 OA
ATOM     71  O   UNL A   1      45.884  26.723  37.793  1.00  0.00    -0.237 OA
ATOM     72  O   UNL A   1      46.245  24.974  36.095  1.00  0.00    -0.744 OA
ENDBRANCH  65  69
ENDBRANCH  39  62
ENDBRANCH  13  14
ENDBRANCH   6   8
ENDBRANCH   3   4
ENDBRANCH   2   3
ENDBRANCH   1   2
BRANCH   1  73
ATOM     73  C   UNL A   1      31.318  25.401  25.598  1.00  0.00     0.002 C 
BRANCH  73  74
ATOM     74  C   UNL A   1      31.281  24.090  26.396  1.00  0.00     0.021 C 
BRANCH  74  75
ATOM     75  C   UNL A   1      32.469  23.867  27.334  1.00  0.00     0.116 C 
BRANCH  75  76
ATOM     76  N   UNL A   1      32.657  22.451  27.572  1.00  0.00    -0.351 N 
ATOM     77  C   UNL A   1      33.628  21.651  27.057  1.00  0.00     0.278 C 
ATOM     78  H   UNL A   1      32.011  22.019  28.175  1.00  0.00     0.163 HD
ATOM     79  O   UNL A   1      33.302  20.495  26.769  1.00  0.00    -0.268 OA
BRANCH  77  80
ATOM     80  C   UNL A   1      35.038  22.169  26.766  1.00  0.00     0.280 C 
ATOM     81  N   UNL A   1      35.972  21.223  26.101  1.00  0.00    -0.335 N 
ATOM     82  C   UNL A   1      35.113  23.415  25.849  1.00  0.00     0.093 C 
ATOM     83  C   UNL A   1      37.118  22.058  25.696  1.00  0.00     0.262 C 
ATOM     84  H   UNL A   1      35.533  20.794  25.286  1.00  0.00     0.346 HD
ATOM     85  H   UNL A   1      36.250  20.457  26.714  1.00  0.00     0.346 HD
ATOM     86  C   UNL A   1      36.642  23.513  25.745  1.00  0.00     0.076 C 
BRANCH  82  87
ATOM     87  C   UNL A   1      34.382  23.314  24.499  1.00  0.00    -0.034 A 
ATOM     88  C   UNL A   1      33.750  22.152  24.032  1.00  0.00     0.004 A 
ATOM     89  C   UNL A   1      34.364  24.435  23.646  1.00  0.00     0.051 A 
ATOM     90  C   UNL A   1      33.117  22.122  22.784  1.00  0.00     0.004 A 
ATOM     91  C   UNL A   1      33.707  24.431  22.409  1.00  0.00     0.127 A 
ATOM     92  C   UNL A   1      33.090  23.260  21.980  1.00  0.00     0.047 A 
BRANCH  91  93
ATOM     93  O   UNL A   1      33.617  25.499  21.537  1.00  0.00    -0.457 OA
BRANCH  93  94
ATOM     94  C   UNL A   1      32.881  26.597  21.910  1.00  0.00     0.127 A 
ATOM     95  C   UNL A   1      33.555  27.771  22.250  1.00  0.00     0.047 A 
ATOM     96  C   UNL A   1      31.493  26.521  22.033  1.00  0.00     0.047 A 
ATOM     97  C   UNL A   1      32.829  28.893  22.653  1.00  0.00     0.004 A 
ATOM     98  C   UNL A   1      30.768  27.651  22.409  1.00  0.00     0.004 A 
ATOM     99  C   UNL A   1      31.436  28.838  22.717  1.00  0.00     0.000 A 
ENDBRANCH  93  94
ENDBRANCH  91  93
ENDBRANCH  82  87
ENDBRANCH  77  80
ENDBRANCH  75  76
ENDBRANCH  74  75
ENDBRANCH  73  74
ENDBRANCH   1  73
TORSDOF 19
ENDMDL
