MODEL 1
REMARK VINA RESULT:     -12.7      0.000      0.000
REMARK SMILES Cc1ccc(C(=O)NCCCCCCNC(=O)c2ccc(-c3c4nc(c(-c5cc(S(=O)(=O)[O-])ccc5F)c5ccc([nH]5)c(-c5cc(S(=O)(=O)[O-])ccc5F)c5nc(c(-c6cc(S(=O)(=O)[O-])ccc6F)c6ccc3[nH]6)C=C5)C=C4)cc2)c(N2CCC(C(N)=O)CC2)c1
REMARK SMILES IDX 12 1 11 2 10 3 9 4 8 5 6 6 7 7 5 9 1 10 2 11 3 12 91 13 4 14
REMARK SMILES IDX 81 15 82 16 83 17 90 18 84 19 89 20 85 21 86 22 87 23 88 24
REMARK SMILES IDX 13 27 14 28 15 29 16 30 17 32 18 33 19 34 80 35 20 36 79 37
REMARK SMILES IDX 21 38 22 39 23 40 73 41 24 42 78 43 72 44 74 45 25 46 77 47
REMARK SMILES IDX 71 48 70 49 26 51 58 52 38 53 57 54 39 55 42 56 56 57 75 58
REMARK SMILES IDX 40 59 41 60 55 62 76 63 43 64 27 65 28 66 36 67 29 68 35 69
REMARK SMILES IDX 37 70 34 71 30 72 31 73 32 74 33 75 59 76 60 77 68 78 61 79
REMARK SMILES IDX 67 80 69 81 66 82 62 83 63 84 64 85 65 86 44 87 45 88 53 89
REMARK SMILES IDX 46 90 52 91 54 92 51 93 47 94 48 95 49 96 50 97
REMARK H PARENT 8 8 87 25 87 26 15 31 74 50 42 61
REMARK Flexibility Score: inf
ROOT
ATOM      1  C   UNL A   1      33.822  30.076  26.619  1.00  0.00     0.002 C 
ENDROOT
BRANCH   1   2
ATOM      2  C   UNL A   1      33.467  28.640  27.062  1.00  0.00     0.002 C 
BRANCH   2   3
ATOM      3  C   UNL A   1      32.090  28.164  27.589  1.00  0.00     0.021 C 
BRANCH   3   4
ATOM      4  C   UNL A   1      31.099  27.469  26.650  1.00  0.00     0.116 C 
BRANCH   4   5
ATOM      5  N   UNL A   1      31.048  26.048  26.983  1.00  0.00    -0.352 N 
ATOM      6  C   UNL A   1      31.683  24.893  26.623  1.00  0.00     0.253 C 
ATOM      7  O   UNL A   1      31.101  23.863  27.004  1.00  0.00    -0.269 OA
ATOM      8  H   UNL A   1      30.356  25.871  27.662  1.00  0.00     0.163 HD
BRANCH   6   9
ATOM      9  C   UNL A   1      33.032  24.702  25.992  1.00  0.00     0.063 A 
ATOM     10  C   UNL A   1      36.664  23.050  24.236  1.00  0.00     0.044 C 
ATOM     11  C   UNL A   1      35.476  23.658  24.917  1.00  0.00    -0.049 A 
ATOM     12  C   UNL A   1      34.849  23.007  25.966  1.00  0.00     0.004 A 
ATOM     13  C   UNL A   1      34.902  24.838  24.438  1.00  0.00     0.030 A 
ATOM     14  C   UNL A   1      33.673  23.536  26.503  1.00  0.00     0.016 A 
ATOM     15  C   UNL A   1      33.656  25.355  24.908  1.00  0.00     0.050 A 
BRANCH  15  16
ATOM     16  N   UNL A   1      33.064  26.361  24.120  1.00  0.00    -0.371 N 
ATOM     17  C   UNL A   1      33.975  27.361  23.563  1.00  0.00     0.117 C 
ATOM     18  C   UNL A   1      32.181  25.800  23.085  1.00  0.00     0.117 C 
ATOM     19  C   UNL A   1      33.161  28.545  23.051  1.00  0.00     0.035 C 
ATOM     20  C   UNL A   1      31.212  26.852  22.630  1.00  0.00     0.035 C 
ATOM     21  C   UNL A   1      31.856  28.197  22.287  1.00  0.00     0.081 C 
BRANCH  21  22
ATOM     22  C   UNL A   1      30.760  29.193  22.566  1.00  0.00     0.220 C 
ATOM     23  N   UNL A   1      30.656  29.708  23.802  1.00  0.00    -0.369 N 
ATOM     24  O   UNL A   1      29.982  29.611  21.705  1.00  0.00    -0.275 OA
ATOM     25  H   UNL A   1      31.259  29.398  24.515  1.00  0.00     0.159 HD
ATOM     26  H   UNL A   1      29.976  30.393  23.993  1.00  0.00     0.159 HD
ENDBRANCH  21  22
ENDBRANCH  15  16
ENDBRANCH   6   9
ENDBRANCH   4   5
ENDBRANCH   3   4
ENDBRANCH   2   3
ENDBRANCH   1   2
BRANCH   1  27
ATOM     27  C   UNL A   1      33.930  31.318  27.527  1.00  0.00     0.021 C 
BRANCH  27  28
ATOM     28  C   UNL A   1      35.229  32.110  27.768  1.00  0.00     0.116 C 
BRANCH  28  29
ATOM     29  N   UNL A   1      35.703  32.301  29.125  1.00  0.00    -0.352 N 
ATOM     30  C   UNL A   1      36.136  31.317  30.009  1.00  0.00     0.251 C 
ATOM     31  H   UNL A   1      35.718  33.229  29.457  1.00  0.00     0.163 HD
ATOM     32  O   UNL A   1      36.099  31.484  31.227  1.00  0.00    -0.269 OA
BRANCH  30  33
ATOM     33  C   UNL A   1      36.886  30.129  29.490  1.00  0.00     0.039 A 
ATOM     34  C   UNL A   1      37.096  29.081  30.402  1.00  0.00     0.014 A 
ATOM     35  C   UNL A   1      37.543  30.099  28.264  1.00  0.00     0.014 A 
ATOM     36  C   UNL A   1      38.167  28.204  30.229  1.00  0.00     0.010 A 
ATOM     37  C   UNL A   1      38.616  29.234  28.092  1.00  0.00     0.010 A 
ATOM     38  C   UNL A   1      39.001  28.380  29.129  1.00  0.00    -0.014 A 
BRANCH  38  39
ATOM     39  C   UNL A   1      40.363  27.848  29.098  1.00  0.00     0.031 A 
ATOM     40  C   UNL A   1      40.628  26.475  28.622  1.00  0.00     0.074 A 
ATOM     41  C   UNL A   1      41.404  28.623  29.487  1.00  0.00     0.049 A 
ATOM     42  N   UNL A   1      41.620  25.757  29.024  1.00  0.00    -0.248 NA
ATOM     43  C   UNL A   1      39.777  25.789  27.657  1.00  0.00     0.031 C 
ATOM     44  C   UNL A   1      42.833  28.333  29.327  1.00  0.00     0.029 A 
ATOM     45  N   UNL A   1      41.431  29.828  30.181  1.00  0.00    -0.354 N 
ATOM     46  C   UNL A   1      41.714  24.670  28.190  1.00  0.00     0.074 A 
ATOM     47  C   UNL A   1      40.495  24.688  27.413  1.00  0.00     0.031 C 
ATOM     48  C   UNL A   1      43.532  29.107  30.175  1.00  0.00     0.029 A 
ATOM     49  C   UNL A   1      42.565  29.798  31.003  1.00  0.00     0.049 A 
ATOM     50  H   UNL A   1      40.778  30.561  30.109  1.00  0.00     0.167 HD
ATOM     51  C   UNL A   1      42.876  23.960  28.135  1.00  0.00     0.034 A 
ATOM     52  C   UNL A   1      42.534  29.748  32.370  1.00  0.00     0.034 A 
ATOM     53  C   UNL A   1      43.887  24.508  29.037  1.00  0.00     0.049 A 
ATOM     54  C   UNL A   1      43.257  28.532  32.935  1.00  0.00     0.074 A 
ATOM     55  C   UNL A   1      44.975  25.342  28.836  1.00  0.00     0.029 A 
ATOM     56  N   UNL A   1      43.681  24.458  30.410  1.00  0.00    -0.354 N 
ATOM     57  N   UNL A   1      43.562  27.471  32.237  1.00  0.00    -0.248 NA
ATOM     58  C   UNL A   1      43.679  28.409  34.327  1.00  0.00     0.031 C 
ATOM     59  C   UNL A   1      45.401  25.821  30.102  1.00  0.00     0.029 A 
ATOM     60  C   UNL A   1      44.595  25.253  31.073  1.00  0.00     0.049 A 
ATOM     61  H   UNL A   1      42.980  23.926  30.850  1.00  0.00     0.167 HD
ATOM     62  C   UNL A   1      44.195  26.543  33.031  1.00  0.00     0.074 A 
ATOM     63  C   UNL A   1      44.252  27.192  34.331  1.00  0.00     0.031 C 
ATOM     64  C   UNL A   1      44.598  25.330  32.531  1.00  0.00     0.034 A 
BRANCH  51  65
ATOM     65  C   UNL A   1      43.193  22.978  27.034  1.00  0.00     0.023 A 
ATOM     66  C   UNL A   1      42.654  21.677  27.090  1.00  0.00     0.031 A 
ATOM     67  C   UNL A   1      44.033  23.243  25.936  1.00  0.00     0.131 A 
ATOM     68  C   UNL A   1      43.031  20.685  26.170  1.00  0.00     0.055 A 
ATOM     69  C   UNL A   1      44.448  22.244  25.044  1.00  0.00     0.041 A 
ATOM     70  F   UNL A   1      44.459  24.486  25.668  1.00  0.00    -0.206 F 
ATOM     71  C   UNL A   1      43.959  20.950  25.168  1.00  0.00     0.022 A 
BRANCH  68  72
ATOM     72  S   UNL A   1      42.290  19.035  26.310  1.00  0.00     0.124 S 
ATOM     73  O   UNL A   1      42.411  18.765  27.739  1.00  0.00    -0.237 OA
ATOM     74  O   UNL A   1      40.938  19.260  25.808  1.00  0.00    -0.237 OA
ATOM     75  O   UNL A   1      43.137  18.209  25.452  1.00  0.00    -0.744 OA
ENDBRANCH  68  72
ENDBRANCH  51  65
BRANCH  52  76
ATOM     76  C   UNL A   1      41.332  30.391  32.970  1.00  0.00     0.023 A 
ATOM     77  C   UNL A   1      41.309  31.801  33.012  1.00  0.00     0.031 A 
ATOM     78  C   UNL A   1      40.113  29.707  33.068  1.00  0.00     0.131 A 
ATOM     79  C   UNL A   1      40.086  32.484  32.947  1.00  0.00     0.055 A 
ATOM     80  C   UNL A   1      38.895  30.398  33.064  1.00  0.00     0.041 A 
ATOM     81  F   UNL A   1      40.073  28.368  33.019  1.00  0.00    -0.206 F 
ATOM     82  C   UNL A   1      38.878  31.786  32.943  1.00  0.00     0.022 A 
BRANCH  79  83
ATOM     83  S   UNL A   1      40.065  34.268  32.588  1.00  0.00     0.124 S 
ATOM     84  O   UNL A   1      38.930  34.723  33.381  1.00  0.00    -0.237 OA
ATOM     85  O   UNL A   1      41.375  34.715  33.053  1.00  0.00    -0.237 OA
ATOM     86  O   UNL A   1      39.877  34.301  31.136  1.00  0.00    -0.744 OA
ENDBRANCH  79  83
ENDBRANCH  52  76
BRANCH  64  87
ATOM     87  C   UNL A   1      45.109  24.125  33.315  1.00  0.00     0.023 A 
ATOM     88  C   UNL A   1      46.415  24.001  33.800  1.00  0.00     0.031 A 
ATOM     89  C   UNL A   1      44.249  23.042  33.647  1.00  0.00     0.131 A 
ATOM     90  C   UNL A   1      46.838  22.862  34.513  1.00  0.00     0.055 A 
ATOM     91  C   UNL A   1      44.650  21.938  34.409  1.00  0.00     0.041 A 
ATOM     92  F   UNL A   1      42.965  23.001  33.263  1.00  0.00    -0.206 F 
ATOM     93  C   UNL A   1      45.959  21.835  34.840  1.00  0.00     0.022 A 
BRANCH  90  94
ATOM     94  S   UNL A   1      48.590  22.736  34.956  1.00  0.00     0.124 S 
ATOM     95  O   UNL A   1      48.566  23.068  36.378  1.00  0.00    -0.237 OA
ATOM     96  O   UNL A   1      48.890  21.344  34.637  1.00  0.00    -0.237 OA
ATOM     97  O   UNL A   1      49.236  23.724  34.096  1.00  0.00    -0.744 OA
ENDBRANCH  90  94
ENDBRANCH  64  87
ENDBRANCH  38  39
ENDBRANCH  30  33
ENDBRANCH  28  29
ENDBRANCH  27  28
ENDBRANCH   1  27
TORSDOF 18
ENDMDL
MODEL 2
REMARK VINA RESULT:     -12.2      2.005      3.251
REMARK SMILES Cc1ccc(C(=O)NCCCCCCNC(=O)c2ccc(-c3c4nc(c(-c5cc(S(=O)(=O)[O-])ccc5F)c5ccc([nH]5)c(-c5cc(S(=O)(=O)[O-])ccc5F)c5nc(c(-c6cc(S(=O)(=O)[O-])ccc6F)c6ccc3[nH]6)C=C5)C=C4)cc2)c(N2CCC(C(N)=O)CC2)c1
REMARK SMILES IDX 12 1 11 2 10 3 9 4 8 5 6 6 7 7 5 9 1 10 2 11 3 12 91 13 4 14
REMARK SMILES IDX 81 15 82 16 83 17 90 18 84 19 89 20 85 21 86 22 87 23 88 24
REMARK SMILES IDX 13 27 14 28 15 29 16 30 17 32 18 33 19 34 80 35 20 36 79 37
REMARK SMILES IDX 21 38 22 39 23 40 73 41 24 42 78 43 72 44 74 45 25 46 77 47
REMARK SMILES IDX 71 48 70 49 26 51 58 52 38 53 57 54 39 55 42 56 56 57 75 58
REMARK SMILES IDX 40 59 41 60 55 62 76 63 43 64 27 65 28 66 36 67 29 68 35 69
REMARK SMILES IDX 37 70 34 71 30 72 31 73 32 74 33 75 59 76 60 77 68 78 61 79
REMARK SMILES IDX 67 80 69 81 66 82 62 83 63 84 64 85 65 86 44 87 45 88 53 89
REMARK SMILES IDX 46 90 52 91 54 92 51 93 47 94 48 95 49 96 50 97
REMARK H PARENT 8 8 87 25 87 26 15 31 74 50 42 61
REMARK Flexibility Score: inf
ROOT
ATOM      1  C   UNL A   1      34.489  28.751  26.486  1.00  0.00     0.002 C 
ENDROOT
BRANCH   1   2
ATOM      2  C   UNL A   1      33.583  27.653  25.890  1.00  0.00     0.002 C 
BRANCH   2   3
ATOM      3  C   UNL A   1      33.662  27.093  24.448  1.00  0.00     0.021 C 
BRANCH   3   4
ATOM      4  C   UNL A   1      32.912  25.811  24.072  1.00  0.00     0.116 C 
BRANCH   4   5
ATOM      5  N   UNL A   1      32.778  24.974  25.261  1.00  0.00    -0.352 N 
ATOM      6  C   UNL A   1      33.365  23.863  25.798  1.00  0.00     0.253 C 
ATOM      7  O   UNL A   1      32.719  23.359  26.732  1.00  0.00    -0.269 OA
ATOM      8  H   UNL A   1      32.055  25.305  25.844  1.00  0.00     0.163 HD
BRANCH   6   9
ATOM      9  C   UNL A   1      34.723  23.280  25.534  1.00  0.00     0.063 A 
ATOM     10  C   UNL A   1      38.884  22.007  25.803  1.00  0.00     0.044 C 
ATOM     11  C   UNL A   1      37.481  22.504  25.627  1.00  0.00    -0.049 A 
ATOM     12  C   UNL A   1      37.089  23.722  26.154  1.00  0.00     0.004 A 
ATOM     13  C   UNL A   1      36.507  21.702  25.028  1.00  0.00     0.030 A 
ATOM     14  C   UNL A   1      35.747  24.106  26.082  1.00  0.00     0.016 A 
ATOM     15  C   UNL A   1      35.117  22.028  25.017  1.00  0.00     0.050 A 
BRANCH  15  16
ATOM     16  N   UNL A   1      34.237  20.986  24.663  1.00  0.00    -0.371 N 
ATOM     17  C   UNL A   1      33.641  20.243  25.773  1.00  0.00     0.117 C 
ATOM     18  C   UNL A   1      33.215  21.432  23.703  1.00  0.00     0.117 C 
ATOM     19  C   UNL A   1      33.015  18.961  25.235  1.00  0.00     0.035 C 
ATOM     20  C   UNL A   1      32.651  20.241  22.984  1.00  0.00     0.035 C 
ATOM     21  C   UNL A   1      32.233  19.090  23.901  1.00  0.00     0.081 C 
BRANCH  21  22
ATOM     22  C   UNL A   1      32.400  17.870  23.032  1.00  0.00     0.220 C 
ATOM     23  N   UNL A   1      32.839  16.732  23.595  1.00  0.00    -0.369 N 
ATOM     24  O   UNL A   1      32.099  17.837  21.836  1.00  0.00    -0.275 OA
ATOM     25  H   UNL A   1      33.088  16.720  24.547  1.00  0.00     0.159 HD
ATOM     26  H   UNL A   1      32.910  15.913  23.055  1.00  0.00     0.159 HD
ENDBRANCH  21  22
ENDBRANCH  15  16
ENDBRANCH   6   9
ENDBRANCH   4   5
ENDBRANCH   3   4
ENDBRANCH   2   3
ENDBRANCH   1   2
BRANCH   1  27
ATOM     27  C   UNL A   1      34.067  30.185  26.869  1.00  0.00     0.021 C 
BRANCH  27  28
ATOM     28  C   UNL A   1      34.054  30.733  28.309  1.00  0.00     0.116 C 
BRANCH  28  29
ATOM     29  N   UNL A   1      35.065  31.691  28.713  1.00  0.00    -0.352 N 
ATOM     30  C   UNL A   1      36.282  31.415  29.331  1.00  0.00     0.251 C 
ATOM     31  H   UNL A   1      34.869  32.638  28.531  1.00  0.00     0.163 HD
ATOM     32  O   UNL A   1      36.861  32.257  30.017  1.00  0.00    -0.269 OA
BRANCH  30  33
ATOM     33  C   UNL A   1      37.033  30.170  28.973  1.00  0.00     0.039 A 
ATOM     34  C   UNL A   1      37.242  29.249  30.014  1.00  0.00     0.014 A 
ATOM     35  C   UNL A   1      37.693  29.982  27.762  1.00  0.00     0.014 A 
ATOM     36  C   UNL A   1      38.313  28.359  29.959  1.00  0.00     0.010 A 
ATOM     37  C   UNL A   1      38.767  29.102  27.707  1.00  0.00     0.010 A 
ATOM     38  C   UNL A   1      39.150  28.391  28.847  1.00  0.00    -0.014 A 
BRANCH  38  39
ATOM     39  C   UNL A   1      40.512  27.860  28.888  1.00  0.00     0.031 A 
ATOM     40  C   UNL A   1      40.804  26.489  28.425  1.00  0.00     0.074 A 
ATOM     41  C   UNL A   1      41.530  28.635  29.334  1.00  0.00     0.049 A 
ATOM     42  N   UNL A   1      41.773  25.770  28.877  1.00  0.00    -0.248 NA
ATOM     43  C   UNL A   1      40.006  25.804  27.413  1.00  0.00     0.031 C 
ATOM     44  C   UNL A   1      42.965  28.346  29.251  1.00  0.00     0.029 A 
ATOM     45  N   UNL A   1      41.518  29.838  30.032  1.00  0.00    -0.354 N 
ATOM     46  C   UNL A   1      41.913  24.685  28.047  1.00  0.00     0.074 A 
ATOM     47  C   UNL A   1      40.738  24.703  27.206  1.00  0.00     0.031 C 
ATOM     48  C   UNL A   1      43.617  29.119  30.137  1.00  0.00     0.029 A 
ATOM     49  C   UNL A   1      42.606  29.807  30.914  1.00  0.00     0.049 A 
ATOM     50  H   UNL A   1      40.869  30.571  29.927  1.00  0.00     0.167 HD
ATOM     51  C   UNL A   1      43.078  23.976  28.053  1.00  0.00     0.034 A 
ATOM     52  C   UNL A   1      42.501  29.754  32.277  1.00  0.00     0.034 A 
ATOM     53  C   UNL A   1      44.037  24.523  29.010  1.00  0.00     0.049 A 
ATOM     54  C   UNL A   1      43.194  28.538  32.878  1.00  0.00     0.074 A 
ATOM     55  C   UNL A   1      45.134  25.358  28.870  1.00  0.00     0.029 A 
ATOM     56  N   UNL A   1      43.757  24.469  30.370  1.00  0.00    -0.354 N 
ATOM     57  N   UNL A   1      43.537  27.478  32.194  1.00  0.00    -0.248 NA
ATOM     58  C   UNL A   1      43.540  28.412  34.290  1.00  0.00     0.031 C 
ATOM     59  C   UNL A   1      45.490  25.835  30.158  1.00  0.00     0.029 A 
ATOM     60  C   UNL A   1      44.634  25.264  31.084  1.00  0.00     0.049 A 
ATOM     61  H   UNL A   1      43.034  23.936  30.771  1.00  0.00     0.167 HD
ATOM     62  C   UNL A   1      44.127  26.549  33.019  1.00  0.00     0.074 A 
ATOM     63  C   UNL A   1      44.113  27.195  34.322  1.00  0.00     0.031 C 
ATOM     64  C   UNL A   1      44.558  25.338  32.539  1.00  0.00     0.034 A 
BRANCH  51  65
ATOM     65  C   UNL A   1      43.455  22.997  26.969  1.00  0.00     0.023 A 
ATOM     66  C   UNL A   1      42.905  21.699  26.986  1.00  0.00     0.031 A 
ATOM     67  C   UNL A   1      44.361  23.261  25.926  1.00  0.00     0.131 A 
ATOM     68  C   UNL A   1      43.330  20.709  26.086  1.00  0.00     0.055 A 
ATOM     69  C   UNL A   1      44.823  22.263  25.056  1.00  0.00     0.041 A 
ATOM     70  F   UNL A   1      44.811  24.503  25.690  1.00  0.00    -0.206 F 
ATOM     71  C   UNL A   1      44.319  20.973  25.143  1.00  0.00     0.022 A 
BRANCH  68  72
ATOM     72  S   UNL A   1      42.571  19.063  26.172  1.00  0.00     0.124 S 
ATOM     73  O   UNL A   1      41.347  19.250  25.401  1.00  0.00    -0.237 OA
ATOM     74  O   UNL A   1      43.594  18.219  25.565  1.00  0.00    -0.237 OA
ATOM     75  O   UNL A   1      42.372  18.857  27.606  1.00  0.00    -0.744 OA
ENDBRANCH  68  72
ENDBRANCH  51  65
BRANCH  52  76
ATOM     76  C   UNL A   1      41.268  30.395  32.813  1.00  0.00     0.023 A 
ATOM     77  C   UNL A   1      41.233  31.805  32.836  1.00  0.00     0.031 A 
ATOM     78  C   UNL A   1      40.051  29.702  32.863  1.00  0.00     0.131 A 
ATOM     79  C   UNL A   1      40.009  32.477  32.706  1.00  0.00     0.055 A 
ATOM     80  C   UNL A   1      38.830  30.383  32.794  1.00  0.00     0.041 A 
ATOM     81  F   UNL A   1      40.023  28.362  32.828  1.00  0.00    -0.206 F 
ATOM     82  C   UNL A   1      38.808  31.770  32.655  1.00  0.00     0.022 A 
BRANCH  79  83
ATOM     83  S   UNL A   1      39.992  34.256  32.325  1.00  0.00     0.124 S 
ATOM     84  O   UNL A   1      41.092  34.374  31.375  1.00  0.00    -0.237 OA
ATOM     85  O   UNL A   1      38.658  34.463  31.769  1.00  0.00    -0.237 OA
ATOM     86  O   UNL A   1      40.219  34.867  33.636  1.00  0.00    -0.744 OA
ENDBRANCH  79  83
ENDBRANCH  52  76
BRANCH  64  87
ATOM     87  C   UNL A   1      45.026  24.131  33.347  1.00  0.00     0.023 A 
ATOM     88  C   UNL A   1      46.314  23.995  33.877  1.00  0.00     0.031 A 
ATOM     89  C   UNL A   1      44.142  23.060  33.656  1.00  0.00     0.131 A 
ATOM     90  C   UNL A   1      46.698  22.854  34.611  1.00  0.00     0.055 A 
ATOM     91  C   UNL A   1      44.504  21.956  34.437  1.00  0.00     0.041 A 
ATOM     92  F   UNL A   1      42.873  23.033  33.228  1.00  0.00    -0.206 F 
ATOM     93  C   UNL A   1      45.797  21.840  34.913  1.00  0.00     0.022 A 
BRANCH  90  94
ATOM     94  S   UNL A   1      48.433  22.710  35.114  1.00  0.00     0.124 S 
ATOM     95  O   UNL A   1      48.800  21.411  34.557  1.00  0.00    -0.237 OA
ATOM     96  O   UNL A   1      49.040  23.869  34.466  1.00  0.00    -0.237 OA
ATOM     97  O   UNL A   1      48.377  22.770  36.572  1.00  0.00    -0.744 OA
ENDBRANCH  90  94
ENDBRANCH  64  87
ENDBRANCH  38  39
ENDBRANCH  30  33
ENDBRANCH  28  29
ENDBRANCH  27  28
ENDBRANCH   1  27
TORSDOF 18
ENDMDL
MODEL 3
REMARK VINA RESULT:     -12.0      2.468      3.655
REMARK SMILES Cc1ccc(C(=O)NCCCCCCNC(=O)c2ccc(-c3c4nc(c(-c5cc(S(=O)(=O)[O-])ccc5F)c5ccc([nH]5)c(-c5cc(S(=O)(=O)[O-])ccc5F)c5nc(c(-c6cc(S(=O)(=O)[O-])ccc6F)c6ccc3[nH]6)C=C5)C=C4)cc2)c(N2CCC(C(N)=O)CC2)c1
REMARK SMILES IDX 12 1 11 2 10 3 9 4 8 5 6 6 7 7 5 9 1 10 2 11 3 12 91 13 4 14
REMARK SMILES IDX 81 15 82 16 83 17 90 18 84 19 89 20 85 21 86 22 87 23 88 24
REMARK SMILES IDX 13 27 14 28 15 29 16 30 17 32 18 33 19 34 80 35 20 36 79 37
REMARK SMILES IDX 21 38 22 39 23 40 73 41 24 42 78 43 72 44 74 45 25 46 77 47
REMARK SMILES IDX 71 48 70 49 26 51 58 52 38 53 57 54 39 55 42 56 56 57 75 58
REMARK SMILES IDX 40 59 41 60 55 62 76 63 43 64 27 65 28 66 36 67 29 68 35 69
REMARK SMILES IDX 37 70 34 71 30 72 31 73 32 74 33 75 59 76 60 77 68 78 61 79
REMARK SMILES IDX 67 80 69 81 66 82 62 83 63 84 64 85 65 86 44 87 45 88 53 89
REMARK SMILES IDX 46 90 52 91 54 92 51 93 47 94 48 95 49 96 50 97
REMARK H PARENT 8 8 87 25 87 26 15 31 74 50 42 61
REMARK Flexibility Score: inf
ROOT
ATOM      1  C   UNL A   1      34.789  29.325  27.652  1.00  0.00     0.002 C 
ENDROOT
BRANCH   1   2
ATOM      2  C   UNL A   1      33.669  28.678  26.808  1.00  0.00     0.002 C 
BRANCH   2   3
ATOM      3  C   UNL A   1      32.220  28.400  27.279  1.00  0.00     0.021 C 
BRANCH   3   4
ATOM      4  C   UNL A   1      31.267  27.573  26.410  1.00  0.00     0.116 C 
BRANCH   4   5
ATOM      5  N   UNL A   1      31.236  26.202  26.912  1.00  0.00    -0.352 N 
ATOM      6  C   UNL A   1      31.800  24.994  26.613  1.00  0.00     0.253 C 
ATOM      7  O   UNL A   1      31.255  24.034  27.184  1.00  0.00    -0.269 OA
ATOM      8  H   UNL A   1      30.635  26.127  27.689  1.00  0.00     0.163 HD
BRANCH   6   9
ATOM      9  C   UNL A   1      33.053  24.690  25.843  1.00  0.00     0.063 A 
ATOM     10  C   UNL A   1      36.313  22.737  23.708  1.00  0.00     0.044 C 
ATOM     11  C   UNL A   1      35.264  23.441  24.513  1.00  0.00    -0.049 A 
ATOM     12  C   UNL A   1      34.692  22.835  25.618  1.00  0.00     0.004 A 
ATOM     13  C   UNL A   1      34.756  24.676  24.103  1.00  0.00     0.030 A 
ATOM     14  C   UNL A   1      33.632  23.463  26.278  1.00  0.00     0.016 A 
ATOM     15  C   UNL A   1      33.619  25.298  24.703  1.00  0.00     0.050 A 
BRANCH  15  16
ATOM     16  N   UNL A   1      33.044  26.366  23.987  1.00  0.00    -0.371 N 
ATOM     17  C   UNL A   1      33.970  27.393  23.510  1.00  0.00     0.117 C 
ATOM     18  C   UNL A   1      32.163  25.893  22.908  1.00  0.00     0.117 C 
ATOM     19  C   UNL A   1      33.174  28.621  23.080  1.00  0.00     0.035 C 
ATOM     20  C   UNL A   1      31.209  26.987  22.525  1.00  0.00     0.035 C 
ATOM     21  C   UNL A   1      31.871  28.345  22.285  1.00  0.00     0.081 C 
BRANCH  21  22
ATOM     22  C   UNL A   1      30.784  29.331  22.628  1.00  0.00     0.220 C 
ATOM     23  N   UNL A   1      30.263  30.085  21.645  1.00  0.00    -0.369 N 
ATOM     24  O   UNL A   1      30.298  29.447  23.755  1.00  0.00    -0.275 OA
ATOM     25  H   UNL A   1      30.625  30.020  20.732  1.00  0.00     0.159 HD
ATOM     26  H   UNL A   1      29.521  30.701  21.839  1.00  0.00     0.159 HD
ENDBRANCH  21  22
ENDBRANCH  15  16
ENDBRANCH   6   9
ENDBRANCH   4   5
ENDBRANCH   3   4
ENDBRANCH   2   3
ENDBRANCH   1   2
BRANCH   1  27
ATOM     27  C   UNL A   1      34.731  30.692  28.363  1.00  0.00     0.021 C 
BRANCH  27  28
ATOM     28  C   UNL A   1      34.651  32.049  27.637  1.00  0.00     0.116 C 
BRANCH  28  29
ATOM     29  N   UNL A   1      34.019  33.173  28.301  1.00  0.00    -0.352 N 
ATOM     30  C   UNL A   1      34.316  33.676  29.564  1.00  0.00     0.251 C 
ATOM     31  H   UNL A   1      33.302  33.629  27.803  1.00  0.00     0.163 HD
ATOM     32  O   UNL A   1      33.487  34.309  30.216  1.00  0.00    -0.269 OA
BRANCH  30  33
ATOM     33  C   UNL A   1      35.731  33.670  30.054  1.00  0.00     0.039 A 
ATOM     34  C   UNL A   1      36.702  34.140  29.153  1.00  0.00     0.014 A 
ATOM     35  C   UNL A   1      36.145  33.050  31.229  1.00  0.00     0.014 A 
ATOM     36  C   UNL A   1      38.027  33.721  29.267  1.00  0.00     0.010 A 
ATOM     37  C   UNL A   1      37.462  32.623  31.341  1.00  0.00     0.010 A 
ATOM     38  C   UNL A   1      38.364  32.850  30.298  1.00  0.00    -0.014 A 
BRANCH  38  39
ATOM     39  C   UNL A   1      39.559  32.010  30.242  1.00  0.00     0.031 A 
ATOM     40  C   UNL A   1      39.514  30.670  29.622  1.00  0.00     0.074 A 
ATOM     41  C   UNL A   1      40.734  32.464  30.741  1.00  0.00     0.049 A 
ATOM     42  N   UNL A   1      40.284  29.695  29.966  1.00  0.00    -0.248 NA
ATOM     43  C   UNL A   1      38.574  30.314  28.565  1.00  0.00     0.031 C 
ATOM     44  C   UNL A   1      42.058  31.854  30.586  1.00  0.00     0.029 A 
ATOM     45  N   UNL A   1      41.011  33.549  31.567  1.00  0.00    -0.354 N 
ATOM     46  C   UNL A   1      40.158  28.709  29.018  1.00  0.00     0.074 A 
ATOM     47  C   UNL A   1      39.021  29.101  28.217  1.00  0.00     0.031 C 
ATOM     48  C   UNL A   1      42.877  32.344  31.533  1.00  0.00     0.029 A 
ATOM     49  C   UNL A   1      42.061  33.161  32.409  1.00  0.00     0.049 A 
ATOM     50  H   UNL A   1      40.557  34.422  31.561  1.00  0.00     0.167 HD
ATOM     51  C   UNL A   1      41.119  27.748  28.913  1.00  0.00     0.034 A 
ATOM     52  C   UNL A   1      41.949  32.979  33.760  1.00  0.00     0.034 A 
ATOM     53  C   UNL A   1      42.183  27.939  29.897  1.00  0.00     0.049 A 
ATOM     54  C   UNL A   1      42.330  31.573  34.204  1.00  0.00     0.074 A 
ATOM     55  C   UNL A   1      43.448  28.499  29.817  1.00  0.00     0.029 A 
ATOM     56  N   UNL A   1      41.901  27.799  31.249  1.00  0.00    -0.354 N 
ATOM     57  N   UNL A   1      42.409  30.547  33.399  1.00  0.00    -0.248 NA
ATOM     58  C   UNL A   1      42.639  31.209  35.584  1.00  0.00     0.031 C 
ATOM     59  C   UNL A   1      43.909  28.729  31.140  1.00  0.00     0.029 A 
ATOM     60  C   UNL A   1      42.943  28.276  32.021  1.00  0.00     0.049 A 
ATOM     61  H   UNL A   1      41.071  27.411  31.609  1.00  0.00     0.167 HD
ATOM     62  C   UNL A   1      42.761  29.417  34.100  1.00  0.00     0.074 A 
ATOM     63  C   UNL A   1      42.904  29.895  35.465  1.00  0.00     0.031 C 
ATOM     64  C   UNL A   1      42.889  28.200  33.477  1.00  0.00     0.034 A 
BRANCH  51  65
ATOM     65  C   UNL A   1      41.250  26.837  27.718  1.00  0.00     0.023 A 
ATOM     66  C   UNL A   1      41.230  25.440  27.906  1.00  0.00     0.031 A 
ATOM     67  C   UNL A   1      41.427  27.270  26.391  1.00  0.00     0.131 A 
ATOM     68  C   UNL A   1      41.489  24.552  26.849  1.00  0.00     0.055 A 
ATOM     69  C   UNL A   1      41.732  26.390  25.343  1.00  0.00     0.041 A 
ATOM     70  F   UNL A   1      41.281  28.560  26.053  1.00  0.00    -0.206 F 
ATOM     71  C   UNL A   1      41.781  25.021  25.572  1.00  0.00     0.022 A 
BRANCH  68  72
ATOM     72  S   UNL A   1      41.443  22.768  27.174  1.00  0.00     0.124 S 
ATOM     73  O   UNL A   1      40.051  22.563  27.561  1.00  0.00    -0.237 OA
ATOM     74  O   UNL A   1      41.845  22.209  25.888  1.00  0.00    -0.237 OA
ATOM     75  O   UNL A   1      42.415  22.595  28.252  1.00  0.00    -0.744 OA
ENDBRANCH  68  72
ENDBRANCH  51  65
BRANCH  52  76
ATOM     76  C   UNL A   1      40.905  33.830  34.398  1.00  0.00     0.023 A 
ATOM     77  C   UNL A   1      39.597  33.305  34.463  1.00  0.00     0.031 A 
ATOM     78  C   UNL A   1      41.247  34.862  35.281  1.00  0.00     0.131 A 
ATOM     79  C   UNL A   1      38.747  33.671  35.516  1.00  0.00     0.055 A 
ATOM     80  C   UNL A   1      40.369  35.267  36.294  1.00  0.00     0.041 A 
ATOM     81  F   UNL A   1      42.481  35.389  35.275  1.00  0.00    -0.206 F 
ATOM     82  C   UNL A   1      39.139  34.630  36.450  1.00  0.00     0.022 A 
BRANCH  79  83
ATOM     83  S   UNL A   1      37.238  32.705  35.837  1.00  0.00     0.124 S 
ATOM     84  O   UNL A   1      37.136  31.893  34.631  1.00  0.00    -0.237 OA
ATOM     85  O   UNL A   1      37.565  31.977  37.058  1.00  0.00    -0.237 OA
ATOM     86  O   UNL A   1      36.218  33.745  35.988  1.00  0.00    -0.744 OA
ENDBRANCH  79  83
ENDBRANCH  52  76
BRANCH  64  87
ATOM     87  C   UNL A   1      43.056  26.833  34.134  1.00  0.00     0.023 A 
ATOM     88  C   UNL A   1      44.192  26.030  33.994  1.00  0.00     0.031 A 
ATOM     89  C   UNL A   1      42.054  26.297  34.990  1.00  0.00     0.131 A 
ATOM     90  C   UNL A   1      44.293  24.770  34.616  1.00  0.00     0.055 A 
ATOM     91  C   UNL A   1      42.178  25.074  35.659  1.00  0.00     0.041 A 
ATOM     92  F   UNL A   1      40.903  26.938  35.235  1.00  0.00    -0.206 F 
ATOM     93  C   UNL A   1      43.302  24.292  35.466  1.00  0.00     0.022 A 
BRANCH  90  94
ATOM     94  S   UNL A   1      45.739  23.746  34.238  1.00  0.00     0.124 S 
ATOM     95  O   UNL A   1      46.574  24.673  33.480  1.00  0.00    -0.237 OA
ATOM     96  O   UNL A   1      46.228  23.398  35.569  1.00  0.00    -0.237 OA
ATOM     97  O   UNL A   1      45.185  22.635  33.469  1.00  0.00    -0.744 OA
ENDBRANCH  90  94
ENDBRANCH  64  87
ENDBRANCH  38  39
ENDBRANCH  30  33
ENDBRANCH  28  29
ENDBRANCH  27  28
ENDBRANCH   1  27
TORSDOF 18
ENDMDL
