MODEL 1
REMARK VINA RESULT:     -10.7      0.000      0.000
REMARK SMILES O=C(COCC(=O)N1CCC([NH+]2CCN(c3ccc(F)cc3)CC2)CC1)NCCCCCCNC(=O)c1ccc(-c2c3nc(c(-c4cc(S(=O)(=O)[O-])ccc4F)c4ccc([nH]4)c(-c4cc(S(=O)(=O)[O-])ccc4F)c4nc(c(-c5cc(S(=O)(=O)[O-])ccc5F)c5ccc2[nH]5)C=C4)C=C3)cc1
REMARK SMILES IDX 29 1 28 2 27 3 1 4 2 5 3 7 4 8 5 9 6 10 7 11 8 12 9 13 26 14
REMARK SMILES IDX 10 15 25 16 11 17 12 18 13 19 24 20 14 22 23 23 15 24 16 25
REMARK SMILES IDX 17 26 22 27 18 28 21 29 19 30 20 31 30 32 31 33 32 34 33 35
REMARK SMILES IDX 34 36 35 37 36 39 37 40 38 41 99 42 39 43 98 44 40 45 41 46
REMARK SMILES IDX 42 47 92 48 43 49 97 50 91 51 93 52 44 53 96 54 90 55 89 56
REMARK SMILES IDX 45 58 77 59 57 60 76 61 58 62 61 63 75 64 94 65 59 66 60 67
REMARK SMILES IDX 74 69 95 70 62 71 46 72 47 73 55 74 48 75 54 76 56 77 53 78
REMARK SMILES IDX 49 79 50 80 51 81 52 82 78 83 79 84 87 85 80 86 86 87 88 88
REMARK SMILES IDX 85 89 81 90 82 91 83 92 84 93 63 94 64 95 72 96 65 97 71 98
REMARK SMILES IDX 73 99 70 100 66 101 67 102 68 103 69 104
REMARK H PARENT 27 6 12 21 34 38 93 57 61 68
REMARK Flexibility Score: inf
ROOT
ATOM      1  C   UNL A   1      36.901  33.684  29.271  1.00  0.00     0.021 C 
ENDROOT
BRANCH   1   2
ATOM      2  C   UNL A   1      36.662  32.440  28.417  1.00  0.00     0.116 C 
BRANCH   2   3
ATOM      3  N   UNL A   1      35.280  32.339  28.004  1.00  0.00    -0.354 N 
ATOM      4  O   UNL A   1      35.201  30.040  27.886  1.00  0.00    -0.272 OA
ATOM      5  C   UNL A   1      34.660  31.133  27.764  1.00  0.00     0.246 C 
ATOM      6  H   UNL A   1      34.761  33.167  27.888  1.00  0.00     0.163 HD
BRANCH   5   7
ATOM      7  C   UNL A   1      33.225  31.278  27.251  1.00  0.00     0.260 C 
BRANCH   7   8
ATOM      8  O   UNL A   1      32.462  30.082  27.168  1.00  0.00    -0.362 OA
BRANCH   8   9
ATOM      9  C   UNL A   1      31.814  29.908  25.924  1.00  0.00     0.260 C 
BRANCH   9  10
ATOM     10  C   UNL A   1      32.209  28.797  24.926  1.00  0.00     0.248 C 
ATOM     11  O   UNL A   1      32.243  29.043  23.718  1.00  0.00    -0.272 OA
ATOM     12  N   UNL A   1      32.668  27.590  25.436  1.00  0.00    -0.340 N 
ATOM     13  C   UNL A   1      33.474  26.731  24.588  1.00  0.00     0.125 C 
ATOM     14  C   UNL A   1      32.116  26.917  26.603  1.00  0.00     0.125 C 
ATOM     15  C   UNL A   1      32.660  25.560  24.058  1.00  0.00     0.086 C 
ATOM     16  C   UNL A   1      31.173  25.809  26.125  1.00  0.00     0.086 C 
ATOM     17  C   UNL A   1      31.890  24.820  25.170  1.00  0.00     0.187 C 
BRANCH  17  18
ATOM     18  N   UNL A   1      31.002  23.722  24.732  1.00  0.00    -0.329 N 
ATOM     19  C   UNL A   1      31.194  23.173  23.374  1.00  0.00     0.284 C 
ATOM     20  C   UNL A   1      30.873  22.603  25.691  1.00  0.00     0.284 C 
ATOM     21  H   UNL A   1      30.127  24.246  24.699  1.00  0.00     0.348 HD
ATOM     22  C   UNL A   1      32.293  22.100  23.204  1.00  0.00     0.178 C 
ATOM     23  C   UNL A   1      31.911  21.455  25.590  1.00  0.00     0.178 C 
ATOM     24  N   UNL A   1      32.119  21.038  24.197  1.00  0.00    -0.360 N 
BRANCH  24  25
ATOM     25  C   UNL A   1      32.714  19.804  23.986  1.00  0.00     0.037 A 
ATOM     26  C   UNL A   1      32.157  18.939  23.029  1.00  0.00     0.029 A 
ATOM     27  C   UNL A   1      33.867  19.386  24.664  1.00  0.00     0.029 A 
ATOM     28  C   UNL A   1      32.749  17.710  22.735  1.00  0.00     0.041 A 
ATOM     29  C   UNL A   1      34.454  18.148  24.385  1.00  0.00     0.041 A 
ATOM     30  C   UNL A   1      33.894  17.328  23.415  1.00  0.00     0.123 A 
ATOM     31  F   UNL A   1      34.468  16.151  23.129  1.00  0.00    -0.207 F 
ENDBRANCH  24  25
ENDBRANCH  17  18
ENDBRANCH   9  10
ENDBRANCH   8   9
ENDBRANCH   7   8
ENDBRANCH   5   7
ENDBRANCH   2   3
ENDBRANCH   1   2
BRANCH   1  32
ATOM     32  C   UNL A   1      36.797  33.443  30.783  1.00  0.00     0.002 C 
BRANCH  32  33
ATOM     33  C   UNL A   1      35.513  32.752  31.252  1.00  0.00     0.002 C 
BRANCH  33  34
ATOM     34  C   UNL A   1      35.406  32.529  32.762  1.00  0.00     0.021 C 
BRANCH  34  35
ATOM     35  C   UNL A   1      36.656  31.945  33.412  1.00  0.00     0.116 C 
BRANCH  35  36
ATOM     36  N   UNL A   1      36.711  30.498  33.299  1.00  0.00    -0.352 N 
ATOM     37  C   UNL A   1      37.584  29.716  32.581  1.00  0.00     0.251 C 
ATOM     38  H   UNL A   1      36.025  30.007  33.807  1.00  0.00     0.163 HD
ATOM     39  O   UNL A   1      37.359  28.518  32.451  1.00  0.00    -0.269 OA
BRANCH  37  40
ATOM     40  C   UNL A   1      38.778  30.326  31.951  1.00  0.00     0.039 A 
ATOM     41  C   UNL A   1      39.838  30.731  32.766  1.00  0.00     0.014 A 
ATOM     42  C   UNL A   1      38.848  30.513  30.567  1.00  0.00     0.014 A 
ATOM     43  C   UNL A   1      40.985  31.283  32.187  1.00  0.00     0.010 A 
ATOM     44  C   UNL A   1      40.022  30.985  29.988  1.00  0.00     0.010 A 
ATOM     45  C   UNL A   1      41.097  31.392  30.791  1.00  0.00    -0.014 A 
BRANCH  45  46
ATOM     46  C   UNL A   1      42.315  31.963  30.160  1.00  0.00     0.031 A 
ATOM     47  C   UNL A   1      43.526  31.099  29.943  1.00  0.00     0.074 A 
ATOM     48  C   UNL A   1      42.345  33.267  29.820  1.00  0.00     0.049 A 
ATOM     49  N   UNL A   1      44.697  31.422  29.455  1.00  0.00    -0.248 NA
ATOM     50  C   UNL A   1      43.418  29.690  30.355  1.00  0.00     0.031 C 
ATOM     51  C   UNL A   1      41.246  34.216  30.012  1.00  0.00     0.029 A 
ATOM     52  N   UNL A   1      43.335  34.019  29.239  1.00  0.00    -0.354 N 
ATOM     53  C   UNL A   1      45.466  30.265  29.519  1.00  0.00     0.074 A 
ATOM     54  C   UNL A   1      44.650  29.251  30.149  1.00  0.00     0.031 C 
ATOM     55  C   UNL A   1      41.608  35.411  29.521  1.00  0.00     0.029 A 
ATOM     56  C   UNL A   1      42.978  35.330  29.022  1.00  0.00     0.049 A 
ATOM     57  H   UNL A   1      44.219  33.655  29.001  1.00  0.00     0.167 HD
ATOM     58  C   UNL A   1      46.728  30.062  29.070  1.00  0.00     0.034 A 
ATOM     59  C   UNL A   1      43.675  36.354  28.492  1.00  0.00     0.034 A 
ATOM     60  C   UNL A   1      47.517  31.074  28.416  1.00  0.00     0.049 A 
ATOM     61  C   UNL A   1      45.087  36.119  28.027  1.00  0.00     0.074 A 
ATOM     62  C   UNL A   1      48.772  30.950  27.847  1.00  0.00     0.029 A 
ATOM     63  N   UNL A   1      47.134  32.399  28.252  1.00  0.00    -0.354 N 
ATOM     64  N   UNL A   1      45.785  35.008  28.054  1.00  0.00    -0.248 NA
ATOM     65  C   UNL A   1      45.806  37.271  27.470  1.00  0.00     0.031 C 
ATOM     66  C   UNL A   1      49.179  32.214  27.409  1.00  0.00     0.029 A 
ATOM     67  C   UNL A   1      48.148  33.114  27.637  1.00  0.00     0.049 A 
ATOM     68  H   UNL A   1      46.268  32.775  28.533  1.00  0.00     0.167 HD
ATOM     69  C   UNL A   1      47.025  35.325  27.510  1.00  0.00     0.074 A 
ATOM     70  C   UNL A   1      46.977  36.730  27.156  1.00  0.00     0.031 C 
ATOM     71  C   UNL A   1      48.101  34.521  27.317  1.00  0.00     0.034 A 
BRANCH  58  72
ATOM     72  C   UNL A   1      47.338  28.700  29.292  1.00  0.00     0.023 A 
ATOM     73  C   UNL A   1      47.293  27.701  28.304  1.00  0.00     0.031 A 
ATOM     74  C   UNL A   1      47.964  28.394  30.512  1.00  0.00     0.131 A 
ATOM     75  C   UNL A   1      47.804  26.424  28.578  1.00  0.00     0.055 A 
ATOM     76  C   UNL A   1      48.539  27.144  30.751  1.00  0.00     0.041 A 
ATOM     77  F   UNL A   1      48.020  29.303  31.498  1.00  0.00    -0.206 F 
ATOM     78  C   UNL A   1      48.449  26.145  29.785  1.00  0.00     0.022 A 
BRANCH  75  79
ATOM     79  S   UNL A   1      47.509  25.097  27.378  1.00  0.00     0.124 S 
ATOM     80  O   UNL A   1      46.492  24.302  28.062  1.00  0.00    -0.237 OA
ATOM     81  O   UNL A   1      47.062  25.830  26.199  1.00  0.00    -0.237 OA
ATOM     82  O   UNL A   1      48.815  24.451  27.252  1.00  0.00    -0.744 OA
ENDBRANCH  75  79
ENDBRANCH  58  72
BRANCH  59  83
ATOM     83  C   UNL A   1      43.033  37.692  28.385  1.00  0.00     0.023 A 
ATOM     84  C   UNL A   1      43.129  38.624  29.429  1.00  0.00     0.031 A 
ATOM     85  C   UNL A   1      42.369  38.078  27.207  1.00  0.00     0.131 A 
ATOM     86  C   UNL A   1      42.570  39.903  29.273  1.00  0.00     0.055 A 
ATOM     87  C   UNL A   1      41.842  39.360  27.045  1.00  0.00     0.041 A 
ATOM     88  F   UNL A   1      42.267  37.223  26.176  1.00  0.00    -0.206 F 
ATOM     89  C   UNL A   1      41.941  40.281  28.082  1.00  0.00     0.022 A 
BRANCH  86  90
ATOM     90  S   UNL A   1      42.690  41.085  30.645  1.00  0.00     0.124 S 
ATOM     91  O   UNL A   1      43.409  42.190  30.021  1.00  0.00    -0.237 OA
ATOM     92  O   UNL A   1      41.287  41.327  30.965  1.00  0.00    -0.237 OA
ATOM     93  O   UNL A   1      43.437  40.348  31.662  1.00  0.00    -0.744 OA
ENDBRANCH  86  90
ENDBRANCH  59  83
BRANCH  71  94
ATOM     94  C   UNL A   1      49.329  35.132  26.696  1.00  0.00     0.023 A 
ATOM     95  C   UNL A   1      50.444  35.481  27.478  1.00  0.00     0.031 A 
ATOM     96  C   UNL A   1      49.417  35.288  25.301  1.00  0.00     0.131 A 
ATOM     97  C   UNL A   1      51.598  35.981  26.857  1.00  0.00     0.055 A 
ATOM     98  C   UNL A   1      50.583  35.743  24.687  1.00  0.00     0.041 A 
ATOM     99  F   UNL A   1      48.379  34.964  24.513  1.00  0.00    -0.206 F 
ATOM    100  C   UNL A   1      51.682  36.094  25.466  1.00  0.00     0.022 A 
BRANCH  97 101
ATOM    101  S   UNL A   1      52.994  36.496  27.893  1.00  0.00     0.124 S 
ATOM    102  O   UNL A   1      53.635  35.219  28.191  1.00  0.00    -0.237 OA
ATOM    103  O   UNL A   1      53.734  37.389  27.007  1.00  0.00    -0.237 OA
ATOM    104  O   UNL A   1      52.353  37.148  29.033  1.00  0.00    -0.744 OA
ENDBRANCH  97 101
ENDBRANCH  71  94
ENDBRANCH  45  46
ENDBRANCH  37  40
ENDBRANCH  35  36
ENDBRANCH  34  35
ENDBRANCH  33  34
ENDBRANCH  32  33
ENDBRANCH   1  32
TORSDOF 21
ENDMDL
MODEL 2
REMARK VINA RESULT:     -10.2      1.692      7.612
REMARK SMILES O=C(COCC(=O)N1CCC([NH+]2CCN(c3ccc(F)cc3)CC2)CC1)NCCCCCCNC(=O)c1ccc(-c2c3nc(c(-c4cc(S(=O)(=O)[O-])ccc4F)c4ccc([nH]4)c(-c4cc(S(=O)(=O)[O-])ccc4F)c4nc(c(-c5cc(S(=O)(=O)[O-])ccc5F)c5ccc2[nH]5)C=C4)C=C3)cc1
REMARK SMILES IDX 29 1 28 2 27 3 1 4 2 5 3 7 4 8 5 9 6 10 7 11 8 12 9 13 26 14
REMARK SMILES IDX 10 15 25 16 11 17 12 18 13 19 24 20 14 22 23 23 15 24 16 25
REMARK SMILES IDX 17 26 22 27 18 28 21 29 19 30 20 31 30 32 31 33 32 34 33 35
REMARK SMILES IDX 34 36 35 37 36 39 37 40 38 41 99 42 39 43 98 44 40 45 41 46
REMARK SMILES IDX 42 47 92 48 43 49 97 50 91 51 93 52 44 53 96 54 90 55 89 56
REMARK SMILES IDX 45 58 77 59 57 60 76 61 58 62 61 63 75 64 94 65 59 66 60 67
REMARK SMILES IDX 74 69 95 70 62 71 46 72 47 73 55 74 48 75 54 76 56 77 53 78
REMARK SMILES IDX 49 79 50 80 51 81 52 82 78 83 79 84 87 85 80 86 86 87 88 88
REMARK SMILES IDX 85 89 81 90 82 91 83 92 84 93 63 94 64 95 72 96 65 97 71 98
REMARK SMILES IDX 73 99 70 100 66 101 67 102 68 103 69 104
REMARK H PARENT 27 6 12 21 34 38 93 57 61 68
REMARK Flexibility Score: inf
ROOT
ATOM      1  C   UNL A   1      35.924  32.066  29.577  1.00  0.00     0.021 C 
ENDROOT
BRANCH   1   2
ATOM      2  C   UNL A   1      35.766  32.222  28.065  1.00  0.00     0.116 C 
BRANCH   2   3
ATOM      3  N   UNL A   1      34.453  31.805  27.624  1.00  0.00    -0.354 N 
ATOM      4  O   UNL A   1      34.974  29.588  27.280  1.00  0.00    -0.272 OA
ATOM      5  C   UNL A   1      34.166  30.509  27.258  1.00  0.00     0.246 C 
ATOM      6  H   UNL A   1      33.735  32.477  27.583  1.00  0.00     0.163 HD
BRANCH   5   7
ATOM      7  C   UNL A   1      32.737  30.325  26.741  1.00  0.00     0.260 C 
BRANCH   7   8
ATOM      8  O   UNL A   1      32.606  29.849  25.408  1.00  0.00    -0.362 OA
BRANCH   8   9
ATOM      9  C   UNL A   1      31.403  29.145  25.174  1.00  0.00     0.260 C 
BRANCH   9  10
ATOM     10  C   UNL A   1      31.223  27.656  25.545  1.00  0.00     0.248 C 
ATOM     11  O   UNL A   1      31.606  27.248  26.644  1.00  0.00    -0.272 OA
ATOM     12  N   UNL A   1      30.491  26.850  24.684  1.00  0.00    -0.340 N 
ATOM     13  C   UNL A   1      29.905  25.625  25.198  1.00  0.00     0.125 C 
ATOM     14  C   UNL A   1      30.560  26.906  23.231  1.00  0.00     0.125 C 
ATOM     15  C   UNL A   1      30.706  24.407  24.763  1.00  0.00     0.086 C 
ATOM     16  C   UNL A   1      31.473  25.777  22.743  1.00  0.00     0.086 C 
ATOM     17  C   UNL A   1      30.990  24.392  23.248  1.00  0.00     0.187 C 
BRANCH  17  18
ATOM     18  N   UNL A   1      31.840  23.289  22.751  1.00  0.00    -0.329 N 
ATOM     19  C   UNL A   1      33.115  23.639  22.091  1.00  0.00     0.284 C 
ATOM     20  C   UNL A   1      32.082  22.201  23.724  1.00  0.00     0.284 C 
ATOM     21  H   UNL A   1      31.226  22.954  22.009  1.00  0.00     0.348 HD
ATOM     22  C   UNL A   1      34.326  23.908  23.012  1.00  0.00     0.178 C 
ATOM     23  C   UNL A   1      33.293  22.358  24.681  1.00  0.00     0.178 C 
ATOM     24  N   UNL A   1      34.493  22.806  23.963  1.00  0.00    -0.360 N 
BRANCH  24  25
ATOM     25  C   UNL A   1      35.714  22.630  24.594  1.00  0.00     0.037 A 
ATOM     26  C   UNL A   1      36.340  21.376  24.522  1.00  0.00     0.029 A 
ATOM     27  C   UNL A   1      36.372  23.659  25.283  1.00  0.00     0.029 A 
ATOM     28  C   UNL A   1      37.596  21.160  25.090  1.00  0.00     0.041 A 
ATOM     29  C   UNL A   1      37.624  23.444  25.868  1.00  0.00     0.041 A 
ATOM     30  C   UNL A   1      38.227  22.199  25.756  1.00  0.00     0.123 A 
ATOM     31  F   UNL A   1      39.436  21.996  26.296  1.00  0.00    -0.207 F 
ENDBRANCH  24  25
ENDBRANCH  17  18
ENDBRANCH   9  10
ENDBRANCH   8   9
ENDBRANCH   7   8
ENDBRANCH   5   7
ENDBRANCH   2   3
ENDBRANCH   1   2
BRANCH   1  32
ATOM     32  C   UNL A   1      34.774  32.666  30.399  1.00  0.00     0.002 C 
BRANCH  32  33
ATOM     33  C   UNL A   1      34.828  32.388  31.904  1.00  0.00     0.002 C 
BRANCH  33  34
ATOM     34  C   UNL A   1      35.903  33.158  32.672  1.00  0.00     0.021 C 
BRANCH  34  35
ATOM     35  C   UNL A   1      36.813  32.294  33.539  1.00  0.00     0.116 C 
BRANCH  35  36
ATOM     36  N   UNL A   1      36.671  30.878  33.246  1.00  0.00    -0.352 N 
ATOM     37  C   UNL A   1      37.420  30.084  32.410  1.00  0.00     0.251 C 
ATOM     38  H   UNL A   1      35.933  30.422  33.711  1.00  0.00     0.163 HD
ATOM     39  O   UNL A   1      37.033  28.953  32.141  1.00  0.00    -0.269 OA
BRANCH  37  40
ATOM     40  C   UNL A   1      38.676  30.606  31.823  1.00  0.00     0.039 A 
ATOM     41  C   UNL A   1      39.748  30.895  32.670  1.00  0.00     0.014 A 
ATOM     42  C   UNL A   1      38.792  30.824  30.447  1.00  0.00     0.014 A 
ATOM     43  C   UNL A   1      40.950  31.362  32.131  1.00  0.00     0.010 A 
ATOM     44  C   UNL A   1      40.016  31.209  29.905  1.00  0.00     0.010 A 
ATOM     45  C   UNL A   1      41.103  31.498  30.742  1.00  0.00    -0.014 A 
BRANCH  45  46
ATOM     46  C   UNL A   1      42.379  31.980  30.152  1.00  0.00     0.031 A 
ATOM     47  C   UNL A   1      42.541  33.431  29.792  1.00  0.00     0.074 A 
ATOM     48  C   UNL A   1      43.376  31.107  29.903  1.00  0.00     0.049 A 
ATOM     49  N   UNL A   1      43.555  34.035  29.225  1.00  0.00    -0.248 NA
ATOM     50  C   UNL A   1      41.402  34.317  30.080  1.00  0.00     0.031 C 
ATOM     51  C   UNL A   1      43.325  29.669  30.177  1.00  0.00     0.029 A 
ATOM     52  N   UNL A   1      44.624  31.300  29.369  1.00  0.00    -0.354 N 
ATOM     53  C   UNL A   1      43.168  35.362  29.073  1.00  0.00     0.074 A 
ATOM     54  C   UNL A   1      41.806  35.462  29.551  1.00  0.00     0.031 C 
ATOM     55  C   UNL A   1      44.503  29.119  29.846  1.00  0.00     0.029 A 
ATOM     56  C   UNL A   1      45.376  30.151  29.294  1.00  0.00     0.049 A 
ATOM     57  H   UNL A   1      44.951  32.179  29.067  1.00  0.00     0.167 HD
ATOM     58  C   UNL A   1      43.892  36.406  28.603  1.00  0.00     0.034 A 
ATOM     59  C   UNL A   1      46.624  29.946  28.826  1.00  0.00     0.034 A 
ATOM     60  C   UNL A   1      45.258  36.297  28.161  1.00  0.00     0.049 A 
ATOM     61  C   UNL A   1      47.403  31.111  28.278  1.00  0.00     0.074 A 
ATOM     62  C   UNL A   1      46.110  37.306  27.746  1.00  0.00     0.029 A 
ATOM     63  N   UNL A   1      45.971  35.109  28.062  1.00  0.00    -0.354 N 
ATOM     64  N   UNL A   1      47.040  32.369  28.183  1.00  0.00    -0.248 NA
ATOM     65  C   UNL A   1      48.751  30.831  27.769  1.00  0.00     0.031 C 
ATOM     66  C   UNL A   1      47.309  36.720  27.327  1.00  0.00     0.029 A 
ATOM     67  C   UNL A   1      47.233  35.353  27.548  1.00  0.00     0.049 A 
ATOM     68  H   UNL A   1      45.628  34.222  28.321  1.00  0.00     0.167 HD
ATOM     69  C   UNL A   1      48.118  33.033  27.610  1.00  0.00     0.074 A 
ATOM     70  C   UNL A   1      49.149  32.039  27.387  1.00  0.00     0.031 C 
ATOM     71  C   UNL A   1      48.242  34.349  27.302  1.00  0.00     0.034 A 
BRANCH  58  72
ATOM     72  C   UNL A   1      43.211  37.750  28.525  1.00  0.00     0.023 A 
ATOM     73  C   UNL A   1      43.313  38.691  29.563  1.00  0.00     0.031 A 
ATOM     74  C   UNL A   1      42.442  38.090  27.400  1.00  0.00     0.131 A 
ATOM     75  C   UNL A   1      42.602  39.898  29.485  1.00  0.00     0.055 A 
ATOM     76  C   UNL A   1      41.798  39.324  27.294  1.00  0.00     0.041 A 
ATOM     77  F   UNL A   1      42.293  37.223  26.386  1.00  0.00    -0.206 F 
ATOM     78  C   UNL A   1      41.866  40.233  28.347  1.00  0.00     0.022 A 
BRANCH  75  79
ATOM     79  S   UNL A   1      42.560  40.975  30.944  1.00  0.00     0.124 S 
ATOM     80  O   UNL A   1      42.947  40.049  32.005  1.00  0.00    -0.237 OA
ATOM     81  O   UNL A   1      43.535  42.005  30.606  1.00  0.00    -0.237 OA
ATOM     82  O   UNL A   1      41.170  41.426  30.997  1.00  0.00    -0.744 OA
ENDBRANCH  75  79
ENDBRANCH  58  72
BRANCH  59  83
ATOM     83  C   UNL A   1      47.196  28.573  28.858  1.00  0.00     0.023 A 
ATOM     84  C   UNL A   1      47.135  27.739  27.732  1.00  0.00     0.031 A 
ATOM     85  C   UNL A   1      47.870  28.103  30.000  1.00  0.00     0.131 A 
ATOM     86  C   UNL A   1      47.743  26.473  27.770  1.00  0.00     0.055 A 
ATOM     87  C   UNL A   1      48.498  26.857  30.022  1.00  0.00     0.041 A 
ATOM     88  F   UNL A   1      47.966  28.874  31.095  1.00  0.00    -0.206 F 
ATOM     89  C   UNL A   1      48.436  26.034  28.903  1.00  0.00     0.022 A 
BRANCH  86  90
ATOM     90  S   UNL A   1      47.634  25.405  26.308  1.00  0.00     0.124 S 
ATOM     91  O   UNL A   1      46.441  25.927  25.649  1.00  0.00    -0.237 OA
ATOM     92  O   UNL A   1      48.904  25.668  25.640  1.00  0.00    -0.237 OA
ATOM     93  O   UNL A   1      47.499  24.065  26.876  1.00  0.00    -0.744 OA
ENDBRANCH  86  90
ENDBRANCH  59  83
BRANCH  71  94
ATOM     94  C   UNL A   1      49.537  34.806  26.685  1.00  0.00     0.023 A 
ATOM     95  C   UNL A   1      50.711  34.911  27.450  1.00  0.00     0.031 A 
ATOM     96  C   UNL A   1      49.615  35.056  25.303  1.00  0.00     0.131 A 
ATOM     97  C   UNL A   1      51.915  35.271  26.827  1.00  0.00     0.055 A 
ATOM     98  C   UNL A   1      50.825  35.370  24.684  1.00  0.00     0.041 A 
ATOM     99  F   UNL A   1      48.521  34.963  24.530  1.00  0.00    -0.206 F 
ATOM    100  C   UNL A   1      51.983  35.479  25.446  1.00  0.00     0.022 A 
BRANCH  97 101
ATOM    101  S   UNL A   1      53.400  35.476  27.849  1.00  0.00     0.124 S 
ATOM    102  O   UNL A   1      54.137  34.250  27.557  1.00  0.00    -0.237 OA
ATOM    103  O   UNL A   1      53.978  36.708  27.323  1.00  0.00    -0.237 OA
ATOM    104  O   UNL A   1      52.871  35.572  29.207  1.00  0.00    -0.744 OA
ENDBRANCH  97 101
ENDBRANCH  71  94
ENDBRANCH  45  46
ENDBRANCH  37  40
ENDBRANCH  35  36
ENDBRANCH  34  35
ENDBRANCH  33  34
ENDBRANCH  32  33
ENDBRANCH   1  32
TORSDOF 21
ENDMDL
MODEL 3
REMARK VINA RESULT:     -10.0      1.696      2.160
REMARK SMILES O=C(COCC(=O)N1CCC([NH+]2CCN(c3ccc(F)cc3)CC2)CC1)NCCCCCCNC(=O)c1ccc(-c2c3nc(c(-c4cc(S(=O)(=O)[O-])ccc4F)c4ccc([nH]4)c(-c4cc(S(=O)(=O)[O-])ccc4F)c4nc(c(-c5cc(S(=O)(=O)[O-])ccc5F)c5ccc2[nH]5)C=C4)C=C3)cc1
REMARK SMILES IDX 29 1 28 2 27 3 1 4 2 5 3 7 4 8 5 9 6 10 7 11 8 12 9 13 26 14
REMARK SMILES IDX 10 15 25 16 11 17 12 18 13 19 24 20 14 22 23 23 15 24 16 25
REMARK SMILES IDX 17 26 22 27 18 28 21 29 19 30 20 31 30 32 31 33 32 34 33 35
REMARK SMILES IDX 34 36 35 37 36 39 37 40 38 41 99 42 39 43 98 44 40 45 41 46
REMARK SMILES IDX 42 47 92 48 43 49 97 50 91 51 93 52 44 53 96 54 90 55 89 56
REMARK SMILES IDX 45 58 77 59 57 60 76 61 58 62 61 63 75 64 94 65 59 66 60 67
REMARK SMILES IDX 74 69 95 70 62 71 46 72 47 73 55 74 48 75 54 76 56 77 53 78
REMARK SMILES IDX 49 79 50 80 51 81 52 82 78 83 79 84 87 85 80 86 86 87 88 88
REMARK SMILES IDX 85 89 81 90 82 91 83 92 84 93 63 94 64 95 72 96 65 97 71 98
REMARK SMILES IDX 73 99 70 100 66 101 67 102 68 103 69 104
REMARK H PARENT 27 6 12 21 34 38 93 57 61 68
REMARK Flexibility Score: inf
ROOT
ATOM      1  C   UNL A   1      35.947  32.106  29.576  1.00  0.00     0.021 C 
ENDROOT
BRANCH   1   2
ATOM      2  C   UNL A   1      35.790  32.276  28.065  1.00  0.00     0.116 C 
BRANCH   2   3
ATOM      3  N   UNL A   1      34.463  31.905  27.626  1.00  0.00    -0.354 N 
ATOM      4  O   UNL A   1      34.910  29.672  27.277  1.00  0.00    -0.272 OA
ATOM      5  C   UNL A   1      34.133  30.620  27.257  1.00  0.00     0.246 C 
ATOM      6  H   UNL A   1      33.768  32.600  27.587  1.00  0.00     0.163 HD
BRANCH   5   7
ATOM      7  C   UNL A   1      32.698  30.485  26.742  1.00  0.00     0.260 C 
BRANCH   7   8
ATOM      8  O   UNL A   1      32.541  29.885  25.464  1.00  0.00    -0.362 OA
BRANCH   8   9
ATOM      9  C   UNL A   1      31.395  29.064  25.359  1.00  0.00     0.260 C 
BRANCH   9  10
ATOM     10  C   UNL A   1      31.404  27.568  25.744  1.00  0.00     0.248 C 
ATOM     11  O   UNL A   1      31.995  27.200  26.761  1.00  0.00    -0.272 OA
ATOM     12  N   UNL A   1      30.610  26.698  25.009  1.00  0.00    -0.340 N 
ATOM     13  C   UNL A   1      30.221  25.431  25.603  1.00  0.00     0.125 C 
ATOM     14  C   UNL A   1      30.433  26.750  23.564  1.00  0.00     0.125 C 
ATOM     15  C   UNL A   1      31.039  24.282  25.032  1.00  0.00     0.086 C 
ATOM     16  C   UNL A   1      31.345  25.700  22.924  1.00  0.00     0.086 C 
ATOM     17  C   UNL A   1      31.070  24.282  23.490  1.00  0.00     0.187 C 
BRANCH  17  18
ATOM     18  N   UNL A   1      31.916  23.251  22.852  1.00  0.00    -0.329 N 
ATOM     19  C   UNL A   1      33.162  23.689  22.190  1.00  0.00     0.284 C 
ATOM     20  C   UNL A   1      32.206  22.071  23.696  1.00  0.00     0.284 C 
ATOM     21  H   UNL A   1      31.280  22.985  22.100  1.00  0.00     0.348 HD
ATOM     22  C   UNL A   1      34.402  23.880  23.092  1.00  0.00     0.178 C 
ATOM     23  C   UNL A   1      33.448  22.147  24.623  1.00  0.00     0.178 C 
ATOM     24  N   UNL A   1      34.616  22.687  23.916  1.00  0.00    -0.360 N 
BRANCH  24  25
ATOM     25  C   UNL A   1      35.861  22.467  24.483  1.00  0.00     0.037 A 
ATOM     26  C   UNL A   1      36.476  23.510  25.193  1.00  0.00     0.029 A 
ATOM     27  C   UNL A   1      36.527  21.236  24.406  1.00  0.00     0.029 A 
ATOM     28  C   UNL A   1      37.702  23.325  25.833  1.00  0.00     0.041 A 
ATOM     29  C   UNL A   1      37.764  21.050  25.032  1.00  0.00     0.041 A 
ATOM     30  C   UNL A   1      38.333  22.094  25.748  1.00  0.00     0.123 A 
ATOM     31  F   UNL A   1      39.507  21.912  26.367  1.00  0.00    -0.207 F 
ENDBRANCH  24  25
ENDBRANCH  17  18
ENDBRANCH   9  10
ENDBRANCH   8   9
ENDBRANCH   7   8
ENDBRANCH   5   7
ENDBRANCH   2   3
ENDBRANCH   1   2
BRANCH   1  32
ATOM     32  C   UNL A   1      34.786  32.675  30.402  1.00  0.00     0.002 C 
BRANCH  32  33
ATOM     33  C   UNL A   1      34.797  32.311  31.890  1.00  0.00     0.002 C 
BRANCH  33  34
ATOM     34  C   UNL A   1      35.754  33.132  32.755  1.00  0.00     0.021 C 
BRANCH  34  35
ATOM     35  C   UNL A   1      36.747  32.309  33.569  1.00  0.00     0.116 C 
BRANCH  35  36
ATOM     36  N   UNL A   1      36.636  30.886  33.297  1.00  0.00    -0.352 N 
ATOM     37  C   UNL A   1      37.388  30.102  32.455  1.00  0.00     0.251 C 
ATOM     38  H   UNL A   1      35.921  30.417  33.785  1.00  0.00     0.163 HD
ATOM     39  O   UNL A   1      37.025  28.957  32.209  1.00  0.00    -0.269 OA
BRANCH  37  40
ATOM     40  C   UNL A   1      38.616  30.649  31.833  1.00  0.00     0.039 A 
ATOM     41  C   UNL A   1      39.682  31.019  32.657  1.00  0.00     0.014 A 
ATOM     42  C   UNL A   1      38.712  30.811  30.448  1.00  0.00     0.014 A 
ATOM     43  C   UNL A   1      40.859  31.511  32.086  1.00  0.00     0.010 A 
ATOM     44  C   UNL A   1      39.914  31.221  29.878  1.00  0.00     0.010 A 
ATOM     45  C   UNL A   1      40.995  31.592  30.690  1.00  0.00    -0.014 A 
BRANCH  45  46
ATOM     46  C   UNL A   1      42.245  32.100  30.068  1.00  0.00     0.031 A 
ATOM     47  C   UNL A   1      43.384  31.157  29.791  1.00  0.00     0.074 A 
ATOM     48  C   UNL A   1      42.372  33.413  29.789  1.00  0.00     0.049 A 
ATOM     49  N   UNL A   1      44.570  31.414  29.300  1.00  0.00    -0.248 NA
ATOM     50  C   UNL A   1      43.173  29.743  30.137  1.00  0.00     0.031 C 
ATOM     51  C   UNL A   1      41.351  34.431  30.044  1.00  0.00     0.029 A 
ATOM     52  N   UNL A   1      43.409  34.114  29.230  1.00  0.00    -0.354 N 
ATOM     53  C   UNL A   1      45.249  30.200  29.298  1.00  0.00     0.074 A 
ATOM     54  C   UNL A   1      44.366  29.221  29.892  1.00  0.00     0.031 C 
ATOM     55  C   UNL A   1      41.797  35.618  29.604  1.00  0.00     0.029 A 
ATOM     56  C   UNL A   1      43.151  35.457  29.081  1.00  0.00     0.049 A 
ATOM     57  H   UNL A   1      44.260  33.696  28.960  1.00  0.00     0.167 HD
ATOM     58  C   UNL A   1      46.486  29.924  28.820  1.00  0.00     0.034 A 
ATOM     59  C   UNL A   1      43.919  36.450  28.588  1.00  0.00     0.034 A 
ATOM     60  C   UNL A   1      47.342  30.903  28.202  1.00  0.00     0.049 A 
ATOM     61  C   UNL A   1      45.302  36.131  28.091  1.00  0.00     0.074 A 
ATOM     62  C   UNL A   1      48.577  30.712  27.608  1.00  0.00     0.029 A 
ATOM     63  N   UNL A   1      47.061  32.260  28.107  1.00  0.00    -0.354 N 
ATOM     64  N   UNL A   1      45.913  34.970  28.054  1.00  0.00    -0.248 NA
ATOM     65  C   UNL A   1      46.100  37.251  27.578  1.00  0.00     0.031 C 
ATOM     66  C   UNL A   1      49.075  31.961  27.224  1.00  0.00     0.029 A 
ATOM     67  C   UNL A   1      48.119  32.924  27.510  1.00  0.00     0.049 A 
ATOM     68  H   UNL A   1      46.229  32.687  28.419  1.00  0.00     0.167 HD
ATOM     69  C   UNL A   1      47.167  35.218  27.506  1.00  0.00     0.074 A 
ATOM     70  C   UNL A   1      47.223  36.639  27.221  1.00  0.00     0.031 C 
ATOM     71  C   UNL A   1      48.176  34.346  27.259  1.00  0.00     0.034 A 
BRANCH  58  72
ATOM     72  C   UNL A   1      46.992  28.510  28.967  1.00  0.00     0.023 A 
ATOM     73  C   UNL A   1      46.675  27.511  28.031  1.00  0.00     0.031 A 
ATOM     74  C   UNL A   1      47.796  28.155  30.063  1.00  0.00     0.131 A 
ATOM     75  C   UNL A   1      47.102  26.192  28.244  1.00  0.00     0.055 A 
ATOM     76  C   UNL A   1      48.281  26.857  30.231  1.00  0.00     0.041 A 
ATOM     77  F   UNL A   1      48.115  29.064  30.999  1.00  0.00    -0.206 F 
ATOM     78  C   UNL A   1      47.925  25.863  29.325  1.00  0.00     0.022 A 
BRANCH  75  79
ATOM     79  S   UNL A   1      46.470  24.889  27.154  1.00  0.00     0.124 S 
ATOM     80  O   UNL A   1      47.678  24.111  26.893  1.00  0.00    -0.237 OA
ATOM     81  O   UNL A   1      45.461  24.242  27.985  1.00  0.00    -0.237 OA
ATOM     82  O   UNL A   1      45.951  25.626  26.003  1.00  0.00    -0.744 OA
ENDBRANCH  75  79
ENDBRANCH  58  72
BRANCH  59  83
ATOM     83  C   UNL A   1      43.379  37.837  28.556  1.00  0.00     0.023 A 
ATOM     84  C   UNL A   1      43.511  38.689  29.662  1.00  0.00     0.031 A 
ATOM     85  C   UNL A   1      42.782  38.347  27.389  1.00  0.00     0.131 A 
ATOM     86  C   UNL A   1      43.052  40.014  29.578  1.00  0.00     0.055 A 
ATOM     87  C   UNL A   1      42.355  39.673  27.301  1.00  0.00     0.041 A 
ATOM     88  F   UNL A   1      42.650  37.572  26.301  1.00  0.00    -0.206 F 
ATOM     89  C   UNL A   1      42.489  40.515  28.400  1.00  0.00     0.022 A 
BRANCH  86  90
ATOM     90  S   UNL A   1      43.216  41.091  31.029  1.00  0.00     0.124 S 
ATOM     91  O   UNL A   1      42.421  42.247  30.631  1.00  0.00    -0.237 OA
ATOM     92  O   UNL A   1      42.658  40.261  32.092  1.00  0.00    -0.237 OA
ATOM     93  O   UNL A   1      44.656  41.323  31.118  1.00  0.00    -0.744 OA
ENDBRANCH  86  90
ENDBRANCH  59  83
BRANCH  71  94
ATOM     94  C   UNL A   1      49.440  34.890  26.648  1.00  0.00     0.023 A 
ATOM     95  C   UNL A   1      50.597  35.084  27.421  1.00  0.00     0.031 A 
ATOM     96  C   UNL A   1      49.511  35.138  25.266  1.00  0.00     0.131 A 
ATOM     97  C   UNL A   1      51.778  35.525  26.805  1.00  0.00     0.055 A 
ATOM     98  C   UNL A   1      50.699  35.534  24.653  1.00  0.00     0.041 A 
ATOM     99  F   UNL A   1      48.432  34.963  24.486  1.00  0.00    -0.206 F 
ATOM    100  C   UNL A   1      51.841  35.731  25.423  1.00  0.00     0.022 A 
BRANCH  97 101
ATOM    101  S   UNL A   1      53.236  35.841  27.836  1.00  0.00     0.124 S 
ATOM    102  O   UNL A   1      52.947  37.171  28.364  1.00  0.00    -0.237 OA
ATOM    103  O   UNL A   1      53.185  34.747  28.801  1.00  0.00    -0.237 OA
ATOM    104  O   UNL A   1      54.346  35.778  26.888  1.00  0.00    -0.744 OA
ENDBRANCH  97 101
ENDBRANCH  71  94
ENDBRANCH  45  46
ENDBRANCH  37  40
ENDBRANCH  35  36
ENDBRANCH  34  35
ENDBRANCH  33  34
ENDBRANCH  32  33
ENDBRANCH   1  32
TORSDOF 21
ENDMDL
