MODEL 1
REMARK VINA RESULT:     -10.4      0.000      0.000
REMARK SMILES C[C@@H]1CC[C@@H](C(=O)NCCCCCCNC(=O)c2ccc(-c3c4nc(c(-c5cc(S(=O)(=O)[O-])ccc5F)c5ccc([nH]5)c(-c5cc(S(=O)(=O)[O-])ccc5F)c5nc(c(-c6cc(S(=O)(=O)[O-])ccc6F)c6ccc3[nH]6)C=C5)C=C4)cc2)[C@H](SCC[NH+](C)C)C1
REMARK SMILES IDX 11 1 10 2 9 3 8 4 6 5 7 6 5 8 1 9 2 10 3 11 88 12 4 13 81 14
REMARK SMILES IDX 82 15 83 16 84 17 85 18 86 19 87 20 12 22 13 23 14 24 15 25
REMARK SMILES IDX 16 26 17 28 18 29 19 30 80 31 20 32 79 33 21 34 22 35 23 36
REMARK SMILES IDX 73 37 24 38 78 39 72 40 74 41 25 42 77 43 71 44 70 45 26 47
REMARK SMILES IDX 58 48 38 49 57 50 39 51 42 52 56 53 75 54 40 55 41 56 55 58
REMARK SMILES IDX 76 59 43 60 27 61 28 62 36 63 29 64 35 65 37 66 34 67 30 68
REMARK SMILES IDX 31 69 32 70 33 71 59 72 60 73 68 74 61 75 67 76 69 77 66 78
REMARK SMILES IDX 62 79 63 80 64 81 65 82 44 83 45 84 53 85 46 86 52 87 54 88
REMARK SMILES IDX 51 89 47 90 48 91 49 92 50 93
REMARK H PARENT 8 7 85 21 15 27 74 46 42 57
REMARK Flexibility Score: inf
ROOT
ATOM      1  C   UNL A   1      31.712  28.500  24.174  1.00  0.00     0.002 C 
ENDROOT
BRANCH   1   2
ATOM      2  C   UNL A   1      30.797  27.803  23.154  1.00  0.00     0.021 C 
BRANCH   2   3
ATOM      3  C   UNL A   1      30.873  26.276  23.114  1.00  0.00     0.116 C 
BRANCH   3   4
ATOM      4  N   UNL A   1      32.138  25.805  22.605  1.00  0.00    -0.356 N 
ATOM      5  C   UNL A   1      33.058  24.951  23.095  1.00  0.00     0.224 C 
ATOM      6  O   UNL A   1      34.049  24.776  22.377  1.00  0.00    -0.275 OA
ATOM      7  H   UNL A   1      32.375  26.181  21.726  1.00  0.00     0.163 HD
BRANCH   5   8
ATOM      8  C   UNL A   1      32.950  24.315  24.499  1.00  0.00     0.091 C 
ATOM      9  C   UNL A   1      36.037  21.866  25.744  1.00  0.00     0.007 C 
ATOM     10  C   UNL A   1      35.607  22.870  24.672  1.00  0.00    -0.013 C 
ATOM     11  C   UNL A   1      35.478  24.310  25.203  1.00  0.00     0.004 C 
ATOM     12  C   UNL A   1      34.423  22.317  23.878  1.00  0.00     0.018 C 
ATOM     13  C   UNL A   1      34.107  25.004  25.234  1.00  0.00     0.015 C 
ATOM     14  C   UNL A   1      33.031  22.773  24.345  1.00  0.00     0.059 C 
BRANCH  14  15
ATOM     15  S   UNL A   1      32.308  21.362  25.378  1.00  0.00    -0.152 SA
BRANCH  15  16
ATOM     16  C   UNL A   1      33.061  19.711  25.080  1.00  0.00     0.131 C 
BRANCH  16  17
ATOM     17  C   UNL A   1      32.519  18.891  23.857  1.00  0.00     0.272 C 
BRANCH  17  18
ATOM     18  N   UNL A   1      32.652  17.417  23.869  1.00  0.00    -0.339 N 
ATOM     19  C   UNL A   1      33.887  16.948  23.231  1.00  0.00     0.332 C 
ATOM     20  C   UNL A   1      32.544  16.884  25.202  1.00  0.00     0.332 C 
ATOM     21  H   UNL A   1      31.873  17.065  23.313  1.00  0.00     0.347 HD
ENDBRANCH  17  18
ENDBRANCH  16  17
ENDBRANCH  15  16
ENDBRANCH  14  15
ENDBRANCH   5   8
ENDBRANCH   3   4
ENDBRANCH   2   3
ENDBRANCH   1   2
BRANCH   1  22
ATOM     22  C   UNL A   1      31.391  28.273  25.654  1.00  0.00     0.002 C 
BRANCH  22  23
ATOM     23  C   UNL A   1      32.586  28.318  26.604  1.00  0.00     0.021 C 
BRANCH  23  24
ATOM     24  C   UNL A   1      33.747  29.180  26.127  1.00  0.00     0.116 C 
BRANCH  24  25
ATOM     25  N   UNL A   1      33.678  30.534  26.652  1.00  0.00    -0.352 N 
ATOM     26  C   UNL A   1      34.463  31.128  27.610  1.00  0.00     0.251 C 
ATOM     27  H   UNL A   1      32.971  31.103  26.270  1.00  0.00     0.163 HD
ATOM     28  O   UNL A   1      34.133  32.215  28.084  1.00  0.00    -0.269 OA
BRANCH  26  29
ATOM     29  C   UNL A   1      35.685  30.444  28.086  1.00  0.00     0.039 A 
ATOM     30  C   UNL A   1      36.893  30.668  27.424  1.00  0.00     0.014 A 
ATOM     31  C   UNL A   1      35.640  29.592  29.195  1.00  0.00     0.014 A 
ATOM     32  C   UNL A   1      38.066  30.087  27.910  1.00  0.00     0.010 A 
ATOM     33  C   UNL A   1      36.822  29.084  29.726  1.00  0.00     0.010 A 
ATOM     34  C   UNL A   1      38.047  29.320  29.087  1.00  0.00    -0.014 A 
BRANCH  34  35
ATOM     35  C   UNL A   1      39.297  28.753  29.658  1.00  0.00     0.031 A 
ATOM     36  C   UNL A   1      39.912  29.365  30.887  1.00  0.00     0.074 A 
ATOM     37  C   UNL A   1      39.908  27.722  29.038  1.00  0.00     0.049 A 
ATOM     38  N   UNL A   1      41.025  29.055  31.501  1.00  0.00    -0.248 NA
ATOM     39  C   UNL A   1      39.192  30.498  31.489  1.00  0.00     0.031 C 
ATOM     40  C   UNL A   1      39.426  27.065  27.820  1.00  0.00     0.029 A 
ATOM     41  N   UNL A   1      41.063  27.047  29.342  1.00  0.00    -0.354 N 
ATOM     42  C   UNL A   1      41.144  29.959  32.550  1.00  0.00     0.074 A 
ATOM     43  C   UNL A   1      40.025  30.871  32.447  1.00  0.00     0.031 C 
ATOM     44  C   UNL A   1      40.259  26.061  27.504  1.00  0.00     0.029 A 
ATOM     45  C   UNL A   1      41.362  26.035  28.459  1.00  0.00     0.049 A 
ATOM     46  H   UNL A   1      41.626  27.266  30.119  1.00  0.00     0.167 HD
ATOM     47  C   UNL A   1      42.089  30.010  33.524  1.00  0.00     0.034 A 
ATOM     48  C   UNL A   1      42.412  25.189  28.416  1.00  0.00     0.034 A 
ATOM     49  C   UNL A   1      43.194  29.087  33.614  1.00  0.00     0.049 A 
ATOM     50  C   UNL A   1      43.474  25.294  29.484  1.00  0.00     0.074 A 
ATOM     51  C   UNL A   1      44.174  29.010  34.589  1.00  0.00     0.029 A 
ATOM     52  N   UNL A   1      43.477  28.089  32.690  1.00  0.00    -0.354 N 
ATOM     53  N   UNL A   1      43.542  26.119  30.504  1.00  0.00    -0.248 NA
ATOM     54  C   UNL A   1      44.593  24.349  29.398  1.00  0.00     0.031 C 
ATOM     55  C   UNL A   1      45.093  28.026  34.210  1.00  0.00     0.029 A 
ATOM     56  C   UNL A   1      44.639  27.421  33.050  1.00  0.00     0.049 A 
ATOM     57  H   UNL A   1      42.933  27.884  31.895  1.00  0.00     0.167 HD
ATOM     58  C   UNL A   1      44.694  25.764  31.201  1.00  0.00     0.074 A 
ATOM     59  C   UNL A   1      45.278  24.644  30.493  1.00  0.00     0.031 C 
ATOM     60  C   UNL A   1      45.219  26.311  32.329  1.00  0.00     0.034 A 
BRANCH  47  61
ATOM     61  C   UNL A   1      41.980  31.121  34.543  1.00  0.00     0.023 A 
ATOM     62  C   UNL A   1      40.968  31.138  35.518  1.00  0.00     0.031 A 
ATOM     63  C   UNL A   1      42.885  32.198  34.521  1.00  0.00     0.131 A 
ATOM     64  C   UNL A   1      40.832  32.242  36.372  1.00  0.00     0.055 A 
ATOM     65  C   UNL A   1      42.801  33.251  35.434  1.00  0.00     0.041 A 
ATOM     66  F   UNL A   1      43.861  32.254  33.600  1.00  0.00    -0.206 F 
ATOM     67  C   UNL A   1      41.759  33.287  36.357  1.00  0.00     0.022 A 
BRANCH  64  68
ATOM     68  S   UNL A   1      39.335  32.374  37.388  1.00  0.00     0.124 S 
ATOM     69  O   UNL A   1      39.891  32.331  38.739  1.00  0.00    -0.237 OA
ATOM     70  O   UNL A   1      38.779  33.654  36.965  1.00  0.00    -0.237 OA
ATOM     71  O   UNL A   1      38.557  31.197  37.006  1.00  0.00    -0.744 OA
ENDBRANCH  64  68
ENDBRANCH  47  61
BRANCH  48  72
ATOM     72  C   UNL A   1      42.524  24.172  27.331  1.00  0.00     0.023 A 
ATOM     73  C   UNL A   1      41.844  22.946  27.417  1.00  0.00     0.031 A 
ATOM     74  C   UNL A   1      43.352  24.387  26.215  1.00  0.00     0.131 A 
ATOM     75  C   UNL A   1      42.044  21.963  26.436  1.00  0.00     0.055 A 
ATOM     76  C   UNL A   1      43.500  23.429  25.209  1.00  0.00     0.041 A 
ATOM     77  F   UNL A   1      44.026  25.541  26.080  1.00  0.00    -0.206 F 
ATOM     78  C   UNL A   1      42.855  22.203  25.325  1.00  0.00     0.022 A 
BRANCH  75  79
ATOM     79  S   UNL A   1      41.307  20.326  26.686  1.00  0.00     0.124 S 
ATOM     80  O   UNL A   1      39.890  20.653  26.793  1.00  0.00    -0.237 OA
ATOM     81  O   UNL A   1      41.715  19.621  25.475  1.00  0.00    -0.237 OA
ATOM     82  O   UNL A   1      41.935  19.855  27.919  1.00  0.00    -0.744 OA
ENDBRANCH  75  79
ENDBRANCH  48  72
BRANCH  60  83
ATOM     83  C   UNL A   1      46.462  25.666  32.892  1.00  0.00     0.023 A 
ATOM     84  C   UNL A   1      46.399  24.607  33.816  1.00  0.00     0.031 A 
ATOM     85  C   UNL A   1      47.734  26.126  32.505  1.00  0.00     0.131 A 
ATOM     86  C   UNL A   1      47.580  24.086  34.367  1.00  0.00     0.055 A 
ATOM     87  C   UNL A   1      48.907  25.557  33.002  1.00  0.00     0.041 A 
ATOM     88  F   UNL A   1      47.857  27.137  31.630  1.00  0.00    -0.206 F 
ATOM     89  C   UNL A   1      48.834  24.541  33.949  1.00  0.00     0.022 A 
BRANCH  86  90
ATOM     90  S   UNL A   1      47.456  22.877  35.712  1.00  0.00     0.124 S 
ATOM     91  O   UNL A   1      48.092  23.586  36.817  1.00  0.00    -0.237 OA
ATOM     92  O   UNL A   1      46.013  22.684  35.825  1.00  0.00    -0.237 OA
ATOM     93  O   UNL A   1      48.196  21.723  35.206  1.00  0.00    -0.744 OA
ENDBRANCH  86  90
ENDBRANCH  60  83
ENDBRANCH  34  35
ENDBRANCH  26  29
ENDBRANCH  24  25
ENDBRANCH  23  24
ENDBRANCH  22  23
ENDBRANCH   1  22
TORSDOF 20
ENDMDL
MODEL 2
REMARK VINA RESULT:     -10.1      1.884      2.848
REMARK SMILES C[C@@H]1CC[C@@H](C(=O)NCCCCCCNC(=O)c2ccc(-c3c4nc(c(-c5cc(S(=O)(=O)[O-])ccc5F)c5ccc([nH]5)c(-c5cc(S(=O)(=O)[O-])ccc5F)c5nc(c(-c6cc(S(=O)(=O)[O-])ccc6F)c6ccc3[nH]6)C=C5)C=C4)cc2)[C@H](SCC[NH+](C)C)C1
REMARK SMILES IDX 11 1 10 2 9 3 8 4 6 5 7 6 5 8 1 9 2 10 3 11 88 12 4 13 81 14
REMARK SMILES IDX 82 15 83 16 84 17 85 18 86 19 87 20 12 22 13 23 14 24 15 25
REMARK SMILES IDX 16 26 17 28 18 29 19 30 80 31 20 32 79 33 21 34 22 35 23 36
REMARK SMILES IDX 73 37 24 38 78 39 72 40 74 41 25 42 77 43 71 44 70 45 26 47
REMARK SMILES IDX 58 48 38 49 57 50 39 51 42 52 56 53 75 54 40 55 41 56 55 58
REMARK SMILES IDX 76 59 43 60 27 61 28 62 36 63 29 64 35 65 37 66 34 67 30 68
REMARK SMILES IDX 31 69 32 70 33 71 59 72 60 73 68 74 61 75 67 76 69 77 66 78
REMARK SMILES IDX 62 79 63 80 64 81 65 82 44 83 45 84 53 85 46 86 52 87 54 88
REMARK SMILES IDX 51 89 47 90 48 91 49 92 50 93
REMARK H PARENT 8 7 85 21 15 27 74 46 42 57
REMARK Flexibility Score: inf
ROOT
ATOM      1  C   UNL A   1      32.956  27.943  24.551  1.00  0.00     0.002 C 
ENDROOT
BRANCH   1   2
ATOM      2  C   UNL A   1      33.727  26.793  23.882  1.00  0.00     0.021 C 
BRANCH   2   3
ATOM      3  C   UNL A   1      34.026  25.580  24.765  1.00  0.00     0.116 C 
BRANCH   3   4
ATOM      4  N   UNL A   1      35.039  24.726  24.195  1.00  0.00    -0.356 N 
ATOM      5  C   UNL A   1      35.501  23.506  24.532  1.00  0.00     0.224 C 
ATOM      6  O   UNL A   1      36.399  23.064  23.807  1.00  0.00    -0.275 OA
ATOM      7  H   UNL A   1      35.480  25.111  23.402  1.00  0.00     0.163 HD
BRANCH   5   8
ATOM      8  C   UNL A   1      35.031  22.750  25.795  1.00  0.00     0.091 C 
ATOM      9  C   UNL A   1      32.862  19.274  25.262  1.00  0.00     0.007 C 
ATOM     10  C   UNL A   1      33.716  20.324  24.547  1.00  0.00    -0.013 C 
ATOM     11  C   UNL A   1      35.203  20.273  24.946  1.00  0.00     0.004 C 
ATOM     12  C   UNL A   1      33.030  21.688  24.607  1.00  0.00     0.018 C 
ATOM     13  C   UNL A   1      35.844  21.453  25.692  1.00  0.00     0.015 C 
ATOM     14  C   UNL A   1      33.487  22.620  25.741  1.00  0.00     0.059 C 
BRANCH  14  15
ATOM     15  S   UNL A   1      32.182  22.503  27.107  1.00  0.00    -0.152 SA
BRANCH  15  16
ATOM     16  C   UNL A   1      30.559  23.267  26.704  1.00  0.00     0.131 C 
BRANCH  16  17
ATOM     17  C   UNL A   1      30.586  24.653  25.970  1.00  0.00     0.272 C 
BRANCH  17  18
ATOM     18  N   UNL A   1      29.938  24.773  24.644  1.00  0.00    -0.339 N 
ATOM     19  C   UNL A   1      29.566  26.152  24.311  1.00  0.00     0.332 C 
ATOM     20  C   UNL A   1      30.755  24.210  23.601  1.00  0.00     0.332 C 
ATOM     21  H   UNL A   1      29.074  24.235  24.708  1.00  0.00     0.347 HD
ENDBRANCH  17  18
ENDBRANCH  16  17
ENDBRANCH  15  16
ENDBRANCH  14  15
ENDBRANCH   5   8
ENDBRANCH   3   4
ENDBRANCH   2   3
ENDBRANCH   1   2
BRANCH   1  22
ATOM     22  C   UNL A   1      32.457  27.697  25.978  1.00  0.00     0.002 C 
BRANCH  22  23
ATOM     23  C   UNL A   1      33.081  28.579  27.058  1.00  0.00     0.021 C 
BRANCH  23  24
ATOM     24  C   UNL A   1      34.145  29.545  26.555  1.00  0.00     0.116 C 
BRANCH  24  25
ATOM     25  N   UNL A   1      33.903  30.908  26.997  1.00  0.00    -0.352 N 
ATOM     26  C   UNL A   1      34.543  31.622  27.981  1.00  0.00     0.251 C 
ATOM     27  H   UNL A   1      33.181  31.386  26.528  1.00  0.00     0.163 HD
ATOM     28  O   UNL A   1      34.072  32.691  28.366  1.00  0.00    -0.269 OA
BRANCH  26  29
ATOM     29  C   UNL A   1      35.780  31.086  28.591  1.00  0.00     0.039 A 
ATOM     30  C   UNL A   1      35.692  30.009  29.474  1.00  0.00     0.014 A 
ATOM     31  C   UNL A   1      37.026  31.640  28.280  1.00  0.00     0.014 A 
ATOM     32  C   UNL A   1      36.859  29.447  29.997  1.00  0.00     0.010 A 
ATOM     33  C   UNL A   1      38.189  31.026  28.735  1.00  0.00     0.010 A 
ATOM     34  C   UNL A   1      38.120  29.926  29.603  1.00  0.00    -0.014 A 
BRANCH  34  35
ATOM     35  C   UNL A   1      39.372  29.296  30.095  1.00  0.00     0.031 A 
ATOM     36  C   UNL A   1      40.062  29.839  31.318  1.00  0.00     0.074 A 
ATOM     37  C   UNL A   1      39.918  28.269  29.411  1.00  0.00     0.049 A 
ATOM     38  N   UNL A   1      41.189  29.468  31.869  1.00  0.00    -0.248 NA
ATOM     39  C   UNL A   1      39.409  30.971  31.993  1.00  0.00     0.031 C 
ATOM     40  C   UNL A   1      39.361  27.677  28.192  1.00  0.00     0.029 A 
ATOM     41  N   UNL A   1      41.061  27.545  29.637  1.00  0.00    -0.354 N 
ATOM     42  C   UNL A   1      41.387  30.326  32.944  1.00  0.00     0.074 A 
ATOM     43  C   UNL A   1      40.297  31.278  32.926  1.00  0.00     0.031 C 
ATOM     44  C   UNL A   1      40.144  26.658  27.802  1.00  0.00     0.029 A 
ATOM     45  C   UNL A   1      41.286  26.558  28.704  1.00  0.00     0.049 A 
ATOM     46  H   UNL A   1      41.665  27.715  30.395  1.00  0.00     0.167 HD
ATOM     47  C   UNL A   1      42.374  30.308  33.875  1.00  0.00     0.034 A 
ATOM     48  C   UNL A   1      42.302  25.680  28.582  1.00  0.00     0.034 A 
ATOM     49  C   UNL A   1      43.449  29.345  33.881  1.00  0.00     0.049 A 
ATOM     50  C   UNL A   1      43.413  25.708  29.604  1.00  0.00     0.074 A 
ATOM     51  C   UNL A   1      44.468  29.198  34.807  1.00  0.00     0.029 A 
ATOM     52  N   UNL A   1      43.656  28.375  32.908  1.00  0.00    -0.354 N 
ATOM     53  N   UNL A   1      43.556  26.491  30.649  1.00  0.00    -0.248 NA
ATOM     54  C   UNL A   1      44.493  24.730  29.432  1.00  0.00     0.031 C 
ATOM     55  C   UNL A   1      45.334  28.199  34.351  1.00  0.00     0.029 A 
ATOM     56  C   UNL A   1      44.808  27.655  33.190  1.00  0.00     0.049 A 
ATOM     57  H   UNL A   1      43.070  28.220  32.132  1.00  0.00     0.167 HD
ATOM     58  C   UNL A   1      44.724  26.070  31.280  1.00  0.00     0.074 A 
ATOM     59  C   UNL A   1      45.236  24.959  30.505  1.00  0.00     0.031 C 
ATOM     60  C   UNL A   1      45.316  26.555  32.403  1.00  0.00     0.034 A 
BRANCH  47  61
ATOM     61  C   UNL A   1      42.350  31.382  34.939  1.00  0.00     0.023 A 
ATOM     62  C   UNL A   1      41.334  31.443  35.909  1.00  0.00     0.031 A 
ATOM     63  C   UNL A   1      43.341  32.379  34.966  1.00  0.00     0.131 A 
ATOM     64  C   UNL A   1      41.283  32.519  36.807  1.00  0.00     0.055 A 
ATOM     65  C   UNL A   1      43.338  33.397  35.922  1.00  0.00     0.041 A 
ATOM     66  F   UNL A   1      44.326  32.390  34.054  1.00  0.00    -0.206 F 
ATOM     67  C   UNL A   1      42.294  33.483  36.839  1.00  0.00     0.022 A 
BRANCH  64  68
ATOM     68  S   UNL A   1      39.793  32.733  37.820  1.00  0.00     0.124 S 
ATOM     69  O   UNL A   1      39.362  34.073  37.428  1.00  0.00    -0.237 OA
ATOM     70  O   UNL A   1      38.948  31.632  37.373  1.00  0.00    -0.237 OA
ATOM     71  O   UNL A   1      40.291  32.623  39.189  1.00  0.00    -0.744 OA
ENDBRANCH  64  68
ENDBRANCH  47  61
BRANCH  48  72
ATOM     72  C   UNL A   1      42.331  24.703  27.456  1.00  0.00     0.023 A 
ATOM     73  C   UNL A   1      41.559  23.530  27.498  1.00  0.00     0.031 A 
ATOM     74  C   UNL A   1      43.167  24.899  26.342  1.00  0.00     0.131 A 
ATOM     75  C   UNL A   1      41.679  22.576  26.477  1.00  0.00     0.055 A 
ATOM     76  C   UNL A   1      43.236  23.975  25.298  1.00  0.00     0.041 A 
ATOM     77  F   UNL A   1      43.926  26.003  26.249  1.00  0.00    -0.206 F 
ATOM     78  C   UNL A   1      42.500  22.798  25.369  1.00  0.00     0.022 A 
BRANCH  75  79
ATOM     79  S   UNL A   1      40.820  20.990  26.666  1.00  0.00     0.124 S 
ATOM     80  O   UNL A   1      41.720  20.080  25.970  1.00  0.00    -0.237 OA
ATOM     81  O   UNL A   1      40.759  20.850  28.118  1.00  0.00    -0.237 OA
ATOM     82  O   UNL A   1      39.533  21.220  26.011  1.00  0.00    -0.744 OA
ENDBRANCH  75  79
ENDBRANCH  48  72
BRANCH  60  83
ATOM     83  C   UNL A   1      46.560  25.847  32.885  1.00  0.00     0.023 A 
ATOM     84  C   UNL A   1      47.836  26.155  32.379  1.00  0.00     0.031 A 
ATOM     85  C   UNL A   1      46.464  24.838  33.861  1.00  0.00     0.131 A 
ATOM     86  C   UNL A   1      48.954  25.421  32.806  1.00  0.00     0.055 A 
ATOM     87  C   UNL A   1      47.588  24.160  34.333  1.00  0.00     0.041 A 
ATOM     88  F   UNL A   1      45.272  24.497  34.376  1.00  0.00    -0.206 F 
ATOM     89  C   UNL A   1      48.840  24.441  33.795  1.00  0.00     0.022 A 
BRANCH  86  90
ATOM     90  S   UNL A   1      50.543  25.694  31.977  1.00  0.00     0.124 S 
ATOM     91  O   UNL A   1      51.492  25.496  33.068  1.00  0.00    -0.237 OA
ATOM     92  O   UNL A   1      50.537  24.665  30.943  1.00  0.00    -0.237 OA
ATOM     93  O   UNL A   1      50.442  27.066  31.485  1.00  0.00    -0.744 OA
ENDBRANCH  86  90
ENDBRANCH  60  83
ENDBRANCH  34  35
ENDBRANCH  26  29
ENDBRANCH  24  25
ENDBRANCH  23  24
ENDBRANCH  22  23
ENDBRANCH   1  22
TORSDOF 20
ENDMDL
MODEL 3
REMARK VINA RESULT:     -10.0      2.591      3.982
REMARK SMILES C[C@@H]1CC[C@@H](C(=O)NCCCCCCNC(=O)c2ccc(-c3c4nc(c(-c5cc(S(=O)(=O)[O-])ccc5F)c5ccc([nH]5)c(-c5cc(S(=O)(=O)[O-])ccc5F)c5nc(c(-c6cc(S(=O)(=O)[O-])ccc6F)c6ccc3[nH]6)C=C5)C=C4)cc2)[C@H](SCC[NH+](C)C)C1
REMARK SMILES IDX 11 1 10 2 9 3 8 4 6 5 7 6 5 8 1 9 2 10 3 11 88 12 4 13 81 14
REMARK SMILES IDX 82 15 83 16 84 17 85 18 86 19 87 20 12 22 13 23 14 24 15 25
REMARK SMILES IDX 16 26 17 28 18 29 19 30 80 31 20 32 79 33 21 34 22 35 23 36
REMARK SMILES IDX 73 37 24 38 78 39 72 40 74 41 25 42 77 43 71 44 70 45 26 47
REMARK SMILES IDX 58 48 38 49 57 50 39 51 42 52 56 53 75 54 40 55 41 56 55 58
REMARK SMILES IDX 76 59 43 60 27 61 28 62 36 63 29 64 35 65 37 66 34 67 30 68
REMARK SMILES IDX 31 69 32 70 33 71 59 72 60 73 68 74 61 75 67 76 69 77 66 78
REMARK SMILES IDX 62 79 63 80 64 81 65 82 44 83 45 84 53 85 46 86 52 87 54 88
REMARK SMILES IDX 51 89 47 90 48 91 49 92 50 93
REMARK H PARENT 8 7 85 21 15 27 74 46 42 57
REMARK Flexibility Score: inf
ROOT
ATOM      1  C   UNL A   1      32.235  29.725  27.252  1.00  0.00     0.002 C 
ENDROOT
BRANCH   1   2
ATOM      2  C   UNL A   1      33.760  29.531  27.265  1.00  0.00     0.021 C 
BRANCH   2   3
ATOM      3  C   UNL A   1      34.316  28.500  26.281  1.00  0.00     0.116 C 
BRANCH   3   4
ATOM      4  N   UNL A   1      34.206  28.937  24.911  1.00  0.00    -0.356 N 
ATOM      5  C   UNL A   1      33.836  28.308  23.778  1.00  0.00     0.224 C 
ATOM      6  O   UNL A   1      33.862  29.003  22.756  1.00  0.00    -0.275 OA
ATOM      7  H   UNL A   1      34.449  29.882  24.777  1.00  0.00     0.163 HD
BRANCH   5   8
ATOM      8  C   UNL A   1      33.508  26.799  23.724  1.00  0.00     0.091 C 
ATOM      9  C   UNL A   1      29.527  25.691  23.781  1.00  0.00     0.007 C 
ATOM     10  C   UNL A   1      30.481  26.879  23.636  1.00  0.00    -0.013 C 
ATOM     11  C   UNL A   1      31.289  26.854  22.324  1.00  0.00     0.004 C 
ATOM     12  C   UNL A   1      31.269  27.082  24.929  1.00  0.00     0.018 C 
ATOM     13  C   UNL A   1      32.816  26.686  22.360  1.00  0.00     0.015 C 
ATOM     14  C   UNL A   1      32.664  26.437  24.975  1.00  0.00     0.059 C 
BRANCH  14  15
ATOM     15  S   UNL A   1      32.494  24.831  25.961  1.00  0.00    -0.152 SA
BRANCH  15  16
ATOM     16  C   UNL A   1      34.062  23.907  26.225  1.00  0.00     0.131 C 
BRANCH  16  17
ATOM     17  C   UNL A   1      35.132  23.976  25.080  1.00  0.00     0.272 C 
BRANCH  17  18
ATOM     18  N   UNL A   1      35.902  22.756  24.746  1.00  0.00    -0.339 N 
ATOM     19  C   UNL A   1      35.069  21.550  24.694  1.00  0.00     0.332 C 
ATOM     20  C   UNL A   1      36.635  22.911  23.516  1.00  0.00     0.332 C 
ATOM     21  H   UNL A   1      36.567  22.632  25.508  1.00  0.00     0.347 HD
ENDBRANCH  17  18
ENDBRANCH  16  17
ENDBRANCH  15  16
ENDBRANCH  14  15
ENDBRANCH   5   8
ENDBRANCH   3   4
ENDBRANCH   2   3
ENDBRANCH   1   2
BRANCH   1  22
ATOM     22  C   UNL A   1      31.681  30.762  26.270  1.00  0.00     0.002 C 
BRANCH  22  23
ATOM     23  C   UNL A   1      31.584  32.190  26.802  1.00  0.00     0.021 C 
BRANCH  23  24
ATOM     24  C   UNL A   1      32.906  32.792  27.257  1.00  0.00     0.116 C 
BRANCH  24  25
ATOM     25  N   UNL A   1      32.745  34.136  27.786  1.00  0.00    -0.352 N 
ATOM     26  C   UNL A   1      33.377  34.723  28.855  1.00  0.00     0.251 C 
ATOM     27  H   UNL A   1      32.092  34.703  27.315  1.00  0.00     0.163 HD
ATOM     28  O   UNL A   1      32.968  35.798  29.292  1.00  0.00    -0.269 OA
BRANCH  26  29
ATOM     29  C   UNL A   1      34.528  34.046  29.490  1.00  0.00     0.039 A 
ATOM     30  C   UNL A   1      34.292  33.053  30.442  1.00  0.00     0.014 A 
ATOM     31  C   UNL A   1      35.839  34.382  29.136  1.00  0.00     0.014 A 
ATOM     32  C   UNL A   1      35.369  32.354  30.994  1.00  0.00     0.010 A 
ATOM     33  C   UNL A   1      36.903  33.629  29.623  1.00  0.00     0.010 A 
ATOM     34  C   UNL A   1      36.681  32.610  30.561  1.00  0.00    -0.014 A 
BRANCH  34  35
ATOM     35  C   UNL A   1      37.832  31.829  31.085  1.00  0.00     0.031 A 
ATOM     36  C   UNL A   1      38.391  32.131  32.449  1.00  0.00     0.074 A 
ATOM     37  C   UNL A   1      38.408  30.885  30.312  1.00  0.00     0.049 A 
ATOM     38  N   UNL A   1      39.423  31.605  33.058  1.00  0.00    -0.248 NA
ATOM     39  C   UNL A   1      37.716  33.188  33.219  1.00  0.00     0.031 C 
ATOM     40  C   UNL A   1      37.977  30.525  28.959  1.00  0.00     0.029 A 
ATOM     41  N   UNL A   1      39.478  30.060  30.548  1.00  0.00    -0.354 N 
ATOM     42  C   UNL A   1      39.528  32.273  34.273  1.00  0.00     0.074 A 
ATOM     43  C   UNL A   1      38.497  33.288  34.283  1.00  0.00     0.031 C 
ATOM     44  C   UNL A   1      38.751  29.528  28.502  1.00  0.00     0.029 A 
ATOM     45  C   UNL A   1      39.767  29.215  29.500  1.00  0.00     0.049 A 
ATOM     46  H   UNL A   1      39.992  30.071  31.387  1.00  0.00     0.167 HD
ATOM     47  C   UNL A   1      40.392  32.046  35.295  1.00  0.00     0.034 A 
ATOM     48  C   UNL A   1      40.747  28.299  29.357  1.00  0.00     0.034 A 
ATOM     49  C   UNL A   1      41.410  31.024  35.269  1.00  0.00     0.049 A 
ATOM     50  C   UNL A   1      41.724  28.096  30.489  1.00  0.00     0.074 A 
ATOM     51  C   UNL A   1      42.299  30.668  36.269  1.00  0.00     0.029 A 
ATOM     52  N   UNL A   1      41.688  30.203  34.184  1.00  0.00    -0.354 N 
ATOM     53  N   UNL A   1      41.775  28.697  31.656  1.00  0.00    -0.248 NA
ATOM     54  C   UNL A   1      42.769  27.085  30.287  1.00  0.00     0.031 C 
ATOM     55  C   UNL A   1      43.166  29.695  35.761  1.00  0.00     0.029 A 
ATOM     56  C   UNL A   1      42.760  29.373  34.476  1.00  0.00     0.049 A 
ATOM     57  H   UNL A   1      41.195  30.208  33.331  1.00  0.00     0.167 HD
ATOM     58  C   UNL A   1      42.835  28.108  32.340  1.00  0.00     0.074 A 
ATOM     59  C   UNL A   1      43.384  27.097  31.460  1.00  0.00     0.031 C 
ATOM     60  C   UNL A   1      43.308  28.374  33.585  1.00  0.00     0.034 A 
BRANCH  47  61
ATOM     61  C   UNL A   1      40.289  32.944  36.507  1.00  0.00     0.023 A 
ATOM     62  C   UNL A   1      39.545  32.576  37.642  1.00  0.00     0.031 A 
ATOM     63  C   UNL A   1      40.919  34.201  36.518  1.00  0.00     0.131 A 
ATOM     64  C   UNL A   1      39.380  33.483  38.699  1.00  0.00     0.055 A 
ATOM     65  C   UNL A   1      40.828  35.064  37.612  1.00  0.00     0.041 A 
ATOM     66  F   UNL A   1      41.625  34.622  35.456  1.00  0.00    -0.206 F 
ATOM     67  C   UNL A   1      40.040  34.715  38.705  1.00  0.00     0.022 A 
BRANCH  64  68
ATOM     68  S   UNL A   1      38.161  33.101  39.987  1.00  0.00     0.124 S 
ATOM     69  O   UNL A   1      38.156  34.339  40.764  1.00  0.00    -0.237 OA
ATOM     70  O   UNL A   1      36.957  32.830  39.209  1.00  0.00    -0.237 OA
ATOM     71  O   UNL A   1      38.736  31.946  40.672  1.00  0.00    -0.744 OA
ENDBRANCH  64  68
ENDBRANCH  47  61
BRANCH  48  72
ATOM     72  C   UNL A   1      40.867  27.506  28.099  1.00  0.00     0.023 A 
ATOM     73  C   UNL A   1      40.498  26.152  28.062  1.00  0.00     0.031 A 
ATOM     74  C   UNL A   1      41.398  28.075  26.927  1.00  0.00     0.131 A 
ATOM     75  C   UNL A   1      40.714  25.398  26.898  1.00  0.00     0.055 A 
ATOM     76  C   UNL A   1      41.554  27.336  25.753  1.00  0.00     0.041 A 
ATOM     77  F   UNL A   1      41.767  29.366  26.905  1.00  0.00    -0.206 F 
ATOM     78  C   UNL A   1      41.225  25.985  25.738  1.00  0.00     0.022 A 
BRANCH  75  79
ATOM     79  S   UNL A   1      40.411  23.612  26.953  1.00  0.00     0.124 S 
ATOM     80  O   UNL A   1      40.751  23.296  28.336  1.00  0.00    -0.237 OA
ATOM     81  O   UNL A   1      38.995  23.533  26.605  1.00  0.00    -0.237 OA
ATOM     82  O   UNL A   1      41.328  23.080  25.947  1.00  0.00    -0.744 OA
ENDBRANCH  75  79
ENDBRANCH  48  72
BRANCH  60  83
ATOM     83  C   UNL A   1      44.447  27.519  34.086  1.00  0.00     0.023 A 
ATOM     84  C   UNL A   1      44.227  26.295  34.743  1.00  0.00     0.031 A 
ATOM     85  C   UNL A   1      45.777  27.942  33.912  1.00  0.00     0.131 A 
ATOM     86  C   UNL A   1      45.313  25.569  35.254  1.00  0.00     0.055 A 
ATOM     87  C   UNL A   1      46.858  27.182  34.360  1.00  0.00     0.041 A 
ATOM     88  F   UNL A   1      46.049  29.105  33.297  1.00  0.00    -0.206 F 
ATOM     89  C   UNL A   1      46.628  25.995  35.048  1.00  0.00     0.022 A 
BRANCH  86  90
ATOM     90  S   UNL A   1      44.982  24.112  36.283  1.00  0.00     0.124 S 
ATOM     91  O   UNL A   1      43.528  24.019  36.216  1.00  0.00    -0.237 OA
ATOM     92  O   UNL A   1      45.721  23.064  35.585  1.00  0.00    -0.237 OA
ATOM     93  O   UNL A   1      45.521  24.485  37.589  1.00  0.00    -0.744 OA
ENDBRANCH  86  90
ENDBRANCH  60  83
ENDBRANCH  34  35
ENDBRANCH  26  29
ENDBRANCH  24  25
ENDBRANCH  23  24
ENDBRANCH  22  23
ENDBRANCH   1  22
TORSDOF 20
ENDMDL
