MODEL 1
REMARK VINA RESULT:      -9.8      0.000      0.000
REMARK SMILES CC(C)(C[S@](=O)c1cccc(Cl)c1)C(=O)NCCCCCCNC(=O)c1ccc(-c2c3nc(c(-c4cc(S(=O)(=O)[O-])ccc4F)c4ccc([nH]4)c(-c4cc(S(=O)(=O)[O-])ccc4F)c4nc(c(-c5cc(S(=O)(=O)[O-])ccc5F)c5ccc2[nH]5)C=C4)C=C3)cc1
REMARK SMILES IDX 19 1 18 2 17 3 16 4 14 5 15 6 2 8 1 9 3 10 4 11 5 12 6 13
REMARK SMILES IDX 7 14 8 15 13 16 9 17 11 18 10 19 12 20 20 21 21 22 22 23
REMARK SMILES IDX 23 24 24 25 25 27 26 28 27 29 88 30 28 31 87 32 29 33 30 34
REMARK SMILES IDX 31 35 81 36 32 37 86 38 80 39 82 40 33 41 85 42 79 43 78 44
REMARK SMILES IDX 34 46 66 47 46 48 65 49 47 50 50 51 64 52 83 53 48 54 49 55
REMARK SMILES IDX 63 57 84 58 51 59 35 60 36 61 44 62 37 63 43 64 45 65 42 66
REMARK SMILES IDX 38 67 39 68 40 69 41 70 67 71 68 72 76 73 69 74 75 75 77 76
REMARK SMILES IDX 74 77 70 78 71 79 72 80 73 81 52 82 53 83 61 84 54 85 60 86
REMARK SMILES IDX 62 87 59 88 55 89 56 90 57 91 58 92
REMARK H PARENT 16 7 23 26 82 45 50 56
REMARK Flexibility Score: inf
ROOT
ATOM      1  C   UNL A   1      40.011  23.596  26.986  1.00  0.00     0.002 C 
ENDROOT
BRANCH   1   2
ATOM      2  C   UNL A   1      38.889  24.509  26.485  1.00  0.00     0.021 C 
BRANCH   2   3
ATOM      3  C   UNL A   1      37.568  23.808  26.181  1.00  0.00     0.116 C 
BRANCH   3   4
ATOM      4  N   UNL A   1      37.420  23.473  24.781  1.00  0.00    -0.356 N 
ATOM      5  C   UNL A   1      36.341  23.386  23.961  1.00  0.00     0.226 C 
ATOM      6  O   UNL A   1      36.581  23.206  22.761  1.00  0.00    -0.274 OA
ATOM      7  H   UNL A   1      38.273  23.268  24.333  1.00  0.00     0.163 HD
BRANCH   5   8
ATOM      8  C   UNL A   1      34.891  23.564  24.459  1.00  0.00     0.055 C 
ATOM      9  C   UNL A   1      34.879  23.417  26.000  1.00  0.00     0.022 C 
ATOM     10  C   UNL A   1      34.037  22.378  23.951  1.00  0.00     0.022 C 
BRANCH   8  11
ATOM     11  C   UNL A   1      34.222  24.895  24.044  1.00  0.00     0.126 C 
BRANCH  11  12
ATOM     12  S   UNL A   1      32.435  25.123  24.327  1.00  0.00     0.054 S 
ATOM     13  O   UNL A   1      31.780  25.663  23.096  1.00  0.00    -0.254 OA
BRANCH  12  14
ATOM     14  C   UNL A   1      32.470  26.463  25.525  1.00  0.00     0.040 A 
ATOM     15  C   UNL A   1      31.308  26.776  26.242  1.00  0.00     0.018 A 
ATOM     16  C   UNL A   1      33.633  27.210  25.737  1.00  0.00     0.038 A 
ATOM     17  C   UNL A   1      31.327  27.789  27.203  1.00  0.00     0.003 A 
ATOM     18  C   UNL A   1      33.655  28.195  26.720  1.00  0.00     0.042 A 
ATOM     19  C   UNL A   1      32.508  28.486  27.456  1.00  0.00     0.020 A 
ATOM     20  Cl  UNL A   1      35.117  29.039  27.054  1.00  0.00    -0.084 Cl
ENDBRANCH  12  14
ENDBRANCH  11  12
ENDBRANCH   8  11
ENDBRANCH   5   8
ENDBRANCH   3   4
ENDBRANCH   2   3
ENDBRANCH   1   2
BRANCH   1  21
ATOM     21  C   UNL A   1      39.909  22.125  26.571  1.00  0.00     0.002 C 
BRANCH  21  22
ATOM     22  C   UNL A   1      40.932  21.178  27.206  1.00  0.00     0.021 C 
BRANCH  22  23
ATOM     23  C   UNL A   1      42.390  21.624  27.115  1.00  0.00     0.116 C 
BRANCH  23  24
ATOM     24  N   UNL A   1      42.846  21.756  25.743  1.00  0.00    -0.352 N 
ATOM     25  C   UNL A   1      43.226  22.873  25.045  1.00  0.00     0.251 C 
ATOM     26  H   UNL A   1      42.887  20.914  25.236  1.00  0.00     0.163 HD
ATOM     27  O   UNL A   1      43.413  22.784  23.831  1.00  0.00    -0.269 OA
BRANCH  25  28
ATOM     28  C   UNL A   1      43.388  24.181  25.722  1.00  0.00     0.039 A 
ATOM     29  C   UNL A   1      43.025  25.339  25.029  1.00  0.00     0.014 A 
ATOM     30  C   UNL A   1      43.922  24.282  27.011  1.00  0.00     0.014 A 
ATOM     31  C   UNL A   1      43.144  26.587  25.645  1.00  0.00     0.010 A 
ATOM     32  C   UNL A   1      43.978  25.522  27.650  1.00  0.00     0.010 A 
ATOM     33  C   UNL A   1      43.591  26.688  26.974  1.00  0.00    -0.014 A 
BRANCH  33  34
ATOM     34  C   UNL A   1      43.631  28.010  27.657  1.00  0.00     0.031 A 
ATOM     35  C   UNL A   1      42.381  28.617  28.233  1.00  0.00     0.074 A 
ATOM     36  C   UNL A   1      44.800  28.679  27.727  1.00  0.00     0.049 A 
ATOM     37  N   UNL A   1      42.229  29.754  28.865  1.00  0.00    -0.248 NA
ATOM     38  C   UNL A   1      41.134  27.860  28.053  1.00  0.00     0.031 C 
ATOM     39  C   UNL A   1      46.069  28.219  27.157  1.00  0.00     0.029 A 
ATOM     40  N   UNL A   1      45.115  29.882  28.305  1.00  0.00    -0.354 N 
ATOM     41  C   UNL A   1      40.871  29.852  29.153  1.00  0.00     0.074 A 
ATOM     42  C   UNL A   1      40.238  28.686  28.572  1.00  0.00     0.031 C 
ATOM     43  C   UNL A   1      47.029  29.113  27.441  1.00  0.00     0.029 A 
ATOM     44  C   UNL A   1      46.441  30.226  28.180  1.00  0.00     0.049 A 
ATOM     45  H   UNL A   1      44.454  30.448  28.767  1.00  0.00     0.167 HD
ATOM     46  C   UNL A   1      40.218  30.813  29.856  1.00  0.00     0.034 A 
ATOM     47  C   UNL A   1      47.111  31.313  28.609  1.00  0.00     0.034 A 
ATOM     48  C   UNL A   1      40.866  31.967  30.435  1.00  0.00     0.049 A 
ATOM     49  C   UNL A   1      46.364  32.363  29.391  1.00  0.00     0.074 A 
ATOM     50  C   UNL A   1      40.312  32.967  31.216  1.00  0.00     0.029 A 
ATOM     51  N   UNL A   1      42.212  32.281  30.291  1.00  0.00    -0.354 N 
ATOM     52  N   UNL A   1      45.092  32.407  29.712  1.00  0.00    -0.248 NA
ATOM     53  C   UNL A   1      47.150  33.502  29.880  1.00  0.00     0.031 C 
ATOM     54  C   UNL A   1      41.302  33.919  31.484  1.00  0.00     0.029 A 
ATOM     55  C   UNL A   1      42.497  33.476  30.937  1.00  0.00     0.049 A 
ATOM     56  H   UNL A   1      42.868  31.737  29.800  1.00  0.00     0.167 HD
ATOM     57  C   UNL A   1      44.931  33.569  30.462  1.00  0.00     0.074 A 
ATOM     58  C   UNL A   1      46.243  34.177  30.569  1.00  0.00     0.031 C 
ATOM     59  C   UNL A   1      43.803  34.089  31.012  1.00  0.00     0.034 A 
BRANCH  46  60
ATOM     60  C   UNL A   1      38.721  30.664  30.013  1.00  0.00     0.023 A 
ATOM     61  C   UNL A   1      37.818  31.458  29.283  1.00  0.00     0.031 A 
ATOM     62  C   UNL A   1      38.189  29.729  30.918  1.00  0.00     0.131 A 
ATOM     63  C   UNL A   1      36.439  31.354  29.523  1.00  0.00     0.055 A 
ATOM     64  C   UNL A   1      36.813  29.574  31.094  1.00  0.00     0.041 A 
ATOM     65  F   UNL A   1      39.000  28.956  31.659  1.00  0.00    -0.206 F 
ATOM     66  C   UNL A   1      35.928  30.400  30.406  1.00  0.00     0.022 A 
BRANCH  63  67
ATOM     67  S   UNL A   1      35.333  32.579  28.772  1.00  0.00     0.124 S 
ATOM     68  O   UNL A   1      34.133  31.783  28.527  1.00  0.00    -0.237 OA
ATOM     69  O   UNL A   1      35.227  33.592  29.815  1.00  0.00    -0.237 OA
ATOM     70  O   UNL A   1      36.051  32.996  27.568  1.00  0.00    -0.744 OA
ENDBRANCH  63  67
ENDBRANCH  46  60
BRANCH  47  71
ATOM     71  C   UNL A   1      48.564  31.472  28.315  1.00  0.00     0.023 A 
ATOM     72  C   UNL A   1      49.008  32.319  27.287  1.00  0.00     0.031 A 
ATOM     73  C   UNL A   1      49.529  30.742  29.033  1.00  0.00     0.131 A 
ATOM     74  C   UNL A   1      50.375  32.380  26.973  1.00  0.00     0.055 A 
ATOM     75  C   UNL A   1      50.892  30.847  28.750  1.00  0.00     0.041 A 
ATOM     76  F   UNL A   1      49.158  29.923  30.029  1.00  0.00    -0.206 F 
ATOM     77  C   UNL A   1      51.320  31.660  27.706  1.00  0.00     0.022 A 
BRANCH  74  78
ATOM     78  S   UNL A   1      50.891  33.353  25.532  1.00  0.00     0.124 S 
ATOM     79  O   UNL A   1      51.309  32.311  24.602  1.00  0.00    -0.237 OA
ATOM     80  O   UNL A   1      49.662  34.064  25.192  1.00  0.00    -0.237 OA
ATOM     81  O   UNL A   1      51.967  34.192  26.057  1.00  0.00    -0.744 OA
ENDBRANCH  74  78
ENDBRANCH  47  71
BRANCH  59  82
ATOM     82  C   UNL A   1      43.961  35.371  31.795  1.00  0.00     0.023 A 
ATOM     83  C   UNL A   1      44.175  35.362  33.185  1.00  0.00     0.031 A 
ATOM     84  C   UNL A   1      43.846  36.617  31.153  1.00  0.00     0.131 A 
ATOM     85  C   UNL A   1      44.187  36.570  33.901  1.00  0.00     0.055 A 
ATOM     86  C   UNL A   1      43.929  37.817  31.860  1.00  0.00     0.041 A 
ATOM     87  F   UNL A   1      43.639  36.688  29.829  1.00  0.00    -0.206 F 
ATOM     88  C   UNL A   1      44.081  37.798  33.244  1.00  0.00     0.022 A 
BRANCH  85  89
ATOM     89  S   UNL A   1      44.214  36.506  35.713  1.00  0.00     0.124 S 
ATOM     90  O   UNL A   1      43.890  35.106  35.972  1.00  0.00    -0.237 OA
ATOM     91  O   UNL A   1      45.583  36.911  36.018  1.00  0.00    -0.237 OA
ATOM     92  O   UNL A   1      43.182  37.464  36.104  1.00  0.00    -0.744 OA
ENDBRANCH  85  89
ENDBRANCH  59  82
ENDBRANCH  33  34
ENDBRANCH  25  28
ENDBRANCH  23  24
ENDBRANCH  22  23
ENDBRANCH  21  22
ENDBRANCH   1  21
TORSDOF 19
ENDMDL
MODEL 2
REMARK VINA RESULT:      -9.7      3.351      8.597
REMARK SMILES CC(C)(C[S@](=O)c1cccc(Cl)c1)C(=O)NCCCCCCNC(=O)c1ccc(-c2c3nc(c(-c4cc(S(=O)(=O)[O-])ccc4F)c4ccc([nH]4)c(-c4cc(S(=O)(=O)[O-])ccc4F)c4nc(c(-c5cc(S(=O)(=O)[O-])ccc5F)c5ccc2[nH]5)C=C4)C=C3)cc1
REMARK SMILES IDX 19 1 18 2 17 3 16 4 14 5 15 6 2 8 1 9 3 10 4 11 5 12 6 13
REMARK SMILES IDX 7 14 8 15 13 16 9 17 11 18 10 19 12 20 20 21 21 22 22 23
REMARK SMILES IDX 23 24 24 25 25 27 26 28 27 29 88 30 28 31 87 32 29 33 30 34
REMARK SMILES IDX 31 35 81 36 32 37 86 38 80 39 82 40 33 41 85 42 79 43 78 44
REMARK SMILES IDX 34 46 66 47 46 48 65 49 47 50 50 51 64 52 83 53 48 54 49 55
REMARK SMILES IDX 63 57 84 58 51 59 35 60 36 61 44 62 37 63 43 64 45 65 42 66
REMARK SMILES IDX 38 67 39 68 40 69 41 70 67 71 68 72 76 73 69 74 75 75 77 76
REMARK SMILES IDX 74 77 70 78 71 79 72 80 73 81 52 82 53 83 61 84 54 85 60 86
REMARK SMILES IDX 62 87 59 88 55 89 56 90 57 91 58 92
REMARK H PARENT 16 7 23 26 82 45 50 56
REMARK Flexibility Score: inf
ROOT
ATOM      1  C   UNL A   1      39.168  22.538  26.471  1.00  0.00     0.002 C 
ENDROOT
BRANCH   1   2
ATOM      2  C   UNL A   1      38.596  23.958  26.499  1.00  0.00     0.021 C 
BRANCH   2   3
ATOM      3  C   UNL A   1      37.128  24.074  26.097  1.00  0.00     0.116 C 
BRANCH   3   4
ATOM      4  N   UNL A   1      36.873  23.581  24.761  1.00  0.00    -0.356 N 
ATOM      5  C   UNL A   1      35.751  23.514  23.999  1.00  0.00     0.226 C 
ATOM      6  O   UNL A   1      35.908  23.154  22.827  1.00  0.00    -0.274 OA
ATOM      7  H   UNL A   1      37.674  23.220  24.315  1.00  0.00     0.163 HD
BRANCH   5   8
ATOM      8  C   UNL A   1      34.357  23.924  24.520  1.00  0.00     0.055 C 
ATOM      9  C   UNL A   1      34.381  25.437  24.851  1.00  0.00     0.022 C 
ATOM     10  C   UNL A   1      34.107  23.234  25.882  1.00  0.00     0.022 C 
BRANCH   8  11
ATOM     11  C   UNL A   1      33.187  23.607  23.560  1.00  0.00     0.126 C 
BRANCH  11  12
ATOM     12  S   UNL A   1      32.911  24.671  22.104  1.00  0.00     0.054 S 
ATOM     13  O   UNL A   1      34.067  25.601  21.915  1.00  0.00    -0.254 OA
BRANCH  12  14
ATOM     14  C   UNL A   1      31.536  25.668  22.693  1.00  0.00     0.040 A 
ATOM     15  C   UNL A   1      30.676  25.148  23.667  1.00  0.00     0.018 A 
ATOM     16  C   UNL A   1      31.302  26.947  22.179  1.00  0.00     0.038 A 
ATOM     17  C   UNL A   1      29.626  25.922  24.164  1.00  0.00     0.003 A 
ATOM     18  C   UNL A   1      30.274  27.727  22.701  1.00  0.00     0.042 A 
ATOM     19  C   UNL A   1      29.436  27.221  23.693  1.00  0.00     0.020 A 
ATOM     20  Cl  UNL A   1      30.054  29.340  22.143  1.00  0.00    -0.084 Cl
ENDBRANCH  12  14
ENDBRANCH  11  12
ENDBRANCH   8  11
ENDBRANCH   5   8
ENDBRANCH   3   4
ENDBRANCH   2   3
ENDBRANCH   1   2
BRANCH   1  21
ATOM     21  C   UNL A   1      40.341  22.273  27.420  1.00  0.00     0.002 C 
BRANCH  21  22
ATOM     22  C   UNL A   1      40.931  20.859  27.377  1.00  0.00     0.021 C 
BRANCH  22  23
ATOM     23  C   UNL A   1      40.612  20.050  26.122  1.00  0.00     0.116 C 
BRANCH  23  24
ATOM     24  N   UNL A   1      41.783  19.387  25.576  1.00  0.00    -0.352 N 
ATOM     25  C   UNL A   1      43.031  19.886  25.306  1.00  0.00     0.251 C 
ATOM     26  H   UNL A   1      41.661  18.434  25.367  1.00  0.00     0.163 HD
ATOM     27  O   UNL A   1      43.830  19.190  24.678  1.00  0.00    -0.269 OA
BRANCH  25  28
ATOM     28  C   UNL A   1      43.418  21.251  25.732  1.00  0.00     0.039 A 
ATOM     29  C   UNL A   1      43.190  22.314  24.853  1.00  0.00     0.014 A 
ATOM     30  C   UNL A   1      44.030  21.491  26.967  1.00  0.00     0.014 A 
ATOM     31  C   UNL A   1      43.523  23.616  25.232  1.00  0.00     0.010 A 
ATOM     32  C   UNL A   1      44.301  22.800  27.370  1.00  0.00     0.010 A 
ATOM     33  C   UNL A   1      44.051  23.877  26.507  1.00  0.00    -0.014 A 
BRANCH  33  34
ATOM     34  C   UNL A   1      44.321  25.275  26.940  1.00  0.00     0.031 A 
ATOM     35  C   UNL A   1      45.711  25.846  26.872  1.00  0.00     0.074 A 
ATOM     36  C   UNL A   1      43.309  26.020  27.428  1.00  0.00     0.049 A 
ATOM     37  N   UNL A   1      46.131  27.043  27.201  1.00  0.00    -0.248 NA
ATOM     38  C   UNL A   1      46.773  24.949  26.395  1.00  0.00     0.031 C 
ATOM     39  C   UNL A   1      41.929  25.558  27.597  1.00  0.00     0.029 A 
ATOM     40  N   UNL A   1      43.279  27.317  27.872  1.00  0.00    -0.354 N 
ATOM     41  C   UNL A   1      47.504  27.041  26.977  1.00  0.00     0.074 A 
ATOM     42  C   UNL A   1      47.852  25.704  26.542  1.00  0.00     0.031 C 
ATOM     43  C   UNL A   1      41.182  26.566  28.076  1.00  0.00     0.029 A 
ATOM     44  C   UNL A   1      42.033  27.732  28.284  1.00  0.00     0.049 A 
ATOM     45  H   UNL A   1      44.074  27.898  27.893  1.00  0.00     0.167 HD
ATOM     46  C   UNL A   1      48.388  28.064  27.102  1.00  0.00     0.034 A 
ATOM     47  C   UNL A   1      41.621  28.918  28.775  1.00  0.00     0.034 A 
ATOM     48  C   UNL A   1      48.023  29.394  27.531  1.00  0.00     0.049 A 
ATOM     49  C   UNL A   1      42.620  30.039  28.900  1.00  0.00     0.074 A 
ATOM     50  C   UNL A   1      48.824  30.519  27.633  1.00  0.00     0.029 A 
ATOM     51  N   UNL A   1      46.751  29.780  27.938  1.00  0.00    -0.354 N 
ATOM     52  N   UNL A   1      43.903  30.039  28.620  1.00  0.00    -0.248 NA
ATOM     53  C   UNL A   1      42.109  31.324  29.391  1.00  0.00     0.031 C 
ATOM     54  C   UNL A   1      48.058  31.561  28.166  1.00  0.00     0.029 A 
ATOM     55  C   UNL A   1      46.755  31.114  28.324  1.00  0.00     0.049 A 
ATOM     56  H   UNL A   1      45.962  29.193  27.951  1.00  0.00     0.167 HD
ATOM     57  C   UNL A   1      44.347  31.332  28.882  1.00  0.00     0.074 A 
ATOM     58  C   UNL A   1      43.187  32.088  29.310  1.00  0.00     0.031 C 
ATOM     59  C   UNL A   1      45.598  31.850  28.779  1.00  0.00     0.034 A 
BRANCH  46  60
ATOM     60  C   UNL A   1      49.839  27.772  26.792  1.00  0.00     0.023 A 
ATOM     61  C   UNL A   1      50.768  27.479  27.807  1.00  0.00     0.031 A 
ATOM     62  C   UNL A   1      50.305  27.806  25.466  1.00  0.00     0.131 A 
ATOM     63  C   UNL A   1      52.124  27.304  27.488  1.00  0.00     0.055 A 
ATOM     64  C   UNL A   1      51.641  27.552  25.147  1.00  0.00     0.041 A 
ATOM     65  F   UNL A   1      49.471  28.100  24.455  1.00  0.00    -0.206 F 
ATOM     66  C   UNL A   1      52.563  27.314  26.163  1.00  0.00     0.022 A 
BRANCH  63  67
ATOM     67  S   UNL A   1      53.326  27.206  28.842  1.00  0.00     0.124 S 
ATOM     68  O   UNL A   1      54.473  26.595  28.174  1.00  0.00    -0.237 OA
ATOM     69  O   UNL A   1      53.482  28.602  29.230  1.00  0.00    -0.237 OA
ATOM     70  O   UNL A   1      52.663  26.353  29.828  1.00  0.00    -0.744 OA
ENDBRANCH  63  67
ENDBRANCH  46  60
BRANCH  47  71
ATOM     71  C   UNL A   1      40.202  29.112  29.187  1.00  0.00     0.023 A 
ATOM     72  C   UNL A   1      39.822  29.042  30.537  1.00  0.00     0.031 A 
ATOM     73  C   UNL A   1      39.195  29.329  28.229  1.00  0.00     0.131 A 
ATOM     74  C   UNL A   1      38.466  29.139  30.888  1.00  0.00     0.055 A 
ATOM     75  C   UNL A   1      37.855  29.477  28.588  1.00  0.00     0.041 A 
ATOM     76  F   UNL A   1      39.506  29.411  26.926  1.00  0.00    -0.206 F 
ATOM     77  C   UNL A   1      37.483  29.370  29.924  1.00  0.00     0.022 A 
BRANCH  74  78
ATOM     78  S   UNL A   1      37.996  28.876  32.620  1.00  0.00     0.124 S 
ATOM     79  O   UNL A   1      39.001  29.664  33.324  1.00  0.00    -0.237 OA
ATOM     80  O   UNL A   1      36.634  29.400  32.646  1.00  0.00    -0.237 OA
ATOM     81  O   UNL A   1      38.107  27.428  32.786  1.00  0.00    -0.744 OA
ENDBRANCH  74  78
ENDBRANCH  47  71
BRANCH  59  82
ATOM     82  C   UNL A   1      45.756  33.312  29.120  1.00  0.00     0.023 A 
ATOM     83  C   UNL A   1      45.327  34.323  28.241  1.00  0.00     0.031 A 
ATOM     84  C   UNL A   1      46.387  33.702  30.315  1.00  0.00     0.131 A 
ATOM     85  C   UNL A   1      45.606  35.669  28.530  1.00  0.00     0.055 A 
ATOM     86  C   UNL A   1      46.599  35.044  30.630  1.00  0.00     0.041 A 
ATOM     87  F   UNL A   1      46.820  32.781  31.191  1.00  0.00    -0.206 F 
ATOM     88  C   UNL A   1      46.226  36.036  29.727  1.00  0.00     0.022 A 
BRANCH  85  89
ATOM     89  S   UNL A   1      45.263  36.918  27.262  1.00  0.00     0.124 S 
ATOM     90  O   UNL A   1      46.496  36.904  26.481  1.00  0.00    -0.237 OA
ATOM     91  O   UNL A   1      44.083  36.374  26.598  1.00  0.00    -0.237 OA
ATOM     92  O   UNL A   1      45.033  38.137  28.035  1.00  0.00    -0.744 OA
ENDBRANCH  85  89
ENDBRANCH  59  82
ENDBRANCH  33  34
ENDBRANCH  25  28
ENDBRANCH  23  24
ENDBRANCH  22  23
ENDBRANCH  21  22
ENDBRANCH   1  21
TORSDOF 19
ENDMDL
MODEL 3
REMARK VINA RESULT:      -9.7      2.762      8.408
REMARK SMILES CC(C)(C[S@](=O)c1cccc(Cl)c1)C(=O)NCCCCCCNC(=O)c1ccc(-c2c3nc(c(-c4cc(S(=O)(=O)[O-])ccc4F)c4ccc([nH]4)c(-c4cc(S(=O)(=O)[O-])ccc4F)c4nc(c(-c5cc(S(=O)(=O)[O-])ccc5F)c5ccc2[nH]5)C=C4)C=C3)cc1
REMARK SMILES IDX 19 1 18 2 17 3 16 4 14 5 15 6 2 8 1 9 3 10 4 11 5 12 6 13
REMARK SMILES IDX 7 14 8 15 13 16 9 17 11 18 10 19 12 20 20 21 21 22 22 23
REMARK SMILES IDX 23 24 24 25 25 27 26 28 27 29 88 30 28 31 87 32 29 33 30 34
REMARK SMILES IDX 31 35 81 36 32 37 86 38 80 39 82 40 33 41 85 42 79 43 78 44
REMARK SMILES IDX 34 46 66 47 46 48 65 49 47 50 50 51 64 52 83 53 48 54 49 55
REMARK SMILES IDX 63 57 84 58 51 59 35 60 36 61 44 62 37 63 43 64 45 65 42 66
REMARK SMILES IDX 38 67 39 68 40 69 41 70 67 71 68 72 76 73 69 74 75 75 77 76
REMARK SMILES IDX 74 77 70 78 71 79 72 80 73 81 52 82 53 83 61 84 54 85 60 86
REMARK SMILES IDX 62 87 59 88 55 89 56 90 57 91 58 92
REMARK H PARENT 16 7 23 26 82 45 50 56
REMARK Flexibility Score: inf
ROOT
ATOM      1  C   UNL A   1      39.685  24.111  26.558  1.00  0.00     0.002 C 
ENDROOT
BRANCH   1   2
ATOM      2  C   UNL A   1      38.154  24.070  26.550  1.00  0.00     0.021 C 
BRANCH   2   3
ATOM      3  C   UNL A   1      37.542  22.780  26.011  1.00  0.00     0.116 C 
BRANCH   3   4
ATOM      4  N   UNL A   1      37.398  22.788  24.570  1.00  0.00    -0.356 N 
ATOM      5  C   UNL A   1      36.322  22.677  23.749  1.00  0.00     0.226 C 
ATOM      6  O   UNL A   1      36.534  22.865  22.545  1.00  0.00    -0.274 OA
ATOM      7  H   UNL A   1      38.251  22.894  24.090  1.00  0.00     0.163 HD
BRANCH   5   8
ATOM      8  C   UNL A   1      34.895  22.401  24.267  1.00  0.00     0.055 C 
ATOM      9  C   UNL A   1      33.882  22.900  23.206  1.00  0.00     0.022 C 
ATOM     10  C   UNL A   1      34.629  23.293  25.504  1.00  0.00     0.022 C 
BRANCH   8  11
ATOM     11  C   UNL A   1      34.609  20.925  24.625  1.00  0.00     0.126 C 
BRANCH  11  12
ATOM     12  S   UNL A   1      32.998  20.193  24.181  1.00  0.00     0.054 S 
ATOM     13  O   UNL A   1      31.923  20.724  25.075  1.00  0.00    -0.254 OA
BRANCH  12  14
ATOM     14  C   UNL A   1      33.278  18.485  24.666  1.00  0.00     0.040 A 
ATOM     15  C   UNL A   1      32.191  17.606  24.749  1.00  0.00     0.018 A 
ATOM     16  C   UNL A   1      34.561  18.027  24.981  1.00  0.00     0.038 A 
ATOM     17  C   UNL A   1      32.394  16.267  25.087  1.00  0.00     0.003 A 
ATOM     18  C   UNL A   1      34.762  16.684  25.285  1.00  0.00     0.042 A 
ATOM     19  C   UNL A   1      33.685  15.801  25.337  1.00  0.00     0.020 A 
ATOM     20  Cl  UNL A   1      36.356  16.099  25.567  1.00  0.00    -0.084 Cl
ENDBRANCH  12  14
ENDBRANCH  11  12
ENDBRANCH   8  11
ENDBRANCH   5   8
ENDBRANCH   3   4
ENDBRANCH   2   3
ENDBRANCH   1   2
BRANCH   1  21
ATOM     21  C   UNL A   1      40.381  22.900  27.188  1.00  0.00     0.002 C 
BRANCH  21  22
ATOM     22  C   UNL A   1      40.842  21.811  26.214  1.00  0.00     0.021 C 
BRANCH  22  23
ATOM     23  C   UNL A   1      42.198  21.181  26.524  1.00  0.00     0.116 C 
BRANCH  23  24
ATOM     24  N   UNL A   1      43.086  21.182  25.375  1.00  0.00    -0.352 N 
ATOM     25  C   UNL A   1      43.830  22.201  24.839  1.00  0.00     0.251 C 
ATOM     26  H   UNL A   1      43.165  20.319  24.909  1.00  0.00     0.163 HD
ATOM     27  O   UNL A   1      44.384  22.029  23.752  1.00  0.00    -0.269 OA
BRANCH  25  28
ATOM     28  C   UNL A   1      43.956  23.504  25.532  1.00  0.00     0.039 A 
ATOM     29  C   UNL A   1      43.586  24.663  24.843  1.00  0.00     0.014 A 
ATOM     30  C   UNL A   1      44.460  23.601  26.833  1.00  0.00     0.014 A 
ATOM     31  C   UNL A   1      43.670  25.906  25.474  1.00  0.00     0.010 A 
ATOM     32  C   UNL A   1      44.481  24.836  27.485  1.00  0.00     0.010 A 
ATOM     33  C   UNL A   1      44.087  26.002  26.812  1.00  0.00    -0.014 A 
BRANCH  33  34
ATOM     34  C   UNL A   1      44.091  27.318  27.509  1.00  0.00     0.031 A 
ATOM     35  C   UNL A   1      45.366  28.100  27.669  1.00  0.00     0.074 A 
ATOM     36  C   UNL A   1      42.940  27.791  28.027  1.00  0.00     0.049 A 
ATOM     37  N   UNL A   1      45.557  29.262  28.241  1.00  0.00    -0.248 NA
ATOM     38  C   UNL A   1      46.591  27.484  27.140  1.00  0.00     0.031 C 
ATOM     39  C   UNL A   1      41.650  27.097  27.986  1.00  0.00     0.029 A 
ATOM     40  N   UNL A   1      42.664  28.960  28.690  1.00  0.00    -0.354 N 
ATOM     41  C   UNL A   1      46.922  29.515  28.146  1.00  0.00     0.074 A 
ATOM     42  C   UNL A   1      47.516  28.355  27.515  1.00  0.00     0.031 C 
ATOM     43  C   UNL A   1      40.716  27.868  28.566  1.00  0.00     0.029 A 
ATOM     44  C   UNL A   1      41.344  29.092  29.054  1.00  0.00     0.049 A 
ATOM     45  H   UNL A   1      43.348  29.642  28.885  1.00  0.00     0.167 HD
ATOM     46  C   UNL A   1      47.611  30.621  28.530  1.00  0.00     0.034 A 
ATOM     47  C   UNL A   1      40.709  30.084  29.708  1.00  0.00     0.034 A 
ATOM     48  C   UNL A   1      47.002  31.772  29.153  1.00  0.00     0.049 A 
ATOM     49  C   UNL A   1      41.495  31.302  30.119  1.00  0.00     0.074 A 
ATOM     50  C   UNL A   1      47.594  32.967  29.525  1.00  0.00     0.029 A 
ATOM     51  N   UNL A   1      45.661  31.873  29.504  1.00  0.00    -0.354 N 
ATOM     52  N   UNL A   1      42.774  31.554  29.961  1.00  0.00    -0.248 NA
ATOM     53  C   UNL A   1      40.745  32.376  30.781  1.00  0.00     0.031 C 
ATOM     54  C   UNL A   1      46.631  33.759  30.162  1.00  0.00     0.029 A 
ATOM     55  C   UNL A   1      45.416  33.093  30.120  1.00  0.00     0.049 A 
ATOM     56  H   UNL A   1      44.983  31.179  29.342  1.00  0.00     0.167 HD
ATOM     57  C   UNL A   1      42.977  32.827  30.487  1.00  0.00     0.074 A 
ATOM     58  C   UNL A   1      41.682  33.299  30.935  1.00  0.00     0.031 C 
ATOM     59  C   UNL A   1      44.126  33.542  30.591  1.00  0.00     0.034 A 
BRANCH  46  60
ATOM     60  C   UNL A   1      49.107  30.621  28.306  1.00  0.00     0.023 A 
ATOM     61  C   UNL A   1      49.688  31.244  27.187  1.00  0.00     0.031 A 
ATOM     62  C   UNL A   1      49.962  29.973  29.214  1.00  0.00     0.131 A 
ATOM     63  C   UNL A   1      51.071  31.142  26.967  1.00  0.00     0.055 A 
ATOM     64  C   UNL A   1      51.347  29.944  29.032  1.00  0.00     0.041 A 
ATOM     65  F   UNL A   1      49.466  29.343  30.291  1.00  0.00    -0.206 F 
ATOM     66  C   UNL A   1      51.908  30.518  27.894  1.00  0.00     0.022 A 
BRANCH  63  67
ATOM     67  S   UNL A   1      51.740  31.714  25.381  1.00  0.00     0.124 S 
ATOM     68  O   UNL A   1      50.805  32.782  25.034  1.00  0.00    -0.237 OA
ATOM     69  O   UNL A   1      53.088  32.137  25.741  1.00  0.00    -0.237 OA
ATOM     70  O   UNL A   1      51.664  30.528  24.529  1.00  0.00    -0.744 OA
ENDBRANCH  63  67
ENDBRANCH  46  60
BRANCH  47  71
ATOM     71  C   UNL A   1      39.255  29.975  30.017  1.00  0.00     0.023 A 
ATOM     72  C   UNL A   1      38.294  30.633  29.233  1.00  0.00     0.031 A 
ATOM     73  C   UNL A   1      38.807  29.241  31.131  1.00  0.00     0.131 A 
ATOM     74  C   UNL A   1      36.940  30.586  29.600  1.00  0.00     0.055 A 
ATOM     75  C   UNL A   1      37.454  29.155  31.462  1.00  0.00     0.041 A 
ATOM     76  F   UNL A   1      39.684  28.588  31.910  1.00  0.00    -0.206 F 
ATOM     77  C   UNL A   1      36.513  29.841  30.701  1.00  0.00     0.022 A 
BRANCH  74  78
ATOM     78  S   UNL A   1      35.751  31.585  28.663  1.00  0.00     0.124 S 
ATOM     79  O   UNL A   1      34.835  32.019  29.712  1.00  0.00    -0.237 OA
ATOM     80  O   UNL A   1      36.610  32.619  28.092  1.00  0.00    -0.237 OA
ATOM     81  O   UNL A   1      35.196  30.638  27.699  1.00  0.00    -0.744 OA
ENDBRANCH  74  78
ENDBRANCH  47  71
BRANCH  59  82
ATOM     82  C   UNL A   1      44.014  34.919  31.199  1.00  0.00     0.023 A 
ATOM     83  C   UNL A   1      43.814  36.061  30.402  1.00  0.00     0.031 A 
ATOM     84  C   UNL A   1      44.158  35.101  32.586  1.00  0.00     0.131 A 
ATOM     85  C   UNL A   1      43.844  37.338  30.985  1.00  0.00     0.055 A 
ATOM     86  C   UNL A   1      44.117  36.368  33.169  1.00  0.00     0.041 A 
ATOM     87  F   UNL A   1      44.354  34.049  33.396  1.00  0.00    -0.206 F 
ATOM     88  C   UNL A   1      43.980  37.497  32.367  1.00  0.00     0.022 A 
BRANCH  85  89
ATOM     89  S   UNL A   1      43.834  38.790  29.899  1.00  0.00     0.124 S 
ATOM     90  O   UNL A   1      45.244  38.909  29.539  1.00  0.00    -0.237 OA
ATOM     91  O   UNL A   1      42.937  38.370  28.827  1.00  0.00    -0.237 OA
ATOM     92  O   UNL A   1      43.321  39.856  30.756  1.00  0.00    -0.744 OA
ENDBRANCH  85  89
ENDBRANCH  59  82
ENDBRANCH  33  34
ENDBRANCH  25  28
ENDBRANCH  23  24
ENDBRANCH  22  23
ENDBRANCH  21  22
ENDBRANCH   1  21
TORSDOF 19
ENDMDL
