MODEL 1
REMARK VINA RESULT:     -10.8      0.000      0.000
REMARK SMILES CC[C@H](NS(=O)(=O)c1cccc(C(F)(F)F)c1)C(=O)NCCCCCCNC(=O)c1ccc(-c2c3nc(c(-c4cc(S(=O)(=O)[O-])ccc4F)c4ccc([nH]4)c(-c4cc(S(=O)(=O)[O-])ccc4F)c4nc(c(-c5cc(S(=O)(=O)[O-])ccc5F)c5ccc2[nH]5)C=C4)C=C3)cc1
REMARK SMILES IDX 23 1 22 2 21 3 20 4 18 5 19 6 3 8 2 9 1 10 4 11 5 13 6 14
REMARK SMILES IDX 7 15 8 16 9 17 17 18 10 19 12 20 11 21 13 22 14 23 15 24
REMARK SMILES IDX 16 25 24 26 25 27 26 28 27 29 28 30 29 32 30 33 31 34 92 35
REMARK SMILES IDX 32 36 91 37 33 38 34 39 35 40 85 41 36 42 90 43 84 44 86 45
REMARK SMILES IDX 37 46 89 47 83 48 82 49 38 51 70 52 50 53 69 54 51 55 54 56
REMARK SMILES IDX 68 57 87 58 52 59 53 60 67 62 88 63 55 64 39 65 40 66 48 67
REMARK SMILES IDX 41 68 47 69 49 70 46 71 42 72 43 73 44 74 45 75 71 76 72 77
REMARK SMILES IDX 80 78 73 79 79 80 81 81 78 82 74 83 75 84 76 85 77 86 56 87
REMARK SMILES IDX 57 88 65 89 58 90 64 91 66 92 63 93 59 94 60 95 61 96 62 97
REMARK H PARENT 20 7 4 12 27 31 86 50 54 61
REMARK Flexibility Score: inf
ROOT
ATOM      1  C   UNL A   1      35.769  22.998  23.091  1.00  0.00     0.002 C 
ENDROOT
BRANCH   1   2
ATOM      2  C   UNL A   1      34.277  23.370  23.010  1.00  0.00     0.021 C 
BRANCH   2   3
ATOM      3  C   UNL A   1      33.544  24.711  23.299  1.00  0.00     0.116 C 
BRANCH   3   4
ATOM      4  N   UNL A   1      33.991  25.687  24.266  1.00  0.00    -0.355 N 
ATOM      5  C   UNL A   1      33.356  26.349  25.288  1.00  0.00     0.238 C 
ATOM      6  O   UNL A   1      34.075  26.974  26.077  1.00  0.00    -0.273 OA
ATOM      7  H   UNL A   1      34.941  25.926  24.173  1.00  0.00     0.163 HD
BRANCH   5   8
ATOM      8  C   UNL A   1      31.830  26.447  25.437  1.00  0.00     0.158 C 
BRANCH   8   9
ATOM      9  C   UNL A   1      31.370  27.916  25.448  1.00  0.00     0.027 C 
ATOM     10  C   UNL A   1      31.339  28.688  24.138  1.00  0.00     0.006 C 
ENDBRANCH   8   9
BRANCH   8  11
ATOM     11  N   UNL A   1      31.243  25.588  26.500  1.00  0.00    -0.199 NA
ATOM     12  H   UNL A   1      30.409  26.071  26.837  1.00  0.00     0.142 HD
BRANCH  11  13
ATOM     13  S   UNL A   1      30.777  23.983  26.165  1.00  0.00     0.241 S 
ATOM     14  O   UNL A   1      29.916  23.611  27.268  1.00  0.00    -0.207 OA
ATOM     15  O   UNL A   1      30.304  23.942  24.800  1.00  0.00    -0.207 OA
BRANCH  13  16
ATOM     16  C   UNL A   1      32.215  22.936  26.266  1.00  0.00     0.083 A 
ATOM     17  C   UNL A   1      33.204  23.155  27.217  1.00  0.00     0.022 A 
ATOM     18  C   UNL A   1      32.314  21.810  25.469  1.00  0.00     0.034 A 
ATOM     19  C   UNL A   1      34.244  22.221  27.352  1.00  0.00     0.002 A 
ATOM     20  C   UNL A   1      33.230  20.782  25.690  1.00  0.00     0.057 A 
ATOM     21  C   UNL A   1      34.237  21.026  26.617  1.00  0.00     0.013 A 
BRANCH  20  22
ATOM     22  C   UNL A   1      33.052  19.422  25.045  1.00  0.00     0.416 C 
ATOM     23  F   UNL A   1      32.195  19.400  23.984  1.00  0.00    -0.166 F 
ATOM     24  F   UNL A   1      34.221  18.900  24.581  1.00  0.00    -0.166 F 
ATOM     25  F   UNL A   1      32.554  18.506  25.917  1.00  0.00    -0.166 F 
ENDBRANCH  20  22
ENDBRANCH  13  16
ENDBRANCH  11  13
ENDBRANCH   8  11
ENDBRANCH   5   8
ENDBRANCH   3   4
ENDBRANCH   2   3
ENDBRANCH   1   2
BRANCH   1  26
ATOM     26  C   UNL A   1      36.529  22.887  24.417  1.00  0.00     0.002 C 
BRANCH  26  27
ATOM     27  C   UNL A   1      37.317  21.611  24.678  1.00  0.00     0.021 C 
BRANCH  27  28
ATOM     28  C   UNL A   1      38.019  21.600  26.024  1.00  0.00     0.116 C 
BRANCH  28  29
ATOM     29  N   UNL A   1      39.125  20.648  26.095  1.00  0.00    -0.352 N 
ATOM     30  C   UNL A   1      40.414  20.928  26.499  1.00  0.00     0.251 C 
ATOM     31  H   UNL A   1      38.932  19.719  25.830  1.00  0.00     0.163 HD
ATOM     32  O   UNL A   1      41.312  20.099  26.418  1.00  0.00    -0.269 OA
BRANCH  30  33
ATOM     33  C   UNL A   1      40.670  22.290  27.002  1.00  0.00     0.039 A 
ATOM     34  C   UNL A   1      41.466  22.472  28.133  1.00  0.00     0.014 A 
ATOM     35  C   UNL A   1      40.256  23.375  26.225  1.00  0.00     0.014 A 
ATOM     36  C   UNL A   1      41.898  23.759  28.457  1.00  0.00     0.010 A 
ATOM     37  C   UNL A   1      40.766  24.635  26.495  1.00  0.00     0.010 A 
ATOM     38  C   UNL A   1      41.571  24.842  27.625  1.00  0.00    -0.014 A 
BRANCH  38  39
ATOM     39  C   UNL A   1      41.981  26.226  27.965  1.00  0.00     0.031 A 
ATOM     40  C   UNL A   1      43.367  26.676  27.592  1.00  0.00     0.074 A 
ATOM     41  C   UNL A   1      41.142  27.037  28.638  1.00  0.00     0.049 A 
ATOM     42  N   UNL A   1      43.970  27.807  27.848  1.00  0.00    -0.248 NA
ATOM     43  C   UNL A   1      44.203  25.699  26.875  1.00  0.00     0.031 C 
ATOM     44  C   UNL A   1      39.794  26.681  29.089  1.00  0.00     0.029 A 
ATOM     45  N   UNL A   1      41.298  28.333  29.058  1.00  0.00    -0.354 N 
ATOM     46  C   UNL A   1      45.256  27.666  27.337  1.00  0.00     0.074 A 
ATOM     47  C   UNL A   1      45.373  26.313  26.847  1.00  0.00     0.031 C 
ATOM     48  C   UNL A   1      39.235  27.746  29.687  1.00  0.00     0.029 A 
ATOM     49  C   UNL A   1      40.192  28.848  29.695  1.00  0.00     0.049 A 
ATOM     50  H   UNL A   1      42.125  28.848  28.919  1.00  0.00     0.167 HD
ATOM     51  C   UNL A   1      46.237  28.597  27.246  1.00  0.00     0.034 A 
ATOM     52  C   UNL A   1      39.980  30.073  30.215  1.00  0.00     0.034 A 
ATOM     53  C   UNL A   1      46.082  29.949  27.716  1.00  0.00     0.049 A 
ATOM     54  C   UNL A   1      41.086  31.096  30.105  1.00  0.00     0.074 A 
ATOM     55  C   UNL A   1      46.979  30.998  27.647  1.00  0.00     0.029 A 
ATOM     56  N   UNL A   1      44.941  30.439  28.342  1.00  0.00    -0.354 N 
ATOM     57  N   UNL A   1      42.284  30.964  29.579  1.00  0.00    -0.248 NA
ATOM     58  C   UNL A   1      40.807  32.433  30.641  1.00  0.00     0.031 C 
ATOM     59  C   UNL A   1      46.405  32.105  28.281  1.00  0.00     0.029 A 
ATOM     60  C   UNL A   1      45.120  31.770  28.681  1.00  0.00     0.049 A 
ATOM     61  H   UNL A   1      44.126  29.917  28.519  1.00  0.00     0.167 HD
ATOM     62  C   UNL A   1      42.888  32.213  29.694  1.00  0.00     0.074 A 
ATOM     63  C   UNL A   1      41.916  33.085  30.323  1.00  0.00     0.031 C 
ATOM     64  C   UNL A   1      44.130  32.610  29.313  1.00  0.00     0.034 A 
BRANCH  51  65
ATOM     65  C   UNL A   1      47.546  28.163  26.630  1.00  0.00     0.023 A 
ATOM     66  C   UNL A   1      47.720  28.106  25.236  1.00  0.00     0.031 A 
ATOM     67  C   UNL A   1      48.613  27.741  27.441  1.00  0.00     0.131 A 
ATOM     68  C   UNL A   1      48.889  27.550  24.695  1.00  0.00     0.055 A 
ATOM     69  C   UNL A   1      49.812  27.275  26.896  1.00  0.00     0.041 A 
ATOM     70  F   UNL A   1      48.501  27.749  28.779  1.00  0.00    -0.206 F 
ATOM     71  C   UNL A   1      49.948  27.160  25.515  1.00  0.00     0.022 A 
BRANCH  68  72
ATOM     72  S   UNL A   1      48.937  27.197  22.916  1.00  0.00     0.124 S 
ATOM     73  O   UNL A   1      48.312  25.876  22.864  1.00  0.00    -0.237 OA
ATOM     74  O   UNL A   1      48.158  28.295  22.354  1.00  0.00    -0.237 OA
ATOM     75  O   UNL A   1      50.363  27.217  22.601  1.00  0.00    -0.744 OA
ENDBRANCH  68  72
ENDBRANCH  51  65
BRANCH  52  76
ATOM     76  C   UNL A   1      38.680  30.415  30.863  1.00  0.00     0.023 A 
ATOM     77  C   UNL A   1      37.663  31.061  30.143  1.00  0.00     0.031 A 
ATOM     78  C   UNL A   1      38.448  30.134  32.221  1.00  0.00     0.131 A 
ATOM     79  C   UNL A   1      36.479  31.447  30.793  1.00  0.00     0.055 A 
ATOM     80  C   UNL A   1      37.249  30.475  32.852  1.00  0.00     0.041 A 
ATOM     81  F   UNL A   1      39.383  29.511  32.956  1.00  0.00    -0.206 F 
ATOM     82  C   UNL A   1      36.260  31.148  32.140  1.00  0.00     0.022 A 
BRANCH  79  83
ATOM     83  S   UNL A   1      35.259  32.423  29.871  1.00  0.00     0.124 S 
ATOM     84  O   UNL A   1      36.040  33.598  29.497  1.00  0.00    -0.237 OA
ATOM     85  O   UNL A   1      34.903  31.516  28.786  1.00  0.00    -0.237 OA
ATOM     86  O   UNL A   1      34.203  32.662  30.852  1.00  0.00    -0.744 OA
ENDBRANCH  79  83
ENDBRANCH  52  76
BRANCH  64  87
ATOM     87  C   UNL A   1      44.479  34.060  29.533  1.00  0.00     0.023 A 
ATOM     88  C   UNL A   1      44.047  35.062  28.650  1.00  0.00     0.031 A 
ATOM     89  C   UNL A   1      45.252  34.438  30.645  1.00  0.00     0.131 A 
ATOM     90  C   UNL A   1      44.438  36.392  28.863  1.00  0.00     0.055 A 
ATOM     91  C   UNL A   1      45.585  35.770  30.886  1.00  0.00     0.041 A 
ATOM     92  F   UNL A   1      45.689  33.518  31.519  1.00  0.00    -0.206 F 
ATOM     93  C   UNL A   1      45.189  36.755  29.984  1.00  0.00     0.022 A 
BRANCH  90  94
ATOM     94  S   UNL A   1      44.026  37.629  27.603  1.00  0.00     0.124 S 
ATOM     95  O   UNL A   1      43.435  38.694  28.406  1.00  0.00    -0.237 OA
ATOM     96  O   UNL A   1      45.328  37.922  27.014  1.00  0.00    -0.237 OA
ATOM     97  O   UNL A   1      43.093  36.925  26.725  1.00  0.00    -0.744 OA
ENDBRANCH  90  94
ENDBRANCH  64  87
ENDBRANCH  38  39
ENDBRANCH  30  33
ENDBRANCH  28  29
ENDBRANCH  27  28
ENDBRANCH  26  27
ENDBRANCH   1  26
TORSDOF 21
ENDMDL
MODEL 2
REMARK VINA RESULT:     -10.6      4.831      9.517
REMARK SMILES CC[C@H](NS(=O)(=O)c1cccc(C(F)(F)F)c1)C(=O)NCCCCCCNC(=O)c1ccc(-c2c3nc(c(-c4cc(S(=O)(=O)[O-])ccc4F)c4ccc([nH]4)c(-c4cc(S(=O)(=O)[O-])ccc4F)c4nc(c(-c5cc(S(=O)(=O)[O-])ccc5F)c5ccc2[nH]5)C=C4)C=C3)cc1
REMARK SMILES IDX 23 1 22 2 21 3 20 4 18 5 19 6 3 8 2 9 1 10 4 11 5 13 6 14
REMARK SMILES IDX 7 15 8 16 9 17 17 18 10 19 12 20 11 21 13 22 14 23 15 24
REMARK SMILES IDX 16 25 24 26 25 27 26 28 27 29 28 30 29 32 30 33 31 34 92 35
REMARK SMILES IDX 32 36 91 37 33 38 34 39 35 40 85 41 36 42 90 43 84 44 86 45
REMARK SMILES IDX 37 46 89 47 83 48 82 49 38 51 70 52 50 53 69 54 51 55 54 56
REMARK SMILES IDX 68 57 87 58 52 59 53 60 67 62 88 63 55 64 39 65 40 66 48 67
REMARK SMILES IDX 41 68 47 69 49 70 46 71 42 72 43 73 44 74 45 75 71 76 72 77
REMARK SMILES IDX 80 78 73 79 79 80 81 81 78 82 74 83 75 84 76 85 77 86 56 87
REMARK SMILES IDX 57 88 65 89 58 90 64 91 66 92 63 93 59 94 60 95 61 96 62 97
REMARK H PARENT 20 7 4 12 27 31 86 50 54 61
REMARK Flexibility Score: inf
ROOT
ATOM      1  C   UNL A   1      31.305  28.257  25.836  1.00  0.00     0.002 C 
ENDROOT
BRANCH   1   2
ATOM      2  C   UNL A   1      30.962  29.210  24.677  1.00  0.00     0.021 C 
BRANCH   2   3
ATOM      3  C   UNL A   1      31.359  29.172  23.173  1.00  0.00     0.116 C 
BRANCH   3   4
ATOM      4  N   UNL A   1      32.722  29.106  22.696  1.00  0.00    -0.355 N 
ATOM      5  C   UNL A   1      33.620  28.075  22.570  1.00  0.00     0.238 C 
ATOM      6  O   UNL A   1      34.649  28.310  21.925  1.00  0.00    -0.273 OA
ATOM      7  H   UNL A   1      33.078  29.976  22.403  1.00  0.00     0.163 HD
BRANCH   5   8
ATOM      8  C   UNL A   1      33.472  26.712  23.263  1.00  0.00     0.158 C 
BRANCH   8   9
ATOM      9  C   UNL A   1      34.041  26.756  24.693  1.00  0.00     0.027 C 
ATOM     10  C   UNL A   1      34.360  25.448  25.400  1.00  0.00     0.006 C 
ENDBRANCH   8   9
BRANCH   8  11
ATOM     11  N   UNL A   1      33.890  25.541  22.448  1.00  0.00    -0.199 NA
ATOM     12  H   UNL A   1      34.499  24.975  23.041  1.00  0.00     0.142 HD
BRANCH  11  13
ATOM     13  S   UNL A   1      32.729  24.480  21.788  1.00  0.00     0.241 S 
ATOM     14  O   UNL A   1      31.571  25.311  21.537  1.00  0.00    -0.207 OA
ATOM     15  O   UNL A   1      33.368  23.744  20.721  1.00  0.00    -0.207 OA
BRANCH  13  16
ATOM     16  C   UNL A   1      32.252  23.304  23.039  1.00  0.00     0.083 A 
ATOM     17  C   UNL A   1      32.775  22.017  23.058  1.00  0.00     0.022 A 
ATOM     18  C   UNL A   1      31.437  23.694  24.086  1.00  0.00     0.034 A 
ATOM     19  C   UNL A   1      32.481  21.175  24.143  1.00  0.00     0.002 A 
ATOM     20  C   UNL A   1      31.266  22.950  25.253  1.00  0.00     0.057 A 
ATOM     21  C   UNL A   1      31.760  21.650  25.249  1.00  0.00     0.013 A 
BRANCH  20  22
ATOM     22  C   UNL A   1      30.686  23.578  26.505  1.00  0.00     0.416 C 
ATOM     23  F   UNL A   1      29.574  22.960  26.994  1.00  0.00    -0.166 F 
ATOM     24  F   UNL A   1      31.572  23.609  27.539  1.00  0.00    -0.166 F 
ATOM     25  F   UNL A   1      30.308  24.868  26.298  1.00  0.00    -0.166 F 
ENDBRANCH  20  22
ENDBRANCH  13  16
ENDBRANCH  11  13
ENDBRANCH   8  11
ENDBRANCH   5   8
ENDBRANCH   3   4
ENDBRANCH   2   3
ENDBRANCH   1   2
BRANCH   1  26
ATOM     26  C   UNL A   1      31.773  28.749  27.209  1.00  0.00     0.002 C 
BRANCH  26  27
ATOM     27  C   UNL A   1      33.268  28.751  27.490  1.00  0.00     0.021 C 
BRANCH  27  28
ATOM     28  C   UNL A   1      33.985  29.971  26.939  1.00  0.00     0.116 C 
BRANCH  28  29
ATOM     29  N   UNL A   1      33.771  31.179  27.734  1.00  0.00    -0.352 N 
ATOM     30  C   UNL A   1      34.600  31.654  28.728  1.00  0.00     0.251 C 
ATOM     31  H   UNL A   1      32.959  31.701  27.541  1.00  0.00     0.163 HD
ATOM     32  O   UNL A   1      34.290  32.610  29.428  1.00  0.00    -0.269 OA
BRANCH  30  33
ATOM     33  C   UNL A   1      35.869  30.932  28.935  1.00  0.00     0.039 A 
ATOM     34  C   UNL A   1      37.055  31.454  28.416  1.00  0.00     0.014 A 
ATOM     35  C   UNL A   1      35.879  29.836  29.801  1.00  0.00     0.014 A 
ATOM     36  C   UNL A   1      38.271  30.899  28.816  1.00  0.00     0.010 A 
ATOM     37  C   UNL A   1      37.089  29.353  30.270  1.00  0.00     0.010 A 
ATOM     38  C   UNL A   1      38.295  29.863  29.765  1.00  0.00    -0.014 A 
BRANCH  38  39
ATOM     39  C   UNL A   1      39.569  29.227  30.179  1.00  0.00     0.031 A 
ATOM     40  C   UNL A   1      40.270  29.754  31.402  1.00  0.00     0.074 A 
ATOM     41  C   UNL A   1      40.103  28.234  29.444  1.00  0.00     0.049 A 
ATOM     42  N   UNL A   1      41.422  29.409  31.911  1.00  0.00    -0.248 NA
ATOM     43  C   UNL A   1      39.601  30.854  32.117  1.00  0.00     0.031 C 
ATOM     44  C   UNL A   1      39.527  27.682  28.215  1.00  0.00     0.029 A 
ATOM     45  N   UNL A   1      41.252  27.507  29.624  1.00  0.00    -0.354 N 
ATOM     46  C   UNL A   1      41.619  30.260  32.995  1.00  0.00     0.074 A 
ATOM     47  C   UNL A   1      40.518  31.195  33.006  1.00  0.00     0.031 C 
ATOM     48  C   UNL A   1      40.306  26.679  27.776  1.00  0.00     0.029 A 
ATOM     49  C   UNL A   1      41.453  26.538  28.668  1.00  0.00     0.049 A 
ATOM     50  H   UNL A   1      41.877  27.665  30.367  1.00  0.00     0.167 HD
ATOM     51  C   UNL A   1      42.608  30.235  33.921  1.00  0.00     0.034 A 
ATOM     52  C   UNL A   1      42.447  25.637  28.538  1.00  0.00     0.034 A 
ATOM     53  C   UNL A   1      43.677  29.272  33.902  1.00  0.00     0.049 A 
ATOM     54  C   UNL A   1      43.540  25.627  29.581  1.00  0.00     0.074 A 
ATOM     55  C   UNL A   1      44.715  29.112  34.801  1.00  0.00     0.029 A 
ATOM     56  N   UNL A   1      43.839  28.294  32.927  1.00  0.00    -0.354 N 
ATOM     57  N   UNL A   1      43.692  26.409  30.626  1.00  0.00    -0.248 NA
ATOM     58  C   UNL A   1      44.583  24.604  29.435  1.00  0.00     0.031 C 
ATOM     59  C   UNL A   1      45.535  28.076  34.340  1.00  0.00     0.029 A 
ATOM     60  C   UNL A   1      44.971  27.541  33.192  1.00  0.00     0.049 A 
ATOM     61  H   UNL A   1      43.238  28.158  32.159  1.00  0.00     0.167 HD
ATOM     62  C   UNL A   1      44.832  25.950  31.281  1.00  0.00     0.074 A 
ATOM     63  C   UNL A   1      45.316  24.815  30.519  1.00  0.00     0.031 C 
ATOM     64  C   UNL A   1      45.428  26.418  32.408  1.00  0.00     0.034 A 
BRANCH  51  65
ATOM     65  C   UNL A   1      42.566  31.288  35.004  1.00  0.00     0.023 A 
ATOM     66  C   UNL A   1      43.194  32.536  34.840  1.00  0.00     0.031 A 
ATOM     67  C   UNL A   1      41.949  31.022  36.237  1.00  0.00     0.131 A 
ATOM     68  C   UNL A   1      43.274  33.430  35.919  1.00  0.00     0.055 A 
ATOM     69  C   UNL A   1      41.951  31.954  37.277  1.00  0.00     0.041 A 
ATOM     70  F   UNL A   1      41.353  29.840  36.464  1.00  0.00    -0.206 F 
ATOM     71  C   UNL A   1      42.633  33.160  37.128  1.00  0.00     0.022 A 
BRANCH  68  72
ATOM     72  S   UNL A   1      44.363  34.873  35.768  1.00  0.00     0.124 S 
ATOM     73  O   UNL A   1      45.619  34.347  36.301  1.00  0.00    -0.237 OA
ATOM     74  O   UNL A   1      44.339  35.139  34.334  1.00  0.00    -0.237 OA
ATOM     75  O   UNL A   1      43.713  35.880  36.602  1.00  0.00    -0.744 OA
ENDBRANCH  68  72
ENDBRANCH  51  65
BRANCH  52  76
ATOM     76  C   UNL A   1      42.454  24.664  27.408  1.00  0.00     0.023 A 
ATOM     77  C   UNL A   1      41.647  23.516  27.438  1.00  0.00     0.031 A 
ATOM     78  C   UNL A   1      43.296  24.846  26.296  1.00  0.00     0.131 A 
ATOM     79  C   UNL A   1      41.730  22.571  26.402  1.00  0.00     0.055 A 
ATOM     80  C   UNL A   1      43.339  23.929  25.243  1.00  0.00     0.041 A 
ATOM     81  F   UNL A   1      44.085  25.929  26.211  1.00  0.00    -0.206 F 
ATOM     82  C   UNL A   1      42.562  22.775  25.299  1.00  0.00     0.022 A 
BRANCH  79  83
ATOM     83  S   UNL A   1      40.793  21.025  26.557  1.00  0.00     0.124 S 
ATOM     84  O   UNL A   1      40.805  20.814  28.001  1.00  0.00    -0.237 OA
ATOM     85  O   UNL A   1      39.508  21.391  25.972  1.00  0.00    -0.237 OA
ATOM     86  O   UNL A   1      41.580  20.071  25.779  1.00  0.00    -0.744 OA
ENDBRANCH  79  83
ENDBRANCH  52  76
BRANCH  64  87
ATOM     87  C   UNL A   1      46.639  25.668  32.899  1.00  0.00     0.023 A 
ATOM     88  C   UNL A   1      46.526  24.591  33.794  1.00  0.00     0.031 A 
ATOM     89  C   UNL A   1      47.923  26.037  32.460  1.00  0.00     0.131 A 
ATOM     90  C   UNL A   1      47.683  23.955  34.266  1.00  0.00     0.055 A 
ATOM     91  C   UNL A   1      49.065  25.360  32.885  1.00  0.00     0.041 A 
ATOM     92  F   UNL A   1      48.085  27.059  31.605  1.00  0.00    -0.206 F 
ATOM     93  C   UNL A   1      48.950  24.320  33.804  1.00  0.00     0.022 A 
BRANCH  90  94
ATOM     94  S   UNL A   1      47.513  22.700  35.563  1.00  0.00     0.124 S 
ATOM     95  O   UNL A   1      48.634  23.018  36.442  1.00  0.00    -0.237 OA
ATOM     96  O   UNL A   1      46.184  22.979  36.098  1.00  0.00    -0.237 OA
ATOM     97  O   UNL A   1      47.635  21.437  34.836  1.00  0.00    -0.744 OA
ENDBRANCH  90  94
ENDBRANCH  64  87
ENDBRANCH  38  39
ENDBRANCH  30  33
ENDBRANCH  28  29
ENDBRANCH  27  28
ENDBRANCH  26  27
ENDBRANCH   1  26
TORSDOF 21
ENDMDL
MODEL 3
REMARK VINA RESULT:     -10.6      1.904      2.220
REMARK SMILES CC[C@H](NS(=O)(=O)c1cccc(C(F)(F)F)c1)C(=O)NCCCCCCNC(=O)c1ccc(-c2c3nc(c(-c4cc(S(=O)(=O)[O-])ccc4F)c4ccc([nH]4)c(-c4cc(S(=O)(=O)[O-])ccc4F)c4nc(c(-c5cc(S(=O)(=O)[O-])ccc5F)c5ccc2[nH]5)C=C4)C=C3)cc1
REMARK SMILES IDX 23 1 22 2 21 3 20 4 18 5 19 6 3 8 2 9 1 10 4 11 5 13 6 14
REMARK SMILES IDX 7 15 8 16 9 17 17 18 10 19 12 20 11 21 13 22 14 23 15 24
REMARK SMILES IDX 16 25 24 26 25 27 26 28 27 29 28 30 29 32 30 33 31 34 92 35
REMARK SMILES IDX 32 36 91 37 33 38 34 39 35 40 85 41 36 42 90 43 84 44 86 45
REMARK SMILES IDX 37 46 89 47 83 48 82 49 38 51 70 52 50 53 69 54 51 55 54 56
REMARK SMILES IDX 68 57 87 58 52 59 53 60 67 62 88 63 55 64 39 65 40 66 48 67
REMARK SMILES IDX 41 68 47 69 49 70 46 71 42 72 43 73 44 74 45 75 71 76 72 77
REMARK SMILES IDX 80 78 73 79 79 80 81 81 78 82 74 83 75 84 76 85 77 86 56 87
REMARK SMILES IDX 57 88 65 89 58 90 64 91 66 92 63 93 59 94 60 95 61 96 62 97
REMARK H PARENT 20 7 4 12 27 31 86 50 54 61
REMARK Flexibility Score: inf
ROOT
ATOM      1  C   UNL A   1      35.741  23.455  23.269  1.00  0.00     0.002 C 
ENDROOT
BRANCH   1   2
ATOM      2  C   UNL A   1      34.260  23.847  23.118  1.00  0.00     0.021 C 
BRANCH   2   3
ATOM      3  C   UNL A   1      33.520  25.177  23.436  1.00  0.00     0.116 C 
BRANCH   3   4
ATOM      4  N   UNL A   1      33.980  26.150  24.402  1.00  0.00    -0.355 N 
ATOM      5  C   UNL A   1      33.396  26.717  25.508  1.00  0.00     0.238 C 
ATOM      6  O   UNL A   1      34.137  27.369  26.254  1.00  0.00    -0.273 OA
ATOM      7  H   UNL A   1      34.896  26.470  24.233  1.00  0.00     0.163 HD
BRANCH   5   8
ATOM      8  C   UNL A   1      31.889  26.683  25.802  1.00  0.00     0.158 C 
BRANCH   8   9
ATOM      9  C   UNL A   1      31.345  28.099  26.062  1.00  0.00     0.027 C 
ATOM     10  C   UNL A   1      31.654  28.775  27.389  1.00  0.00     0.006 C 
ENDBRANCH   8   9
BRANCH   8  11
ATOM     11  N   UNL A   1      31.460  25.647  26.778  1.00  0.00    -0.199 NA
ATOM     12  H   UNL A   1      30.699  26.056  27.322  1.00  0.00     0.142 HD
BRANCH  11  13
ATOM     13  S   UNL A   1      30.914  24.122  26.247  1.00  0.00     0.241 S 
ATOM     14  O   UNL A   1      29.959  23.701  27.250  1.00  0.00    -0.207 OA
ATOM     15  O   UNL A   1      30.531  24.255  24.859  1.00  0.00    -0.207 OA
BRANCH  13  16
ATOM     16  C   UNL A   1      32.271  22.970  26.320  1.00  0.00     0.083 A 
ATOM     17  C   UNL A   1      33.134  22.936  27.409  1.00  0.00     0.022 A 
ATOM     18  C   UNL A   1      32.419  22.006  25.339  1.00  0.00     0.034 A 
ATOM     19  C   UNL A   1      34.098  21.918  27.488  1.00  0.00     0.002 A 
ATOM     20  C   UNL A   1      33.246  20.890  25.469  1.00  0.00     0.057 A 
ATOM     21  C   UNL A   1      34.130  20.883  26.542  1.00  0.00     0.013 A 
BRANCH  20  22
ATOM     22  C   UNL A   1      33.088  19.688  24.558  1.00  0.00     0.416 C 
ATOM     23  F   UNL A   1      34.259  19.143  24.121  1.00  0.00    -0.166 F 
ATOM     24  F   UNL A   1      32.406  18.666  25.146  1.00  0.00    -0.166 F 
ATOM     25  F   UNL A   1      32.399  19.995  23.426  1.00  0.00    -0.166 F 
ENDBRANCH  20  22
ENDBRANCH  13  16
ENDBRANCH  11  13
ENDBRANCH   8  11
ENDBRANCH   5   8
ENDBRANCH   3   4
ENDBRANCH   2   3
ENDBRANCH   1   2
BRANCH   1  26
ATOM     26  C   UNL A   1      36.445  23.363  24.626  1.00  0.00     0.002 C 
BRANCH  26  27
ATOM     27  C   UNL A   1      37.213  22.088  24.942  1.00  0.00     0.021 C 
BRANCH  27  28
ATOM     28  C   UNL A   1      38.154  22.227  26.126  1.00  0.00     0.116 C 
BRANCH  28  29
ATOM     29  N   UNL A   1      39.407  21.493  25.962  1.00  0.00    -0.352 N 
ATOM     30  C   UNL A   1      40.673  21.980  26.214  1.00  0.00     0.251 C 
ATOM     31  H   UNL A   1      39.341  20.564  25.642  1.00  0.00     0.163 HD
ATOM     32  O   UNL A   1      41.679  21.339  25.939  1.00  0.00    -0.269 OA
BRANCH  30  33
ATOM     33  C   UNL A   1      40.758  23.330  26.800  1.00  0.00     0.039 A 
ATOM     34  C   UNL A   1      41.179  23.486  28.122  1.00  0.00     0.014 A 
ATOM     35  C   UNL A   1      40.591  24.433  25.959  1.00  0.00     0.014 A 
ATOM     36  C   UNL A   1      41.486  24.764  28.588  1.00  0.00     0.010 A 
ATOM     37  C   UNL A   1      40.990  25.686  26.396  1.00  0.00     0.010 A 
ATOM     38  C   UNL A   1      41.418  25.867  27.721  1.00  0.00    -0.014 A 
BRANCH  38  39
ATOM     39  C   UNL A   1      41.699  27.242  28.198  1.00  0.00     0.031 A 
ATOM     40  C   UNL A   1      43.126  27.718  28.212  1.00  0.00     0.074 A 
ATOM     41  C   UNL A   1      40.700  28.021  28.653  1.00  0.00     0.049 A 
ATOM     42  N   UNL A   1      43.621  28.845  28.650  1.00  0.00    -0.248 NA
ATOM     43  C   UNL A   1      44.138  26.774  27.708  1.00  0.00     0.031 C 
ATOM     44  C   UNL A   1      39.288  27.636  28.726  1.00  0.00     0.029 A 
ATOM     45  N   UNL A   1      40.717  29.304  29.139  1.00  0.00    -0.354 N 
ATOM     46  C   UNL A   1      44.999  28.735  28.488  1.00  0.00     0.074 A 
ATOM     47  C   UNL A   1      45.263  27.401  28.004  1.00  0.00     0.031 C 
ATOM     48  C   UNL A   1      38.573  28.675  29.190  1.00  0.00     0.029 A 
ATOM     49  C   UNL A   1      39.474  29.785  29.481  1.00  0.00     0.049 A 
ATOM     50  H   UNL A   1      41.543  29.831  29.236  1.00  0.00     0.167 HD
ATOM     51  C   UNL A   1      45.952  29.678  28.684  1.00  0.00     0.034 A 
ATOM     52  C   UNL A   1      39.112  30.990  29.965  1.00  0.00     0.034 A 
ATOM     53  C   UNL A   1      45.655  31.012  29.139  1.00  0.00     0.049 A 
ATOM     54  C   UNL A   1      40.190  32.026  30.178  1.00  0.00     0.074 A 
ATOM     55  C   UNL A   1      46.520  32.071  29.338  1.00  0.00     0.029 A 
ATOM     56  N   UNL A   1      44.382  31.469  29.460  1.00  0.00    -0.354 N 
ATOM     57  N   UNL A   1      41.485  31.924  29.979  1.00  0.00    -0.248 NA
ATOM     58  C   UNL A   1      39.756  33.342  30.664  1.00  0.00     0.031 C 
ATOM     59  C   UNL A   1      45.780  33.150  29.833  1.00  0.00     0.029 A 
ATOM     60  C   UNL A   1      44.442  32.789  29.875  1.00  0.00     0.049 A 
ATOM     61  H   UNL A   1      43.558  30.933  29.403  1.00  0.00     0.167 HD
ATOM     62  C   UNL A   1      42.015  33.175  30.285  1.00  0.00     0.074 A 
ATOM     63  C   UNL A   1      40.897  34.015  30.666  1.00  0.00     0.031 C 
ATOM     64  C   UNL A   1      43.306  33.597  30.253  1.00  0.00     0.034 A 
BRANCH  51  65
ATOM     65  C   UNL A   1      47.384  29.278  28.418  1.00  0.00     0.023 A 
ATOM     66  C   UNL A   1      47.844  29.019  27.114  1.00  0.00     0.031 A 
ATOM     67  C   UNL A   1      48.284  29.093  29.479  1.00  0.00     0.131 A 
ATOM     68  C   UNL A   1      49.132  28.498  26.914  1.00  0.00     0.055 A 
ATOM     69  C   UNL A   1      49.596  28.662  29.266  1.00  0.00     0.041 A 
ATOM     70  F   UNL A   1      47.899  29.301  30.749  1.00  0.00    -0.206 F 
ATOM     71  C   UNL A   1      50.021  28.344  27.978  1.00  0.00     0.022 A 
BRANCH  68  72
ATOM     72  S   UNL A   1      49.567  27.875  25.266  1.00  0.00     0.124 S 
ATOM     73  O   UNL A   1      49.908  26.485  25.561  1.00  0.00    -0.237 OA
ATOM     74  O   UNL A   1      48.335  28.085  24.514  1.00  0.00    -0.237 OA
ATOM     75  O   UNL A   1      50.693  28.715  24.869  1.00  0.00    -0.744 OA
ENDBRANCH  68  72
ENDBRANCH  51  65
BRANCH  52  76
ATOM     76  C   UNL A   1      37.682  31.296  30.263  1.00  0.00     0.023 A 
ATOM     77  C   UNL A   1      36.818  31.755  29.256  1.00  0.00     0.031 A 
ATOM     78  C   UNL A   1      37.166  31.170  31.565  1.00  0.00     0.131 A 
ATOM     79  C   UNL A   1      35.499  32.115  29.574  1.00  0.00     0.055 A 
ATOM     80  C   UNL A   1      35.839  31.482  31.867  1.00  0.00     0.041 A 
ATOM     81  F   UNL A   1      37.946  30.729  32.565  1.00  0.00    -0.206 F 
ATOM     82  C   UNL A   1      34.999  31.972  30.871  1.00  0.00     0.022 A 
BRANCH  79  83
ATOM     83  S   UNL A   1      34.464  32.857  28.281  1.00  0.00     0.124 S 
ATOM     84  O   UNL A   1      35.439  33.646  27.536  1.00  0.00    -0.237 OA
ATOM     85  O   UNL A   1      33.938  31.678  27.602  1.00  0.00    -0.237 OA
ATOM     86  O   UNL A   1      33.479  33.630  29.035  1.00  0.00    -0.744 OA
ENDBRANCH  79  83
ENDBRANCH  52  76
BRANCH  64  87
ATOM     87  C   UNL A   1      43.559  35.041  30.601  1.00  0.00     0.023 A 
ATOM     88  C   UNL A   1      43.549  35.491  31.931  1.00  0.00     0.031 A 
ATOM     89  C   UNL A   1      43.816  35.977  29.583  1.00  0.00     0.131 A 
ATOM     90  C   UNL A   1      43.736  36.853  32.206  1.00  0.00     0.055 A 
ATOM     91  C   UNL A   1      44.064  37.319  29.867  1.00  0.00     0.041 A 
ATOM     92  F   UNL A   1      43.838  35.597  28.295  1.00  0.00    -0.206 F 
ATOM     93  C   UNL A   1      44.012  37.767  31.184  1.00  0.00     0.022 A 
BRANCH  90  94
ATOM     94  S   UNL A   1      43.526  37.430  33.911  1.00  0.00     0.124 S 
ATOM     95  O   UNL A   1      44.892  37.369  34.422  1.00  0.00    -0.237 OA
ATOM     96  O   UNL A   1      42.975  38.768  33.724  1.00  0.00    -0.237 OA
ATOM     97  O   UNL A   1      42.604  36.455  34.491  1.00  0.00    -0.744 OA
ENDBRANCH  90  94
ENDBRANCH  64  87
ENDBRANCH  38  39
ENDBRANCH  30  33
ENDBRANCH  28  29
ENDBRANCH  27  28
ENDBRANCH  26  27
ENDBRANCH   1  26
TORSDOF 21
ENDMDL
