MODEL 1
REMARK VINA RESULT:     -10.4      0.000      0.000
REMARK SMILES [NH3+][C@@H](C(=O)NCCCCCCNC(=O)c1ccc(-c2c3nc(c(-c4cc(S(=O)(=O)[O-])ccc4F)c4ccc([nH]4)c(-c4cc(S(=O)(=O)[O-])ccc4F)c4nc(c(-c5cc(S(=O)(=O)[O-])ccc5F)c5ccc2[nH]5)C=C4)C=C3)cc1)C(C(F)(F)F)C(F)(F)F
REMARK SMILES IDX 9 1 8 2 7 3 6 4 5 5 3 6 4 7 2 9 1 10 78 14 79 15 80 16 81 17
REMARK SMILES IDX 82 18 83 19 84 20 85 21 86 22 10 23 11 24 12 25 13 26 14 28
REMARK SMILES IDX 15 29 16 30 77 31 17 32 76 33 18 34 19 35 20 36 70 37 21 38
REMARK SMILES IDX 75 39 69 40 71 41 22 42 74 43 68 44 67 45 23 47 55 48 35 49
REMARK SMILES IDX 54 50 36 51 39 52 53 53 72 54 37 55 38 56 52 58 73 59 40 60
REMARK SMILES IDX 24 61 25 62 33 63 26 64 32 65 34 66 31 67 27 68 28 69 29 70
REMARK SMILES IDX 30 71 56 72 57 73 65 74 58 75 64 76 66 77 63 78 59 79 60 80
REMARK SMILES IDX 61 81 62 82 41 83 42 84 50 85 43 86 49 87 51 88 48 89 44 90
REMARK SMILES IDX 45 91 46 92 47 93
REMARK H PARENT 5 8 1 11 1 12 1 13 12 27 71 46 39 57
REMARK Flexibility Score: inf
ROOT
ATOM      1  C   UNL A   1      34.720  22.455  23.831  1.00  0.00     0.002 C 
ENDROOT
BRANCH   1   2
ATOM      2  C   UNL A   1      33.957  23.293  22.801  1.00  0.00     0.002 C 
BRANCH   2   3
ATOM      3  C   UNL A   1      32.749  24.067  23.351  1.00  0.00     0.021 C 
BRANCH   3   4
ATOM      4  C   UNL A   1      32.759  25.563  23.022  1.00  0.00     0.116 C 
BRANCH   4   5
ATOM      5  N   UNL A   1      31.421  26.115  23.148  1.00  0.00    -0.351 N 
ATOM      6  C   UNL A   1      30.769  26.547  24.263  1.00  0.00     0.279 C 
ATOM      7  O   UNL A   1      29.541  26.634  24.236  1.00  0.00    -0.268 OA
ATOM      8  H   UNL A   1      30.913  26.188  22.308  1.00  0.00     0.163 HD
BRANCH   6   9
ATOM      9  C   UNL A   1      31.570  26.843  25.548  1.00  0.00     0.292 C 
BRANCH   9  10
ATOM     10  N   UNL A   1      30.894  26.131  26.652  1.00  0.00    -0.346 N 
ATOM     11  H   UNL A   1      29.883  26.234  26.555  1.00  0.00     0.345 HD
ATOM     12  H   UNL A   1      31.190  26.527  27.545  1.00  0.00     0.345 HD
ATOM     13  H   UNL A   1      31.140  25.141  26.621  1.00  0.00     0.345 HD
ENDBRANCH   9  10
BRANCH   9  14
ATOM     14  C   UNL A   1      31.646  28.357  25.809  1.00  0.00     0.267 C 
BRANCH  14  15
ATOM     15  C   UNL A   1      32.068  28.660  27.218  1.00  0.00     0.406 C 
ATOM     16  F   UNL A   1      33.249  28.090  27.535  1.00  0.00    -0.170 F 
ATOM     17  F   UNL A   1      32.194  29.991  27.425  1.00  0.00    -0.170 F 
ATOM     18  F   UNL A   1      31.160  28.240  28.128  1.00  0.00    -0.170 F 
ENDBRANCH  14  15
BRANCH  14  19
ATOM     19  C   UNL A   1      32.697  29.003  24.943  1.00  0.00     0.406 C 
ATOM     20  F   UNL A   1      33.753  28.196  24.714  1.00  0.00    -0.170 F 
ATOM     21  F   UNL A   1      32.216  29.332  23.724  1.00  0.00    -0.170 F 
ATOM     22  F   UNL A   1      33.194  30.126  25.504  1.00  0.00    -0.170 F 
ENDBRANCH  14  19
ENDBRANCH   9  14
ENDBRANCH   6   9
ENDBRANCH   4   5
ENDBRANCH   3   4
ENDBRANCH   2   3
ENDBRANCH   1   2
BRANCH   1  23
ATOM     23  C   UNL A   1      35.817  23.203  24.590  1.00  0.00     0.021 C 
BRANCH  23  24
ATOM     24  C   UNL A   1      36.200  22.582  25.929  1.00  0.00     0.116 C 
BRANCH  24  25
ATOM     25  N   UNL A   1      37.079  21.434  25.769  1.00  0.00    -0.352 N 
ATOM     26  C   UNL A   1      38.448  21.381  25.899  1.00  0.00     0.251 C 
ATOM     27  H   UNL A   1      36.637  20.584  25.538  1.00  0.00     0.163 HD
ATOM     28  O   UNL A   1      39.062  20.378  25.549  1.00  0.00    -0.269 OA
BRANCH  26  29
ATOM     29  C   UNL A   1      39.166  22.554  26.439  1.00  0.00     0.039 A 
ATOM     30  C   UNL A   1      40.225  22.360  27.330  1.00  0.00     0.014 A 
ATOM     31  C   UNL A   1      38.805  23.844  26.040  1.00  0.00     0.014 A 
ATOM     32  C   UNL A   1      40.967  23.458  27.774  1.00  0.00     0.010 A 
ATOM     33  C   UNL A   1      39.582  24.927  26.433  1.00  0.00     0.010 A 
ATOM     34  C   UNL A   1      40.670  24.747  27.304  1.00  0.00    -0.014 A 
BRANCH  34  35
ATOM     35  C   UNL A   1      41.449  25.940  27.723  1.00  0.00     0.031 A 
ATOM     36  C   UNL A   1      40.761  27.033  28.493  1.00  0.00     0.074 A 
ATOM     37  C   UNL A   1      42.722  26.097  27.315  1.00  0.00     0.049 A 
ATOM     38  N   UNL A   1      41.176  28.240  28.777  1.00  0.00    -0.248 NA
ATOM     39  C   UNL A   1      39.402  26.732  28.965  1.00  0.00     0.031 C 
ATOM     40  C   UNL A   1      43.489  25.122  26.539  1.00  0.00     0.029 A 
ATOM     41  N   UNL A   1      43.586  27.153  27.468  1.00  0.00    -0.354 N 
ATOM     42  C   UNL A   1      40.114  28.859  29.430  1.00  0.00     0.074 A 
ATOM     43  C   UNL A   1      39.024  27.906  29.447  1.00  0.00     0.031 C 
ATOM     44  C   UNL A   1      44.705  25.627  26.277  1.00  0.00     0.029 A 
ATOM     45  C   UNL A   1      44.788  26.979  26.823  1.00  0.00     0.049 A 
ATOM     46  H   UNL A   1      43.366  27.959  27.989  1.00  0.00     0.167 HD
ATOM     47  C   UNL A   1      40.061  30.099  29.977  1.00  0.00     0.034 A 
ATOM     48  C   UNL A   1      45.826  27.824  26.661  1.00  0.00     0.034 A 
ATOM     49  C   UNL A   1      41.169  31.025  29.964  1.00  0.00     0.049 A 
ATOM     50  C   UNL A   1      45.752  29.200  27.267  1.00  0.00     0.074 A 
ATOM     51  C   UNL A   1      41.252  32.281  30.536  1.00  0.00     0.029 A 
ATOM     52  N   UNL A   1      42.388  30.793  29.338  1.00  0.00    -0.354 N 
ATOM     53  N   UNL A   1      44.757  29.765  27.911  1.00  0.00    -0.248 NA
ATOM     54  C   UNL A   1      46.943  30.049  27.136  1.00  0.00     0.031 C 
ATOM     55  C   UNL A   1      42.495  32.834  30.205  1.00  0.00     0.029 A 
ATOM     56  C   UNL A   1      43.218  31.892  29.490  1.00  0.00     0.049 A 
ATOM     57  H   UNL A   1      42.627  29.968  28.857  1.00  0.00     0.167 HD
ATOM     58  C   UNL A   1      45.214  31.023  28.290  1.00  0.00     0.074 A 
ATOM     59  C   UNL A   1      46.572  31.138  27.799  1.00  0.00     0.031 C 
ATOM     60  C   UNL A   1      44.572  31.991  28.992  1.00  0.00     0.034 A 
BRANCH  47  61
ATOM     61  C   UNL A   1      38.748  30.524  30.593  1.00  0.00     0.023 A 
ATOM     62  C   UNL A   1      37.779  31.224  29.854  1.00  0.00     0.031 A 
ATOM     63  C   UNL A   1      38.492  30.293  31.956  1.00  0.00     0.131 A 
ATOM     64  C   UNL A   1      36.658  31.766  30.502  1.00  0.00     0.055 A 
ATOM     65  C   UNL A   1      37.324  30.749  32.575  1.00  0.00     0.041 A 
ATOM     66  F   UNL A   1      39.385  29.647  32.722  1.00  0.00    -0.206 F 
ATOM     67  C   UNL A   1      36.410  31.511  31.852  1.00  0.00     0.022 A 
BRANCH  64  68
ATOM     68  S   UNL A   1      35.642  32.970  29.601  1.00  0.00     0.124 S 
ATOM     69  O   UNL A   1      36.566  33.412  28.559  1.00  0.00    -0.237 OA
ATOM     70  O   UNL A   1      34.516  32.158  29.155  1.00  0.00    -0.237 OA
ATOM     71  O   UNL A   1      35.327  33.976  30.613  1.00  0.00    -0.744 OA
ENDBRANCH  64  68
ENDBRANCH  47  61
BRANCH  48  72
ATOM     72  C   UNL A   1      47.013  27.395  25.870  1.00  0.00     0.023 A 
ATOM     73  C   UNL A   1      47.145  27.736  24.516  1.00  0.00     0.031 A 
ATOM     74  C   UNL A   1      48.040  26.640  26.467  1.00  0.00     0.131 A 
ATOM     75  C   UNL A   1      48.267  27.303  23.793  1.00  0.00     0.055 A 
ATOM     76  C   UNL A   1      49.173  26.244  25.754  1.00  0.00     0.041 A 
ATOM     77  F   UNL A   1      47.966  26.299  27.763  1.00  0.00    -0.206 F 
ATOM     78  C   UNL A   1      49.287  26.571  24.405  1.00  0.00     0.022 A 
BRANCH  75  79
ATOM     79  S   UNL A   1      48.360  27.680  22.021  1.00  0.00     0.124 S 
ATOM     80  O   UNL A   1      49.567  28.494  21.954  1.00  0.00    -0.237 OA
ATOM     81  O   UNL A   1      48.449  26.348  21.432  1.00  0.00    -0.237 OA
ATOM     82  O   UNL A   1      47.110  28.391  21.759  1.00  0.00    -0.744 OA
ENDBRANCH  75  79
ENDBRANCH  48  72
BRANCH  60  83
ATOM     83  C   UNL A   1      45.354  33.234  29.332  1.00  0.00     0.023 A 
ATOM     84  C   UNL A   1      45.384  34.352  28.483  1.00  0.00     0.031 A 
ATOM     85  C   UNL A   1      46.055  33.303  30.549  1.00  0.00     0.131 A 
ATOM     86  C   UNL A   1      46.128  35.485  28.850  1.00  0.00     0.055 A 
ATOM     87  C   UNL A   1      46.754  34.449  30.931  1.00  0.00     0.041 A 
ATOM     88  F   UNL A   1      46.057  32.260  31.396  1.00  0.00    -0.206 F 
ATOM     89  C   UNL A   1      46.799  35.545  30.076  1.00  0.00     0.022 A 
BRANCH  86  90
ATOM     90  S   UNL A   1      46.248  36.870  27.685  1.00  0.00     0.124 S 
ATOM     91  O   UNL A   1      45.297  37.822  28.250  1.00  0.00    -0.237 OA
ATOM     92  O   UNL A   1      47.656  37.241  27.782  1.00  0.00    -0.237 OA
ATOM     93  O   UNL A   1      45.851  36.280  26.408  1.00  0.00    -0.744 OA
ENDBRANCH  86  90
ENDBRANCH  60  83
ENDBRANCH  34  35
ENDBRANCH  26  29
ENDBRANCH  24  25
ENDBRANCH  23  24
ENDBRANCH   1  23
TORSDOF 20
ENDMDL
MODEL 2
REMARK VINA RESULT:     -10.3      2.725      8.132
REMARK SMILES [NH3+][C@@H](C(=O)NCCCCCCNC(=O)c1ccc(-c2c3nc(c(-c4cc(S(=O)(=O)[O-])ccc4F)c4ccc([nH]4)c(-c4cc(S(=O)(=O)[O-])ccc4F)c4nc(c(-c5cc(S(=O)(=O)[O-])ccc5F)c5ccc2[nH]5)C=C4)C=C3)cc1)C(C(F)(F)F)C(F)(F)F
REMARK SMILES IDX 9 1 8 2 7 3 6 4 5 5 3 6 4 7 2 9 1 10 78 14 79 15 80 16 81 17
REMARK SMILES IDX 82 18 83 19 84 20 85 21 86 22 10 23 11 24 12 25 13 26 14 28
REMARK SMILES IDX 15 29 16 30 77 31 17 32 76 33 18 34 19 35 20 36 70 37 21 38
REMARK SMILES IDX 75 39 69 40 71 41 22 42 74 43 68 44 67 45 23 47 55 48 35 49
REMARK SMILES IDX 54 50 36 51 39 52 53 53 72 54 37 55 38 56 52 58 73 59 40 60
REMARK SMILES IDX 24 61 25 62 33 63 26 64 32 65 34 66 31 67 27 68 28 69 29 70
REMARK SMILES IDX 30 71 56 72 57 73 65 74 58 75 64 76 66 77 63 78 59 79 60 80
REMARK SMILES IDX 61 81 62 82 41 83 42 84 50 85 43 86 49 87 51 88 48 89 44 90
REMARK SMILES IDX 45 91 46 92 47 93
REMARK H PARENT 5 8 1 11 1 12 1 13 12 27 71 46 39 57
REMARK Flexibility Score: inf
ROOT
ATOM      1  C   UNL A   1      36.010  22.676  23.587  1.00  0.00     0.002 C 
ENDROOT
BRANCH   1   2
ATOM      2  C   UNL A   1      34.528  22.959  23.321  1.00  0.00     0.002 C 
BRANCH   2   3
ATOM      3  C   UNL A   1      33.554  22.369  24.352  1.00  0.00     0.021 C 
BRANCH   3   4
ATOM      4  C   UNL A   1      32.084  22.716  24.098  1.00  0.00     0.116 C 
BRANCH   4   5
ATOM      5  N   UNL A   1      31.433  23.094  25.341  1.00  0.00    -0.351 N 
ATOM      6  C   UNL A   1      31.557  24.241  26.064  1.00  0.00     0.279 C 
ATOM      7  O   UNL A   1      31.225  24.234  27.250  1.00  0.00    -0.268 OA
ATOM      8  H   UNL A   1      30.814  22.425  25.714  1.00  0.00     0.163 HD
BRANCH   6   9
ATOM      9  C   UNL A   1      32.177  25.492  25.408  1.00  0.00     0.292 C 
BRANCH   9  10
ATOM     10  N   UNL A   1      33.441  25.773  26.122  1.00  0.00    -0.346 N 
ATOM     11  H   UNL A   1      34.153  25.103  25.828  1.00  0.00     0.345 HD
ATOM     12  H   UNL A   1      33.290  25.690  27.127  1.00  0.00     0.345 HD
ATOM     13  H   UNL A   1      33.754  26.719  25.901  1.00  0.00     0.345 HD
ENDBRANCH   9  10
BRANCH   9  14
ATOM     14  C   UNL A   1      31.208  26.684  25.479  1.00  0.00     0.267 C 
BRANCH  14  15
ATOM     15  C   UNL A   1      31.827  27.940  24.938  1.00  0.00     0.406 C 
ATOM     16  F   UNL A   1      32.954  28.284  25.596  1.00  0.00    -0.170 F 
ATOM     17  F   UNL A   1      32.148  27.815  23.629  1.00  0.00    -0.170 F 
ATOM     18  F   UNL A   1      30.986  28.996  25.000  1.00  0.00    -0.170 F 
ENDBRANCH  14  15
BRANCH  14  19
ATOM     19  C   UNL A   1      29.996  26.447  24.614  1.00  0.00     0.406 C 
ATOM     20  F   UNL A   1      29.536  27.578  24.040  1.00  0.00    -0.170 F 
ATOM     21  F   UNL A   1      30.259  25.600  23.595  1.00  0.00    -0.170 F 
ATOM     22  F   UNL A   1      28.965  25.933  25.317  1.00  0.00    -0.170 F 
ENDBRANCH  14  19
ENDBRANCH   9  14
ENDBRANCH   6   9
ENDBRANCH   4   5
ENDBRANCH   3   4
ENDBRANCH   2   3
ENDBRANCH   1   2
BRANCH   1  23
ATOM     23  C   UNL A   1      36.681  23.621  24.585  1.00  0.00     0.021 C 
BRANCH  23  24
ATOM     24  C   UNL A   1      36.777  23.079  26.007  1.00  0.00     0.116 C 
BRANCH  24  25
ATOM     25  N   UNL A   1      37.936  22.220  26.189  1.00  0.00    -0.352 N 
ATOM     26  C   UNL A   1      39.226  22.581  26.502  1.00  0.00     0.251 C 
ATOM     27  H   UNL A   1      37.778  21.255  26.073  1.00  0.00     0.163 HD
ATOM     28  O   UNL A   1      40.132  21.756  26.437  1.00  0.00    -0.269 OA
BRANCH  26  29
ATOM     29  C   UNL A   1      39.509  23.979  26.890  1.00  0.00     0.039 A 
ATOM     30  C   UNL A   1      39.299  24.379  28.213  1.00  0.00     0.014 A 
ATOM     31  C   UNL A   1      40.007  24.883  25.949  1.00  0.00     0.014 A 
ATOM     32  C   UNL A   1      39.649  25.673  28.609  1.00  0.00     0.010 A 
ATOM     33  C   UNL A   1      40.413  26.148  26.359  1.00  0.00     0.010 A 
ATOM     34  C   UNL A   1      40.238  26.557  27.691  1.00  0.00    -0.014 A 
BRANCH  34  35
ATOM     35  C   UNL A   1      40.655  27.931  28.073  1.00  0.00     0.031 A 
ATOM     36  C   UNL A   1      42.120  28.262  28.139  1.00  0.00     0.074 A 
ATOM     37  C   UNL A   1      39.738  28.832  28.472  1.00  0.00     0.049 A 
ATOM     38  N   UNL A   1      42.715  29.311  28.642  1.00  0.00    -0.248 NA
ATOM     39  C   UNL A   1      43.036  27.244  27.602  1.00  0.00     0.031 C 
ATOM     40  C   UNL A   1      38.291  28.620  28.482  1.00  0.00     0.029 A 
ATOM     41  N   UNL A   1      39.892  30.098  28.981  1.00  0.00    -0.354 N 
ATOM     42  C   UNL A   1      44.080  29.066  28.517  1.00  0.00     0.074 A 
ATOM     43  C   UNL A   1      44.214  27.744  27.940  1.00  0.00     0.031 C 
ATOM     44  C   UNL A   1      37.690  29.714  28.978  1.00  0.00     0.029 A 
ATOM     45  C   UNL A   1      38.710  30.683  29.367  1.00  0.00     0.049 A 
ATOM     46  H   UNL A   1      40.766  30.544  29.061  1.00  0.00     0.167 HD
ATOM     47  C   UNL A   1      45.120  29.875  28.839  1.00  0.00     0.034 A 
ATOM     48  C   UNL A   1      38.474  31.854  29.994  1.00  0.00     0.034 A 
ATOM     49  C   UNL A   1      44.960  31.197  29.396  1.00  0.00     0.049 A 
ATOM     50  C   UNL A   1      39.639  32.740  30.352  1.00  0.00     0.074 A 
ATOM     51  C   UNL A   1      45.935  32.128  29.706  1.00  0.00     0.029 A 
ATOM     52  N   UNL A   1      43.740  31.774  29.732  1.00  0.00    -0.354 N 
ATOM     53  N   UNL A   1      40.923  32.514  30.201  1.00  0.00    -0.248 NA
ATOM     54  C   UNL A   1      39.323  34.042  30.954  1.00  0.00     0.031 C 
ATOM     55  C   UNL A   1      45.312  33.240  30.285  1.00  0.00     0.029 A 
ATOM     56  C   UNL A   1      43.942  33.036  30.268  1.00  0.00     0.049 A 
ATOM     57  H   UNL A   1      42.862  31.347  29.607  1.00  0.00     0.167 HD
ATOM     58  C   UNL A   1      41.568  33.658  30.659  1.00  0.00     0.074 A 
ATOM     59  C   UNL A   1      40.531  34.572  31.097  1.00  0.00     0.031 C 
ATOM     60  C   UNL A   1      42.896  33.934  30.701  1.00  0.00     0.034 A 
BRANCH  47  61
ATOM     61  C   UNL A   1      46.512  29.323  28.630  1.00  0.00     0.023 A 
ATOM     62  C   UNL A   1      47.038  29.118  27.342  1.00  0.00     0.031 A 
ATOM     63  C   UNL A   1      47.295  28.927  29.728  1.00  0.00     0.131 A 
ATOM     64  C   UNL A   1      48.252  28.434  27.181  1.00  0.00     0.055 A 
ATOM     65  C   UNL A   1      48.550  28.336  29.564  1.00  0.00     0.041 A 
ATOM     66  F   UNL A   1      46.842  29.079  30.983  1.00  0.00    -0.206 F 
ATOM     67  C   UNL A   1      49.025  28.064  28.283  1.00  0.00     0.022 A 
BRANCH  64  68
ATOM     68  S   UNL A   1      48.703  27.860  25.520  1.00  0.00     0.124 S 
ATOM     69  O   UNL A   1      49.926  28.619  25.269  1.00  0.00    -0.237 OA
ATOM     70  O   UNL A   1      48.871  26.426  25.718  1.00  0.00    -0.237 OA
ATOM     71  O   UNL A   1      47.557  28.250  24.701  1.00  0.00    -0.744 OA
ENDBRANCH  64  68
ENDBRANCH  47  61
BRANCH  48  72
ATOM     72  C   UNL A   1      37.079  32.241  30.341  1.00  0.00     0.023 A 
ATOM     73  C   UNL A   1      36.228  32.820  29.388  1.00  0.00     0.031 A 
ATOM     74  C   UNL A   1      36.575  32.025  31.637  1.00  0.00     0.131 A 
ATOM     75  C   UNL A   1      34.924  33.189  29.751  1.00  0.00     0.055 A 
ATOM     76  C   UNL A   1      35.264  32.358  31.982  1.00  0.00     0.041 A 
ATOM     77  F   UNL A   1      37.346  31.462  32.581  1.00  0.00    -0.206 F 
ATOM     78  C   UNL A   1      34.432  32.951  31.037  1.00  0.00     0.022 A 
BRANCH  75  79
ATOM     79  S   UNL A   1      33.882  34.023  28.523  1.00  0.00     0.124 S 
ATOM     80  O   UNL A   1      34.812  34.991  27.953  1.00  0.00    -0.237 OA
ATOM     81  O   UNL A   1      33.493  32.917  27.653  1.00  0.00    -0.237 OA
ATOM     82  O   UNL A   1      32.800  34.591  29.323  1.00  0.00    -0.744 OA
ENDBRANCH  75  79
ENDBRANCH  48  72
BRANCH  60  83
ATOM     83  C   UNL A   1      43.303  35.306  31.176  1.00  0.00     0.023 A 
ATOM     84  C   UNL A   1      43.486  35.600  32.537  1.00  0.00     0.031 A 
ATOM     85  C   UNL A   1      43.543  36.324  30.236  1.00  0.00     0.131 A 
ATOM     86  C   UNL A   1      43.868  36.895  32.924  1.00  0.00     0.055 A 
ATOM     87  C   UNL A   1      43.968  37.596  30.623  1.00  0.00     0.041 A 
ATOM     88  F   UNL A   1      43.382  36.093  28.923  1.00  0.00    -0.206 F 
ATOM     89  C   UNL A   1      44.126  37.889  31.974  1.00  0.00     0.022 A 
BRANCH  86  90
ATOM     90  S   UNL A   1      43.984  37.284  34.691  1.00  0.00     0.124 S 
ATOM     91  O   UNL A   1      43.123  36.264  35.282  1.00  0.00    -0.237 OA
ATOM     92  O   UNL A   1      45.412  37.142  34.952  1.00  0.00    -0.237 OA
ATOM     93  O   UNL A   1      43.473  38.651  34.777  1.00  0.00    -0.744 OA
ENDBRANCH  86  90
ENDBRANCH  60  83
ENDBRANCH  34  35
ENDBRANCH  26  29
ENDBRANCH  24  25
ENDBRANCH  23  24
ENDBRANCH   1  23
TORSDOF 20
ENDMDL
MODEL 3
REMARK VINA RESULT:     -10.3      5.374     10.005
REMARK SMILES [NH3+][C@@H](C(=O)NCCCCCCNC(=O)c1ccc(-c2c3nc(c(-c4cc(S(=O)(=O)[O-])ccc4F)c4ccc([nH]4)c(-c4cc(S(=O)(=O)[O-])ccc4F)c4nc(c(-c5cc(S(=O)(=O)[O-])ccc5F)c5ccc2[nH]5)C=C4)C=C3)cc1)C(C(F)(F)F)C(F)(F)F
REMARK SMILES IDX 9 1 8 2 7 3 6 4 5 5 3 6 4 7 2 9 1 10 78 14 79 15 80 16 81 17
REMARK SMILES IDX 82 18 83 19 84 20 85 21 86 22 10 23 11 24 12 25 13 26 14 28
REMARK SMILES IDX 15 29 16 30 77 31 17 32 76 33 18 34 19 35 20 36 70 37 21 38
REMARK SMILES IDX 75 39 69 40 71 41 22 42 74 43 68 44 67 45 23 47 55 48 35 49
REMARK SMILES IDX 54 50 36 51 39 52 53 53 72 54 37 55 38 56 52 58 73 59 40 60
REMARK SMILES IDX 24 61 25 62 33 63 26 64 32 65 34 66 31 67 27 68 28 69 29 70
REMARK SMILES IDX 30 71 56 72 57 73 65 74 58 75 64 76 66 77 63 78 59 79 60 80
REMARK SMILES IDX 61 81 62 82 41 83 42 84 50 85 43 86 49 87 51 88 48 89 44 90
REMARK SMILES IDX 45 91 46 92 47 93
REMARK H PARENT 5 8 1 11 1 12 1 13 12 27 71 46 39 57
REMARK Flexibility Score: inf
ROOT
ATOM      1  C   UNL A   1      31.484  28.226  26.593  1.00  0.00     0.002 C 
ENDROOT
BRANCH   1   2
ATOM      2  C   UNL A   1      30.983  27.788  25.213  1.00  0.00     0.002 C 
BRANCH   2   3
ATOM      3  C   UNL A   1      31.249  26.318  24.856  1.00  0.00     0.021 C 
BRANCH   3   4
ATOM      4  C   UNL A   1      30.364  25.319  25.609  1.00  0.00     0.116 C 
BRANCH   4   5
ATOM      5  N   UNL A   1      31.105  24.715  26.703  1.00  0.00    -0.351 N 
ATOM      6  C   UNL A   1      31.922  23.625  26.692  1.00  0.00     0.279 C 
ATOM      7  O   UNL A   1      32.162  23.053  27.755  1.00  0.00    -0.268 OA
ATOM      8  H   UNL A   1      31.001  25.155  27.578  1.00  0.00     0.163 HD
BRANCH   6   9
ATOM      9  C   UNL A   1      32.462  23.092  25.349  1.00  0.00     0.292 C 
BRANCH   9  10
ATOM     10  N   UNL A   1      31.832  21.775  25.122  1.00  0.00    -0.346 N 
ATOM     11  H   UNL A   1      30.877  21.908  24.788  1.00  0.00     0.345 HD
ATOM     12  H   UNL A   1      31.815  21.250  25.997  1.00  0.00     0.345 HD
ATOM     13  H   UNL A   1      32.367  21.256  24.425  1.00  0.00     0.345 HD
ENDBRANCH   9  10
BRANCH   9  14
ATOM     14  C   UNL A   1      33.997  22.991  25.378  1.00  0.00     0.267 C 
BRANCH  14  15
ATOM     15  C   UNL A   1      34.523  22.168  24.238  1.00  0.00     0.406 C 
ATOM     16  F   UNL A   1      34.364  20.843  24.442  1.00  0.00    -0.170 F 
ATOM     17  F   UNL A   1      33.904  22.473  23.074  1.00  0.00    -0.170 F 
ATOM     18  F   UNL A   1      35.838  22.386  24.012  1.00  0.00    -0.170 F 
ENDBRANCH  14  15
BRANCH  14  19
ATOM     19  C   UNL A   1      34.631  24.347  25.201  1.00  0.00     0.406 C 
ATOM     20  F   UNL A   1      35.965  24.329  25.403  1.00  0.00    -0.170 F 
ATOM     21  F   UNL A   1      34.457  24.829  23.951  1.00  0.00    -0.170 F 
ATOM     22  F   UNL A   1      34.130  25.257  26.063  1.00  0.00    -0.170 F 
ENDBRANCH  14  19
ENDBRANCH   9  14
ENDBRANCH   6   9
ENDBRANCH   4   5
ENDBRANCH   3   4
ENDBRANCH   2   3
ENDBRANCH   1   2
BRANCH   1  23
ATOM     23  C   UNL A   1      33.005  28.279  26.742  1.00  0.00     0.021 C 
BRANCH  23  24
ATOM     24  C   UNL A   1      33.681  29.398  25.958  1.00  0.00     0.116 C 
BRANCH  24  25
ATOM     25  N   UNL A   1      33.256  30.715  26.405  1.00  0.00    -0.352 N 
ATOM     26  C   UNL A   1      33.833  31.521  27.359  1.00  0.00     0.251 C 
ATOM     27  H   UNL A   1      32.450  31.077  25.969  1.00  0.00     0.163 HD
ATOM     28  O   UNL A   1      33.249  32.524  27.756  1.00  0.00    -0.269 OA
BRANCH  26  29
ATOM     29  C   UNL A   1      35.152  31.149  27.914  1.00  0.00     0.039 A 
ATOM     30  C   UNL A   1      36.215  32.051  27.821  1.00  0.00     0.014 A 
ATOM     31  C   UNL A   1      35.323  29.917  28.552  1.00  0.00     0.014 A 
ATOM     32  C   UNL A   1      37.439  31.744  28.424  1.00  0.00     0.010 A 
ATOM     33  C   UNL A   1      36.520  29.641  29.204  1.00  0.00     0.010 A 
ATOM     34  C   UNL A   1      37.589  30.550  29.146  1.00  0.00    -0.014 A 
BRANCH  34  35
ATOM     35  C   UNL A   1      38.860  30.195  29.829  1.00  0.00     0.031 A 
ATOM     36  C   UNL A   1      39.755  29.152  29.219  1.00  0.00     0.074 A 
ATOM     37  C   UNL A   1      39.147  30.711  31.039  1.00  0.00     0.049 A 
ATOM     38  N   UNL A   1      40.789  28.538  29.733  1.00  0.00    -0.248 NA
ATOM     39  C   UNL A   1      39.402  28.713  27.861  1.00  0.00     0.031 C 
ATOM     40  C   UNL A   1      38.344  31.708  31.746  1.00  0.00     0.029 A 
ATOM     41  N   UNL A   1      40.180  30.442  31.903  1.00  0.00    -0.354 N 
ATOM     42  C   UNL A   1      41.191  27.612  28.774  1.00  0.00     0.074 A 
ATOM     43  C   UNL A   1      40.251  27.714  27.677  1.00  0.00     0.031 C 
ATOM     44  C   UNL A   1      38.908  31.960  32.939  1.00  0.00     0.029 A 
ATOM     45  C   UNL A   1      40.083  31.110  33.101  1.00  0.00     0.049 A 
ATOM     46  H   UNL A   1      40.918  29.828  31.686  1.00  0.00     0.167 HD
ATOM     47  C   UNL A   1      42.253  26.769  28.802  1.00  0.00     0.034 A 
ATOM     48  C   UNL A   1      40.836  31.023  34.216  1.00  0.00     0.034 A 
ATOM     49  C   UNL A   1      43.187  26.699  29.900  1.00  0.00     0.049 A 
ATOM     50  C   UNL A   1      42.008  30.078  34.237  1.00  0.00     0.074 A 
ATOM     51  C   UNL A   1      44.330  25.928  30.015  1.00  0.00     0.029 A 
ATOM     52  N   UNL A   1      43.080  27.427  31.080  1.00  0.00    -0.354 N 
ATOM     53  N   UNL A   1      42.399  29.230  33.314  1.00  0.00    -0.248 NA
ATOM     54  C   UNL A   1      42.847  30.085  35.442  1.00  0.00     0.031 C 
ATOM     55  C   UNL A   1      44.879  26.143  31.285  1.00  0.00     0.029 A 
ATOM     56  C   UNL A   1      44.122  27.104  31.935  1.00  0.00     0.049 A 
ATOM     57  H   UNL A   1      42.368  28.076  31.279  1.00  0.00     0.167 HD
ATOM     58  C   UNL A   1      43.548  28.626  33.815  1.00  0.00     0.074 A 
ATOM     59  C   UNL A   1      43.785  29.203  35.123  1.00  0.00     0.031 C 
ATOM     60  C   UNL A   1      44.343  27.688  33.238  1.00  0.00     0.034 A 
BRANCH  47  61
ATOM     61  C   UNL A   1      42.422  25.835  27.626  1.00  0.00     0.023 A 
ATOM     62  C   UNL A   1      41.693  24.638  27.523  1.00  0.00     0.031 A 
ATOM     63  C   UNL A   1      43.377  26.108  26.631  1.00  0.00     0.131 A 
ATOM     64  C   UNL A   1      42.008  23.708  26.521  1.00  0.00     0.055 A 
ATOM     65  C   UNL A   1      43.616  25.223  25.576  1.00  0.00     0.041 A 
ATOM     66  F   UNL A   1      44.119  27.225  26.680  1.00  0.00    -0.206 F 
ATOM     67  C   UNL A   1      42.946  24.003  25.530  1.00  0.00     0.022 A 
BRANCH  64  68
ATOM     68  S   UNL A   1      41.317  22.035  26.651  1.00  0.00     0.124 S 
ATOM     69  O   UNL A   1      42.187  21.287  25.746  1.00  0.00    -0.237 OA
ATOM     70  O   UNL A   1      41.470  21.742  28.071  1.00  0.00    -0.237 OA
ATOM     71  O   UNL A   1      39.940  22.197  26.189  1.00  0.00    -0.744 OA
ENDBRANCH  64  68
ENDBRANCH  47  61
BRANCH  48  72
ATOM     72  C   UNL A   1      40.486  31.841  35.411  1.00  0.00     0.023 A 
ATOM     73  C   UNL A   1      39.410  31.490  36.240  1.00  0.00     0.031 A 
ATOM     74  C   UNL A   1      41.235  32.985  35.743  1.00  0.00     0.131 A 
ATOM     75  C   UNL A   1      39.095  32.290  37.349  1.00  0.00     0.055 A 
ATOM     76  C   UNL A   1      40.942  33.755  36.869  1.00  0.00     0.041 A 
ATOM     77  F   UNL A   1      42.281  33.354  34.988  1.00  0.00    -0.206 F 
ATOM     78  C   UNL A   1      39.860  33.412  37.677  1.00  0.00     0.022 A 
BRANCH  75  79
ATOM     79  S   UNL A   1      37.641  31.863  38.345  1.00  0.00     0.124 S 
ATOM     80  O   UNL A   1      38.197  31.849  39.692  1.00  0.00    -0.237 OA
ATOM     81  O   UNL A   1      36.730  32.962  38.037  1.00  0.00    -0.237 OA
ATOM     82  O   UNL A   1      37.239  30.560  37.819  1.00  0.00    -0.744 OA
ENDBRANCH  75  79
ENDBRANCH  48  72
BRANCH  60  83
ATOM     83  C   UNL A   1      45.583  27.277  33.990  1.00  0.00     0.023 A 
ATOM     84  C   UNL A   1      45.601  26.165  34.849  1.00  0.00     0.031 A 
ATOM     85  C   UNL A   1      46.777  27.998  33.810  1.00  0.00     0.131 A 
ATOM     86  C   UNL A   1      46.785  25.826  35.522  1.00  0.00     0.055 A 
ATOM     87  C   UNL A   1      47.963  27.627  34.445  1.00  0.00     0.041 A 
ATOM     88  F   UNL A   1      46.813  29.068  32.998  1.00  0.00    -0.206 F 
ATOM     89  C   UNL A   1      47.969  26.540  35.312  1.00  0.00     0.022 A 
BRANCH  86  90
ATOM     90  S   UNL A   1      46.754  24.460  36.716  1.00  0.00     0.124 S 
ATOM     91  O   UNL A   1      47.111  25.137  37.959  1.00  0.00    -0.237 OA
ATOM     92  O   UNL A   1      45.376  23.990  36.619  1.00  0.00    -0.237 OA
ATOM     93  O   UNL A   1      47.761  23.533  36.204  1.00  0.00    -0.744 OA
ENDBRANCH  86  90
ENDBRANCH  60  83
ENDBRANCH  34  35
ENDBRANCH  26  29
ENDBRANCH  24  25
ENDBRANCH  23  24
ENDBRANCH   1  23
TORSDOF 20
ENDMDL
