MODEL 1
REMARK VINA RESULT:     -12.3      0.000      0.000
REMARK SMILES Cc1ccc2nc(C(=O)NCCCCCCNC(=O)c3ccc(-c4c5nc(c(-c6cc(S(=O)(=O)[O-])ccc6F)c6ccc([nH]6)c(-c6cc(S(=O)(=O)[O-])ccc6F)c6nc(c(-c7cc(S(=O)(=O)[O-])ccc7F)c7ccc4[nH]7)C=C6)C=C5)cc3)cc(N3CCOCC3)c2c1
REMARK SMILES IDX 14 1 13 2 12 3 11 4 10 5 8 6 9 7 7 9 1 10 2 11 3 12 92 13
REMARK SMILES IDX 4 14 91 15 5 16 84 17 6 18 83 19 85 20 86 21 90 22 87 23
REMARK SMILES IDX 89 24 88 25 15 26 16 27 17 28 18 29 19 31 20 32 21 33 82 34
REMARK SMILES IDX 22 35 81 36 23 37 24 38 25 39 75 40 26 41 80 42 74 43 76 44
REMARK SMILES IDX 27 45 79 46 73 47 72 48 28 50 60 51 40 52 59 53 41 54 44 55
REMARK SMILES IDX 58 56 77 57 42 58 43 59 57 61 78 62 45 63 29 64 30 65 38 66
REMARK SMILES IDX 31 67 37 68 39 69 36 70 32 71 33 72 34 73 35 74 61 75 62 76
REMARK SMILES IDX 70 77 63 78 69 79 71 80 68 81 64 82 65 83 66 84 67 85 46 86
REMARK SMILES IDX 47 87 55 88 48 89 54 90 56 91 53 92 49 93 50 94 51 95 52 96
REMARK H PARENT 10 8 17 30 76 49 44 60
REMARK Flexibility Score: inf
ROOT
ATOM      1  C   UNL A   1      32.227  27.155  25.032  1.00  0.00     0.002 C 
ENDROOT
BRANCH   1   2
ATOM      2  C   UNL A   1      30.852  27.716  24.647  1.00  0.00     0.002 C 
BRANCH   2   3
ATOM      3  C   UNL A   1      29.814  26.651  24.267  1.00  0.00     0.021 C 
BRANCH   3   4
ATOM      4  C   UNL A   1      30.363  25.226  24.374  1.00  0.00     0.116 C 
BRANCH   4   5
ATOM      5  N   UNL A   1      29.980  24.650  25.647  1.00  0.00    -0.351 N 
ATOM      6  C   UNL A   1      30.457  23.594  26.387  1.00  0.00     0.269 C 
ATOM      7  O   UNL A   1      29.833  23.342  27.422  1.00  0.00    -0.268 OA
ATOM      8  H   UNL A   1      29.221  25.112  26.071  1.00  0.00     0.163 HD
BRANCH   6   9
ATOM      9  C   UNL A   1      31.689  22.797  26.039  1.00  0.00     0.130 A 
ATOM     10  C   UNL A   1      37.828  21.257  24.699  1.00  0.00     0.044 C 
ATOM     11  C   UNL A   1      36.510  21.856  25.084  1.00  0.00    -0.050 A 
ATOM     12  C   UNL A   1      36.419  23.123  25.653  1.00  0.00     0.005 A 
ATOM     13  C   UNL A   1      35.333  21.129  24.884  1.00  0.00     0.016 A 
ATOM     14  C   UNL A   1      35.169  23.646  25.993  1.00  0.00     0.029 A 
ATOM     15  C   UNL A   1      34.070  21.622  25.291  1.00  0.00     0.024 A 
ATOM     16  C   UNL A   1      33.997  22.925  25.816  1.00  0.00     0.073 A 
ATOM     17  C   UNL A   1      32.869  20.875  25.194  1.00  0.00     0.049 A 
ATOM     18  N   UNL A   1      32.840  23.506  26.151  1.00  0.00    -0.242 NA
ATOM     19  C   UNL A   1      31.686  21.471  25.637  1.00  0.00     0.060 A 
BRANCH  17  20
ATOM     20  N   UNL A   1      32.862  19.582  24.680  1.00  0.00    -0.366 N 
ATOM     21  C   UNL A   1      32.857  18.453  25.626  1.00  0.00     0.145 C 
ATOM     22  C   UNL A   1      32.208  19.280  23.395  1.00  0.00     0.145 C 
ATOM     23  C   UNL A   1      33.475  17.227  24.935  1.00  0.00     0.181 C 
ATOM     24  C   UNL A   1      32.826  18.003  22.799  1.00  0.00     0.181 C 
ATOM     25  O   UNL A   1      32.773  16.903  23.724  1.00  0.00    -0.378 OA
ENDBRANCH  17  20
ENDBRANCH   6   9
ENDBRANCH   4   5
ENDBRANCH   3   4
ENDBRANCH   2   3
ENDBRANCH   1   2
BRANCH   1  26
ATOM     26  C   UNL A   1      32.827  27.752  26.307  1.00  0.00     0.021 C 
BRANCH  26  27
ATOM     27  C   UNL A   1      34.059  28.617  26.064  1.00  0.00     0.116 C 
BRANCH  27  28
ATOM     28  N   UNL A   1      33.811  30.002  26.435  1.00  0.00    -0.352 N 
ATOM     29  C   UNL A   1      34.417  30.756  27.408  1.00  0.00     0.251 C 
ATOM     30  H   UNL A   1      33.113  30.461  25.915  1.00  0.00     0.163 HD
ATOM     31  O   UNL A   1      33.900  31.805  27.778  1.00  0.00    -0.269 OA
BRANCH  29  32
ATOM     32  C   UNL A   1      35.685  30.289  28.008  1.00  0.00     0.039 A 
ATOM     33  C   UNL A   1      35.663  29.694  29.270  1.00  0.00     0.014 A 
ATOM     34  C   UNL A   1      36.894  30.448  27.323  1.00  0.00     0.014 A 
ATOM     35  C   UNL A   1      36.850  29.210  29.824  1.00  0.00     0.010 A 
ATOM     36  C   UNL A   1      38.061  29.898  27.842  1.00  0.00     0.010 A 
ATOM     37  C   UNL A   1      38.053  29.280  29.102  1.00  0.00    -0.014 A 
BRANCH  37  38
ATOM     38  C   UNL A   1      39.315  28.722  29.652  1.00  0.00     0.031 A 
ATOM     39  C   UNL A   1      39.941  29.340  30.873  1.00  0.00     0.074 A 
ATOM     40  C   UNL A   1      39.924  27.701  29.017  1.00  0.00     0.049 A 
ATOM     41  N   UNL A   1      41.074  29.049  31.460  1.00  0.00    -0.248 NA
ATOM     42  C   UNL A   1      39.210  30.454  31.495  1.00  0.00     0.031 C 
ATOM     43  C   UNL A   1      39.429  27.047  27.803  1.00  0.00     0.029 A 
ATOM     44  N   UNL A   1      41.093  27.039  29.296  1.00  0.00    -0.354 N 
ATOM     45  C   UNL A   1      41.196  29.949  32.513  1.00  0.00     0.074 A 
ATOM     46  C   UNL A   1      40.056  30.837  32.439  1.00  0.00     0.031 C 
ATOM     47  C   UNL A   1      40.273  26.062  27.461  1.00  0.00     0.029 A 
ATOM     48  C   UNL A   1      41.394  26.045  28.394  1.00  0.00     0.049 A 
ATOM     49  H   UNL A   1      41.663  27.257  30.069  1.00  0.00     0.167 HD
ATOM     50  C   UNL A   1      42.159  30.012  33.466  1.00  0.00     0.034 A 
ATOM     51  C   UNL A   1      42.461  25.222  28.321  1.00  0.00     0.034 A 
ATOM     52  C   UNL A   1      43.284  29.110  33.526  1.00  0.00     0.049 A 
ATOM     53  C   UNL A   1      43.536  25.332  29.373  1.00  0.00     0.074 A 
ATOM     54  C   UNL A   1      44.291  29.050  34.474  1.00  0.00     0.029 A 
ATOM     55  N   UNL A   1      43.560  28.118  32.593  1.00  0.00    -0.354 N 
ATOM     56  N   UNL A   1      43.613  26.157  30.392  1.00  0.00    -0.248 NA
ATOM     57  C   UNL A   1      44.661  24.395  29.271  1.00  0.00     0.031 C 
ATOM     58  C   UNL A   1      45.212  28.077  34.074  1.00  0.00     0.029 A 
ATOM     59  C   UNL A   1      44.737  27.465  32.925  1.00  0.00     0.049 A 
ATOM     60  H   UNL A   1      43.001  27.909  31.810  1.00  0.00     0.167 HD
ATOM     61  C   UNL A   1      44.778  25.812  31.072  1.00  0.00     0.074 A 
ATOM     62  C   UNL A   1      45.361  24.697  30.353  1.00  0.00     0.031 C 
ATOM     63  C   UNL A   1      45.313  26.360  32.193  1.00  0.00     0.034 A 
BRANCH  50  64
ATOM     64  C   UNL A   1      42.045  31.109  34.500  1.00  0.00     0.023 A 
ATOM     65  C   UNL A   1      40.992  31.141  35.432  1.00  0.00     0.031 A 
ATOM     66  C   UNL A   1      42.985  32.153  34.538  1.00  0.00     0.131 A 
ATOM     67  C   UNL A   1      40.858  32.232  36.303  1.00  0.00     0.055 A 
ATOM     68  C   UNL A   1      42.897  33.192  35.468  1.00  0.00     0.041 A 
ATOM     69  F   UNL A   1      44.001  32.192  33.661  1.00  0.00    -0.206 F 
ATOM     70  C   UNL A   1      41.819  33.245  36.347  1.00  0.00     0.022 A 
BRANCH  67  71
ATOM     71  S   UNL A   1      39.328  32.389  37.265  1.00  0.00     0.124 S 
ATOM     72  O   UNL A   1      39.849  32.617  38.610  1.00  0.00    -0.237 OA
ATOM     73  O   UNL A   1      38.673  33.527  36.632  1.00  0.00    -0.237 OA
ATOM     74  O   UNL A   1      38.668  31.099  37.071  1.00  0.00    -0.744 OA
ENDBRANCH  67  71
ENDBRANCH  50  64
BRANCH  51  75
ATOM     75  C   UNL A   1      42.573  24.231  27.213  1.00  0.00     0.023 A 
ATOM     76  C   UNL A   1      42.041  22.939  27.341  1.00  0.00     0.031 A 
ATOM     77  C   UNL A   1      43.252  24.548  26.022  1.00  0.00     0.131 A 
ATOM     78  C   UNL A   1      42.235  21.996  26.319  1.00  0.00     0.055 A 
ATOM     79  C   UNL A   1      43.393  23.625  24.984  1.00  0.00     0.041 A 
ATOM     80  F   UNL A   1      43.777  25.771  25.844  1.00  0.00    -0.206 F 
ATOM     81  C   UNL A   1      42.895  22.335  25.136  1.00  0.00     0.022 A 
BRANCH  78  82
ATOM     82  S   UNL A   1      41.691  20.288  26.598  1.00  0.00     0.124 S 
ATOM     83  O   UNL A   1      42.402  19.948  27.824  1.00  0.00    -0.237 OA
ATOM     84  O   UNL A   1      40.246  20.447  26.716  1.00  0.00    -0.237 OA
ATOM     85  O   UNL A   1      42.145  19.587  25.398  1.00  0.00    -0.744 OA
ENDBRANCH  78  82
ENDBRANCH  51  75
BRANCH  63  86
ATOM     86  C   UNL A   1      46.569  25.723  32.738  1.00  0.00     0.023 A 
ATOM     87  C   UNL A   1      46.528  24.714  33.716  1.00  0.00     0.031 A 
ATOM     88  C   UNL A   1      47.829  26.140  32.271  1.00  0.00     0.131 A 
ATOM     89  C   UNL A   1      47.724  24.196  34.236  1.00  0.00     0.055 A 
ATOM     90  C   UNL A   1      49.013  25.574  32.745  1.00  0.00     0.041 A 
ATOM     91  F   UNL A   1      47.929  27.102  31.341  1.00  0.00    -0.206 F 
ATOM     92  C   UNL A   1      48.965  24.605  33.743  1.00  0.00     0.022 A 
BRANCH  89  93
ATOM     93  S   UNL A   1      47.640  23.047  35.637  1.00  0.00     0.124 S 
ATOM     94  O   UNL A   1      46.226  23.111  35.997  1.00  0.00    -0.237 OA
ATOM     95  O   UNL A   1      48.087  21.792  35.040  1.00  0.00    -0.237 OA
ATOM     96  O   UNL A   1      48.556  23.629  36.615  1.00  0.00    -0.744 OA
ENDBRANCH  89  93
ENDBRANCH  63  86
ENDBRANCH  37  38
ENDBRANCH  29  32
ENDBRANCH  27  28
ENDBRANCH  26  27
ENDBRANCH   1  26
TORSDOF 17
ENDMDL
MODEL 2
REMARK VINA RESULT:     -12.2      1.820      2.061
REMARK SMILES Cc1ccc2nc(C(=O)NCCCCCCNC(=O)c3ccc(-c4c5nc(c(-c6cc(S(=O)(=O)[O-])ccc6F)c6ccc([nH]6)c(-c6cc(S(=O)(=O)[O-])ccc6F)c6nc(c(-c7cc(S(=O)(=O)[O-])ccc7F)c7ccc4[nH]7)C=C6)C=C5)cc3)cc(N3CCOCC3)c2c1
REMARK SMILES IDX 14 1 13 2 12 3 11 4 10 5 8 6 9 7 7 9 1 10 2 11 3 12 92 13
REMARK SMILES IDX 4 14 91 15 5 16 84 17 6 18 83 19 85 20 86 21 90 22 87 23
REMARK SMILES IDX 89 24 88 25 15 26 16 27 17 28 18 29 19 31 20 32 21 33 82 34
REMARK SMILES IDX 22 35 81 36 23 37 24 38 25 39 75 40 26 41 80 42 74 43 76 44
REMARK SMILES IDX 27 45 79 46 73 47 72 48 28 50 60 51 40 52 59 53 41 54 44 55
REMARK SMILES IDX 58 56 77 57 42 58 43 59 57 61 78 62 45 63 29 64 30 65 38 66
REMARK SMILES IDX 31 67 37 68 39 69 36 70 32 71 33 72 34 73 35 74 61 75 62 76
REMARK SMILES IDX 70 77 63 78 69 79 71 80 68 81 64 82 65 83 66 84 67 85 46 86
REMARK SMILES IDX 47 87 55 88 48 89 54 90 56 91 53 92 49 93 50 94 51 95 52 96
REMARK H PARENT 10 8 17 30 76 49 44 60
REMARK Flexibility Score: inf
ROOT
ATOM      1  C   UNL A   1      32.276  27.160  25.043  1.00  0.00     0.002 C 
ENDROOT
BRANCH   1   2
ATOM      2  C   UNL A   1      30.892  27.707  24.671  1.00  0.00     0.002 C 
BRANCH   2   3
ATOM      3  C   UNL A   1      29.879  26.637  24.241  1.00  0.00     0.021 C 
BRANCH   3   4
ATOM      4  C   UNL A   1      30.433  25.216  24.364  1.00  0.00     0.116 C 
BRANCH   4   5
ATOM      5  N   UNL A   1      30.011  24.636  25.623  1.00  0.00    -0.351 N 
ATOM      6  C   UNL A   1      30.459  23.571  26.369  1.00  0.00     0.269 C 
ATOM      7  O   UNL A   1      29.805  23.318  27.386  1.00  0.00    -0.268 OA
ATOM      8  H   UNL A   1      29.246  25.102  26.030  1.00  0.00     0.163 HD
BRANCH   6   9
ATOM      9  C   UNL A   1      31.691  22.763  26.048  1.00  0.00     0.130 A 
ATOM     10  C   UNL A   1      37.850  21.171  24.871  1.00  0.00     0.044 C 
ATOM     11  C   UNL A   1      36.528  21.780  25.225  1.00  0.00    -0.050 A 
ATOM     12  C   UNL A   1      36.434  23.042  25.804  1.00  0.00     0.005 A 
ATOM     13  C   UNL A   1      35.349  21.067  24.983  1.00  0.00     0.016 A 
ATOM     14  C   UNL A   1      35.180  23.574  26.114  1.00  0.00     0.029 A 
ATOM     15  C   UNL A   1      34.081  21.570  25.357  1.00  0.00     0.024 A 
ATOM     16  C   UNL A   1      34.006  22.869  25.895  1.00  0.00     0.073 A 
ATOM     17  C   UNL A   1      32.875  20.837  25.218  1.00  0.00     0.049 A 
ATOM     18  N   UNL A   1      32.846  23.458  26.201  1.00  0.00    -0.242 NA
ATOM     19  C   UNL A   1      31.686  21.442  25.633  1.00  0.00     0.060 A 
BRANCH  17  20
ATOM     20  N   UNL A   1      32.869  19.550  24.690  1.00  0.00    -0.366 N 
ATOM     21  C   UNL A   1      32.847  18.411  25.624  1.00  0.00     0.145 C 
ATOM     22  C   UNL A   1      32.231  19.265  23.393  1.00  0.00     0.145 C 
ATOM     23  C   UNL A   1      33.468  17.190  24.929  1.00  0.00     0.181 C 
ATOM     24  C   UNL A   1      32.852  17.991  22.792  1.00  0.00     0.181 C 
ATOM     25  O   UNL A   1      32.781  16.882  23.705  1.00  0.00    -0.378 OA
ENDBRANCH  17  20
ENDBRANCH   6   9
ENDBRANCH   4   5
ENDBRANCH   3   4
ENDBRANCH   2   3
ENDBRANCH   1   2
BRANCH   1  26
ATOM     26  C   UNL A   1      32.873  27.749  26.324  1.00  0.00     0.021 C 
BRANCH  26  27
ATOM     27  C   UNL A   1      34.128  28.585  26.092  1.00  0.00     0.116 C 
BRANCH  27  28
ATOM     28  N   UNL A   1      33.903  29.979  26.443  1.00  0.00    -0.352 N 
ATOM     29  C   UNL A   1      34.523  30.737  27.404  1.00  0.00     0.251 C 
ATOM     30  H   UNL A   1      33.212  30.442  25.918  1.00  0.00     0.163 HD
ATOM     31  O   UNL A   1      34.025  31.799  27.760  1.00  0.00    -0.269 OA
BRANCH  29  32
ATOM     32  C   UNL A   1      35.784  30.257  28.009  1.00  0.00     0.039 A 
ATOM     33  C   UNL A   1      35.755  29.687  29.283  1.00  0.00     0.014 A 
ATOM     34  C   UNL A   1      36.993  30.382  27.318  1.00  0.00     0.014 A 
ATOM     35  C   UNL A   1      36.935  29.191  29.841  1.00  0.00     0.010 A 
ATOM     36  C   UNL A   1      38.152  29.820  27.844  1.00  0.00     0.010 A 
ATOM     37  C   UNL A   1      38.136  29.225  29.115  1.00  0.00    -0.014 A 
BRANCH  37  38
ATOM     38  C   UNL A   1      39.390  28.654  29.672  1.00  0.00     0.031 A 
ATOM     39  C   UNL A   1      40.029  29.280  30.882  1.00  0.00     0.074 A 
ATOM     40  C   UNL A   1      39.980  27.613  29.052  1.00  0.00     0.049 A 
ATOM     41  N   UNL A   1      41.157  28.979  31.472  1.00  0.00    -0.248 NA
ATOM     42  C   UNL A   1      39.319  30.416  31.488  1.00  0.00     0.031 C 
ATOM     43  C   UNL A   1      39.472  26.948  27.850  1.00  0.00     0.029 A 
ATOM     44  N   UNL A   1      41.138  26.936  29.340  1.00  0.00    -0.354 N 
ATOM     45  C   UNL A   1      41.297  29.894  32.510  1.00  0.00     0.074 A 
ATOM     46  C   UNL A   1      40.172  30.800  32.424  1.00  0.00     0.031 C 
ATOM     47  C   UNL A   1      40.298  25.944  27.521  1.00  0.00     0.029 A 
ATOM     48  C   UNL A   1      41.420  25.922  28.453  1.00  0.00     0.049 A 
ATOM     49  H   UNL A   1      41.713  27.155  30.108  1.00  0.00     0.167 HD
ATOM     50  C   UNL A   1      42.263  29.955  33.461  1.00  0.00     0.034 A 
ATOM     51  C   UNL A   1      42.472  25.080  28.391  1.00  0.00     0.034 A 
ATOM     52  C   UNL A   1      43.373  29.035  33.533  1.00  0.00     0.049 A 
ATOM     53  C   UNL A   1      43.551  25.188  29.440  1.00  0.00     0.074 A 
ATOM     54  C   UNL A   1      44.380  28.972  34.480  1.00  0.00     0.029 A 
ATOM     55  N   UNL A   1      43.629  28.023  32.615  1.00  0.00    -0.354 N 
ATOM     56  N   UNL A   1      43.644  26.028  30.445  1.00  0.00    -0.248 NA
ATOM     57  C   UNL A   1      44.659  24.230  29.350  1.00  0.00     0.031 C 
ATOM     58  C   UNL A   1      45.283  27.977  34.095  1.00  0.00     0.029 A 
ATOM     59  C   UNL A   1      44.796  27.356  32.956  1.00  0.00     0.049 A 
ATOM     60  H   UNL A   1      43.065  27.812  31.837  1.00  0.00     0.167 HD
ATOM     61  C   UNL A   1      44.804  25.673  31.129  1.00  0.00     0.074 A 
ATOM     62  C   UNL A   1      45.367  24.537  30.427  1.00  0.00     0.031 C 
ATOM     63  C   UNL A   1      45.351  26.229  32.240  1.00  0.00     0.034 A 
BRANCH  50  64
ATOM     64  C   UNL A   1      42.170  31.070  34.477  1.00  0.00     0.023 A 
ATOM     65  C   UNL A   1      42.793  32.314  34.270  1.00  0.00     0.031 A 
ATOM     66  C   UNL A   1      41.472  30.880  35.683  1.00  0.00     0.131 A 
ATOM     67  C   UNL A   1      42.777  33.284  35.283  1.00  0.00     0.055 A 
ATOM     68  C   UNL A   1      41.384  31.883  36.650  1.00  0.00     0.041 A 
ATOM     69  F   UNL A   1      40.874  29.708  35.949  1.00  0.00    -0.206 F 
ATOM     70  C   UNL A   1      42.053  33.089  36.461  1.00  0.00     0.022 A 
BRANCH  67  71
ATOM     71  S   UNL A   1      43.847  34.739  35.104  1.00  0.00     0.124 S 
ATOM     72  O   UNL A   1      43.397  35.573  36.216  1.00  0.00    -0.237 OA
ATOM     73  O   UNL A   1      45.181  34.166  35.233  1.00  0.00    -0.237 OA
ATOM     74  O   UNL A   1      43.510  35.250  33.776  1.00  0.00    -0.744 OA
ENDBRANCH  67  71
ENDBRANCH  50  64
BRANCH  51  75
ATOM     75  C   UNL A   1      42.565  24.070  27.299  1.00  0.00     0.023 A 
ATOM     76  C   UNL A   1      42.008  22.790  27.447  1.00  0.00     0.031 A 
ATOM     77  C   UNL A   1      43.249  24.355  26.103  1.00  0.00     0.131 A 
ATOM     78  C   UNL A   1      42.184  21.828  26.440  1.00  0.00     0.055 A 
ATOM     79  C   UNL A   1      43.373  23.413  25.079  1.00  0.00     0.041 A 
ATOM     80  F   UNL A   1      43.798  25.565  25.906  1.00  0.00    -0.206 F 
ATOM     81  C   UNL A   1      42.851  22.136  25.252  1.00  0.00     0.022 A 
BRANCH  78  82
ATOM     82  S   UNL A   1      41.609  20.135  26.746  1.00  0.00     0.124 S 
ATOM     83  O   UNL A   1      42.555  19.679  27.757  1.00  0.00    -0.237 OA
ATOM     84  O   UNL A   1      40.240  20.359  27.200  1.00  0.00    -0.237 OA
ATOM     85  O   UNL A   1      41.733  19.493  25.439  1.00  0.00    -0.744 OA
ENDBRANCH  78  82
ENDBRANCH  51  75
BRANCH  63  86
ATOM     86  C   UNL A   1      46.597  25.579  32.793  1.00  0.00     0.023 A 
ATOM     87  C   UNL A   1      47.877  25.882  32.297  1.00  0.00     0.031 A 
ATOM     88  C   UNL A   1      46.497  24.637  33.834  1.00  0.00     0.131 A 
ATOM     89  C   UNL A   1      48.999  25.208  32.802  1.00  0.00     0.055 A 
ATOM     90  C   UNL A   1      47.623  24.019  34.377  1.00  0.00     0.041 A 
ATOM     91  F   UNL A   1      45.300  24.307  34.344  1.00  0.00    -0.206 F 
ATOM     92  C   UNL A   1      48.883  24.294  33.851  1.00  0.00     0.022 A 
BRANCH  89  93
ATOM     93  S   UNL A   1      50.606  25.471  32.003  1.00  0.00     0.124 S 
ATOM     94  O   UNL A   1      50.248  25.450  30.588  1.00  0.00    -0.237 OA
ATOM     95  O   UNL A   1      51.013  26.767  32.536  1.00  0.00    -0.237 OA
ATOM     96  O   UNL A   1      51.405  24.335  32.457  1.00  0.00    -0.744 OA
ENDBRANCH  89  93
ENDBRANCH  63  86
ENDBRANCH  37  38
ENDBRANCH  29  32
ENDBRANCH  27  28
ENDBRANCH  26  27
ENDBRANCH   1  26
TORSDOF 17
ENDMDL
MODEL 3
REMARK VINA RESULT:     -12.2      5.179      8.470
REMARK SMILES Cc1ccc2nc(C(=O)NCCCCCCNC(=O)c3ccc(-c4c5nc(c(-c6cc(S(=O)(=O)[O-])ccc6F)c6ccc([nH]6)c(-c6cc(S(=O)(=O)[O-])ccc6F)c6nc(c(-c7cc(S(=O)(=O)[O-])ccc7F)c7ccc4[nH]7)C=C6)C=C5)cc3)cc(N3CCOCC3)c2c1
REMARK SMILES IDX 14 1 13 2 12 3 11 4 10 5 8 6 9 7 7 9 1 10 2 11 3 12 92 13
REMARK SMILES IDX 4 14 91 15 5 16 84 17 6 18 83 19 85 20 86 21 90 22 87 23
REMARK SMILES IDX 89 24 88 25 15 26 16 27 17 28 18 29 19 31 20 32 21 33 82 34
REMARK SMILES IDX 22 35 81 36 23 37 24 38 25 39 75 40 26 41 80 42 74 43 76 44
REMARK SMILES IDX 27 45 79 46 73 47 72 48 28 50 60 51 40 52 59 53 41 54 44 55
REMARK SMILES IDX 58 56 77 57 42 58 43 59 57 61 78 62 45 63 29 64 30 65 38 66
REMARK SMILES IDX 31 67 37 68 39 69 36 70 32 71 33 72 34 73 35 74 61 75 62 76
REMARK SMILES IDX 70 77 63 78 69 79 71 80 68 81 64 82 65 83 66 84 67 85 46 86
REMARK SMILES IDX 47 87 55 88 48 89 54 90 56 91 53 92 49 93 50 94 51 95 52 96
REMARK H PARENT 10 8 17 30 76 49 44 60
REMARK Flexibility Score: inf
ROOT
ATOM      1  C   UNL A   1      35.382  23.445  25.146  1.00  0.00     0.002 C 
ENDROOT
BRANCH   1   2
ATOM      2  C   UNL A   1      34.629  23.654  23.826  1.00  0.00     0.002 C 
BRANCH   2   3
ATOM      3  C   UNL A   1      33.384  22.773  23.656  1.00  0.00     0.021 C 
BRANCH   3   4
ATOM      4  C   UNL A   1      32.222  23.515  22.992  1.00  0.00     0.116 C 
BRANCH   4   5
ATOM      5  N   UNL A   1      32.678  24.139  21.767  1.00  0.00    -0.351 N 
ATOM      6  C   UNL A   1      32.709  25.441  21.325  1.00  0.00     0.269 C 
ATOM      7  O   UNL A   1      33.120  25.604  20.172  1.00  0.00    -0.268 OA
ATOM      8  H   UNL A   1      33.044  23.498  21.116  1.00  0.00     0.163 HD
BRANCH   6   9
ATOM      9  C   UNL A   1      32.333  26.635  22.165  1.00  0.00     0.130 A 
ATOM     10  C   UNL A   1      32.146  30.914  27.014  1.00  0.00     0.044 C 
ATOM     11  C   UNL A   1      32.414  29.829  26.016  1.00  0.00    -0.050 A 
ATOM     12  C   UNL A   1      33.547  29.025  26.095  1.00  0.00     0.005 A 
ATOM     13  C   UNL A   1      31.517  29.616  24.966  1.00  0.00     0.016 A 
ATOM     14  C   UNL A   1      33.756  28.021  25.147  1.00  0.00     0.029 A 
ATOM     15  C   UNL A   1      31.756  28.648  23.962  1.00  0.00     0.024 A 
ATOM     16  C   UNL A   1      32.881  27.813  24.090  1.00  0.00     0.073 A 
ATOM     17  C   UNL A   1      30.921  28.470  22.830  1.00  0.00     0.049 A 
ATOM     18  N   UNL A   1      33.145  26.818  23.236  1.00  0.00    -0.242 NA
ATOM     19  C   UNL A   1      31.270  27.484  21.903  1.00  0.00     0.060 A 
BRANCH  17  20
ATOM     20  N   UNL A   1      29.788  29.254  22.638  1.00  0.00    -0.366 N 
ATOM     21  C   UNL A   1      29.754  30.161  21.478  1.00  0.00     0.145 C 
ATOM     22  C   UNL A   1      28.458  28.781  23.058  1.00  0.00     0.145 C 
ATOM     23  C   UNL A   1      28.797  31.323  21.787  1.00  0.00     0.181 C 
ATOM     24  C   UNL A   1      27.535  29.994  23.279  1.00  0.00     0.181 C 
ATOM     25  O   UNL A   1      27.485  30.842  22.120  1.00  0.00    -0.378 OA
ENDBRANCH  17  20
ENDBRANCH   6   9
ENDBRANCH   4   5
ENDBRANCH   3   4
ENDBRANCH   2   3
ENDBRANCH   1   2
BRANCH   1  26
ATOM     26  C   UNL A   1      35.949  22.037  25.342  1.00  0.00     0.021 C 
BRANCH  26  27
ATOM     27  C   UNL A   1      37.285  21.806  24.645  1.00  0.00     0.116 C 
BRANCH  27  28
ATOM     28  N   UNL A   1      38.013  20.703  25.255  1.00  0.00    -0.352 N 
ATOM     29  C   UNL A   1      39.229  20.718  25.889  1.00  0.00     0.251 C 
ATOM     30  H   UNL A   1      37.570  19.825  25.207  1.00  0.00     0.163 HD
ATOM     31  O   UNL A   1      39.825  19.666  26.093  1.00  0.00    -0.269 OA
BRANCH  29  32
ATOM     32  C   UNL A   1      39.814  22.009  26.311  1.00  0.00     0.039 A 
ATOM     33  C   UNL A   1      40.928  22.010  27.152  1.00  0.00     0.014 A 
ATOM     34  C   UNL A   1      39.253  23.215  25.880  1.00  0.00     0.014 A 
ATOM     35  C   UNL A   1      41.513  23.224  27.518  1.00  0.00     0.010 A 
ATOM     36  C   UNL A   1      39.881  24.418  26.185  1.00  0.00     0.010 A 
ATOM     37  C   UNL A   1      41.014  24.436  27.013  1.00  0.00    -0.014 A 
BRANCH  37  38
ATOM     38  C   UNL A   1      41.655  25.734  27.349  1.00  0.00     0.031 A 
ATOM     39  C   UNL A   1      40.905  26.757  28.158  1.00  0.00     0.074 A 
ATOM     40  C   UNL A   1      42.886  26.009  26.875  1.00  0.00     0.049 A 
ATOM     41  N   UNL A   1      41.259  27.971  28.490  1.00  0.00    -0.248 NA
ATOM     42  C   UNL A   1      39.565  26.371  28.627  1.00  0.00     0.031 C 
ATOM     43  C   UNL A   1      43.694  25.109  26.049  1.00  0.00     0.029 A 
ATOM     44  N   UNL A   1      43.671  27.127  27.011  1.00  0.00    -0.354 N 
ATOM     45  C   UNL A   1      40.183  28.499  29.197  1.00  0.00     0.074 A 
ATOM     46  C   UNL A   1      39.141  27.495  29.184  1.00  0.00     0.031 C 
ATOM     47  C   UNL A   1      44.868  25.699  25.776  1.00  0.00     0.029 A 
ATOM     48  C   UNL A   1      44.881  27.035  26.361  1.00  0.00     0.049 A 
ATOM     49  H   UNL A   1      43.394  27.919  27.525  1.00  0.00     0.167 HD
ATOM     50  C   UNL A   1      40.086  29.700  29.819  1.00  0.00     0.034 A 
ATOM     51  C   UNL A   1      45.879  27.933  26.238  1.00  0.00     0.034 A 
ATOM     52  C   UNL A   1      41.141  30.684  29.826  1.00  0.00     0.049 A 
ATOM     53  C   UNL A   1      45.735  29.276  26.911  1.00  0.00     0.074 A 
ATOM     54  C   UNL A   1      41.171  31.912  30.465  1.00  0.00     0.029 A 
ATOM     55  N   UNL A   1      42.351  30.560  29.153  1.00  0.00    -0.354 N 
ATOM     56  N   UNL A   1      44.731  29.742  27.617  1.00  0.00    -0.248 NA
ATOM     57  C   UNL A   1      46.861  30.208  26.777  1.00  0.00     0.031 C 
ATOM     58  C   UNL A   1      42.361  32.559  30.117  1.00  0.00     0.029 A 
ATOM     59  C   UNL A   1      43.117  31.701  29.334  1.00  0.00     0.049 A 
ATOM     60  H   UNL A   1      42.624  29.775  28.625  1.00  0.00     0.167 HD
ATOM     61  C   UNL A   1      45.122  31.009  28.043  1.00  0.00     0.074 A 
ATOM     62  C   UNL A   1      46.457  31.225  27.522  1.00  0.00     0.031 C 
ATOM     63  C   UNL A   1      44.444  31.908  28.801  1.00  0.00     0.034 A 
BRANCH  50  64
ATOM     64  C   UNL A   1      38.783  30.020  30.516  1.00  0.00     0.023 A 
ATOM     65  C   UNL A   1      37.757  30.738  29.875  1.00  0.00     0.031 A 
ATOM     66  C   UNL A   1      38.572  29.626  31.849  1.00  0.00     0.131 A 
ATOM     67  C   UNL A   1      36.609  31.111  30.589  1.00  0.00     0.055 A 
ATOM     68  C   UNL A   1      37.387  29.922  32.526  1.00  0.00     0.041 A 
ATOM     69  F   UNL A   1      39.521  28.957  32.523  1.00  0.00    -0.206 F 
ATOM     70  C   UNL A   1      36.404  30.684  31.903  1.00  0.00     0.022 A 
BRANCH  67  71
ATOM     71  S   UNL A   1      35.462  32.292  29.827  1.00  0.00     0.124 S 
ATOM     72  O   UNL A   1      34.384  32.331  30.811  1.00  0.00    -0.237 OA
ATOM     73  O   UNL A   1      36.276  33.497  29.722  1.00  0.00    -0.237 OA
ATOM     74  O   UNL A   1      35.113  31.660  28.556  1.00  0.00    -0.744 OA
ENDBRANCH  67  71
ENDBRANCH  50  64
BRANCH  51  75
ATOM     75  C   UNL A   1      47.097  27.603  25.445  1.00  0.00     0.023 A 
ATOM     76  C   UNL A   1      47.187  27.936  24.084  1.00  0.00     0.031 A 
ATOM     77  C   UNL A   1      48.176  26.911  26.025  1.00  0.00     0.131 A 
ATOM     78  C   UNL A   1      48.307  27.538  23.337  1.00  0.00     0.055 A 
ATOM     79  C   UNL A   1      49.313  26.566  25.292  1.00  0.00     0.041 A 
ATOM     80  F   UNL A   1      48.145  26.570  27.324  1.00  0.00    -0.206 F 
ATOM     81  C   UNL A   1      49.377  26.867  23.936  1.00  0.00     0.022 A 
BRANCH  78  82
ATOM     82  S   UNL A   1      48.305  27.827  21.547  1.00  0.00     0.124 S 
ATOM     83  O   UNL A   1      48.618  26.499  21.032  1.00  0.00    -0.237 OA
ATOM     84  O   UNL A   1      46.944  28.300  21.319  1.00  0.00    -0.237 OA
ATOM     85  O   UNL A   1      49.351  28.831  21.364  1.00  0.00    -0.744 OA
ENDBRANCH  78  82
ENDBRANCH  51  75
BRANCH  63  86
ATOM     86  C   UNL A   1      45.161  33.189  29.155  1.00  0.00     0.023 A 
ATOM     87  C   UNL A   1      45.089  34.332  28.339  1.00  0.00     0.031 A 
ATOM     88  C   UNL A   1      45.934  33.262  30.328  1.00  0.00     0.131 A 
ATOM     89  C   UNL A   1      45.821  35.480  28.679  1.00  0.00     0.055 A 
ATOM     90  C   UNL A   1      46.607  34.428  30.694  1.00  0.00     0.041 A 
ATOM     91  F   UNL A   1      46.042  32.201  31.142  1.00  0.00    -0.206 F 
ATOM     92  C   UNL A   1      46.563  35.542  29.860  1.00  0.00     0.022 A 
BRANCH  89  93
ATOM     93  S   UNL A   1      45.869  36.862  27.505  1.00  0.00     0.124 S 
ATOM     94  O   UNL A   1      46.258  37.976  28.365  1.00  0.00    -0.237 OA
ATOM     95  O   UNL A   1      46.874  36.420  26.542  1.00  0.00    -0.237 OA
ATOM     96  O   UNL A   1      44.503  36.923  26.991  1.00  0.00    -0.744 OA
ENDBRANCH  89  93
ENDBRANCH  63  86
ENDBRANCH  37  38
ENDBRANCH  29  32
ENDBRANCH  27  28
ENDBRANCH  26  27
ENDBRANCH   1  26
TORSDOF 17
ENDMDL
