MODEL 1
REMARK VINA RESULT:     -10.7      0.000      0.000
REMARK SMILES COc1ccc([C@H]2CC(c3ccccc3)=NN2C(=O)CCCC(=O)NCCCCCCNC(=O)c2ccc(-c3c4nc(c(-c5cc(S(=O)(=O)[O-])ccc5F)c5ccc([nH]5)c(-c5cc(S(=O)(=O)[O-])ccc5F)c5nc(c(-c6cc(S(=O)(=O)[O-])ccc6F)c6ccc3[nH]6)C=C5)C=C4)cc2)cc1
REMARK SMILES IDX 27 1 26 2 25 3 23 4 24 5 22 7 21 8 20 9 18 10 19 11 17 12
REMARK SMILES IDX 7 13 8 14 9 15 16 16 6 17 3 18 4 19 99 20 5 21 98 22 2 23
REMARK SMILES IDX 1 24 10 25 11 26 15 27 12 28 14 29 13 30 28 31 29 32 30 33
REMARK SMILES IDX 31 34 32 35 33 36 34 38 35 39 36 40 97 41 37 42 96 43 38 44
REMARK SMILES IDX 39 45 40 46 90 47 41 48 95 49 89 50 91 51 42 52 94 53 88 54
REMARK SMILES IDX 87 55 43 57 75 58 55 59 74 60 56 61 59 62 73 63 92 64 57 65
REMARK SMILES IDX 58 66 72 68 93 69 60 70 44 71 45 72 53 73 46 74 52 75 54 76
REMARK SMILES IDX 51 77 47 78 48 79 49 80 50 81 76 82 77 83 85 84 78 85 84 86
REMARK SMILES IDX 86 87 83 88 79 89 80 90 81 91 82 92 61 93 62 94 70 95 63 96
REMARK SMILES IDX 69 97 71 98 68 99 64 100 65 101 66 102 67 103
REMARK H PARENT 25 6 32 37 91 56 59 67
REMARK Flexibility Score: inf
ROOT
ATOM      1  C   UNL A   1      34.914  29.262  27.222  1.00  0.00     0.021 C 
ENDROOT
BRANCH   1   2
ATOM      2  C   UNL A   1      33.433  29.013  26.980  1.00  0.00     0.116 C 
BRANCH   2   3
ATOM      3  N   UNL A   1      33.123  29.332  25.616  1.00  0.00    -0.356 N 
ATOM      4  C   UNL A   1      33.470  28.648  24.501  1.00  0.00     0.220 C 
ATOM      5  O   UNL A   1      33.446  29.280  23.440  1.00  0.00    -0.275 OA
ATOM      6  H   UNL A   1      32.593  30.149  25.474  1.00  0.00     0.163 HD
BRANCH   4   7
ATOM      7  C   UNL A   1      33.630  27.137  24.479  1.00  0.00     0.100 C 
BRANCH   7   8
ATOM      8  C   UNL A   1      33.836  26.170  23.341  1.00  0.00     0.020 C 
BRANCH   8   9
ATOM      9  C   UNL A   1      34.373  24.750  23.500  1.00  0.00     0.103 C 
BRANCH   9  10
ATOM     10  C   UNL A   1      34.500  23.789  24.708  1.00  0.00     0.243 C 
ATOM     11  O   UNL A   1      35.425  24.093  25.489  1.00  0.00    -0.273 OA
BRANCH  10  12
ATOM     12  N   UNL A   1      33.603  22.806  25.100  1.00  0.00    -0.225 N 
ATOM     13  C   UNL A   1      32.302  22.785  25.822  1.00  0.00     0.147 C 
ATOM     14  C   UNL A   1      31.827  21.335  25.756  1.00  0.00     0.091 C 
ATOM     15  C   UNL A   1      32.984  20.717  25.043  1.00  0.00     0.071 C 
ATOM     16  N   UNL A   1      33.937  21.519  24.697  1.00  0.00    -0.174 NA
BRANCH  13  17
ATOM     17  C   UNL A   1      31.239  23.726  25.273  1.00  0.00    -0.023 A 
ATOM     18  C   UNL A   1      30.144  26.017  24.133  1.00  0.00     0.118 A 
ATOM     19  C   UNL A   1      30.283  25.937  25.517  1.00  0.00     0.047 A 
ATOM     20  C   UNL A   1      30.387  24.897  23.338  1.00  0.00     0.047 A 
ATOM     21  C   UNL A   1      30.776  24.770  26.100  1.00  0.00     0.010 A 
ATOM     22  C   UNL A   1      30.913  23.739  23.912  1.00  0.00     0.010 A 
BRANCH  18  23
ATOM     23  O   UNL A   1      29.977  27.274  23.621  1.00  0.00    -0.497 OA
ATOM     24  C   UNL A   1      30.624  27.487  22.376  1.00  0.00     0.278 C 
ENDBRANCH  18  23
ENDBRANCH  13  17
BRANCH  15  25
ATOM     25  C   UNL A   1      33.022  19.280  24.747  1.00  0.00    -0.002 A 
ATOM     26  C   UNL A   1      33.084  18.853  23.417  1.00  0.00     0.010 A 
ATOM     27  C   UNL A   1      32.903  18.356  25.786  1.00  0.00     0.010 A 
ATOM     28  C   UNL A   1      33.029  17.490  23.128  1.00  0.00     0.001 A 
ATOM     29  C   UNL A   1      32.828  16.994  25.489  1.00  0.00     0.001 A 
ATOM     30  C   UNL A   1      32.893  16.563  24.163  1.00  0.00     0.000 A 
ENDBRANCH  15  25
ENDBRANCH  10  12
ENDBRANCH   9  10
ENDBRANCH   8   9
ENDBRANCH   7   8
ENDBRANCH   4   7
ENDBRANCH   2   3
ENDBRANCH   1   2
BRANCH   1  31
ATOM     31  C   UNL A   1      35.117  30.377  28.250  1.00  0.00     0.002 C 
BRANCH  31  32
ATOM     32  C   UNL A   1      35.116  31.780  27.631  1.00  0.00     0.002 C 
BRANCH  32  33
ATOM     33  C   UNL A   1      33.878  32.610  27.983  1.00  0.00     0.021 C 
BRANCH  33  34
ATOM     34  C   UNL A   1      34.143  34.110  28.001  1.00  0.00     0.116 C 
BRANCH  34  35
ATOM     35  N   UNL A   1      33.646  34.710  29.228  1.00  0.00    -0.352 N 
ATOM     36  C   UNL A   1      33.970  34.393  30.520  1.00  0.00     0.251 C 
ATOM     37  H   UNL A   1      32.993  35.438  29.115  1.00  0.00     0.163 HD
ATOM     38  O   UNL A   1      33.274  34.772  31.448  1.00  0.00    -0.269 OA
BRANCH  36  39
ATOM     39  C   UNL A   1      35.177  33.578  30.748  1.00  0.00     0.039 A 
ATOM     40  C   UNL A   1      36.411  34.060  30.316  1.00  0.00     0.014 A 
ATOM     41  C   UNL A   1      35.074  32.356  31.421  1.00  0.00     0.014 A 
ATOM     42  C   UNL A   1      37.559  33.320  30.592  1.00  0.00     0.010 A 
ATOM     43  C   UNL A   1      36.226  31.663  31.763  1.00  0.00     0.010 A 
ATOM     44  C   UNL A   1      37.477  32.131  31.336  1.00  0.00    -0.014 A 
BRANCH  44  45
ATOM     45  C   UNL A   1      38.694  31.347  31.655  1.00  0.00     0.031 A 
ATOM     46  C   UNL A   1      39.485  31.678  32.891  1.00  0.00     0.074 A 
ATOM     47  C   UNL A   1      39.103  30.383  30.806  1.00  0.00     0.049 A 
ATOM     48  N   UNL A   1      40.603  31.153  33.318  1.00  0.00    -0.248 NA
ATOM     49  C   UNL A   1      38.966  32.761  33.744  1.00  0.00     0.031 C 
ATOM     50  C   UNL A   1      38.430  30.018  29.557  1.00  0.00     0.029 A 
ATOM     51  N   UNL A   1      40.183  29.541  30.858  1.00  0.00    -0.354 N 
ATOM     52  C   UNL A   1      40.932  31.854  34.474  1.00  0.00     0.074 A 
ATOM     53  C   UNL A   1      39.922  32.872  34.655  1.00  0.00     0.031 C 
ATOM     54  C   UNL A   1      39.103  29.014  28.972  1.00  0.00     0.029 A 
ATOM     55  C   UNL A   1      40.280  28.697  29.775  1.00  0.00     0.049 A 
ATOM     56  H   UNL A   1      40.830  29.540  31.601  1.00  0.00     0.167 HD
ATOM     57  C   UNL A   1      41.973  31.648  35.315  1.00  0.00     0.034 A 
ATOM     58  C   UNL A   1      41.223  27.788  29.457  1.00  0.00     0.034 A 
ATOM     59  C   UNL A   1      42.953  30.607  35.125  1.00  0.00     0.049 A 
ATOM     60  C   UNL A   1      42.374  27.585  30.413  1.00  0.00     0.074 A 
ATOM     61  C   UNL A   1      44.002  30.255  35.956  1.00  0.00     0.029 A 
ATOM     62  N   UNL A   1      43.014  29.762  34.025  1.00  0.00    -0.354 N 
ATOM     63  N   UNL A   1      42.627  28.201  31.546  1.00  0.00    -0.248 NA
ATOM     64  C   UNL A   1      43.359  26.556  30.056  1.00  0.00     0.031 C 
ATOM     65  C   UNL A   1      44.743  29.254  35.321  1.00  0.00     0.029 A 
ATOM     66  C   UNL A   1      44.106  28.916  34.138  1.00  0.00     0.049 A 
ATOM     67  H   UNL A   1      42.375  29.762  33.277  1.00  0.00     0.167 HD
ATOM     68  C   UNL A   1      43.782  27.610  32.050  1.00  0.00     0.074 A 
ATOM     69  C   UNL A   1      44.161  26.576  31.110  1.00  0.00     0.031 C 
ATOM     70  C   UNL A   1      44.468  27.893  33.186  1.00  0.00     0.034 A 
BRANCH  57  71
ATOM     71  C   UNL A   1      42.126  32.577  36.493  1.00  0.00     0.023 A 
ATOM     72  C   UNL A   1      41.629  32.254  37.768  1.00  0.00     0.031 A 
ATOM     73  C   UNL A   1      42.801  33.801  36.340  1.00  0.00     0.131 A 
ATOM     74  C   UNL A   1      41.771  33.164  38.826  1.00  0.00     0.055 A 
ATOM     75  C   UNL A   1      43.004  34.669  37.414  1.00  0.00     0.041 A 
ATOM     76  F   UNL A   1      43.276  34.174  35.141  1.00  0.00    -0.206 F 
ATOM     77  C   UNL A   1      42.480  34.357  38.664  1.00  0.00     0.022 A 
BRANCH  74  78
ATOM     78  S   UNL A   1      40.926  32.817  40.393  1.00  0.00     0.124 S 
ATOM     79  O   UNL A   1      39.535  32.709  39.960  1.00  0.00    -0.237 OA
ATOM     80  O   UNL A   1      41.558  31.577  40.825  1.00  0.00    -0.237 OA
ATOM     81  O   UNL A   1      41.227  33.989  41.211  1.00  0.00    -0.744 OA
ENDBRANCH  74  78
ENDBRANCH  57  71
BRANCH  58  82
ATOM     82  C   UNL A   1      41.147  27.021  28.179  1.00  0.00     0.023 A 
ATOM     83  C   UNL A   1      40.822  25.656  28.167  1.00  0.00     0.031 A 
ATOM     84  C   UNL A   1      41.471  27.629  26.952  1.00  0.00     0.131 A 
ATOM     85  C   UNL A   1      40.896  24.927  26.969  1.00  0.00     0.055 A 
ATOM     86  C   UNL A   1      41.477  26.916  25.752  1.00  0.00     0.041 A 
ATOM     87  F   UNL A   1      41.786  28.934  26.902  1.00  0.00    -0.206 F 
ATOM     88  C   UNL A   1      41.207  25.552  25.759  1.00  0.00     0.022 A 
BRANCH  85  89
ATOM     89  S   UNL A   1      40.706  23.125  27.036  1.00  0.00     0.124 S 
ATOM     90  O   UNL A   1      39.268  22.972  26.843  1.00  0.00    -0.237 OA
ATOM     91  O   UNL A   1      41.553  22.690  25.932  1.00  0.00    -0.237 OA
ATOM     92  O   UNL A   1      41.196  22.782  28.370  1.00  0.00    -0.744 OA
ENDBRANCH  85  89
ENDBRANCH  58  82
BRANCH  70  93
ATOM     93  C   UNL A   1      45.669  27.032  33.496  1.00  0.00     0.023 A 
ATOM     94  C   UNL A   1      45.547  25.807  34.174  1.00  0.00     0.031 A 
ATOM     95  C   UNL A   1      46.954  27.449  33.106  1.00  0.00     0.131 A 
ATOM     96  C   UNL A   1      46.697  25.070  34.493  1.00  0.00     0.055 A 
ATOM     97  C   UNL A   1      48.086  26.678  33.365  1.00  0.00     0.041 A 
ATOM     98  F   UNL A   1      47.128  28.612  32.458  1.00  0.00    -0.206 F 
ATOM     99  C   UNL A   1      47.965  25.488  34.075  1.00  0.00     0.022 A 
BRANCH  96 100
ATOM    100  S   UNL A   1      46.527  23.606  35.549  1.00  0.00     0.124 S 
ATOM    101  O   UNL A   1      45.175  23.765  36.071  1.00  0.00    -0.237 OA
ATOM    102  O   UNL A   1      46.722  22.513  34.601  1.00  0.00    -0.237 OA
ATOM    103  O   UNL A   1      47.595  23.768  36.534  1.00  0.00    -0.744 OA
ENDBRANCH  96 100
ENDBRANCH  70  93
ENDBRANCH  44  45
ENDBRANCH  36  39
ENDBRANCH  34  35
ENDBRANCH  33  34
ENDBRANCH  32  33
ENDBRANCH  31  32
ENDBRANCH   1  31
TORSDOF 23
ENDMDL
MODEL 2
REMARK VINA RESULT:     -10.7      1.714      2.003
REMARK SMILES COc1ccc([C@H]2CC(c3ccccc3)=NN2C(=O)CCCC(=O)NCCCCCCNC(=O)c2ccc(-c3c4nc(c(-c5cc(S(=O)(=O)[O-])ccc5F)c5ccc([nH]5)c(-c5cc(S(=O)(=O)[O-])ccc5F)c5nc(c(-c6cc(S(=O)(=O)[O-])ccc6F)c6ccc3[nH]6)C=C5)C=C4)cc2)cc1
REMARK SMILES IDX 27 1 26 2 25 3 23 4 24 5 22 7 21 8 20 9 18 10 19 11 17 12
REMARK SMILES IDX 7 13 8 14 9 15 16 16 6 17 3 18 4 19 99 20 5 21 98 22 2 23
REMARK SMILES IDX 1 24 10 25 11 26 15 27 12 28 14 29 13 30 28 31 29 32 30 33
REMARK SMILES IDX 31 34 32 35 33 36 34 38 35 39 36 40 97 41 37 42 96 43 38 44
REMARK SMILES IDX 39 45 40 46 90 47 41 48 95 49 89 50 91 51 42 52 94 53 88 54
REMARK SMILES IDX 87 55 43 57 75 58 55 59 74 60 56 61 59 62 73 63 92 64 57 65
REMARK SMILES IDX 58 66 72 68 93 69 60 70 44 71 45 72 53 73 46 74 52 75 54 76
REMARK SMILES IDX 51 77 47 78 48 79 49 80 50 81 76 82 77 83 85 84 78 85 84 86
REMARK SMILES IDX 86 87 83 88 79 89 80 90 81 91 82 92 61 93 62 94 70 95 63 96
REMARK SMILES IDX 69 97 71 98 68 99 64 100 65 101 66 102 67 103
REMARK H PARENT 25 6 32 37 91 56 59 67
REMARK Flexibility Score: inf
ROOT
ATOM      1  C   UNL A   1      34.721  29.485  27.342  1.00  0.00     0.021 C 
ENDROOT
BRANCH   1   2
ATOM      2  C   UNL A   1      33.347  29.587  26.698  1.00  0.00     0.116 C 
BRANCH   2   3
ATOM      3  N   UNL A   1      33.486  29.448  25.277  1.00  0.00    -0.356 N 
ATOM      4  C   UNL A   1      33.852  28.346  24.580  1.00  0.00     0.220 C 
ATOM      5  O   UNL A   1      34.281  28.538  23.438  1.00  0.00    -0.275 OA
ATOM      6  H   UNL A   1      33.291  30.251  24.743  1.00  0.00     0.163 HD
BRANCH   4   7
ATOM      7  C   UNL A   1      33.526  26.936  25.040  1.00  0.00     0.100 C 
BRANCH   7   8
ATOM      8  C   UNL A   1      34.318  25.941  25.851  1.00  0.00     0.020 C 
BRANCH   8   9
ATOM      9  C   UNL A   1      34.545  24.485  25.450  1.00  0.00     0.103 C 
BRANCH   9  10
ATOM     10  C   UNL A   1      34.253  23.132  26.143  1.00  0.00     0.243 C 
ATOM     11  O   UNL A   1      34.676  23.074  27.317  1.00  0.00    -0.273 OA
BRANCH  10  12
ATOM     12  N   UNL A   1      33.427  22.115  25.690  1.00  0.00    -0.225 N 
ATOM     13  C   UNL A   1      32.059  22.039  25.110  1.00  0.00     0.147 C 
ATOM     14  C   UNL A   1      31.868  20.576  24.712  1.00  0.00     0.091 C 
ATOM     15  C   UNL A   1      33.164  20.009  25.191  1.00  0.00     0.071 C 
ATOM     16  N   UNL A   1      33.994  20.847  25.719  1.00  0.00    -0.174 NA
BRANCH  13  17
ATOM     17  C   UNL A   1      31.804  22.958  23.924  1.00  0.00    -0.023 A 
ATOM     18  C   UNL A   1      31.879  25.266  22.369  1.00  0.00     0.118 A 
ATOM     19  C   UNL A   1      30.840  25.083  23.279  1.00  0.00     0.047 A 
ATOM     20  C   UNL A   1      32.776  24.229  22.111  1.00  0.00     0.047 A 
ATOM     21  C   UNL A   1      30.763  23.904  24.019  1.00  0.00     0.010 A 
ATOM     22  C   UNL A   1      32.724  23.061  22.873  1.00  0.00     0.010 A 
BRANCH  18  23
ATOM     23  O   UNL A   1      32.076  26.548  21.937  1.00  0.00    -0.497 OA
ATOM     24  C   UNL A   1      31.064  27.460  22.335  1.00  0.00     0.278 C 
ENDBRANCH  18  23
ENDBRANCH  13  17
BRANCH  15  25
ATOM     25  C   UNL A   1      33.470  18.580  25.055  1.00  0.00    -0.002 A 
ATOM     26  C   UNL A   1      32.567  17.633  25.546  1.00  0.00     0.010 A 
ATOM     27  C   UNL A   1      34.698  18.183  24.522  1.00  0.00     0.010 A 
ATOM     28  C   UNL A   1      32.896  16.278  25.500  1.00  0.00     0.001 A 
ATOM     29  C   UNL A   1      35.030  16.827  24.497  1.00  0.00     0.001 A 
ATOM     30  C   UNL A   1      34.129  15.878  24.984  1.00  0.00     0.000 A 
ENDBRANCH  15  25
ENDBRANCH  10  12
ENDBRANCH   9  10
ENDBRANCH   8   9
ENDBRANCH   7   8
ENDBRANCH   4   7
ENDBRANCH   2   3
ENDBRANCH   1   2
BRANCH   1  31
ATOM     31  C   UNL A   1      34.941  30.626  28.338  1.00  0.00     0.002 C 
BRANCH  31  32
ATOM     32  C   UNL A   1      34.838  32.016  27.700  1.00  0.00     0.002 C 
BRANCH  32  33
ATOM     33  C   UNL A   1      33.605  32.810  28.140  1.00  0.00     0.021 C 
BRANCH  33  34
ATOM     34  C   UNL A   1      33.792  34.319  28.044  1.00  0.00     0.116 C 
BRANCH  34  35
ATOM     35  N   UNL A   1      33.209  34.989  29.194  1.00  0.00    -0.352 N 
ATOM     36  C   UNL A   1      33.446  34.757  30.523  1.00  0.00     0.251 C 
ATOM     37  H   UNL A   1      32.559  35.700  28.992  1.00  0.00     0.163 HD
ATOM     38  O   UNL A   1      32.686  35.185  31.376  1.00  0.00    -0.269 OA
BRANCH  36  39
ATOM     39  C   UNL A   1      34.641  33.972  30.883  1.00  0.00     0.039 A 
ATOM     40  C   UNL A   1      35.898  34.437  30.501  1.00  0.00     0.014 A 
ATOM     41  C   UNL A   1      34.502  32.796  31.628  1.00  0.00     0.014 A 
ATOM     42  C   UNL A   1      37.030  33.730  30.899  1.00  0.00     0.010 A 
ATOM     43  C   UNL A   1      35.634  32.140  32.090  1.00  0.00     0.010 A 
ATOM     44  C   UNL A   1      36.907  32.592  31.714  1.00  0.00    -0.014 A 
BRANCH  44  45
ATOM     45  C   UNL A   1      38.106  31.845  32.164  1.00  0.00     0.031 A 
ATOM     46  C   UNL A   1      38.788  32.240  33.445  1.00  0.00     0.074 A 
ATOM     47  C   UNL A   1      38.598  30.855  31.392  1.00  0.00     0.049 A 
ATOM     48  N   UNL A   1      39.875  31.754  33.983  1.00  0.00    -0.248 NA
ATOM     49  C   UNL A   1      38.184  33.346  34.207  1.00  0.00     0.031 C 
ATOM     50  C   UNL A   1      38.035  30.428  30.108  1.00  0.00     0.029 A 
ATOM     51  N   UNL A   1      39.683  30.036  31.566  1.00  0.00    -0.354 N 
ATOM     52  C   UNL A   1      40.097  32.506  35.132  1.00  0.00     0.074 A 
ATOM     53  C   UNL A   1      39.060  33.511  35.187  1.00  0.00     0.031 C 
ATOM     54  C   UNL A   1      38.770  29.414  29.622  1.00  0.00     0.029 A 
ATOM     55  C   UNL A   1      39.881  29.152  30.531  1.00  0.00     0.049 A 
ATOM     56  H   UNL A   1      40.267  30.078  32.358  1.00  0.00     0.167 HD
ATOM     57  C   UNL A   1      41.069  32.353  36.062  1.00  0.00     0.034 A 
ATOM     58  C   UNL A   1      40.861  28.248  30.328  1.00  0.00     0.034 A 
ATOM     59  C   UNL A   1      42.077  31.324  35.997  1.00  0.00     0.049 A 
ATOM     60  C   UNL A   1      41.933  28.105  31.382  1.00  0.00     0.074 A 
ATOM     61  C   UNL A   1      43.060  31.026  36.924  1.00  0.00     0.029 A 
ATOM     62  N   UNL A   1      42.241  30.437  34.941  1.00  0.00    -0.354 N 
ATOM     63  N   UNL A   1      42.082  28.771  32.505  1.00  0.00    -0.248 NA
ATOM     64  C   UNL A   1      42.960  27.082  31.149  1.00  0.00     0.031 C 
ATOM     65  C   UNL A   1      43.865  30.014  36.393  1.00  0.00     0.029 A 
ATOM     66  C   UNL A   1      43.333  29.617  35.177  1.00  0.00     0.049 A 
ATOM     67  H   UNL A   1      41.665  30.395  34.144  1.00  0.00     0.167 HD
ATOM     68  C   UNL A   1      43.201  28.222  33.126  1.00  0.00     0.074 A 
ATOM     69  C   UNL A   1      43.672  27.159  32.264  1.00  0.00     0.031 C 
ATOM     70  C   UNL A   1      43.787  28.563  34.301  1.00  0.00     0.034 A 
BRANCH  57  71
ATOM     71  C   UNL A   1      41.111  33.331  37.209  1.00  0.00     0.023 A 
ATOM     72  C   UNL A   1      40.411  33.107  38.408  1.00  0.00     0.031 A 
ATOM     73  C   UNL A   1      41.882  34.503  37.107  1.00  0.00     0.131 A 
ATOM     74  C   UNL A   1      40.458  34.060  39.436  1.00  0.00     0.055 A 
ATOM     75  C   UNL A   1      41.984  35.412  38.161  1.00  0.00     0.041 A 
ATOM     76  F   UNL A   1      42.552  34.784  35.978  1.00  0.00    -0.206 F 
ATOM     77  C   UNL A   1      41.263  35.198  39.331  1.00  0.00     0.022 A 
BRANCH  74  78
ATOM     78  S   UNL A   1      39.372  33.847  40.872  1.00  0.00     0.124 S 
ATOM     79  O   UNL A   1      38.265  33.089  40.295  1.00  0.00    -0.237 OA
ATOM     80  O   UNL A   1      40.223  33.123  41.808  1.00  0.00    -0.237 OA
ATOM     81  O   UNL A   1      39.043  35.217  41.260  1.00  0.00    -0.744 OA
ENDBRANCH  74  78
ENDBRANCH  57  71
BRANCH  58  82
ATOM     82  C   UNL A   1      40.902  27.429  29.081  1.00  0.00     0.023 A 
ATOM     83  C   UNL A   1      41.818  27.709  28.056  1.00  0.00     0.031 A 
ATOM     84  C   UNL A   1      39.972  26.395  28.866  1.00  0.00     0.131 A 
ATOM     85  C   UNL A   1      41.741  27.016  26.837  1.00  0.00     0.055 A 
ATOM     86  C   UNL A   1      39.943  25.661  27.679  1.00  0.00     0.041 A 
ATOM     87  F   UNL A   1      39.074  26.079  29.813  1.00  0.00    -0.206 F 
ATOM     88  C   UNL A   1      40.820  25.984  26.647  1.00  0.00     0.022 A 
BRANCH  85  89
ATOM     89  S   UNL A   1      42.779  27.570  25.457  1.00  0.00     0.124 S 
ATOM     90  O   UNL A   1      44.054  27.811  26.124  1.00  0.00    -0.237 OA
ATOM     91  O   UNL A   1      42.729  26.421  24.561  1.00  0.00    -0.237 OA
ATOM     92  O   UNL A   1      42.091  28.767  24.974  1.00  0.00    -0.744 OA
ENDBRANCH  85  89
ENDBRANCH  58  82
BRANCH  70  93
ATOM     93  C   UNL A   1      44.972  27.738  34.743  1.00  0.00     0.023 A 
ATOM     94  C   UNL A   1      44.822  26.604  35.559  1.00  0.00     0.031 A 
ATOM     95  C   UNL A   1      46.270  28.098  34.340  1.00  0.00     0.131 A 
ATOM     96  C   UNL A   1      45.957  25.903  35.994  1.00  0.00     0.055 A 
ATOM     97  C   UNL A   1      47.389  27.356  34.719  1.00  0.00     0.041 A 
ATOM     98  F   UNL A   1      46.472  29.174  33.563  1.00  0.00    -0.206 F 
ATOM     99  C   UNL A   1      47.238  26.260  35.563  1.00  0.00     0.022 A 
BRANCH  96 100
ATOM    100  S   UNL A   1      45.746  24.577  37.212  1.00  0.00     0.124 S 
ATOM    101  O   UNL A   1      44.294  24.505  37.334  1.00  0.00    -0.237 OA
ATOM    102  O   UNL A   1      46.389  23.443  36.554  1.00  0.00    -0.237 OA
ATOM    103  O   UNL A   1      46.443  25.083  38.393  1.00  0.00    -0.744 OA
ENDBRANCH  96 100
ENDBRANCH  70  93
ENDBRANCH  44  45
ENDBRANCH  36  39
ENDBRANCH  34  35
ENDBRANCH  33  34
ENDBRANCH  32  33
ENDBRANCH  31  32
ENDBRANCH   1  31
TORSDOF 23
ENDMDL
MODEL 3
REMARK VINA RESULT:     -10.2      5.530     10.625
REMARK SMILES COc1ccc([C@H]2CC(c3ccccc3)=NN2C(=O)CCCC(=O)NCCCCCCNC(=O)c2ccc(-c3c4nc(c(-c5cc(S(=O)(=O)[O-])ccc5F)c5ccc([nH]5)c(-c5cc(S(=O)(=O)[O-])ccc5F)c5nc(c(-c6cc(S(=O)(=O)[O-])ccc6F)c6ccc3[nH]6)C=C5)C=C4)cc2)cc1
REMARK SMILES IDX 27 1 26 2 25 3 23 4 24 5 22 7 21 8 20 9 18 10 19 11 17 12
REMARK SMILES IDX 7 13 8 14 9 15 16 16 6 17 3 18 4 19 99 20 5 21 98 22 2 23
REMARK SMILES IDX 1 24 10 25 11 26 15 27 12 28 14 29 13 30 28 31 29 32 30 33
REMARK SMILES IDX 31 34 32 35 33 36 34 38 35 39 36 40 97 41 37 42 96 43 38 44
REMARK SMILES IDX 39 45 40 46 90 47 41 48 95 49 89 50 91 51 42 52 94 53 88 54
REMARK SMILES IDX 87 55 43 57 75 58 55 59 74 60 56 61 59 62 73 63 92 64 57 65
REMARK SMILES IDX 58 66 72 68 93 69 60 70 44 71 45 72 53 73 46 74 52 75 54 76
REMARK SMILES IDX 51 77 47 78 48 79 49 80 50 81 76 82 77 83 85 84 78 85 84 86
REMARK SMILES IDX 86 87 83 88 79 89 80 90 81 91 82 92 61 93 62 94 70 95 63 96
REMARK SMILES IDX 69 97 71 98 68 99 64 100 65 101 66 102 67 103
REMARK H PARENT 25 6 32 37 91 56 59 67
REMARK Flexibility Score: inf
ROOT
ATOM      1  C   UNL A   1      38.845  23.649  26.750  1.00  0.00     0.021 C 
ENDROOT
BRANCH   1   2
ATOM      2  C   UNL A   1      37.750  23.145  25.822  1.00  0.00     0.116 C 
BRANCH   2   3
ATOM      3  N   UNL A   1      36.482  23.281  26.479  1.00  0.00    -0.356 N 
ATOM      4  C   UNL A   1      35.267  23.473  25.912  1.00  0.00     0.220 C 
ATOM      5  O   UNL A   1      34.391  23.945  26.643  1.00  0.00    -0.275 OA
ATOM      6  H   UNL A   1      36.497  23.228  27.461  1.00  0.00     0.163 HD
BRANCH   4   7
ATOM      7  C   UNL A   1      34.898  22.915  24.549  1.00  0.00     0.100 C 
BRANCH   7   8
ATOM      8  C   UNL A   1      35.382  23.259  23.163  1.00  0.00     0.020 C 
BRANCH   8   9
ATOM      9  C   UNL A   1      34.472  23.646  22.001  1.00  0.00     0.103 C 
BRANCH   9  10
ATOM     10  C   UNL A   1      33.306  24.654  21.851  1.00  0.00     0.243 C 
ATOM     11  O   UNL A   1      33.098  25.001  20.670  1.00  0.00    -0.273 OA
BRANCH  10  12
ATOM     12  N   UNL A   1      32.383  25.023  22.818  1.00  0.00    -0.225 N 
ATOM     13  C   UNL A   1      31.118  24.448  23.351  1.00  0.00     0.147 C 
ATOM     14  C   UNL A   1      30.727  25.347  24.523  1.00  0.00     0.091 C 
ATOM     15  C   UNL A   1      31.821  26.361  24.445  1.00  0.00     0.071 C 
ATOM     16  N   UNL A   1      32.705  26.177  23.521  1.00  0.00    -0.174 NA
BRANCH  13  17
ATOM     17  C   UNL A   1      31.199  22.994  23.790  1.00  0.00    -0.023 A 
ATOM     18  C   UNL A   1      32.347  20.590  24.601  1.00  0.00     0.118 A 
ATOM     19  C   UNL A   1      32.171  20.845  23.243  1.00  0.00     0.047 A 
ATOM     20  C   UNL A   1      31.796  21.449  25.552  1.00  0.00     0.047 A 
ATOM     21  C   UNL A   1      31.544  22.020  22.830  1.00  0.00     0.010 A 
ATOM     22  C   UNL A   1      31.199  22.643  25.146  1.00  0.00     0.010 A 
BRANCH  18  23
ATOM     23  O   UNL A   1      33.244  19.607  24.914  1.00  0.00    -0.497 OA
ATOM     24  C   UNL A   1      32.714  18.292  24.849  1.00  0.00     0.278 C 
ENDBRANCH  18  23
ENDBRANCH  13  17
BRANCH  15  25
ATOM     25  C   UNL A   1      31.884  27.492  25.379  1.00  0.00    -0.002 A 
ATOM     26  C   UNL A   1      31.781  27.256  26.752  1.00  0.00     0.010 A 
ATOM     27  C   UNL A   1      31.952  28.795  24.883  1.00  0.00     0.010 A 
ATOM     28  C   UNL A   1      31.750  28.335  27.636  1.00  0.00     0.001 A 
ATOM     29  C   UNL A   1      31.900  29.871  25.771  1.00  0.00     0.001 A 
ATOM     30  C   UNL A   1      31.801  29.640  27.144  1.00  0.00     0.000 A 
ENDBRANCH  15  25
ENDBRANCH  10  12
ENDBRANCH   9  10
ENDBRANCH   8   9
ENDBRANCH   7   8
ENDBRANCH   4   7
ENDBRANCH   2   3
ENDBRANCH   1   2
BRANCH   1  31
ATOM     31  C   UNL A   1      40.170  22.939  26.464  1.00  0.00     0.002 C 
BRANCH  31  32
ATOM     32  C   UNL A   1      40.434  21.750  27.396  1.00  0.00     0.002 C 
BRANCH  32  33
ATOM     33  C   UNL A   1      40.777  20.452  26.661  1.00  0.00     0.021 C 
BRANCH  33  34
ATOM     34  C   UNL A   1      41.975  19.720  27.254  1.00  0.00     0.116 C 
BRANCH  34  35
ATOM     35  N   UNL A   1      42.895  19.301  26.210  1.00  0.00    -0.352 N 
ATOM     36  C   UNL A   1      43.665  20.083  25.392  1.00  0.00     0.251 C 
ATOM     37  H   UNL A   1      42.974  18.329  26.074  1.00  0.00     0.163 HD
ATOM     38  O   UNL A   1      44.167  19.622  24.380  1.00  0.00    -0.269 OA
BRANCH  36  39
ATOM     39  C   UNL A   1      43.860  21.494  25.771  1.00  0.00     0.039 A 
ATOM     40  C   UNL A   1      43.465  22.495  24.885  1.00  0.00     0.014 A 
ATOM     41  C   UNL A   1      44.404  21.810  27.021  1.00  0.00     0.014 A 
ATOM     42  C   UNL A   1      43.587  23.827  25.272  1.00  0.00     0.010 A 
ATOM     43  C   UNL A   1      44.450  23.134  27.433  1.00  0.00     0.010 A 
ATOM     44  C   UNL A   1      44.058  24.155  26.555  1.00  0.00    -0.014 A 
BRANCH  44  45
ATOM     45  C   UNL A   1      44.171  25.568  26.987  1.00  0.00     0.031 A 
ATOM     46  C   UNL A   1      45.490  26.279  26.860  1.00  0.00     0.074 A 
ATOM     47  C   UNL A   1      43.103  26.180  27.536  1.00  0.00     0.049 A 
ATOM     48  N   UNL A   1      45.812  27.490  27.229  1.00  0.00    -0.248 NA
ATOM     49  C   UNL A   1      46.602  25.518  26.265  1.00  0.00     0.031 C 
ATOM     50  C   UNL A   1      41.791  25.562  27.746  1.00  0.00     0.029 A 
ATOM     51  N   UNL A   1      42.950  27.452  28.024  1.00  0.00    -0.354 N 
ATOM     52  C   UNL A   1      47.164  27.629  26.932  1.00  0.00     0.074 A 
ATOM     53  C   UNL A   1      47.613  26.364  26.397  1.00  0.00     0.031 C 
ATOM     54  C   UNL A   1      40.965  26.461  28.303  1.00  0.00     0.029 A 
ATOM     55  C   UNL A   1      41.697  27.702  28.535  1.00  0.00     0.049 A 
ATOM     56  H   UNL A   1      43.670  28.124  28.011  1.00  0.00     0.167 HD
ATOM     57  C   UNL A   1      47.949  28.723  27.076  1.00  0.00     0.034 A 
ATOM     58  C   UNL A   1      41.203  28.800  29.142  1.00  0.00     0.034 A 
ATOM     59  C   UNL A   1      47.469  29.983  27.588  1.00  0.00     0.049 A 
ATOM     60  C   UNL A   1      42.105  30.002  29.292  1.00  0.00     0.074 A 
ATOM     61  C   UNL A   1      48.154  31.180  27.702  1.00  0.00     0.029 A 
ATOM     62  N   UNL A   1      46.191  30.206  28.085  1.00  0.00    -0.354 N 
ATOM     63  N   UNL A   1      43.361  30.144  28.931  1.00  0.00    -0.248 NA
ATOM     64  C   UNL A   1      41.522  31.195  29.918  1.00  0.00     0.031 C 
ATOM     65  C   UNL A   1      47.319  32.100  28.340  1.00  0.00     0.029 A 
ATOM     66  C   UNL A   1      46.082  31.509  28.541  1.00  0.00     0.049 A 
ATOM     67  H   UNL A   1      45.470  29.536  28.107  1.00  0.00     0.167 HD
ATOM     68  C   UNL A   1      43.704  31.453  29.258  1.00  0.00     0.074 A 
ATOM     69  C   UNL A   1      42.518  32.063  29.823  1.00  0.00     0.031 C 
ATOM     70  C   UNL A   1      44.889  32.096  29.105  1.00  0.00     0.034 A 
BRANCH  57  71
ATOM     71  C   UNL A   1      49.406  28.603  26.707  1.00  0.00     0.023 A 
ATOM     72  C   UNL A   1      49.847  28.667  25.373  1.00  0.00     0.031 A 
ATOM     73  C   UNL A   1      50.375  28.439  27.713  1.00  0.00     0.131 A 
ATOM     74  C   UNL A   1      51.211  28.521  25.078  1.00  0.00     0.055 A 
ATOM     75  C   UNL A   1      51.738  28.369  27.420  1.00  0.00     0.041 A 
ATOM     76  F   UNL A   1      50.013  28.346  29.003  1.00  0.00    -0.206 F 
ATOM     77  C   UNL A   1      52.162  28.400  26.095  1.00  0.00     0.022 A 
BRANCH  74  78
ATOM     78  S   UNL A   1      51.716  28.386  23.343  1.00  0.00     0.124 S 
ATOM     79  O   UNL A   1      53.154  28.159  23.471  1.00  0.00    -0.237 OA
ATOM     80  O   UNL A   1      50.931  27.253  22.871  1.00  0.00    -0.237 OA
ATOM     81  O   UNL A   1      51.346  29.681  22.776  1.00  0.00    -0.744 OA
ENDBRANCH  74  78
ENDBRANCH  57  71
BRANCH  58  82
ATOM     82  C   UNL A   1      39.810  28.819  29.677  1.00  0.00     0.023 A 
ATOM     83  C   UNL A   1      38.749  29.348  28.927  1.00  0.00     0.031 A 
ATOM     84  C   UNL A   1      39.533  28.371  30.982  1.00  0.00     0.131 A 
ATOM     85  C   UNL A   1      37.478  29.482  29.508  1.00  0.00     0.055 A 
ATOM     86  C   UNL A   1      38.252  28.444  31.532  1.00  0.00     0.041 A 
ATOM     87  F   UNL A   1      40.508  27.851  31.745  1.00  0.00    -0.206 F 
ATOM     88  C   UNL A   1      37.219  29.020  30.801  1.00  0.00     0.022 A 
BRANCH  85  89
ATOM     89  S   UNL A   1      36.198  30.389  28.596  1.00  0.00     0.124 S 
ATOM     90  O   UNL A   1      35.611  31.211  29.648  1.00  0.00    -0.237 OA
ATOM     91  O   UNL A   1      36.986  31.094  27.592  1.00  0.00    -0.237 OA
ATOM     92  O   UNL A   1      35.335  29.328  28.078  1.00  0.00    -0.744 OA
ENDBRANCH  85  89
ENDBRANCH  58  82
BRANCH  70  93
ATOM     93  C   UNL A   1      44.939  33.550  29.509  1.00  0.00     0.023 A 
ATOM     94  C   UNL A   1      44.558  34.577  28.629  1.00  0.00     0.031 A 
ATOM     95  C   UNL A   1      45.378  33.908  30.796  1.00  0.00     0.131 A 
ATOM     96  C   UNL A   1      44.679  35.916  29.028  1.00  0.00     0.055 A 
ATOM     97  C   UNL A   1      45.429  35.239  31.210  1.00  0.00     0.041 A 
ATOM     98  F   UNL A   1      45.757  32.968  31.676  1.00  0.00    -0.206 F 
ATOM     99  C   UNL A   1      45.093  36.253  30.320  1.00  0.00     0.022 A 
BRANCH  96 100
ATOM    100  S   UNL A   1      44.382  37.219  27.802  1.00  0.00     0.124 S 
ATOM    101  O   UNL A   1      43.334  36.627  26.978  1.00  0.00    -0.237 OA
ATOM    102  O   UNL A   1      43.978  38.347  28.636  1.00  0.00    -0.237 OA
ATOM    103  O   UNL A   1      45.678  37.371  27.142  1.00  0.00    -0.744 OA
ENDBRANCH  96 100
ENDBRANCH  70  93
ENDBRANCH  44  45
ENDBRANCH  36  39
ENDBRANCH  34  35
ENDBRANCH  33  34
ENDBRANCH  32  33
ENDBRANCH  31  32
ENDBRANCH   1  31
TORSDOF 23
ENDMDL
