MODEL 1
REMARK VINA RESULT:     -11.3      0.000      0.000
REMARK SMILES O=C(NCCCCCCNC(=O)c1ccc(S(=O)(=O)NCC[NH+]2CCCC2)c(F)c1)c1ccc(-c2c3nc(c(-c4cc(S(=O)(=O)[O-])ccc4F)c4ccc([nH]4)c(-c4cc(S(=O)(=O)[O-])ccc4F)c4nc(c(-c5cc(S(=O)(=O)[O-])ccc5F)c5ccc2[nH]5)C=C4)C=C3)cc1
REMARK SMILES IDX 7 1 6 2 5 3 4 4 3 5 1 6 2 7 31 9 32 10 93 11 33 12 92 13
REMARK SMILES IDX 34 14 35 15 36 16 86 17 37 18 91 19 85 20 87 21 38 22 90 23
REMARK SMILES IDX 84 24 83 25 39 27 71 28 51 29 70 30 52 31 55 32 69 33 88 34
REMARK SMILES IDX 53 35 54 36 68 38 89 39 56 40 40 41 41 42 49 43 42 44 48 45
REMARK SMILES IDX 50 46 47 47 43 48 44 49 45 50 46 51 72 52 73 53 81 54 74 55
REMARK SMILES IDX 80 56 82 57 79 58 75 59 76 60 77 61 78 62 57 63 58 64 66 65
REMARK SMILES IDX 59 66 65 67 67 68 64 69 60 70 61 71 62 72 63 73 8 74 9 75
REMARK SMILES IDX 10 76 11 77 12 79 13 80 14 81 30 82 15 83 28 84 16 85 29 86
REMARK SMILES IDX 17 87 18 88 19 89 20 90 21 92 22 93 23 94 24 95 27 96 25 98
REMARK SMILES IDX 26 99
REMARK H PARENT 3 8 87 26 55 37 10 78 20 91 23 97
REMARK Flexibility Score: inf
ROOT
ATOM      1  C   UNL A   1      33.371  22.399  23.780  1.00  0.00     0.002 C 
ENDROOT
BRANCH   1   2
ATOM      2  C   UNL A   1      34.568  23.230  23.312  1.00  0.00     0.002 C 
BRANCH   2   3
ATOM      3  C   UNL A   1      35.947  22.692  23.699  1.00  0.00     0.021 C 
BRANCH   3   4
ATOM      4  C   UNL A   1      36.128  22.338  25.171  1.00  0.00     0.116 C 
BRANCH   4   5
ATOM      5  N   UNL A   1      36.993  21.187  25.367  1.00  0.00    -0.352 N 
ATOM      6  O   UNL A   1      38.921  20.072  25.694  1.00  0.00    -0.269 OA
ATOM      7  C   UNL A   1      38.317  21.141  25.726  1.00  0.00     0.251 C 
ATOM      8  H   UNL A   1      36.566  20.311  25.221  1.00  0.00     0.163 HD
BRANCH   7   9
ATOM      9  C   UNL A   1      39.023  22.378  26.131  1.00  0.00     0.039 A 
ATOM     10  C   UNL A   1      38.520  23.639  25.801  1.00  0.00     0.014 A 
ATOM     11  C   UNL A   1      40.196  22.268  26.886  1.00  0.00     0.014 A 
ATOM     12  C   UNL A   1      39.241  24.784  26.134  1.00  0.00     0.010 A 
ATOM     13  C   UNL A   1      40.888  23.420  27.268  1.00  0.00     0.010 A 
ATOM     14  C   UNL A   1      40.428  24.687  26.878  1.00  0.00    -0.014 A 
BRANCH  14  15
ATOM     15  C   UNL A   1      41.157  25.915  27.281  1.00  0.00     0.031 A 
ATOM     16  C   UNL A   1      40.504  26.939  28.167  1.00  0.00     0.074 A 
ATOM     17  C   UNL A   1      42.421  26.099  26.851  1.00  0.00     0.049 A 
ATOM     18  N   UNL A   1      40.959  28.103  28.555  1.00  0.00    -0.248 NA
ATOM     19  C   UNL A   1      39.167  26.615  28.686  1.00  0.00     0.031 C 
ATOM     20  C   UNL A   1      43.169  25.163  26.007  1.00  0.00     0.029 A 
ATOM     21  N   UNL A   1      43.303  27.126  27.070  1.00  0.00    -0.354 N 
ATOM     22  C   UNL A   1      39.965  28.657  29.352  1.00  0.00     0.074 A 
ATOM     23  C   UNL A   1      38.872  27.707  29.378  1.00  0.00     0.031 C 
ATOM     24  C   UNL A   1      44.406  25.645  25.807  1.00  0.00     0.029 A 
ATOM     25  C   UNL A   1      44.519  26.948  26.452  1.00  0.00     0.049 A 
ATOM     26  H   UNL A   1      43.087  27.914  27.618  1.00  0.00     0.167 HD
ATOM     27  C   UNL A   1      39.966  29.847  30.001  1.00  0.00     0.034 A 
ATOM     28  C   UNL A   1      45.594  27.756  26.387  1.00  0.00     0.034 A 
ATOM     29  C   UNL A   1      41.061  30.784  29.974  1.00  0.00     0.049 A 
ATOM     30  C   UNL A   1      45.544  29.096  27.065  1.00  0.00     0.074 A 
ATOM     31  C   UNL A   1      41.158  32.014  30.602  1.00  0.00     0.029 A 
ATOM     32  N   UNL A   1      42.251  30.596  29.284  1.00  0.00    -0.354 N 
ATOM     33  N   UNL A   1      44.572  29.626  27.768  1.00  0.00    -0.248 NA
ATOM     34  C   UNL A   1      46.729  29.953  26.925  1.00  0.00     0.031 C 
ATOM     35  C   UNL A   1      42.386  32.589  30.253  1.00  0.00     0.029 A 
ATOM     36  C   UNL A   1      43.078  31.695  29.453  1.00  0.00     0.049 A 
ATOM     37  H   UNL A   1      42.474  29.797  28.752  1.00  0.00     0.167 HD
ATOM     38  C   UNL A   1      45.030  30.879  28.158  1.00  0.00     0.074 A 
ATOM     39  C   UNL A   1      46.370  31.019  27.626  1.00  0.00     0.031 C 
ATOM     40  C   UNL A   1      44.398  31.829  28.891  1.00  0.00     0.034 A 
BRANCH  27  41
ATOM     41  C   UNL A   1      38.727  30.223  30.769  1.00  0.00     0.023 A 
ATOM     42  C   UNL A   1      37.709  30.998  30.191  1.00  0.00     0.031 A 
ATOM     43  C   UNL A   1      38.553  29.772  32.090  1.00  0.00     0.131 A 
ATOM     44  C   UNL A   1      36.574  31.329  30.946  1.00  0.00     0.055 A 
ATOM     45  C   UNL A   1      37.397  30.060  32.817  1.00  0.00     0.041 A 
ATOM     46  F   UNL A   1      39.505  29.042  32.692  1.00  0.00    -0.206 F 
ATOM     47  C   UNL A   1      36.400  30.847  32.246  1.00  0.00     0.022 A 
BRANCH  44  48
ATOM     48  S   UNL A   1      35.341  32.448  30.226  1.00  0.00     0.124 S 
ATOM     49  O   UNL A   1      34.897  31.685  29.062  1.00  0.00    -0.237 OA
ATOM     50  O   UNL A   1      34.368  32.589  31.304  1.00  0.00    -0.237 OA
ATOM     51  O   UNL A   1      36.108  33.653  29.920  1.00  0.00    -0.744 OA
ENDBRANCH  44  48
ENDBRANCH  27  41
BRANCH  28  52
ATOM     52  C   UNL A   1      46.790  27.341  25.606  1.00  0.00     0.023 A 
ATOM     53  C   UNL A   1      46.958  27.745  24.273  1.00  0.00     0.031 A 
ATOM     54  C   UNL A   1      47.778  26.524  26.183  1.00  0.00     0.131 A 
ATOM     55  C   UNL A   1      48.079  27.310  23.551  1.00  0.00     0.055 A 
ATOM     56  C   UNL A   1      48.911  26.126  25.473  1.00  0.00     0.041 A 
ATOM     57  F   UNL A   1      47.662  26.119  27.459  1.00  0.00    -0.206 F 
ATOM     58  C   UNL A   1      49.062  26.514  24.146  1.00  0.00     0.022 A 
BRANCH  55  59
ATOM     59  S   UNL A   1      48.224  27.775  21.805  1.00  0.00     0.124 S 
ATOM     60  O   UNL A   1      46.924  28.386  21.552  1.00  0.00    -0.237 OA
ATOM     61  O   UNL A   1      49.366  28.684  21.825  1.00  0.00    -0.237 OA
ATOM     62  O   UNL A   1      48.459  26.501  21.131  1.00  0.00    -0.744 OA
ENDBRANCH  55  59
ENDBRANCH  28  52
BRANCH  40  63
ATOM     63  C   UNL A   1      45.162  33.095  29.165  1.00  0.00     0.023 A 
ATOM     64  C   UNL A   1      45.994  33.216  30.291  1.00  0.00     0.031 A 
ATOM     65  C   UNL A   1      45.055  34.190  28.291  1.00  0.00     0.131 A 
ATOM     66  C   UNL A   1      46.663  34.424  30.533  1.00  0.00     0.055 A 
ATOM     67  C   UNL A   1      45.756  35.374  28.515  1.00  0.00     0.041 A 
ATOM     68  F   UNL A   1      44.272  34.120  27.203  1.00  0.00    -0.206 F 
ATOM     69  C   UNL A   1      46.561  35.499  29.645  1.00  0.00     0.022 A 
BRANCH  66  70
ATOM     70  S   UNL A   1      47.641  34.591  32.052  1.00  0.00     0.124 S 
ATOM     71  O   UNL A   1      48.286  33.285  32.140  1.00  0.00    -0.237 OA
ATOM     72  O   UNL A   1      48.517  35.716  31.741  1.00  0.00    -0.237 OA
ATOM     73  O   UNL A   1      46.635  34.857  33.079  1.00  0.00    -0.744 OA
ENDBRANCH  66  70
ENDBRANCH  40  63
ENDBRANCH  14  15
ENDBRANCH   7   9
ENDBRANCH   4   5
ENDBRANCH   3   4
ENDBRANCH   2   3
ENDBRANCH   1   2
BRANCH   1  74
ATOM     74  C   UNL A   1      32.078  22.581  22.982  1.00  0.00     0.021 C 
BRANCH  74  75
ATOM     75  C   UNL A   1      30.993  23.415  23.658  1.00  0.00     0.116 C 
BRANCH  75  76
ATOM     76  N   UNL A   1      30.719  22.984  25.021  1.00  0.00    -0.352 N 
ATOM     77  C   UNL A   1      30.982  23.625  26.204  1.00  0.00     0.251 C 
ATOM     78  H   UNL A   1      30.282  22.106  25.105  1.00  0.00     0.163 HD
ATOM     79  O   UNL A   1      30.795  23.062  27.278  1.00  0.00    -0.269 OA
BRANCH  77  80
ATOM     80  C   UNL A   1      31.539  24.992  26.191  1.00  0.00     0.042 A 
ATOM     81  C   UNL A   1      30.708  26.115  26.278  1.00  0.00     0.015 A 
ATOM     82  C   UNL A   1      32.925  25.143  26.090  1.00  0.00     0.054 A 
ATOM     83  C   UNL A   1      31.259  27.389  26.153  1.00  0.00     0.026 A 
ATOM     84  C   UNL A   1      33.471  26.420  25.994  1.00  0.00     0.144 A 
ATOM     85  C   UNL A   1      32.644  27.536  25.990  1.00  0.00     0.118 A 
ATOM     86  F   UNL A   1      34.802  26.524  25.887  1.00  0.00    -0.205 F 
BRANCH  85  87
ATOM     87  S   UNL A   1      33.269  29.156  25.704  1.00  0.00     0.243 S 
ATOM     88  O   UNL A   1      32.127  30.018  25.508  1.00  0.00    -0.207 OA
ATOM     89  O   UNL A   1      34.249  29.414  26.737  1.00  0.00    -0.207 OA
BRANCH  87  90
ATOM     90  N   UNL A   1      34.108  29.111  24.273  1.00  0.00    -0.205 NA
ATOM     91  H   UNL A   1      34.674  28.264  24.309  1.00  0.00     0.141 HD
BRANCH  90  92
ATOM     92  C   UNL A   1      33.469  29.107  22.962  1.00  0.00     0.160 C 
BRANCH  92  93
ATOM     93  C   UNL A   1      32.588  27.872  22.685  1.00  0.00     0.278 C 
BRANCH  93  94
ATOM     94  N   UNL A   1      31.251  28.025  22.101  1.00  0.00    -0.334 N 
ATOM     95  C   UNL A   1      30.680  29.365  22.114  1.00  0.00     0.262 C 
ATOM     96  C   UNL A   1      30.249  27.094  22.614  1.00  0.00     0.262 C 
ATOM     97  H   UNL A   1      31.464  27.796  21.130  1.00  0.00     0.348 HD
ATOM     98  C   UNL A   1      29.659  29.366  23.232  1.00  0.00     0.067 C 
ATOM     99  C   UNL A   1      29.186  27.925  23.321  1.00  0.00     0.067 C 
ENDBRANCH  93  94
ENDBRANCH  92  93
ENDBRANCH  90  92
ENDBRANCH  87  90
ENDBRANCH  85  87
ENDBRANCH  77  80
ENDBRANCH  75  76
ENDBRANCH  74  75
ENDBRANCH   1  74
TORSDOF 21
ENDMDL
MODEL 2
REMARK VINA RESULT:     -11.3      2.035      2.415
REMARK SMILES O=C(NCCCCCCNC(=O)c1ccc(S(=O)(=O)NCC[NH+]2CCCC2)c(F)c1)c1ccc(-c2c3nc(c(-c4cc(S(=O)(=O)[O-])ccc4F)c4ccc([nH]4)c(-c4cc(S(=O)(=O)[O-])ccc4F)c4nc(c(-c5cc(S(=O)(=O)[O-])ccc5F)c5ccc2[nH]5)C=C4)C=C3)cc1
REMARK SMILES IDX 7 1 6 2 5 3 4 4 3 5 1 6 2 7 31 9 32 10 93 11 33 12 92 13
REMARK SMILES IDX 34 14 35 15 36 16 86 17 37 18 91 19 85 20 87 21 38 22 90 23
REMARK SMILES IDX 84 24 83 25 39 27 71 28 51 29 70 30 52 31 55 32 69 33 88 34
REMARK SMILES IDX 53 35 54 36 68 38 89 39 56 40 40 41 41 42 49 43 42 44 48 45
REMARK SMILES IDX 50 46 47 47 43 48 44 49 45 50 46 51 72 52 73 53 81 54 74 55
REMARK SMILES IDX 80 56 82 57 79 58 75 59 76 60 77 61 78 62 57 63 58 64 66 65
REMARK SMILES IDX 59 66 65 67 67 68 64 69 60 70 61 71 62 72 63 73 8 74 9 75
REMARK SMILES IDX 10 76 11 77 12 79 13 80 14 81 30 82 15 83 28 84 16 85 29 86
REMARK SMILES IDX 17 87 18 88 19 89 20 90 21 92 22 93 23 94 24 95 27 96 25 98
REMARK SMILES IDX 26 99
REMARK H PARENT 3 8 87 26 55 37 10 78 20 91 23 97
REMARK Flexibility Score: inf
ROOT
ATOM      1  C   UNL A   1      33.709  21.508  24.357  1.00  0.00     0.002 C 
ENDROOT
BRANCH   1   2
ATOM      2  C   UNL A   1      35.006  22.320  24.394  1.00  0.00     0.002 C 
BRANCH   2   3
ATOM      3  C   UNL A   1      36.303  21.509  24.401  1.00  0.00     0.021 C 
BRANCH   3   4
ATOM      4  C   UNL A   1      37.419  22.057  25.285  1.00  0.00     0.116 C 
BRANCH   4   5
ATOM      5  N   UNL A   1      38.251  21.008  25.849  1.00  0.00    -0.352 N 
ATOM      6  O   UNL A   1      40.089  20.084  26.763  1.00  0.00    -0.269 OA
ATOM      7  C   UNL A   1      39.462  21.104  26.488  1.00  0.00     0.251 C 
ATOM      8  H   UNL A   1      37.895  20.095  25.760  1.00  0.00     0.163 HD
BRANCH   7   9
ATOM      9  C   UNL A   1      40.023  22.433  26.828  1.00  0.00     0.039 A 
ATOM     10  C   UNL A   1      39.568  23.593  26.196  1.00  0.00     0.014 A 
ATOM     11  C   UNL A   1      41.001  22.515  27.825  1.00  0.00     0.014 A 
ATOM     12  C   UNL A   1      40.162  24.820  26.484  1.00  0.00     0.010 A 
ATOM     13  C   UNL A   1      41.557  23.755  28.152  1.00  0.00     0.010 A 
ATOM     14  C   UNL A   1      41.156  24.915  27.472  1.00  0.00    -0.014 A 
BRANCH  14  15
ATOM     15  C   UNL A   1      41.740  26.235  27.815  1.00  0.00     0.031 A 
ATOM     16  C   UNL A   1      40.944  27.248  28.590  1.00  0.00     0.074 A 
ATOM     17  C   UNL A   1      43.002  26.514  27.434  1.00  0.00     0.049 A 
ATOM     18  N   UNL A   1      41.263  28.476  28.911  1.00  0.00    -0.248 NA
ATOM     19  C   UNL A   1      39.618  26.828  29.067  1.00  0.00     0.031 C 
ATOM     20  C   UNL A   1      43.882  25.602  26.699  1.00  0.00     0.029 A 
ATOM     21  N   UNL A   1      43.768  27.637  27.617  1.00  0.00    -0.354 N 
ATOM     22  C   UNL A   1      40.177  28.982  29.616  1.00  0.00     0.074 A 
ATOM     23  C   UNL A   1      39.181  27.932  29.661  1.00  0.00     0.031 C 
ATOM     24  C   UNL A   1      45.076  26.190  26.523  1.00  0.00     0.029 A 
ATOM     25  C   UNL A   1      45.027  27.539  27.073  1.00  0.00     0.049 A 
ATOM     26  H   UNL A   1      43.447  28.437  28.094  1.00  0.00     0.167 HD
ATOM     27  C   UNL A   1      40.028  30.209  30.173  1.00  0.00     0.034 A 
ATOM     28  C   UNL A   1      46.022  28.444  26.998  1.00  0.00     0.034 A 
ATOM     29  C   UNL A   1      41.027  31.246  30.128  1.00  0.00     0.049 A 
ATOM     30  C   UNL A   1      45.805  29.817  27.571  1.00  0.00     0.074 A 
ATOM     31  C   UNL A   1      40.971  32.521  30.665  1.00  0.00     0.029 A 
ATOM     32  N   UNL A   1      42.266  31.131  29.511  1.00  0.00    -0.354 N 
ATOM     33  N   UNL A   1      44.749  30.295  28.185  1.00  0.00    -0.248 NA
ATOM     34  C   UNL A   1      46.908  30.776  27.423  1.00  0.00     0.031 C 
ATOM     35  C   UNL A   1      42.155  33.191  30.334  1.00  0.00     0.029 A 
ATOM     36  C   UNL A   1      42.973  32.316  29.637  1.00  0.00     0.049 A 
ATOM     37  H   UNL A   1      42.594  30.324  29.052  1.00  0.00     0.167 HD
ATOM     38  C   UNL A   1      45.062  31.612  28.502  1.00  0.00     0.074 A 
ATOM     39  C   UNL A   1      46.410  31.848  28.025  1.00  0.00     0.031 C 
ATOM     40  C   UNL A   1      44.302  32.542  29.130  1.00  0.00     0.034 A 
BRANCH  27  41
ATOM     41  C   UNL A   1      38.718  30.512  30.851  1.00  0.00     0.023 A 
ATOM     42  C   UNL A   1      37.693  31.208  30.193  1.00  0.00     0.031 A 
ATOM     43  C   UNL A   1      38.486  30.069  32.166  1.00  0.00     0.131 A 
ATOM     44  C   UNL A   1      36.490  31.473  30.864  1.00  0.00     0.055 A 
ATOM     45  C   UNL A   1      37.268  30.289  32.809  1.00  0.00     0.041 A 
ATOM     46  F   UNL A   1      39.442  29.413  32.842  1.00  0.00    -0.206 F 
ATOM     47  C   UNL A   1      36.262  30.999  32.159  1.00  0.00     0.022 A 
BRANCH  44  48
ATOM     48  S   UNL A   1      35.236  32.496  30.044  1.00  0.00     0.124 S 
ATOM     49  O   UNL A   1      34.806  31.618  28.959  1.00  0.00    -0.237 OA
ATOM     50  O   UNL A   1      34.262  32.721  31.106  1.00  0.00    -0.237 OA
ATOM     51  O   UNL A   1      35.981  33.680  29.623  1.00  0.00    -0.744 OA
ENDBRANCH  44  48
ENDBRANCH  27  41
BRANCH  28  52
ATOM     52  C   UNL A   1      47.293  28.098  26.309  1.00  0.00     0.023 A 
ATOM     53  C   UNL A   1      47.371  28.073  24.908  1.00  0.00     0.031 A 
ATOM     54  C   UNL A   1      48.446  27.777  27.046  1.00  0.00     0.131 A 
ATOM     55  C   UNL A   1      48.575  27.709  24.286  1.00  0.00     0.055 A 
ATOM     56  C   UNL A   1      49.652  27.454  26.423  1.00  0.00     0.041 A 
ATOM     57  F   UNL A   1      48.420  27.796  28.389  1.00  0.00    -0.206 F 
ATOM     58  C   UNL A   1      49.718  27.412  25.034  1.00  0.00     0.022 A 
BRANCH  55  59
ATOM     59  S   UNL A   1      48.621  27.600  22.477  1.00  0.00     0.124 S 
ATOM     60  O   UNL A   1      48.595  26.157  22.267  1.00  0.00    -0.237 OA
ATOM     61  O   UNL A   1      47.413  28.325  22.097  1.00  0.00    -0.237 OA
ATOM     62  O   UNL A   1      49.876  28.260  22.128  1.00  0.00    -0.744 OA
ENDBRANCH  55  59
ENDBRANCH  28  52
BRANCH  40  63
ATOM     63  C   UNL A   1      44.924  33.895  29.345  1.00  0.00     0.023 A 
ATOM     64  C   UNL A   1      44.748  34.935  28.416  1.00  0.00     0.031 A 
ATOM     65  C   UNL A   1      45.699  34.144  30.490  1.00  0.00     0.131 A 
ATOM     66  C   UNL A   1      45.372  36.171  28.631  1.00  0.00     0.055 A 
ATOM     67  C   UNL A   1      46.283  35.390  30.719  1.00  0.00     0.041 A 
ATOM     68  F   UNL A   1      45.895  33.181  31.405  1.00  0.00    -0.206 F 
ATOM     69  C   UNL A   1      46.127  36.410  29.784  1.00  0.00     0.022 A 
BRANCH  66  70
ATOM     70  S   UNL A   1      45.221  37.458  27.362  1.00  0.00     0.124 S 
ATOM     71  O   UNL A   1      45.550  38.664  28.115  1.00  0.00    -0.237 OA
ATOM     72  O   UNL A   1      46.204  37.038  26.369  1.00  0.00    -0.237 OA
ATOM     73  O   UNL A   1      43.827  37.354  26.934  1.00  0.00    -0.744 OA
ENDBRANCH  66  70
ENDBRANCH  40  63
ENDBRANCH  14  15
ENDBRANCH   7   9
ENDBRANCH   4   5
ENDBRANCH   3   4
ENDBRANCH   2   3
ENDBRANCH   1   2
BRANCH   1  74
ATOM     74  C   UNL A   1      33.277  20.876  25.682  1.00  0.00     0.021 C 
BRANCH  74  75
ATOM     75  C   UNL A   1      33.281  21.807  26.892  1.00  0.00     0.116 C 
BRANCH  75  76
ATOM     76  N   UNL A   1      31.950  22.267  27.254  1.00  0.00    -0.352 N 
ATOM     77  C   UNL A   1      31.262  23.370  26.816  1.00  0.00     0.251 C 
ATOM     78  H   UNL A   1      31.474  21.706  27.909  1.00  0.00     0.163 HD
ATOM     79  O   UNL A   1      30.187  23.680  27.320  1.00  0.00    -0.269 OA
BRANCH  77  80
ATOM     80  C   UNL A   1      31.839  24.222  25.758  1.00  0.00     0.042 A 
ATOM     81  C   UNL A   1      32.949  25.036  26.006  1.00  0.00     0.015 A 
ATOM     82  C   UNL A   1      31.248  24.198  24.492  1.00  0.00     0.054 A 
ATOM     83  C   UNL A   1      33.398  25.908  25.015  1.00  0.00     0.026 A 
ATOM     84  C   UNL A   1      31.719  25.050  23.497  1.00  0.00     0.144 A 
ATOM     85  C   UNL A   1      32.764  25.926  23.765  1.00  0.00     0.118 A 
ATOM     86  F   UNL A   1      31.120  25.007  22.300  1.00  0.00    -0.205 F 
BRANCH  85  87
ATOM     87  S   UNL A   1      33.285  27.136  22.599  1.00  0.00     0.243 S 
ATOM     88  O   UNL A   1      34.154  28.051  23.303  1.00  0.00    -0.207 OA
ATOM     89  O   UNL A   1      33.728  26.419  21.423  1.00  0.00    -0.207 OA
BRANCH  87  90
ATOM     90  N   UNL A   1      31.936  27.986  22.139  1.00  0.00    -0.205 NA
ATOM     91  H   UNL A   1      31.208  27.289  21.984  1.00  0.00     0.141 HD
BRANCH  90  92
ATOM     92  C   UNL A   1      31.322  29.027  22.956  1.00  0.00     0.160 C 
BRANCH  92  93
ATOM     93  C   UNL A   1      29.819  28.818  23.233  1.00  0.00     0.278 C 
BRANCH  93  94
ATOM     94  N   UNL A   1      28.813  29.633  22.544  1.00  0.00    -0.334 N 
ATOM     95  C   UNL A   1      29.206  30.986  22.176  1.00  0.00     0.262 C 
ATOM     96  C   UNL A   1      27.516  29.698  23.212  1.00  0.00     0.262 C 
ATOM     97  H   UNL A   1      28.726  29.098  21.679  1.00  0.00     0.348 HD
ATOM     98  C   UNL A   1      28.542  31.897  23.188  1.00  0.00     0.067 C 
ATOM     99  C   UNL A   1      27.289  31.149  23.611  1.00  0.00     0.067 C 
ENDBRANCH  93  94
ENDBRANCH  92  93
ENDBRANCH  90  92
ENDBRANCH  87  90
ENDBRANCH  85  87
ENDBRANCH  77  80
ENDBRANCH  75  76
ENDBRANCH  74  75
ENDBRANCH   1  74
TORSDOF 21
ENDMDL
MODEL 3
REMARK VINA RESULT:     -11.2      2.686      3.354
REMARK SMILES O=C(NCCCCCCNC(=O)c1ccc(S(=O)(=O)NCC[NH+]2CCCC2)c(F)c1)c1ccc(-c2c3nc(c(-c4cc(S(=O)(=O)[O-])ccc4F)c4ccc([nH]4)c(-c4cc(S(=O)(=O)[O-])ccc4F)c4nc(c(-c5cc(S(=O)(=O)[O-])ccc5F)c5ccc2[nH]5)C=C4)C=C3)cc1
REMARK SMILES IDX 7 1 6 2 5 3 4 4 3 5 1 6 2 7 31 9 32 10 93 11 33 12 92 13
REMARK SMILES IDX 34 14 35 15 36 16 86 17 37 18 91 19 85 20 87 21 38 22 90 23
REMARK SMILES IDX 84 24 83 25 39 27 71 28 51 29 70 30 52 31 55 32 69 33 88 34
REMARK SMILES IDX 53 35 54 36 68 38 89 39 56 40 40 41 41 42 49 43 42 44 48 45
REMARK SMILES IDX 50 46 47 47 43 48 44 49 45 50 46 51 72 52 73 53 81 54 74 55
REMARK SMILES IDX 80 56 82 57 79 58 75 59 76 60 77 61 78 62 57 63 58 64 66 65
REMARK SMILES IDX 59 66 65 67 67 68 64 69 60 70 61 71 62 72 63 73 8 74 9 75
REMARK SMILES IDX 10 76 11 77 12 79 13 80 14 81 30 82 15 83 28 84 16 85 29 86
REMARK SMILES IDX 17 87 18 88 19 89 20 90 21 92 22 93 23 94 24 95 27 96 25 98
REMARK SMILES IDX 26 99
REMARK H PARENT 3 8 87 26 55 37 10 78 20 91 23 97
REMARK Flexibility Score: inf
ROOT
ATOM      1  C   UNL A   1      35.792  21.535  25.225  1.00  0.00     0.002 C 
ENDROOT
BRANCH   1   2
ATOM      2  C   UNL A   1      36.401  20.133  25.148  1.00  0.00     0.002 C 
BRANCH   2   3
ATOM      3  C   UNL A   1      37.869  20.065  24.720  1.00  0.00     0.021 C 
BRANCH   3   4
ATOM      4  C   UNL A   1      38.889  20.399  25.804  1.00  0.00     0.116 C 
BRANCH   4   5
ATOM      5  N   UNL A   1      39.930  19.393  25.921  1.00  0.00    -0.352 N 
ATOM      6  O   UNL A   1      42.025  18.582  26.061  1.00  0.00    -0.269 OA
ATOM      7  C   UNL A   1      41.275  19.551  26.145  1.00  0.00     0.251 C 
ATOM      8  H   UNL A   1      39.627  18.461  25.824  1.00  0.00     0.163 HD
BRANCH   7   9
ATOM      9  C   UNL A   1      41.825  20.888  26.469  1.00  0.00     0.039 A 
ATOM     10  C   UNL A   1      42.139  21.242  27.784  1.00  0.00     0.014 A 
ATOM     11  C   UNL A   1      42.061  21.790  25.426  1.00  0.00     0.014 A 
ATOM     12  C   UNL A   1      42.589  22.529  28.069  1.00  0.00     0.010 A 
ATOM     13  C   UNL A   1      42.565  23.063  25.708  1.00  0.00     0.010 A 
ATOM     14  C   UNL A   1      42.814  23.450  27.033  1.00  0.00    -0.014 A 
BRANCH  14  15
ATOM     15  C   UNL A   1      43.351  24.799  27.340  1.00  0.00     0.031 A 
ATOM     16  C   UNL A   1      42.452  25.879  27.874  1.00  0.00     0.074 A 
ATOM     17  C   UNL A   1      44.662  25.044  27.145  1.00  0.00     0.049 A 
ATOM     18  N   UNL A   1      42.729  27.133  28.124  1.00  0.00    -0.248 NA
ATOM     19  C   UNL A   1      41.060  25.503  28.165  1.00  0.00     0.031 C 
ATOM     20  C   UNL A   1      45.639  24.068  26.655  1.00  0.00     0.029 A 
ATOM     21  N   UNL A   1      45.401  26.182  27.343  1.00  0.00    -0.354 N 
ATOM     22  C   UNL A   1      41.550  27.701  28.590  1.00  0.00     0.074 A 
ATOM     23  C   UNL A   1      40.547  26.656  28.572  1.00  0.00     0.031 C 
ATOM     24  C   UNL A   1      46.852  24.641  26.621  1.00  0.00     0.029 A 
ATOM     25  C   UNL A   1      46.731  26.037  27.024  1.00  0.00     0.049 A 
ATOM     26  H   UNL A   1      45.017  27.022  27.683  1.00  0.00     0.167 HD
ATOM     27  C   UNL A   1      41.327  28.975  28.996  1.00  0.00     0.034 A 
ATOM     28  C   UNL A   1      47.736  26.933  27.028  1.00  0.00     0.034 A 
ATOM     29  C   UNL A   1      42.333  30.007  29.017  1.00  0.00     0.049 A 
ATOM     30  C   UNL A   1      47.446  28.354  27.424  1.00  0.00     0.074 A 
ATOM     31  C   UNL A   1      42.206  31.327  29.414  1.00  0.00     0.029 A 
ATOM     32  N   UNL A   1      43.654  29.836  28.625  1.00  0.00    -0.354 N 
ATOM     33  N   UNL A   1      46.310  28.885  27.809  1.00  0.00    -0.248 NA
ATOM     34  C   UNL A   1      48.570  29.298  27.368  1.00  0.00     0.031 C 
ATOM     35  C   UNL A   1      43.436  31.965  29.218  1.00  0.00     0.029 A 
ATOM     36  C   UNL A   1      44.346  31.030  28.751  1.00  0.00     0.049 A 
ATOM     37  H   UNL A   1      44.043  28.990  28.305  1.00  0.00     0.167 HD
ATOM     38  C   UNL A   1      46.584  30.227  28.045  1.00  0.00     0.074 A 
ATOM     39  C   UNL A   1      47.994  30.421  27.775  1.00  0.00     0.031 C 
ATOM     40  C   UNL A   1      45.743  31.212  28.450  1.00  0.00     0.034 A 
BRANCH  27  41
ATOM     41  C   UNL A   1      39.928  29.337  29.419  1.00  0.00     0.023 A 
ATOM     42  C   UNL A   1      39.566  29.418  30.772  1.00  0.00     0.031 A 
ATOM     43  C   UNL A   1      38.954  29.635  28.448  1.00  0.00     0.131 A 
ATOM     44  C   UNL A   1      38.249  29.755  31.120  1.00  0.00     0.055 A 
ATOM     45  C   UNL A   1      37.661  30.022  28.803  1.00  0.00     0.041 A 
ATOM     46  F   UNL A   1      39.248  29.556  27.141  1.00  0.00    -0.206 F 
ATOM     47  C   UNL A   1      37.301  30.079  30.146  1.00  0.00     0.022 A 
BRANCH  44  48
ATOM     48  S   UNL A   1      37.768  29.713  32.869  1.00  0.00     0.124 S 
ATOM     49  O   UNL A   1      36.632  30.631  32.882  1.00  0.00    -0.237 OA
ATOM     50  O   UNL A   1      37.452  28.306  33.082  1.00  0.00    -0.237 OA
ATOM     51  O   UNL A   1      38.960  30.195  33.564  1.00  0.00    -0.744 OA
ENDBRANCH  44  48
ENDBRANCH  27  41
BRANCH  28  52
ATOM     52  C   UNL A   1      49.098  26.527  26.592  1.00  0.00     0.023 A 
ATOM     53  C   UNL A   1      49.646  27.006  25.392  1.00  0.00     0.031 A 
ATOM     54  C   UNL A   1      49.867  25.642  27.368  1.00  0.00     0.131 A 
ATOM     55  C   UNL A   1      50.920  26.578  24.990  1.00  0.00     0.055 A 
ATOM     56  C   UNL A   1      51.149  25.249  26.983  1.00  0.00     0.041 A 
ATOM     57  F   UNL A   1      49.387  25.164  28.527  1.00  0.00    -0.206 F 
ATOM     58  C   UNL A   1      51.679  25.713  25.783  1.00  0.00     0.022 A 
BRANCH  55  59
ATOM     59  S   UNL A   1      51.564  27.144  23.393  1.00  0.00     0.124 S 
ATOM     60  O   UNL A   1      51.849  28.548  23.669  1.00  0.00    -0.237 OA
ATOM     61  O   UNL A   1      52.724  26.279  23.208  1.00  0.00    -0.237 OA
ATOM     62  O   UNL A   1      50.456  26.901  22.473  1.00  0.00    -0.744 OA
ENDBRANCH  55  59
ENDBRANCH  28  52
BRANCH  40  63
ATOM     63  C   UNL A   1      46.338  32.580  28.633  1.00  0.00     0.023 A 
ATOM     64  C   UNL A   1      46.525  33.447  27.543  1.00  0.00     0.031 A 
ATOM     65  C   UNL A   1      46.722  33.020  29.911  1.00  0.00     0.131 A 
ATOM     66  C   UNL A   1      47.116  34.702  27.747  1.00  0.00     0.055 A 
ATOM     67  C   UNL A   1      47.270  34.286  30.114  1.00  0.00     0.041 A 
ATOM     68  F   UNL A   1      46.562  32.227  30.983  1.00  0.00    -0.206 F 
ATOM     69  C   UNL A   1      47.477  35.133  29.028  1.00  0.00     0.022 A 
BRANCH  66  70
ATOM     70  S   UNL A   1      47.449  35.754  26.307  1.00  0.00     0.124 S 
ATOM     71  O   UNL A   1      48.780  36.269  26.612  1.00  0.00    -0.237 OA
ATOM     72  O   UNL A   1      47.369  34.808  25.200  1.00  0.00    -0.237 OA
ATOM     73  O   UNL A   1      46.374  36.745  26.352  1.00  0.00    -0.744 OA
ENDBRANCH  66  70
ENDBRANCH  40  63
ENDBRANCH  14  15
ENDBRANCH   7   9
ENDBRANCH   4   5
ENDBRANCH   3   4
ENDBRANCH   2   3
ENDBRANCH   1   2
BRANCH   1  74
ATOM     74  C   UNL A   1      34.346  21.610  25.719  1.00  0.00     0.021 C 
BRANCH  74  75
ATOM     75  C   UNL A   1      34.105  22.505  26.933  1.00  0.00     0.116 C 
BRANCH  75  76
ATOM     76  N   UNL A   1      32.729  22.460  27.402  1.00  0.00    -0.352 N 
ATOM     77  C   UNL A   1      31.638  23.166  26.966  1.00  0.00     0.251 C 
ATOM     78  H   UNL A   1      32.557  21.832  28.141  1.00  0.00     0.163 HD
ATOM     79  O   UNL A   1      30.567  23.095  27.559  1.00  0.00    -0.269 OA
BRANCH  77  80
ATOM     80  C   UNL A   1      31.760  24.057  25.795  1.00  0.00     0.042 A 
ATOM     81  C   UNL A   1      30.895  23.940  24.701  1.00  0.00     0.015 A 
ATOM     82  C   UNL A   1      32.765  25.027  25.801  1.00  0.00     0.054 A 
ATOM     83  C   UNL A   1      31.108  24.725  23.569  1.00  0.00     0.026 A 
ATOM     84  C   UNL A   1      32.955  25.827  24.678  1.00  0.00     0.144 A 
ATOM     85  C   UNL A   1      32.157  25.655  23.555  1.00  0.00     0.118 A 
ATOM     86  F   UNL A   1      33.937  26.738  24.717  1.00  0.00    -0.205 F 
BRANCH  85  87
ATOM     87  S   UNL A   1      32.463  26.523  22.054  1.00  0.00     0.243 S 
ATOM     88  O   UNL A   1      33.851  26.305  21.719  1.00  0.00    -0.207 OA
ATOM     89  O   UNL A   1      31.396  26.170  21.143  1.00  0.00    -0.207 OA
BRANCH  87  90
ATOM     90  N   UNL A   1      32.277  28.140  22.377  1.00  0.00    -0.205 NA
ATOM     91  H   UNL A   1      32.497  28.624  21.507  1.00  0.00     0.141 HD
BRANCH  90  92
ATOM     92  C   UNL A   1      31.032  28.730  22.857  1.00  0.00     0.160 C 
BRANCH  92  93
ATOM     93  C   UNL A   1      30.439  29.811  21.932  1.00  0.00     0.278 C 
BRANCH  93  94
ATOM     94  N   UNL A   1      28.989  29.912  21.736  1.00  0.00    -0.334 N 
ATOM     95  C   UNL A   1      28.447  31.249  21.536  1.00  0.00     0.262 C 
ATOM     96  C   UNL A   1      28.185  29.239  22.753  1.00  0.00     0.262 C 
ATOM     97  H   UNL A   1      28.904  29.415  20.849  1.00  0.00     0.348 HD
ATOM     98  C   UNL A   1      27.804  31.633  22.852  1.00  0.00     0.067 C 
ATOM     99  C   UNL A   1      27.380  30.313  23.471  1.00  0.00     0.067 C 
ENDBRANCH  93  94
ENDBRANCH  92  93
ENDBRANCH  90  92
ENDBRANCH  87  90
ENDBRANCH  85  87
ENDBRANCH  77  80
ENDBRANCH  75  76
ENDBRANCH  74  75
ENDBRANCH   1  74
TORSDOF 21
ENDMDL
