MODEL 1
REMARK VINA RESULT:     -10.6      0.000      0.000
REMARK SMILES O=C(Cn1cccc1C(=O)NCCC(=O)NC1CC1)NCCCCCCNC(=O)c1ccc(-c2c3nc(c(-c4cc(S(=O)(=O)[O-])ccc4F)c4ccc([nH]4)c(-c4cc(S(=O)(=O)[O-])ccc4F)c4nc(c(-c5cc(S(=O)(=O)[O-])ccc5F)c5ccc2[nH]5)C=C4)C=C3)cc1
REMARK SMILES IDX 22 1 21 2 20 3 1 4 2 5 3 7 4 8 5 9 8 10 6 11 7 12 9 13 10 14
REMARK SMILES IDX 11 15 12 17 13 18 14 19 15 20 16 21 17 23 18 24 19 25 23 26
REMARK SMILES IDX 24 27 25 28 26 29 27 30 28 31 29 33 30 34 31 35 92 36 32 37
REMARK SMILES IDX 91 38 33 39 34 40 35 41 85 42 36 43 90 44 84 45 86 46 37 47
REMARK SMILES IDX 89 48 83 49 82 50 38 52 70 53 50 54 69 55 51 56 54 57 68 58
REMARK SMILES IDX 87 59 52 60 53 61 67 63 88 64 55 65 39 66 40 67 48 68 41 69
REMARK SMILES IDX 47 70 49 71 46 72 42 73 43 74 44 75 45 76 71 77 72 78 80 79
REMARK SMILES IDX 73 80 79 81 81 82 78 83 74 84 75 85 76 86 77 87 56 88 57 89
REMARK SMILES IDX 65 90 58 91 64 92 66 93 63 94 59 95 60 96 61 97 62 98
REMARK H PARENT 20 6 11 16 16 22 27 32 86 51 54 62
REMARK Flexibility Score: inf
ROOT
ATOM      1  C   UNL A   1      34.824  23.061  23.051  1.00  0.00     0.021 C 
ENDROOT
BRANCH   1   2
ATOM      2  C   UNL A   1      33.453  23.634  22.736  1.00  0.00     0.116 C 
BRANCH   2   3
ATOM      3  N   UNL A   1      32.326  22.967  23.338  1.00  0.00    -0.355 N 
ATOM      4  O   UNL A   1      32.230  20.982  22.174  1.00  0.00    -0.273 OA
ATOM      5  C   UNL A   1      32.204  21.598  23.235  1.00  0.00     0.239 C 
ATOM      6  H   UNL A   1      31.644  23.488  23.820  1.00  0.00     0.163 HD
BRANCH   5   7
ATOM      7  C   UNL A   1      32.001  20.877  24.530  1.00  0.00     0.222 C 
BRANCH   7   8
ATOM      8  N   UNL A   1      32.485  21.573  25.718  1.00  0.00    -0.334 N 
ATOM      9  C   UNL A   1      33.773  21.269  26.155  1.00  0.00     0.087 A 
ATOM     10  C   UNL A   1      31.897  22.482  26.595  1.00  0.00     0.107 A 
ATOM     11  C   UNL A   1      33.986  21.839  27.376  1.00  0.00     0.020 A 
ATOM     12  C   UNL A   1      32.829  22.574  27.649  1.00  0.00     0.033 A 
BRANCH  10  13
ATOM     13  C   UNL A   1      30.655  23.249  26.742  1.00  0.00     0.267 C 
ATOM     14  O   UNL A   1      29.877  22.916  27.654  1.00  0.00    -0.268 OA
ATOM     15  N   UNL A   1      30.118  24.312  26.090  1.00  0.00    -0.350 N 
ATOM     16  H   UNL A   1      29.179  24.394  26.377  1.00  0.00     0.163 HD
BRANCH  15  17
ATOM     17  C   UNL A   1      30.380  25.375  25.140  1.00  0.00     0.126 C 
BRANCH  17  18
ATOM     18  C   UNL A   1      30.877  26.719  25.686  1.00  0.00     0.121 C 
BRANCH  18  19
ATOM     19  C   UNL A   1      31.434  27.911  24.919  1.00  0.00     0.221 C 
ATOM     20  O   UNL A   1      30.758  28.374  23.987  1.00  0.00    -0.275 OA
ATOM     21  N   UNL A   1      32.522  28.652  25.251  1.00  0.00    -0.353 N 
ATOM     22  H   UNL A   1      32.499  29.562  24.880  1.00  0.00     0.163 HD
BRANCH  21  23
ATOM     23  C   UNL A   1      33.685  28.389  26.017  1.00  0.00     0.082 C 
ATOM     24  C   UNL A   1      34.471  29.587  26.514  1.00  0.00     0.027 C 
ATOM     25  C   UNL A   1      33.831  28.656  27.487  1.00  0.00     0.027 C 
ENDBRANCH  21  23
ENDBRANCH  18  19
ENDBRANCH  17  18
ENDBRANCH  15  17
ENDBRANCH  10  13
ENDBRANCH   7   8
ENDBRANCH   5   7
ENDBRANCH   2   3
ENDBRANCH   1   2
BRANCH   1  26
ATOM     26  C   UNL A   1      35.500  23.795  24.209  1.00  0.00     0.002 C 
BRANCH  26  27
ATOM     27  C   UNL A   1      36.931  23.321  24.517  1.00  0.00     0.002 C 
BRANCH  27  28
ATOM     28  C   UNL A   1      37.307  23.261  26.005  1.00  0.00     0.021 C 
BRANCH  28  29
ATOM     29  C   UNL A   1      38.290  24.336  26.426  1.00  0.00     0.116 C 
BRANCH  29  30
ATOM     30  N   UNL A   1      39.624  23.783  26.563  1.00  0.00    -0.352 N 
ATOM     31  C   UNL A   1      40.811  24.427  26.792  1.00  0.00     0.251 C 
ATOM     32  H   UNL A   1      39.684  22.805  26.478  1.00  0.00     0.163 HD
ATOM     33  O   UNL A   1      41.861  23.859  26.540  1.00  0.00    -0.269 OA
BRANCH  31  34
ATOM     34  C   UNL A   1      40.811  25.804  27.321  1.00  0.00     0.039 A 
ATOM     35  C   UNL A   1      40.988  25.973  28.699  1.00  0.00     0.014 A 
ATOM     36  C   UNL A   1      40.567  26.901  26.487  1.00  0.00     0.014 A 
ATOM     37  C   UNL A   1      40.958  27.251  29.233  1.00  0.00     0.010 A 
ATOM     38  C   UNL A   1      40.587  28.181  27.007  1.00  0.00     0.010 A 
ATOM     39  C   UNL A   1      40.773  28.347  28.380  1.00  0.00    -0.014 A 
BRANCH  39  40
ATOM     40  C   UNL A   1      40.883  29.706  28.937  1.00  0.00     0.031 A 
ATOM     41  C   UNL A   1      39.491  30.224  29.384  1.00  0.00     0.074 A 
ATOM     42  C   UNL A   1      42.149  30.233  28.912  1.00  0.00     0.049 A 
ATOM     43  N   UNL A   1      39.004  31.425  29.409  1.00  0.00    -0.248 NA
ATOM     44  C   UNL A   1      38.436  29.234  29.765  1.00  0.00     0.031 C 
ATOM     45  C   UNL A   1      43.374  29.512  28.465  1.00  0.00     0.029 A 
ATOM     46  N   UNL A   1      42.686  31.455  29.242  1.00  0.00    -0.354 N 
ATOM     47  C   UNL A   1      37.726  31.369  30.026  1.00  0.00     0.074 A 
ATOM     48  C   UNL A   1      37.376  29.984  30.081  1.00  0.00     0.031 C 
ATOM     49  C   UNL A   1      44.457  30.324  28.466  1.00  0.00     0.029 A 
ATOM     50  C   UNL A   1      44.063  31.643  28.913  1.00  0.00     0.049 A 
ATOM     51  H   UNL A   1      42.154  32.159  29.680  1.00  0.00     0.167 HD
ATOM     52  C   UNL A   1      37.119  32.464  30.584  1.00  0.00     0.034 A 
ATOM     53  C   UNL A   1      44.804  32.797  28.944  1.00  0.00     0.034 A 
ATOM     54  C   UNL A   1      37.961  33.598  30.400  1.00  0.00     0.049 A 
ATOM     55  C   UNL A   1      43.886  33.773  29.549  1.00  0.00     0.074 A 
ATOM     56  C   UNL A   1      38.264  34.347  29.296  1.00  0.00     0.029 A 
ATOM     57  N   UNL A   1      38.880  33.854  31.392  1.00  0.00    -0.354 N 
ATOM     58  N   UNL A   1      43.556  33.795  30.802  1.00  0.00    -0.248 NA
ATOM     59  C   UNL A   1      43.190  34.723  28.674  1.00  0.00     0.031 C 
ATOM     60  C   UNL A   1      39.639  34.598  29.468  1.00  0.00     0.029 A 
ATOM     61  C   UNL A   1      40.037  34.242  30.766  1.00  0.00     0.049 A 
ATOM     62  H   UNL A   1      38.735  33.775  32.362  1.00  0.00     0.167 HD
ATOM     63  C   UNL A   1      42.393  34.520  30.794  1.00  0.00     0.074 A 
ATOM     64  C   UNL A   1      42.416  35.311  29.582  1.00  0.00     0.031 C 
ATOM     65  C   UNL A   1      41.299  34.043  31.447  1.00  0.00     0.034 A 
BRANCH  52  66
ATOM     66  C   UNL A   1      35.938  32.674  31.505  1.00  0.00     0.023 A 
ATOM     67  C   UNL A   1      34.906  33.516  31.009  1.00  0.00     0.031 A 
ATOM     68  C   UNL A   1      35.897  32.394  32.875  1.00  0.00     0.131 A 
ATOM     69  C   UNL A   1      34.013  34.175  31.862  1.00  0.00     0.055 A 
ATOM     70  C   UNL A   1      34.949  32.997  33.722  1.00  0.00     0.041 A 
ATOM     71  F   UNL A   1      36.807  31.604  33.457  1.00  0.00    -0.206 F 
ATOM     72  C   UNL A   1      34.031  33.924  33.227  1.00  0.00     0.022 A 
BRANCH  69  73
ATOM     73  S   UNL A   1      32.983  35.500  31.163  1.00  0.00     0.124 S 
ATOM     74  O   UNL A   1      31.846  35.521  32.075  1.00  0.00    -0.237 OA
ATOM     75  O   UNL A   1      33.878  36.651  31.230  1.00  0.00    -0.237 OA
ATOM     76  O   UNL A   1      32.687  35.023  29.813  1.00  0.00    -0.744 OA
ENDBRANCH  69  73
ENDBRANCH  52  66
BRANCH  53  77
ATOM     77  C   UNL A   1      46.144  33.351  28.478  1.00  0.00     0.023 A 
ATOM     78  C   UNL A   1      46.933  34.331  29.108  1.00  0.00     0.031 A 
ATOM     79  C   UNL A   1      46.742  32.782  27.305  1.00  0.00     0.131 A 
ATOM     80  C   UNL A   1      48.249  34.613  28.627  1.00  0.00     0.055 A 
ATOM     81  C   UNL A   1      48.058  32.990  26.899  1.00  0.00     0.041 A 
ATOM     82  F   UNL A   1      46.069  31.969  26.480  1.00  0.00    -0.206 F 
ATOM     83  C   UNL A   1      48.830  33.899  27.575  1.00  0.00     0.022 A 
BRANCH  80  84
ATOM     84  S   UNL A   1      49.283  35.918  29.363  1.00  0.00     0.124 S 
ATOM     85  O   UNL A   1      50.371  36.022  28.397  1.00  0.00    -0.237 OA
ATOM     86  O   UNL A   1      48.375  37.056  29.436  1.00  0.00    -0.237 OA
ATOM     87  O   UNL A   1      49.662  35.354  30.660  1.00  0.00    -0.744 OA
ENDBRANCH  80  84
ENDBRANCH  53  77
BRANCH  65  88
ATOM     88  C   UNL A   1      41.609  33.032  32.559  1.00  0.00     0.023 A 
ATOM     89  C   UNL A   1      41.125  31.710  32.462  1.00  0.00     0.031 A 
ATOM     90  C   UNL A   1      42.249  33.354  33.771  1.00  0.00     0.131 A 
ATOM     91  C   UNL A   1      41.233  30.808  33.541  1.00  0.00     0.055 A 
ATOM     92  C   UNL A   1      42.373  32.454  34.841  1.00  0.00     0.041 A 
ATOM     93  F   UNL A   1      42.775  34.561  33.976  1.00  0.00    -0.206 F 
ATOM     94  C   UNL A   1      41.855  31.173  34.733  1.00  0.00     0.022 A 
BRANCH  91  95
ATOM     95  S   UNL A   1      40.550  29.136  33.367  1.00  0.00     0.124 S 
ATOM     96  O   UNL A   1      39.138  29.391  33.104  1.00  0.00    -0.237 OA
ATOM     97  O   UNL A   1      41.321  28.594  32.252  1.00  0.00    -0.237 OA
ATOM     98  O   UNL A   1      40.831  28.515  34.662  1.00  0.00    -0.744 OA
ENDBRANCH  91  95
ENDBRANCH  65  88
ENDBRANCH  39  40
ENDBRANCH  31  34
ENDBRANCH  29  30
ENDBRANCH  28  29
ENDBRANCH  27  28
ENDBRANCH  26  27
ENDBRANCH   1  26
TORSDOF 22
ENDMDL
MODEL 2
REMARK VINA RESULT:     -10.3      4.322      6.374
REMARK SMILES O=C(Cn1cccc1C(=O)NCCC(=O)NC1CC1)NCCCCCCNC(=O)c1ccc(-c2c3nc(c(-c4cc(S(=O)(=O)[O-])ccc4F)c4ccc([nH]4)c(-c4cc(S(=O)(=O)[O-])ccc4F)c4nc(c(-c5cc(S(=O)(=O)[O-])ccc5F)c5ccc2[nH]5)C=C4)C=C3)cc1
REMARK SMILES IDX 22 1 21 2 20 3 1 4 2 5 3 7 4 8 5 9 8 10 6 11 7 12 9 13 10 14
REMARK SMILES IDX 11 15 12 17 13 18 14 19 15 20 16 21 17 23 18 24 19 25 23 26
REMARK SMILES IDX 24 27 25 28 26 29 27 30 28 31 29 33 30 34 31 35 92 36 32 37
REMARK SMILES IDX 91 38 33 39 34 40 35 41 85 42 36 43 90 44 84 45 86 46 37 47
REMARK SMILES IDX 89 48 83 49 82 50 38 52 70 53 50 54 69 55 51 56 54 57 68 58
REMARK SMILES IDX 87 59 52 60 53 61 67 63 88 64 55 65 39 66 40 67 48 68 41 69
REMARK SMILES IDX 47 70 49 71 46 72 42 73 43 74 44 75 45 76 71 77 72 78 80 79
REMARK SMILES IDX 73 80 79 81 81 82 78 83 74 84 75 85 76 86 77 87 56 88 57 89
REMARK SMILES IDX 65 90 58 91 64 92 66 93 63 94 59 95 60 96 61 97 62 98
REMARK H PARENT 20 6 11 16 16 22 27 32 86 51 54 62
REMARK Flexibility Score: inf
ROOT
ATOM      1  C   UNL A   1      34.848  21.959  24.217  1.00  0.00     0.021 C 
ENDROOT
BRANCH   1   2
ATOM      2  C   UNL A   1      34.887  23.314  23.530  1.00  0.00     0.116 C 
BRANCH   2   3
ATOM      3  N   UNL A   1      33.864  24.255  23.911  1.00  0.00    -0.355 N 
ATOM      4  O   UNL A   1      34.200  24.478  26.179  1.00  0.00    -0.273 OA
ATOM      5  C   UNL A   1      33.999  24.978  25.077  1.00  0.00     0.239 C 
ATOM      6  H   UNL A   1      33.072  24.381  23.341  1.00  0.00     0.163 HD
BRANCH   5   7
ATOM      7  C   UNL A   1      33.851  26.460  24.928  1.00  0.00     0.222 C 
BRANCH   7   8
ATOM      8  N   UNL A   1      32.918  27.093  25.856  1.00  0.00    -0.334 N 
ATOM      9  C   UNL A   1      33.399  28.159  26.615  1.00  0.00     0.087 A 
ATOM     10  C   UNL A   1      31.600  26.822  26.215  1.00  0.00     0.107 A 
ATOM     11  C   UNL A   1      32.479  28.492  27.565  1.00  0.00     0.020 A 
ATOM     12  C   UNL A   1      31.380  27.663  27.325  1.00  0.00     0.033 A 
BRANCH  10  13
ATOM     13  C   UNL A   1      30.499  25.931  25.832  1.00  0.00     0.267 C 
ATOM     14  O   UNL A   1      30.321  24.907  26.515  1.00  0.00    -0.268 OA
ATOM     15  N   UNL A   1      29.555  25.963  24.855  1.00  0.00    -0.350 N 
ATOM     16  H   UNL A   1      29.128  25.075  24.826  1.00  0.00     0.163 HD
BRANCH  15  17
ATOM     17  C   UNL A   1      28.927  26.784  23.840  1.00  0.00     0.126 C 
BRANCH  17  18
ATOM     18  C   UNL A   1      29.826  27.702  23.002  1.00  0.00     0.121 C 
BRANCH  18  19
ATOM     19  C   UNL A   1      30.313  29.108  23.324  1.00  0.00     0.221 C 
ATOM     20  O   UNL A   1      31.420  29.233  23.871  1.00  0.00    -0.275 OA
ATOM     21  N   UNL A   1      29.749  30.274  22.918  1.00  0.00    -0.353 N 
ATOM     22  H   UNL A   1      30.384  31.024  22.893  1.00  0.00     0.163 HD
BRANCH  21  23
ATOM     23  C   UNL A   1      28.437  30.638  22.525  1.00  0.00     0.082 C 
ATOM     24  C   UNL A   1      27.687  31.602  23.425  1.00  0.00     0.027 C 
ATOM     25  C   UNL A   1      28.027  31.994  22.028  1.00  0.00     0.027 C 
ENDBRANCH  21  23
ENDBRANCH  18  19
ENDBRANCH  17  18
ENDBRANCH  15  17
ENDBRANCH  10  13
ENDBRANCH   7   8
ENDBRANCH   5   7
ENDBRANCH   2   3
ENDBRANCH   1   2
BRANCH   1  26
ATOM     26  C   UNL A   1      36.196  21.592  24.837  1.00  0.00     0.002 C 
BRANCH  26  27
ATOM     27  C   UNL A   1      36.438  20.081  24.991  1.00  0.00     0.002 C 
BRANCH  27  28
ATOM     28  C   UNL A   1      37.871  19.603  24.713  1.00  0.00     0.021 C 
BRANCH  28  29
ATOM     29  C   UNL A   1      38.890  20.130  25.705  1.00  0.00     0.116 C 
BRANCH  29  30
ATOM     30  N   UNL A   1      39.922  19.142  25.950  1.00  0.00    -0.352 N 
ATOM     31  C   UNL A   1      41.272  19.318  26.101  1.00  0.00     0.251 C 
ATOM     32  H   UNL A   1      39.608  18.212  26.017  1.00  0.00     0.163 HD
ATOM     33  O   UNL A   1      42.022  18.365  25.959  1.00  0.00    -0.269 OA
BRANCH  31  34
ATOM     34  C   UNL A   1      41.810  20.655  26.414  1.00  0.00     0.039 A 
ATOM     35  C   UNL A   1      42.087  21.514  25.345  1.00  0.00     0.014 A 
ATOM     36  C   UNL A   1      42.108  21.026  27.730  1.00  0.00     0.014 A 
ATOM     37  C   UNL A   1      42.626  22.764  25.602  1.00  0.00     0.010 A 
ATOM     38  C   UNL A   1      42.598  22.290  27.997  1.00  0.00     0.010 A 
ATOM     39  C   UNL A   1      42.864  23.149  26.929  1.00  0.00    -0.014 A 
BRANCH  39  40
ATOM     40  C   UNL A   1      43.304  24.527  27.199  1.00  0.00     0.031 A 
ATOM     41  C   UNL A   1      42.081  25.452  27.433  1.00  0.00     0.074 A 
ATOM     42  C   UNL A   1      44.662  24.713  27.154  1.00  0.00     0.049 A 
ATOM     43  N   UNL A   1      41.913  26.711  27.175  1.00  0.00    -0.248 NA
ATOM     44  C   UNL A   1      40.805  24.855  27.936  1.00  0.00     0.031 C 
ATOM     45  C   UNL A   1      45.673  23.636  26.951  1.00  0.00     0.029 A 
ATOM     46  N   UNL A   1      45.485  25.809  27.261  1.00  0.00    -0.354 N 
ATOM     47  C   UNL A   1      40.652  27.103  27.701  1.00  0.00     0.074 A 
ATOM     48  C   UNL A   1      39.964  25.891  28.016  1.00  0.00     0.031 C 
ATOM     49  C   UNL A   1      46.925  24.141  26.860  1.00  0.00     0.029 A 
ATOM     50  C   UNL A   1      46.870  25.581  26.996  1.00  0.00     0.049 A 
ATOM     51  H   UNL A   1      45.141  26.699  27.507  1.00  0.00     0.167 HD
ATOM     52  C   UNL A   1      40.332  28.407  27.978  1.00  0.00     0.034 A 
ATOM     53  C   UNL A   1      47.877  26.499  26.840  1.00  0.00     0.034 A 
ATOM     54  C   UNL A   1      41.436  29.234  27.622  1.00  0.00     0.049 A 
ATOM     55  C   UNL A   1      47.226  27.776  27.166  1.00  0.00     0.074 A 
ATOM     56  C   UNL A   1      41.935  29.629  26.411  1.00  0.00     0.029 A 
ATOM     57  N   UNL A   1      42.374  29.469  28.601  1.00  0.00    -0.354 N 
ATOM     58  N   UNL A   1      46.893  28.149  28.361  1.00  0.00    -0.248 NA
ATOM     59  C   UNL A   1      46.805  28.653  26.067  1.00  0.00     0.031 C 
ATOM     60  C   UNL A   1      43.326  29.570  26.623  1.00  0.00     0.029 A 
ATOM     61  C   UNL A   1      43.601  29.418  27.990  1.00  0.00     0.049 A 
ATOM     62  H   UNL A   1      42.199  29.640  29.555  1.00  0.00     0.167 HD
ATOM     63  C   UNL A   1      45.951  29.115  28.124  1.00  0.00     0.074 A 
ATOM     64  C   UNL A   1      46.191  29.595  26.779  1.00  0.00     0.031 C 
ATOM     65  C   UNL A   1      44.762  29.072  28.783  1.00  0.00     0.034 A 
BRANCH  52  66
ATOM     66  C   UNL A   1      39.228  29.092  28.751  1.00  0.00     0.023 A 
ATOM     67  C   UNL A   1      39.301  28.980  30.166  1.00  0.00     0.031 A 
ATOM     68  C   UNL A   1      38.009  29.539  28.232  1.00  0.00     0.131 A 
ATOM     69  C   UNL A   1      38.172  29.129  30.981  1.00  0.00     0.055 A 
ATOM     70  C   UNL A   1      36.894  29.763  29.060  1.00  0.00     0.041 A 
ATOM     71  F   UNL A   1      37.822  29.696  26.916  1.00  0.00    -0.206 F 
ATOM     72  C   UNL A   1      36.957  29.517  30.432  1.00  0.00     0.022 A 
BRANCH  69  73
ATOM     73  S   UNL A   1      38.296  28.607  32.718  1.00  0.00     0.124 S 
ATOM     74  O   UNL A   1      39.285  29.538  33.249  1.00  0.00    -0.237 OA
ATOM     75  O   UNL A   1      36.927  28.790  33.190  1.00  0.00    -0.237 OA
ATOM     76  O   UNL A   1      38.739  27.217  32.623  1.00  0.00    -0.744 OA
ENDBRANCH  69  73
ENDBRANCH  52  66
BRANCH  53  77
ATOM     77  C   UNL A   1      49.320  26.595  26.364  1.00  0.00     0.023 A 
ATOM     78  C   UNL A   1      49.869  27.542  25.478  1.00  0.00     0.031 A 
ATOM     79  C   UNL A   1      50.279  25.682  26.913  1.00  0.00     0.131 A 
ATOM     80  C   UNL A   1      51.282  27.596  25.270  1.00  0.00     0.055 A 
ATOM     81  C   UNL A   1      51.661  25.800  26.782  1.00  0.00     0.041 A 
ATOM     82  F   UNL A   1      49.918  24.609  27.630  1.00  0.00    -0.206 F 
ATOM     83  C   UNL A   1      52.174  26.777  25.969  1.00  0.00     0.022 A 
BRANCH  80  84
ATOM     84  S   UNL A   1      52.036  28.755  24.085  1.00  0.00     0.124 S 
ATOM     85  O   UNL A   1      52.311  29.913  24.928  1.00  0.00    -0.237 OA
ATOM     86  O   UNL A   1      53.199  28.020  23.600  1.00  0.00    -0.237 OA
ATOM     87  O   UNL A   1      50.979  28.952  23.091  1.00  0.00    -0.744 OA
ENDBRANCH  80  84
ENDBRANCH  53  77
BRANCH  65  88
ATOM     88  C   UNL A   1      44.790  28.282  30.099  1.00  0.00     0.023 A 
ATOM     89  C   UNL A   1      44.748  26.872  30.073  1.00  0.00     0.031 A 
ATOM     90  C   UNL A   1      44.724  28.865  31.379  1.00  0.00     0.131 A 
ATOM     91  C   UNL A   1      44.589  26.120  31.256  1.00  0.00     0.055 A 
ATOM     92  C   UNL A   1      44.582  28.121  32.560  1.00  0.00     0.041 A 
ATOM     93  F   UNL A   1      44.783  30.186  31.540  1.00  0.00    -0.206 F 
ATOM     94  C   UNL A   1      44.506  26.738  32.502  1.00  0.00     0.022 A 
BRANCH  91  95
ATOM     95  S   UNL A   1      44.497  24.311  31.149  1.00  0.00     0.124 S 
ATOM     96  O   UNL A   1      43.123  24.084  30.718  1.00  0.00    -0.237 OA
ATOM     97  O   UNL A   1      45.535  23.999  30.171  1.00  0.00    -0.237 OA
ATOM     98  O   UNL A   1      44.794  23.873  32.514  1.00  0.00    -0.744 OA
ENDBRANCH  91  95
ENDBRANCH  65  88
ENDBRANCH  39  40
ENDBRANCH  31  34
ENDBRANCH  29  30
ENDBRANCH  28  29
ENDBRANCH  27  28
ENDBRANCH  26  27
ENDBRANCH   1  26
TORSDOF 22
ENDMDL
MODEL 3
REMARK VINA RESULT:     -10.2      3.621      7.265
REMARK SMILES O=C(Cn1cccc1C(=O)NCCC(=O)NC1CC1)NCCCCCCNC(=O)c1ccc(-c2c3nc(c(-c4cc(S(=O)(=O)[O-])ccc4F)c4ccc([nH]4)c(-c4cc(S(=O)(=O)[O-])ccc4F)c4nc(c(-c5cc(S(=O)(=O)[O-])ccc5F)c5ccc2[nH]5)C=C4)C=C3)cc1
REMARK SMILES IDX 22 1 21 2 20 3 1 4 2 5 3 7 4 8 5 9 8 10 6 11 7 12 9 13 10 14
REMARK SMILES IDX 11 15 12 17 13 18 14 19 15 20 16 21 17 23 18 24 19 25 23 26
REMARK SMILES IDX 24 27 25 28 26 29 27 30 28 31 29 33 30 34 31 35 92 36 32 37
REMARK SMILES IDX 91 38 33 39 34 40 35 41 85 42 36 43 90 44 84 45 86 46 37 47
REMARK SMILES IDX 89 48 83 49 82 50 38 52 70 53 50 54 69 55 51 56 54 57 68 58
REMARK SMILES IDX 87 59 52 60 53 61 67 63 88 64 55 65 39 66 40 67 48 68 41 69
REMARK SMILES IDX 47 70 49 71 46 72 42 73 43 74 44 75 45 76 71 77 72 78 80 79
REMARK SMILES IDX 73 80 79 81 81 82 78 83 74 84 75 85 76 86 77 87 56 88 57 89
REMARK SMILES IDX 65 90 58 91 64 92 66 93 63 94 59 95 60 96 61 97 62 98
REMARK H PARENT 20 6 11 16 16 22 27 32 86 51 54 62
REMARK Flexibility Score: inf
ROOT
ATOM      1  C   UNL A   1      31.587  28.189  26.752  1.00  0.00     0.021 C 
ENDROOT
BRANCH   1   2
ATOM      2  C   UNL A   1      30.922  26.858  26.441  1.00  0.00     0.116 C 
BRANCH   2   3
ATOM      3  N   UNL A   1      31.769  25.832  25.889  1.00  0.00    -0.355 N 
ATOM      4  O   UNL A   1      31.240  23.992  27.170  1.00  0.00    -0.273 OA
ATOM      5  C   UNL A   1      31.448  24.504  26.075  1.00  0.00     0.239 C 
ATOM      6  H   UNL A   1      32.575  26.078  25.380  1.00  0.00     0.163 HD
BRANCH   5   7
ATOM      7  C   UNL A   1      31.394  23.681  24.827  1.00  0.00     0.222 C 
BRANCH   7   8
ATOM      8  N   UNL A   1      32.689  23.337  24.245  1.00  0.00    -0.334 N 
ATOM      9  C   UNL A   1      33.400  22.298  24.843  1.00  0.00     0.087 A 
ATOM     10  C   UNL A   1      33.440  23.880  23.205  1.00  0.00     0.107 A 
ATOM     11  C   UNL A   1      34.658  22.248  24.318  1.00  0.00     0.020 A 
ATOM     12  C   UNL A   1      34.684  23.226  23.321  1.00  0.00     0.033 A 
BRANCH  10  13
ATOM     13  C   UNL A   1      33.325  24.902  22.160  1.00  0.00     0.267 C 
ATOM     14  O   UNL A   1      33.181  24.514  20.986  1.00  0.00    -0.268 OA
ATOM     15  N   UNL A   1      33.325  26.261  22.163  1.00  0.00    -0.350 N 
ATOM     16  H   UNL A   1      33.422  26.560  21.230  1.00  0.00     0.163 HD
BRANCH  15  17
ATOM     17  C   UNL A   1      33.239  27.444  22.996  1.00  0.00     0.126 C 
BRANCH  17  18
ATOM     18  C   UNL A   1      31.949  28.272  22.933  1.00  0.00     0.121 C 
BRANCH  18  19
ATOM     19  C   UNL A   1      30.506  27.789  22.948  1.00  0.00     0.221 C 
ATOM     20  O   UNL A   1      30.298  26.573  23.092  1.00  0.00    -0.275 OA
ATOM     21  N   UNL A   1      29.392  28.562  22.999  1.00  0.00    -0.353 N 
ATOM     22  H   UNL A   1      28.612  28.096  23.376  1.00  0.00     0.163 HD
BRANCH  21  23
ATOM     23  C   UNL A   1      29.115  29.900  22.623  1.00  0.00     0.082 C 
ATOM     24  C   UNL A   1      27.682  30.378  22.769  1.00  0.00     0.027 C 
ATOM     25  C   UNL A   1      28.769  31.012  23.570  1.00  0.00     0.027 C 
ENDBRANCH  21  23
ENDBRANCH  18  19
ENDBRANCH  17  18
ENDBRANCH  15  17
ENDBRANCH  10  13
ENDBRANCH   7   8
ENDBRANCH   5   7
ENDBRANCH   2   3
ENDBRANCH   1   2
BRANCH   1  26
ATOM     26  C   UNL A   1      33.108  28.112  26.626  1.00  0.00     0.002 C 
BRANCH  26  27
ATOM     27  C   UNL A   1      33.858  29.331  27.191  1.00  0.00     0.002 C 
BRANCH  27  28
ATOM     28  C   UNL A   1      32.987  30.546  27.541  1.00  0.00     0.021 C 
BRANCH  28  29
ATOM     29  C   UNL A   1      33.479  31.843  26.926  1.00  0.00     0.116 C 
BRANCH  29  30
ATOM     30  N   UNL A   1      33.181  32.965  27.795  1.00  0.00    -0.352 N 
ATOM     31  C   UNL A   1      33.823  33.376  28.932  1.00  0.00     0.251 C 
ATOM     32  H   UNL A   1      32.405  33.509  27.529  1.00  0.00     0.163 HD
ATOM     33  O   UNL A   1      33.248  34.115  29.714  1.00  0.00    -0.269 OA
BRANCH  31  34
ATOM     34  C   UNL A   1      35.194  32.909  29.213  1.00  0.00     0.039 A 
ATOM     35  C   UNL A   1      36.236  33.450  28.452  1.00  0.00     0.014 A 
ATOM     36  C   UNL A   1      35.438  31.902  30.154  1.00  0.00     0.014 A 
ATOM     37  C   UNL A   1      37.532  33.007  28.667  1.00  0.00     0.010 A 
ATOM     38  C   UNL A   1      36.734  31.493  30.408  1.00  0.00     0.010 A 
ATOM     39  C   UNL A   1      37.773  32.042  29.654  1.00  0.00    -0.014 A 
BRANCH  39  40
ATOM     40  C   UNL A   1      39.165  31.682  29.970  1.00  0.00     0.031 A 
ATOM     41  C   UNL A   1      39.864  32.836  30.736  1.00  0.00     0.074 A 
ATOM     42  C   UNL A   1      39.557  30.454  29.503  1.00  0.00     0.049 A 
ATOM     43  N   UNL A   1      41.103  33.215  30.744  1.00  0.00    -0.248 NA
ATOM     44  C   UNL A   1      39.031  33.784  31.538  1.00  0.00     0.031 C 
ATOM     45  C   UNL A   1      38.674  29.471  28.814  1.00  0.00     0.029 A 
ATOM     46  N   UNL A   1      40.748  29.766  29.497  1.00  0.00    -0.354 N 
ATOM     47  C   UNL A   1      41.241  34.245  31.713  1.00  0.00     0.074 A 
ATOM     48  C   UNL A   1      39.912  34.648  32.051  1.00  0.00     0.031 C 
ATOM     49  C   UNL A   1      39.369  28.391  28.388  1.00  0.00     0.029 A 
ATOM     50  C   UNL A   1      40.761  28.546  28.754  1.00  0.00     0.049 A 
ATOM     51  H   UNL A   1      41.544  30.093  29.976  1.00  0.00     0.167 HD
ATOM     52  C   UNL A   1      42.445  34.582  32.277  1.00  0.00     0.034 A 
ATOM     53  C   UNL A   1      41.832  27.759  28.413  1.00  0.00     0.034 A 
ATOM     54  C   UNL A   1      43.462  33.767  31.704  1.00  0.00     0.049 A 
ATOM     55  C   UNL A   1      42.954  28.385  29.127  1.00  0.00     0.074 A 
ATOM     56  C   UNL A   1      44.056  33.769  30.471  1.00  0.00     0.029 A 
ATOM     57  N   UNL A   1      43.730  32.575  32.338  1.00  0.00    -0.354 N 
ATOM     58  N   UNL A   1      43.142  28.315  30.407  1.00  0.00    -0.248 NA
ATOM     59  C   UNL A   1      43.870  29.254  28.380  1.00  0.00     0.031 C 
ATOM     60  C   UNL A   1      44.185  32.394  30.196  1.00  0.00     0.029 A 
ATOM     61  C   UNL A   1      43.932  31.642  31.353  1.00  0.00     0.049 A 
ATOM     62  H   UNL A   1      43.770  32.422  33.310  1.00  0.00     0.167 HD
ATOM     63  C   UNL A   1      43.974  29.377  30.648  1.00  0.00     0.074 A 
ATOM     64  C   UNL A   1      44.626  29.675  29.390  1.00  0.00     0.031 C 
ATOM     65  C   UNL A   1      43.682  30.248  31.651  1.00  0.00     0.034 A 
BRANCH  52  66
ATOM     66  C   UNL A   1      42.868  35.410  33.469  1.00  0.00     0.023 A 
ATOM     67  C   UNL A   1      42.218  35.109  34.696  1.00  0.00     0.031 A 
ATOM     68  C   UNL A   1      43.577  36.616  33.429  1.00  0.00     0.131 A 
ATOM     69  C   UNL A   1      42.135  36.039  35.739  1.00  0.00     0.055 A 
ATOM     70  C   UNL A   1      43.556  37.518  34.509  1.00  0.00     0.041 A 
ATOM     71  F   UNL A   1      44.240  37.005  32.334  1.00  0.00    -0.206 F 
ATOM     72  C   UNL A   1      42.800  37.254  35.651  1.00  0.00     0.022 A 
BRANCH  69  73
ATOM     73  S   UNL A   1      40.980  35.695  37.101  1.00  0.00     0.124 S 
ATOM     74  O   UNL A   1      40.650  34.292  36.879  1.00  0.00    -0.237 OA
ATOM     75  O   UNL A   1      41.798  35.981  38.275  1.00  0.00    -0.237 OA
ATOM     76  O   UNL A   1      39.886  36.635  36.863  1.00  0.00    -0.744 OA
ENDBRANCH  69  73
ENDBRANCH  52  66
BRANCH  53  77
ATOM     77  C   UNL A   1      42.196  26.593  27.503  1.00  0.00     0.023 A 
ATOM     78  C   UNL A   1      42.292  25.233  27.850  1.00  0.00     0.031 A 
ATOM     79  C   UNL A   1      42.400  26.859  26.109  1.00  0.00     0.131 A 
ATOM     80  C   UNL A   1      42.476  24.244  26.835  1.00  0.00     0.055 A 
ATOM     81  C   UNL A   1      42.483  25.886  25.115  1.00  0.00     0.041 A 
ATOM     82  F   UNL A   1      42.522  28.103  25.627  1.00  0.00    -0.206 F 
ATOM     83  C   UNL A   1      42.502  24.563  25.473  1.00  0.00     0.022 A 
BRANCH  80  84
ATOM     84  S   UNL A   1      42.675  22.479  27.235  1.00  0.00     0.124 S 
ATOM     85  O   UNL A   1      42.645  22.495  28.694  1.00  0.00    -0.237 OA
ATOM     86  O   UNL A   1      41.532  21.861  26.575  1.00  0.00    -0.237 OA
ATOM     87  O   UNL A   1      43.974  22.146  26.649  1.00  0.00    -0.744 OA
ENDBRANCH  80  84
ENDBRANCH  53  77
BRANCH  65  88
ATOM     88  C   UNL A   1      42.769  29.678  32.746  1.00  0.00     0.023 A 
ATOM     89  C   UNL A   1      41.495  30.244  32.965  1.00  0.00     0.031 A 
ATOM     90  C   UNL A   1      43.155  28.685  33.667  1.00  0.00     0.131 A 
ATOM     91  C   UNL A   1      40.706  29.870  34.071  1.00  0.00     0.055 A 
ATOM     92  C   UNL A   1      42.366  28.299  34.761  1.00  0.00     0.041 A 
ATOM     93  F   UNL A   1      44.322  28.054  33.553  1.00  0.00    -0.206 F 
ATOM     94  C   UNL A   1      41.134  28.899  34.973  1.00  0.00     0.022 A 
BRANCH  91  95
ATOM     95  S   UNL A   1      39.096  30.670  34.320  1.00  0.00     0.124 S 
ATOM     96  O   UNL A   1      38.593  30.014  35.522  1.00  0.00    -0.237 OA
ATOM     97  O   UNL A   1      39.461  32.077  34.463  1.00  0.00    -0.237 OA
ATOM     98  O   UNL A   1      38.363  30.352  33.094  1.00  0.00    -0.744 OA
ENDBRANCH  91  95
ENDBRANCH  65  88
ENDBRANCH  39  40
ENDBRANCH  31  34
ENDBRANCH  29  30
ENDBRANCH  28  29
ENDBRANCH  27  28
ENDBRANCH  26  27
ENDBRANCH   1  26
TORSDOF 22
ENDMDL
