MODEL 1
REMARK VINA RESULT:     -11.5      0.000      0.000
REMARK SMILES Cc1cc2c(c(C)c1Cl)C=C(C(=O)NCCCCCCNC(=O)c1ccc(-c3c4nc(c(-c5cc(S(=O)(=O)[O-])ccc5F)c5ccc([nH]5)c(-c5cc(S(=O)(=O)[O-])ccc5F)c5nc(c(-c6cc(S(=O)(=O)[O-])ccc6F)c6ccc3[nH]6)C=C5)C=C4)cc1)[C@@H](C(F)(F)F)O2
REMARK SMILES IDX 18 1 17 2 16 3 15 4 14 5 12 6 13 7 11 9 1 10 2 11 3 12 8 13
REMARK SMILES IDX 4 14 6 15 9 16 5 17 92 18 7 19 10 20 87 21 88 22 89 23 90 24
REMARK SMILES IDX 91 25 19 26 20 27 21 28 22 29 23 31 24 32 25 33 86 34 26 35
REMARK SMILES IDX 85 36 27 37 28 38 29 39 79 40 30 41 84 42 78 43 80 44 31 45
REMARK SMILES IDX 83 46 77 47 76 48 32 50 64 51 44 52 63 53 45 54 48 55 62 56
REMARK SMILES IDX 81 57 46 58 47 59 61 61 82 62 49 63 33 64 34 65 42 66 35 67
REMARK SMILES IDX 41 68 43 69 40 70 36 71 37 72 38 73 39 74 65 75 66 76 74 77
REMARK SMILES IDX 67 78 73 79 75 80 72 81 68 82 69 83 70 84 71 85 50 86 51 87
REMARK SMILES IDX 59 88 52 89 58 90 60 91 57 92 53 93 54 94 55 95 56 96
REMARK H PARENT 14 8 21 30 80 49 48 60
REMARK Flexibility Score: inf
ROOT
ATOM      1  C   UNL A   1      35.458  32.417  27.986  1.00  0.00     0.002 C 
ENDROOT
BRANCH   1   2
ATOM      2  C   UNL A   1      34.534  31.200  27.847  1.00  0.00     0.002 C 
BRANCH   2   3
ATOM      3  C   UNL A   1      35.253  29.868  27.617  1.00  0.00     0.021 C 
BRANCH   3   4
ATOM      4  C   UNL A   1      34.415  28.850  26.852  1.00  0.00     0.116 C 
BRANCH   4   5
ATOM      5  N   UNL A   1      33.112  28.657  27.464  1.00  0.00    -0.352 N 
ATOM      6  C   UNL A   1      32.043  27.848  27.281  1.00  0.00     0.251 C 
ATOM      7  O   UNL A   1      31.115  28.010  28.081  1.00  0.00    -0.270 OA
ATOM      8  H   UNL A   1      32.968  29.281  28.212  1.00  0.00     0.163 HD
BRANCH   6   9
ATOM      9  C   UNL A   1      31.922  26.810  26.212  1.00  0.00     0.067 C 
ATOM     10  C   UNL A   1      32.046  21.517  22.426  1.00  0.00     0.046 C 
ATOM     11  C   UNL A   1      32.291  22.577  23.464  1.00  0.00    -0.028 A 
ATOM     12  C   UNL A   1      31.490  23.719  23.433  1.00  0.00     0.052 A 
ATOM     13  C   UNL A   1      33.250  22.449  24.489  1.00  0.00     0.047 A 
ATOM     14  C   UNL A   1      31.649  24.721  24.383  1.00  0.00     0.128 A 
ATOM     15  C   UNL A   1      33.423  23.465  25.462  1.00  0.00    -0.021 A 
ATOM     16  Cl  UNL A   1      34.204  20.996  24.545  1.00  0.00    -0.084 Cl
ATOM     17  C   UNL A   1      32.594  24.611  25.405  1.00  0.00     0.022 A 
ATOM     18  O   UNL A   1      30.785  25.764  24.255  1.00  0.00    -0.475 OA
ATOM     19  C   UNL A   1      34.457  23.351  26.559  1.00  0.00     0.047 C 
ATOM     20  C   UNL A   1      32.634  25.684  26.404  1.00  0.00     0.026 C 
ATOM     21  C   UNL A   1      31.102  26.981  24.969  1.00  0.00     0.314 C 
BRANCH  21  22
ATOM     22  C   UNL A   1      31.710  27.999  23.988  1.00  0.00     0.429 C 
ATOM     23  F   UNL A   1      31.443  29.266  24.388  1.00  0.00    -0.167 F 
ATOM     24  F   UNL A   1      33.057  27.901  23.901  1.00  0.00    -0.167 F 
ATOM     25  F   UNL A   1      31.225  27.856  22.733  1.00  0.00    -0.167 F 
ENDBRANCH  21  22
ENDBRANCH   6   9
ENDBRANCH   4   5
ENDBRANCH   3   4
ENDBRANCH   2   3
ENDBRANCH   1   2
BRANCH   1  26
ATOM     26  C   UNL A   1      34.764  33.778  27.871  1.00  0.00     0.021 C 
BRANCH  26  27
ATOM     27  C   UNL A   1      33.293  33.770  28.273  1.00  0.00     0.116 C 
BRANCH  27  28
ATOM     28  N   UNL A   1      32.987  34.849  29.196  1.00  0.00    -0.352 N 
ATOM     29  C   UNL A   1      33.455  35.058  30.465  1.00  0.00     0.251 C 
ATOM     30  H   UNL A   1      32.354  35.525  28.862  1.00  0.00     0.163 HD
ATOM     31  O   UNL A   1      32.900  35.880  31.194  1.00  0.00    -0.269 OA
BRANCH  29  32
ATOM     32  C   UNL A   1      34.617  34.290  30.953  1.00  0.00     0.039 A 
ATOM     33  C   UNL A   1      34.406  33.054  31.567  1.00  0.00     0.014 A 
ATOM     34  C   UNL A   1      35.914  34.800  30.817  1.00  0.00     0.014 A 
ATOM     35  C   UNL A   1      35.500  32.307  32.005  1.00  0.00     0.010 A 
ATOM     36  C   UNL A   1      37.005  34.023  31.192  1.00  0.00     0.010 A 
ATOM     37  C   UNL A   1      36.808  32.774  31.799  1.00  0.00    -0.014 A 
BRANCH  37  38
ATOM     38  C   UNL A   1      37.984  31.983  32.234  1.00  0.00     0.031 A 
ATOM     39  C   UNL A   1      38.636  32.281  33.556  1.00  0.00     0.074 A 
ATOM     40  C   UNL A   1      38.482  31.026  31.427  1.00  0.00     0.049 A 
ATOM     41  N   UNL A   1      39.720  31.767  34.076  1.00  0.00    -0.248 NA
ATOM     42  C   UNL A   1      37.997  33.311  34.393  1.00  0.00     0.031 C 
ATOM     43  C   UNL A   1      37.933  30.652  30.121  1.00  0.00     0.029 A 
ATOM     44  N   UNL A   1      39.559  30.191  31.585  1.00  0.00    -0.354 N 
ATOM     45  C   UNL A   1      39.892  32.405  35.298  1.00  0.00     0.074 A 
ATOM     46  C   UNL A   1      38.836  33.388  35.415  1.00  0.00     0.031 C 
ATOM     47  C   UNL A   1      38.657  29.643  29.614  1.00  0.00     0.029 A 
ATOM     48  C   UNL A   1      39.749  29.329  30.530  1.00  0.00     0.049 A 
ATOM     49  H   UNL A   1      40.141  30.208  32.378  1.00  0.00     0.167 HD
ATOM     50  C   UNL A   1      40.832  32.176  36.246  1.00  0.00     0.034 A 
ATOM     51  C   UNL A   1      40.703  28.400  30.320  1.00  0.00     0.034 A 
ATOM     52  C   UNL A   1      41.870  31.184  36.122  1.00  0.00     0.049 A 
ATOM     53  C   UNL A   1      41.769  28.202  31.365  1.00  0.00     0.074 A 
ATOM     54  C   UNL A   1      42.859  30.858  37.033  1.00  0.00     0.029 A 
ATOM     55  N   UNL A   1      42.053  30.356  35.022  1.00  0.00    -0.354 N 
ATOM     56  N   UNL A   1      41.924  28.823  32.512  1.00  0.00    -0.248 NA
ATOM     57  C   UNL A   1      42.786  27.181  31.089  1.00  0.00     0.031 C 
ATOM     58  C   UNL A   1      43.676  29.879  36.460  1.00  0.00     0.029 A 
ATOM     59  C   UNL A   1      43.154  29.539  35.222  1.00  0.00     0.049 A 
ATOM     60  H   UNL A   1      41.485  30.352  34.218  1.00  0.00     0.167 HD
ATOM     61  C   UNL A   1      43.044  28.247  33.105  1.00  0.00     0.074 A 
ATOM     62  C   UNL A   1      43.518  27.225  32.195  1.00  0.00     0.031 C 
ATOM     63  C   UNL A   1      43.622  28.534  34.299  1.00  0.00     0.034 A 
BRANCH  50  64
ATOM     64  C   UNL A   1      40.788  33.017  37.496  1.00  0.00     0.023 A 
ATOM     65  C   UNL A   1      40.013  32.639  38.605  1.00  0.00     0.031 A 
ATOM     66  C   UNL A   1      41.551  34.193  37.589  1.00  0.00     0.131 A 
ATOM     67  C   UNL A   1      39.990  33.450  39.750  1.00  0.00     0.055 A 
ATOM     68  C   UNL A   1      41.574  34.962  38.754  1.00  0.00     0.041 A 
ATOM     69  F   UNL A   1      42.293  34.609  36.550  1.00  0.00    -0.206 F 
ATOM     70  C   UNL A   1      40.785  34.596  39.840  1.00  0.00     0.022 A 
BRANCH  67  71
ATOM     71  S   UNL A   1      38.847  33.029  41.092  1.00  0.00     0.124 S 
ATOM     72  O   UNL A   1      39.133  31.611  41.287  1.00  0.00    -0.237 OA
ATOM     73  O   UNL A   1      39.276  33.921  42.164  1.00  0.00    -0.237 OA
ATOM     74  O   UNL A   1      37.532  33.323  40.527  1.00  0.00    -0.744 OA
ENDBRANCH  67  71
ENDBRANCH  50  64
BRANCH  51  75
ATOM     75  C   UNL A   1      40.693  27.588  29.072  1.00  0.00     0.023 A 
ATOM     76  C   UNL A   1      41.597  27.857  28.032  1.00  0.00     0.031 A 
ATOM     77  C   UNL A   1      39.778  26.535  28.898  1.00  0.00     0.131 A 
ATOM     78  C   UNL A   1      41.550  27.097  26.853  1.00  0.00     0.055 A 
ATOM     79  C   UNL A   1      39.764  25.754  27.742  1.00  0.00     0.041 A 
ATOM     80  F   UNL A   1      38.899  26.233  29.867  1.00  0.00    -0.206 F 
ATOM     81  C   UNL A   1      40.650  26.039  26.706  1.00  0.00     0.022 A 
BRANCH  78  82
ATOM     82  S   UNL A   1      42.665  27.535  25.491  1.00  0.00     0.124 S 
ATOM     83  O   UNL A   1      43.887  27.877  26.207  1.00  0.00    -0.237 OA
ATOM     84  O   UNL A   1      42.699  26.299  24.716  1.00  0.00    -0.237 OA
ATOM     85  O   UNL A   1      41.985  28.655  24.843  1.00  0.00    -0.744 OA
ENDBRANCH  78  82
ENDBRANCH  51  75
BRANCH  63  86
ATOM     86  C   UNL A   1      44.818  27.710  34.704  1.00  0.00     0.023 A 
ATOM     87  C   UNL A   1      44.671  26.469  35.345  1.00  0.00     0.031 A 
ATOM     88  C   UNL A   1      46.118  28.163  34.417  1.00  0.00     0.131 A 
ATOM     89  C   UNL A   1      45.810  25.739  35.716  1.00  0.00     0.055 A 
ATOM     90  C   UNL A   1      47.244  27.406  34.738  1.00  0.00     0.041 A 
ATOM     91  F   UNL A   1      46.311  29.341  33.803  1.00  0.00    -0.206 F 
ATOM     92  C   UNL A   1      47.095  26.190  35.400  1.00  0.00     0.022 A 
BRANCH  89  93
ATOM     93  S   UNL A   1      45.591  24.215  36.673  1.00  0.00     0.124 S 
ATOM     94  O   UNL A   1      44.559  23.523  35.907  1.00  0.00    -0.237 OA
ATOM     95  O   UNL A   1      46.924  23.621  36.627  1.00  0.00    -0.237 OA
ATOM     96  O   UNL A   1      45.172  24.693  37.988  1.00  0.00    -0.744 OA
ENDBRANCH  89  93
ENDBRANCH  63  86
ENDBRANCH  37  38
ENDBRANCH  29  32
ENDBRANCH  27  28
ENDBRANCH  26  27
ENDBRANCH   1  26
TORSDOF 17
ENDMDL
MODEL 2
REMARK VINA RESULT:     -11.1      2.635      8.083
REMARK SMILES Cc1cc2c(c(C)c1Cl)C=C(C(=O)NCCCCCCNC(=O)c1ccc(-c3c4nc(c(-c5cc(S(=O)(=O)[O-])ccc5F)c5ccc([nH]5)c(-c5cc(S(=O)(=O)[O-])ccc5F)c5nc(c(-c6cc(S(=O)(=O)[O-])ccc6F)c6ccc3[nH]6)C=C5)C=C4)cc1)[C@@H](C(F)(F)F)O2
REMARK SMILES IDX 18 1 17 2 16 3 15 4 14 5 12 6 13 7 11 9 1 10 2 11 3 12 8 13
REMARK SMILES IDX 4 14 6 15 9 16 5 17 92 18 7 19 10 20 87 21 88 22 89 23 90 24
REMARK SMILES IDX 91 25 19 26 20 27 21 28 22 29 23 31 24 32 25 33 86 34 26 35
REMARK SMILES IDX 85 36 27 37 28 38 29 39 79 40 30 41 84 42 78 43 80 44 31 45
REMARK SMILES IDX 83 46 77 47 76 48 32 50 64 51 44 52 63 53 45 54 48 55 62 56
REMARK SMILES IDX 81 57 46 58 47 59 61 61 82 62 49 63 33 64 34 65 42 66 35 67
REMARK SMILES IDX 41 68 43 69 40 70 36 71 37 72 38 73 39 74 65 75 66 76 74 77
REMARK SMILES IDX 67 78 73 79 75 80 72 81 68 82 69 83 70 84 71 85 50 86 51 87
REMARK SMILES IDX 59 88 52 89 58 90 60 91 57 92 53 93 54 94 55 95 56 96
REMARK H PARENT 14 8 21 30 80 49 48 60
REMARK Flexibility Score: inf
ROOT
ATOM      1  C   UNL A   1      30.947  29.028  24.308  1.00  0.00     0.002 C 
ENDROOT
BRANCH   1   2
ATOM      2  C   UNL A   1      30.881  27.972  23.197  1.00  0.00     0.002 C 
BRANCH   2   3
ATOM      3  C   UNL A   1      32.211  27.690  22.495  1.00  0.00     0.021 C 
BRANCH   3   4
ATOM      4  C   UNL A   1      32.268  26.320  21.829  1.00  0.00     0.116 C 
BRANCH   4   5
ATOM      5  N   UNL A   1      31.327  25.391  22.429  1.00  0.00    -0.352 N 
ATOM      6  C   UNL A   1      31.387  24.271  23.186  1.00  0.00     0.251 C 
ATOM      7  O   UNL A   1      30.295  23.795  23.513  1.00  0.00    -0.270 OA
ATOM      8  H   UNL A   1      30.395  25.643  22.233  1.00  0.00     0.163 HD
BRANCH   6   9
ATOM      9  C   UNL A   1      32.647  23.603  23.634  1.00  0.00     0.067 C 
ATOM     10  C   UNL A   1      37.534  19.579  25.150  1.00  0.00     0.046 C 
ATOM     11  C   UNL A   1      36.211  20.208  24.809  1.00  0.00    -0.028 A 
ATOM     12  C   UNL A   1      36.174  21.590  24.621  1.00  0.00     0.052 A 
ATOM     13  C   UNL A   1      35.027  19.466  24.624  1.00  0.00     0.047 A 
ATOM     14  C   UNL A   1      34.987  22.226  24.276  1.00  0.00     0.128 A 
ATOM     15  C   UNL A   1      33.810  20.103  24.275  1.00  0.00    -0.021 A 
ATOM     16  Cl  UNL A   1      35.101  17.739  24.811  1.00  0.00    -0.084 Cl
ATOM     17  C   UNL A   1      33.805  21.507  24.088  1.00  0.00     0.022 A 
ATOM     18  O   UNL A   1      35.097  23.570  24.095  1.00  0.00    -0.475 OA
ATOM     19  C   UNL A   1      32.527  19.326  24.087  1.00  0.00     0.047 C 
ATOM     20  C   UNL A   1      32.622  22.257  23.652  1.00  0.00     0.026 C 
ATOM     21  C   UNL A   1      33.874  24.341  24.077  1.00  0.00     0.314 C 
BRANCH  21  22
ATOM     22  C   UNL A   1      33.694  25.032  25.440  1.00  0.00     0.429 C 
ATOM     23  F   UNL A   1      34.300  24.319  26.420  1.00  0.00    -0.167 F 
ATOM     24  F   UNL A   1      34.240  26.270  25.474  1.00  0.00    -0.167 F 
ATOM     25  F   UNL A   1      32.392  25.169  25.780  1.00  0.00    -0.167 F 
ENDBRANCH  21  22
ENDBRANCH   6   9
ENDBRANCH   4   5
ENDBRANCH   3   4
ENDBRANCH   2   3
ENDBRANCH   1   2
BRANCH   1  26
ATOM     26  C   UNL A   1      31.739  28.616  25.553  1.00  0.00     0.021 C 
BRANCH  26  27
ATOM     27  C   UNL A   1      32.995  29.443  25.803  1.00  0.00     0.116 C 
BRANCH  27  28
ATOM     28  N   UNL A   1      32.672  30.833  26.073  1.00  0.00    -0.352 N 
ATOM     29  C   UNL A   1      33.183  31.668  27.031  1.00  0.00     0.251 C 
ATOM     30  H   UNL A   1      31.991  31.231  25.484  1.00  0.00     0.163 HD
ATOM     31  O   UNL A   1      32.616  32.732  27.278  1.00  0.00    -0.269 OA
BRANCH  29  32
ATOM     32  C   UNL A   1      34.402  31.281  27.766  1.00  0.00     0.039 A 
ATOM     33  C   UNL A   1      35.425  32.217  27.928  1.00  0.00     0.014 A 
ATOM     34  C   UNL A   1      34.541  29.986  28.280  1.00  0.00     0.014 A 
ATOM     35  C   UNL A   1      36.569  31.869  28.647  1.00  0.00     0.010 A 
ATOM     36  C   UNL A   1      35.651  29.664  29.053  1.00  0.00     0.010 A 
ATOM     37  C   UNL A   1      36.680  30.599  29.236  1.00  0.00    -0.014 A 
BRANCH  37  38
ATOM     38  C   UNL A   1      37.877  30.220  30.025  1.00  0.00     0.031 A 
ATOM     39  C   UNL A   1      38.879  29.261  29.444  1.00  0.00     0.074 A 
ATOM     40  C   UNL A   1      38.040  30.709  31.269  1.00  0.00     0.049 A 
ATOM     41  N   UNL A   1      39.940  28.738  30.003  1.00  0.00    -0.248 NA
ATOM     42  C   UNL A   1      38.645  28.813  28.061  1.00  0.00     0.031 C 
ATOM     43  C   UNL A   1      37.130  31.643  31.936  1.00  0.00     0.029 A 
ATOM     44  N   UNL A   1      39.028  30.492  32.196  1.00  0.00    -0.354 N 
ATOM     45  C   UNL A   1      40.500  27.904  29.042  1.00  0.00     0.074 A 
ATOM     46  C   UNL A   1      39.629  27.944  27.887  1.00  0.00     0.031 C 
ATOM     47  C   UNL A   1      37.620  31.942  33.149  1.00  0.00     0.029 A 
ATOM     48  C   UNL A   1      38.849  31.186  33.368  1.00  0.00     0.049 A 
ATOM     49  H   UNL A   1      39.794  29.893  32.035  1.00  0.00     0.167 HD
ATOM     50  C   UNL A   1      41.649  27.190  29.110  1.00  0.00     0.034 A 
ATOM     51  C   UNL A   1      39.585  31.203  34.497  1.00  0.00     0.034 A 
ATOM     52  C   UNL A   1      42.514  27.170  30.262  1.00  0.00     0.049 A 
ATOM     53  C   UNL A   1      40.828  30.356  34.568  1.00  0.00     0.074 A 
ATOM     54  C   UNL A   1      43.710  26.496  30.426  1.00  0.00     0.029 A 
ATOM     55  N   UNL A   1      42.279  27.858  31.445  1.00  0.00    -0.354 N 
ATOM     56  N   UNL A   1      41.339  29.565  33.654  1.00  0.00    -0.248 NA
ATOM     57  C   UNL A   1      41.595  30.407  35.819  1.00  0.00     0.031 C 
ATOM     58  C   UNL A   1      44.168  26.725  31.727  1.00  0.00     0.029 A 
ATOM     59  C   UNL A   1      43.295  27.602  32.352  1.00  0.00     0.049 A 
ATOM     60  H   UNL A   1      41.504  28.440  31.616  1.00  0.00     0.167 HD
ATOM     61  C   UNL A   1      42.501  29.041  34.213  1.00  0.00     0.074 A 
ATOM     62  C   UNL A   1      42.621  29.615  35.537  1.00  0.00     0.031 C 
ATOM     63  C   UNL A   1      43.393  28.170  33.674  1.00  0.00     0.034 A 
BRANCH  50  64
ATOM     64  C   UNL A   1      42.033  26.363  27.910  1.00  0.00     0.023 A 
ATOM     65  C   UNL A   1      41.645  25.017  27.794  1.00  0.00     0.031 A 
ATOM     66  C   UNL A   1      42.769  26.935  26.858  1.00  0.00     0.131 A 
ATOM     67  C   UNL A   1      42.027  24.275  26.667  1.00  0.00     0.055 A 
ATOM     68  C   UNL A   1      43.091  26.209  25.710  1.00  0.00     0.041 A 
ATOM     69  F   UNL A   1      43.182  28.210  26.928  1.00  0.00    -0.206 F 
ATOM     70  C   UNL A   1      42.726  24.870  25.612  1.00  0.00     0.022 A 
BRANCH  67  71
ATOM     71  S   UNL A   1      41.664  22.500  26.629  1.00  0.00     0.124 S 
ATOM     72  O   UNL A   1      40.204  22.497  26.661  1.00  0.00    -0.237 OA
ATOM     73  O   UNL A   1      42.277  22.078  25.374  1.00  0.00    -0.237 OA
ATOM     74  O   UNL A   1      42.309  21.993  27.838  1.00  0.00    -0.744 OA
ENDBRANCH  67  71
ENDBRANCH  50  64
BRANCH  51  75
ATOM     75  C   UNL A   1      39.166  32.047  35.650  1.00  0.00     0.023 A 
ATOM     76  C   UNL A   1      39.650  33.357  35.796  1.00  0.00     0.031 A 
ATOM     77  C   UNL A   1      38.280  31.557  36.626  1.00  0.00     0.131 A 
ATOM     78  C   UNL A   1      39.264  34.124  36.906  1.00  0.00     0.055 A 
ATOM     79  C   UNL A   1      37.865  32.339  37.704  1.00  0.00     0.041 A 
ATOM     80  F   UNL A   1      37.783  30.314  36.527  1.00  0.00    -0.206 F 
ATOM     81  C   UNL A   1      38.364  33.629  37.853  1.00  0.00     0.022 A 
BRANCH  78  82
ATOM     82  S   UNL A   1      39.985  35.775  37.116  1.00  0.00     0.124 S 
ATOM     83  O   UNL A   1      39.278  36.259  38.295  1.00  0.00    -0.237 OA
ATOM     84  O   UNL A   1      41.401  35.468  37.296  1.00  0.00    -0.237 OA
ATOM     85  O   UNL A   1      39.652  36.453  35.864  1.00  0.00    -0.744 OA
ENDBRANCH  78  82
ENDBRANCH  51  75
BRANCH  63  86
ATOM     86  C   UNL A   1      44.594  27.807  34.509  1.00  0.00     0.023 A 
ATOM     87  C   UNL A   1      44.597  26.673  35.338  1.00  0.00     0.031 A 
ATOM     88  C   UNL A   1      45.760  28.593  34.449  1.00  0.00     0.131 A 
ATOM     89  C   UNL A   1      45.732  26.377  36.108  1.00  0.00     0.055 A 
ATOM     90  C   UNL A   1      46.903  28.261  35.175  1.00  0.00     0.041 A 
ATOM     91  F   UNL A   1      45.808  29.685  33.671  1.00  0.00    -0.206 F 
ATOM     92  C   UNL A   1      46.891  27.153  36.017  1.00  0.00     0.022 A 
BRANCH  89  93
ATOM     93  S   UNL A   1      45.652  24.995  37.277  1.00  0.00     0.124 S 
ATOM     94  O   UNL A   1      44.276  24.537  37.111  1.00  0.00    -0.237 OA
ATOM     95  O   UNL A   1      46.687  24.097  36.775  1.00  0.00    -0.237 OA
ATOM     96  O   UNL A   1      45.947  25.618  38.566  1.00  0.00    -0.744 OA
ENDBRANCH  89  93
ENDBRANCH  63  86
ENDBRANCH  37  38
ENDBRANCH  29  32
ENDBRANCH  27  28
ENDBRANCH  26  27
ENDBRANCH   1  26
TORSDOF 17
ENDMDL
MODEL 3
REMARK VINA RESULT:     -11.0      5.018      9.739
REMARK SMILES Cc1cc2c(c(C)c1Cl)C=C(C(=O)NCCCCCCNC(=O)c1ccc(-c3c4nc(c(-c5cc(S(=O)(=O)[O-])ccc5F)c5ccc([nH]5)c(-c5cc(S(=O)(=O)[O-])ccc5F)c5nc(c(-c6cc(S(=O)(=O)[O-])ccc6F)c6ccc3[nH]6)C=C5)C=C4)cc1)[C@@H](C(F)(F)F)O2
REMARK SMILES IDX 18 1 17 2 16 3 15 4 14 5 12 6 13 7 11 9 1 10 2 11 3 12 8 13
REMARK SMILES IDX 4 14 6 15 9 16 5 17 92 18 7 19 10 20 87 21 88 22 89 23 90 24
REMARK SMILES IDX 91 25 19 26 20 27 21 28 22 29 23 31 24 32 25 33 86 34 26 35
REMARK SMILES IDX 85 36 27 37 28 38 29 39 79 40 30 41 84 42 78 43 80 44 31 45
REMARK SMILES IDX 83 46 77 47 76 48 32 50 64 51 44 52 63 53 45 54 48 55 62 56
REMARK SMILES IDX 81 57 46 58 47 59 61 61 82 62 49 63 33 64 34 65 42 66 35 67
REMARK SMILES IDX 41 68 43 69 40 70 36 71 37 72 38 73 39 74 65 75 66 76 74 77
REMARK SMILES IDX 67 78 73 79 75 80 72 81 68 82 69 83 70 84 71 85 50 86 51 87
REMARK SMILES IDX 59 88 52 89 58 90 60 91 57 92 53 93 54 94 55 95 56 96
REMARK H PARENT 14 8 21 30 80 49 48 60
REMARK Flexibility Score: inf
ROOT
ATOM      1  C   UNL A   1      35.038  21.673  25.962  1.00  0.00     0.002 C 
ENDROOT
BRANCH   1   2
ATOM      2  C   UNL A   1      34.325  21.431  24.625  1.00  0.00     0.002 C 
BRANCH   2   3
ATOM      3  C   UNL A   1      32.809  21.640  24.656  1.00  0.00     0.021 C 
BRANCH   3   4
ATOM      4  C   UNL A   1      32.394  23.100  24.517  1.00  0.00     0.116 C 
BRANCH   4   5
ATOM      5  N   UNL A   1      32.858  23.674  23.266  1.00  0.00    -0.352 N 
ATOM      6  C   UNL A   1      32.883  24.897  22.687  1.00  0.00     0.251 C 
ATOM      7  O   UNL A   1      33.421  24.945  21.576  1.00  0.00    -0.270 OA
ATOM      8  H   UNL A   1      33.263  22.991  22.684  1.00  0.00     0.163 HD
BRANCH   6   9
ATOM      9  C   UNL A   1      32.320  26.145  23.288  1.00  0.00     0.067 C 
ATOM     10  C   UNL A   1      31.120  31.775  26.326  1.00  0.00     0.046 C 
ATOM     11  C   UNL A   1      31.682  30.467  25.839  1.00  0.00    -0.028 A 
ATOM     12  C   UNL A   1      30.979  29.781  24.849  1.00  0.00     0.052 A 
ATOM     13  C   UNL A   1      32.903  29.933  26.299  1.00  0.00     0.047 A 
ATOM     14  C   UNL A   1      31.462  28.582  24.340  1.00  0.00     0.128 A 
ATOM     15  C   UNL A   1      33.405  28.709  25.789  1.00  0.00    -0.021 A 
ATOM     16  Cl  UNL A   1      33.794  30.826  27.495  1.00  0.00    -0.084 Cl
ATOM     17  C   UNL A   1      32.669  28.037  24.783  1.00  0.00     0.022 A 
ATOM     18  O   UNL A   1      30.694  28.033  23.360  1.00  0.00    -0.475 OA
ATOM     19  C   UNL A   1      34.704  28.113  26.280  1.00  0.00     0.047 C 
ATOM     20  C   UNL A   1      33.133  26.808  24.131  1.00  0.00     0.026 C 
ATOM     21  C   UNL A   1      30.932  26.646  23.027  1.00  0.00     0.314 C 
BRANCH  21  22
ATOM     22  C   UNL A   1      29.848  25.776  23.688  1.00  0.00     0.429 C 
ATOM     23  F   UNL A   1      30.118  25.597  25.004  1.00  0.00    -0.167 F 
ATOM     24  F   UNL A   1      28.617  26.334  23.621  1.00  0.00    -0.167 F 
ATOM     25  F   UNL A   1      29.755  24.551  23.120  1.00  0.00    -0.167 F 
ENDBRANCH  21  22
ENDBRANCH   6   9
ENDBRANCH   4   5
ENDBRANCH   3   4
ENDBRANCH   2   3
ENDBRANCH   1   2
BRANCH   1  26
ATOM     26  C   UNL A   1      35.352  23.138  26.277  1.00  0.00     0.021 C 
BRANCH  26  27
ATOM     27  C   UNL A   1      36.739  23.594  25.835  1.00  0.00     0.116 C 
BRANCH  27  28
ATOM     28  N   UNL A   1      37.763  22.643  26.230  1.00  0.00    -0.352 N 
ATOM     29  C   UNL A   1      39.039  22.879  26.667  1.00  0.00     0.251 C 
ATOM     30  H   UNL A   1      37.504  21.695  26.175  1.00  0.00     0.163 HD
ATOM     31  O   UNL A   1      39.849  21.954  26.716  1.00  0.00    -0.269 OA
BRANCH  29  32
ATOM     32  C   UNL A   1      39.434  24.243  27.068  1.00  0.00     0.039 A 
ATOM     33  C   UNL A   1      39.235  24.648  28.389  1.00  0.00     0.014 A 
ATOM     34  C   UNL A   1      39.987  25.126  26.133  1.00  0.00     0.014 A 
ATOM     35  C   UNL A   1      39.634  25.926  28.785  1.00  0.00     0.010 A 
ATOM     36  C   UNL A   1      40.445  26.374  26.546  1.00  0.00     0.010 A 
ATOM     37  C   UNL A   1      40.263  26.788  27.873  1.00  0.00    -0.014 A 
BRANCH  37  38
ATOM     38  C   UNL A   1      40.716  28.141  28.281  1.00  0.00     0.031 A 
ATOM     39  C   UNL A   1      42.186  28.454  28.323  1.00  0.00     0.074 A 
ATOM     40  C   UNL A   1      39.808  29.067  28.646  1.00  0.00     0.049 A 
ATOM     41  N   UNL A   1      42.786  29.541  28.733  1.00  0.00    -0.248 NA
ATOM     42  C   UNL A   1      43.103  27.397  27.863  1.00  0.00     0.031 C 
ATOM     43  C   UNL A   1      38.357  28.873  28.648  1.00  0.00     0.029 A 
ATOM     44  N   UNL A   1      39.971  30.357  29.082  1.00  0.00    -0.354 N 
ATOM     45  C   UNL A   1      44.146  29.301  28.580  1.00  0.00     0.074 A 
ATOM     46  C   UNL A   1      44.286  27.945  28.096  1.00  0.00     0.031 C 
ATOM     47  C   UNL A   1      37.762  30.012  29.034  1.00  0.00     0.029 A 
ATOM     48  C   UNL A   1      38.787  31.001  29.355  1.00  0.00     0.049 A 
ATOM     49  H   UNL A   1      40.853  30.782  29.192  1.00  0.00     0.167 HD
ATOM     50  C   UNL A   1      45.182  30.145  28.801  1.00  0.00     0.034 A 
ATOM     51  C   UNL A   1      38.554  32.245  29.821  1.00  0.00     0.034 A 
ATOM     52  C   UNL A   1      45.028  31.499  29.270  1.00  0.00     0.049 A 
ATOM     53  C   UNL A   1      39.726  33.144  30.112  1.00  0.00     0.074 A 
ATOM     54  C   UNL A   1      46.011  32.443  29.506  1.00  0.00     0.029 A 
ATOM     55  N   UNL A   1      43.815  32.104  29.570  1.00  0.00    -0.354 N 
ATOM     56  N   UNL A   1      41.008  32.899  29.971  1.00  0.00    -0.248 NA
ATOM     57  C   UNL A   1      39.421  34.487  30.621  1.00  0.00     0.031 C 
ATOM     58  C   UNL A   1      45.400  33.596  30.008  1.00  0.00     0.029 A 
ATOM     59  C   UNL A   1      44.028  33.399  30.015  1.00  0.00     0.049 A 
ATOM     60  H   UNL A   1      42.933  31.675  29.483  1.00  0.00     0.167 HD
ATOM     61  C   UNL A   1      41.661  34.067  30.352  1.00  0.00     0.074 A 
ATOM     62  C   UNL A   1      40.632  35.019  30.718  1.00  0.00     0.031 C 
ATOM     63  C   UNL A   1      42.992  34.331  30.389  1.00  0.00     0.034 A 
BRANCH  50  64
ATOM     64  C   UNL A   1      46.575  29.628  28.547  1.00  0.00     0.023 A 
ATOM     65  C   UNL A   1      47.273  28.897  29.523  1.00  0.00     0.031 A 
ATOM     66  C   UNL A   1      47.199  29.844  27.307  1.00  0.00     0.131 A 
ATOM     67  C   UNL A   1      48.571  28.437  29.255  1.00  0.00     0.055 A 
ATOM     68  C   UNL A   1      48.465  29.329  27.024  1.00  0.00     0.041 A 
ATOM     69  F   UNL A   1      46.584  30.554  26.347  1.00  0.00    -0.206 F 
ATOM     70  C   UNL A   1      49.162  28.627  28.003  1.00  0.00     0.022 A 
BRANCH  67  71
ATOM     71  S   UNL A   1      49.510  27.652  30.593  1.00  0.00     0.124 S 
ATOM     72  O   UNL A   1      49.308  26.236  30.302  1.00  0.00    -0.237 OA
ATOM     73  O   UNL A   1      50.859  28.163  30.375  1.00  0.00    -0.237 OA
ATOM     74  O   UNL A   1      48.849  28.135  31.804  1.00  0.00    -0.744 OA
ENDBRANCH  67  71
ENDBRANCH  50  64
BRANCH  51  75
ATOM     75  C   UNL A   1      37.157  32.710  30.044  1.00  0.00     0.023 A 
ATOM     76  C   UNL A   1      36.654  32.882  31.343  1.00  0.00     0.031 A 
ATOM     77  C   UNL A   1      36.302  32.985  28.962  1.00  0.00     0.131 A 
ATOM     78  C   UNL A   1      35.325  33.294  31.528  1.00  0.00     0.055 A 
ATOM     79  C   UNL A   1      34.996  33.436  29.151  1.00  0.00     0.041 A 
ATOM     80  F   UNL A   1      36.739  32.843  27.700  1.00  0.00    -0.206 F 
ATOM     81  C   UNL A   1      34.497  33.585  30.441  1.00  0.00     0.022 A 
BRANCH  78  82
ATOM     82  S   UNL A   1      34.678  33.410  33.218  1.00  0.00     0.124 S 
ATOM     83  O   UNL A   1      35.586  32.530  33.944  1.00  0.00    -0.237 OA
ATOM     84  O   UNL A   1      34.807  34.837  33.496  1.00  0.00    -0.237 OA
ATOM     85  O   UNL A   1      33.305  32.925  33.091  1.00  0.00    -0.744 OA
ENDBRANCH  78  82
ENDBRANCH  51  75
BRANCH  63  86
ATOM     86  C   UNL A   1      43.412  35.715  30.812  1.00  0.00     0.023 A 
ATOM     87  C   UNL A   1      43.550  36.059  32.167  1.00  0.00     0.031 A 
ATOM     88  C   UNL A   1      43.703  36.692  29.843  1.00  0.00     0.131 A 
ATOM     89  C   UNL A   1      43.931  37.363  32.518  1.00  0.00     0.055 A 
ATOM     90  C   UNL A   1      44.135  37.970  30.198  1.00  0.00     0.041 A 
ATOM     91  F   UNL A   1      43.588  36.413  28.535  1.00  0.00    -0.206 F 
ATOM     92  C   UNL A   1      44.242  38.315  31.543  1.00  0.00     0.022 A 
BRANCH  89  93
ATOM     93  S   UNL A   1      43.958  37.817  34.273  1.00  0.00     0.124 S 
ATOM     94  O   UNL A   1      45.111  38.710  34.336  1.00  0.00    -0.237 OA
ATOM     95  O   UNL A   1      42.654  38.448  34.454  1.00  0.00    -0.237 OA
ATOM     96  O   UNL A   1      44.126  36.537  34.956  1.00  0.00    -0.744 OA
ENDBRANCH  89  93
ENDBRANCH  63  86
ENDBRANCH  37  38
ENDBRANCH  29  32
ENDBRANCH  27  28
ENDBRANCH  26  27
ENDBRANCH   1  26
TORSDOF 17
ENDMDL
