MODEL 1
REMARK VINA RESULT:     -11.2      0.000      0.000
REMARK SMILES O=C(NCCCCCCNC(=O)c1cccn(CC[NH+]2CCCC2)c1=O)c1ccc(-c2c3nc(c(-c4cc(S(=O)(=O)[O-])ccc4F)c4ccc([nH]4)c(-c4cc(S(=O)(=O)[O-])ccc4F)c4nc(c(-c5cc(S(=O)(=O)[O-])ccc5F)c5ccc2[nH]5)C=C4)C=C3)cc1
REMARK SMILES IDX 6 1 5 2 4 3 3 4 1 5 2 6 27 8 28 9 89 10 29 11 88 12 30 13
REMARK SMILES IDX 31 14 32 15 82 16 33 17 87 18 81 19 83 20 34 21 86 22 80 23
REMARK SMILES IDX 79 24 35 26 67 27 47 28 66 29 48 30 51 31 65 32 84 33 49 34
REMARK SMILES IDX 50 35 64 37 85 38 52 39 36 40 37 41 45 42 38 43 44 44 46 45
REMARK SMILES IDX 43 46 39 47 40 48 41 49 42 50 68 51 69 52 77 53 70 54 76 55
REMARK SMILES IDX 78 56 75 57 71 58 72 59 73 60 74 61 53 62 54 63 62 64 55 65
REMARK SMILES IDX 61 66 63 67 60 68 56 69 57 70 58 71 59 72 7 73 8 74 9 75
REMARK SMILES IDX 10 76 11 77 12 79 13 80 14 81 25 82 15 83 17 84 26 85 16 86
REMARK SMILES IDX 18 87 19 88 20 89 21 90 24 91 22 93 23 94
REMARK H PARENT 3 7 83 25 51 36 10 78 20 92
REMARK Flexibility Score: inf
ROOT
ATOM      1  C   UNL A   1      32.331  27.392  26.590  1.00  0.00     0.002 C 
ENDROOT
BRANCH   1   2
ATOM      2  C   UNL A   1      31.828  28.838  26.656  1.00  0.00     0.021 C 
BRANCH   2   3
ATOM      3  C   UNL A   1      32.666  29.862  25.899  1.00  0.00     0.116 C 
BRANCH   3   4
ATOM      4  N   UNL A   1      32.409  31.222  26.336  1.00  0.00    -0.352 N 
ATOM      5  O   UNL A   1      32.610  33.084  27.568  1.00  0.00    -0.269 OA
ATOM      6  C   UNL A   1      33.097  32.010  27.222  1.00  0.00     0.251 C 
ATOM      7  H   UNL A   1      31.617  31.645  25.934  1.00  0.00     0.163 HD
BRANCH   6   8
ATOM      8  C   UNL A   1      34.410  31.589  27.770  1.00  0.00     0.039 A 
ATOM      9  C   UNL A   1      34.567  30.256  28.165  1.00  0.00     0.014 A 
ATOM     10  C   UNL A   1      35.453  32.498  27.973  1.00  0.00     0.014 A 
ATOM     11  C   UNL A   1      35.763  29.836  28.753  1.00  0.00     0.010 A 
ATOM     12  C   UNL A   1      36.671  32.062  28.496  1.00  0.00     0.010 A 
ATOM     13  C   UNL A   1      36.827  30.736  28.925  1.00  0.00    -0.014 A 
BRANCH  13  14
ATOM     14  C   UNL A   1      38.071  30.319  29.624  1.00  0.00     0.031 A 
ATOM     15  C   UNL A   1      38.329  30.784  31.033  1.00  0.00     0.074 A 
ATOM     16  C   UNL A   1      38.966  29.530  28.998  1.00  0.00     0.049 A 
ATOM     17  N   UNL A   1      39.344  30.522  31.816  1.00  0.00    -0.248 NA
ATOM     18  C   UNL A   1      37.327  31.679  31.636  1.00  0.00     0.031 C 
ATOM     19  C   UNL A   1      38.840  29.042  27.624  1.00  0.00     0.029 A 
ATOM     20  N   UNL A   1      40.151  28.991  29.435  1.00  0.00    -0.354 N 
ATOM     21  C   UNL A   1      39.110  31.229  32.991  1.00  0.00     0.074 A 
ATOM     22  C   UNL A   1      37.889  31.976  32.799  1.00  0.00     0.031 C 
ATOM     23  C   UNL A   1      39.882  28.242  27.346  1.00  0.00     0.029 A 
ATOM     24  C   UNL A   1      40.767  28.180  28.508  1.00  0.00     0.049 A 
ATOM     25  H   UNL A   1      40.526  29.168  30.329  1.00  0.00     0.167 HD
ATOM     26  C   UNL A   1      39.831  31.230  34.137  1.00  0.00     0.034 A 
ATOM     27  C   UNL A   1      41.901  27.455  28.592  1.00  0.00     0.034 A 
ATOM     28  C   UNL A   1      41.021  30.446  34.333  1.00  0.00     0.049 A 
ATOM     29  C   UNL A   1      42.669  27.447  29.893  1.00  0.00     0.074 A 
ATOM     30  C   UNL A   1      41.803  30.348  35.471  1.00  0.00     0.029 A 
ATOM     31  N   UNL A   1      41.590  29.610  33.384  1.00  0.00    -0.354 N 
ATOM     32  N   UNL A   1      42.394  28.065  31.017  1.00  0.00    -0.248 NA
ATOM     33  C   UNL A   1      43.889  26.628  29.946  1.00  0.00     0.031 C 
ATOM     34  C   UNL A   1      42.865  29.486  35.197  1.00  0.00     0.029 A 
ATOM     35  C   UNL A   1      42.714  28.998  33.909  1.00  0.00     0.049 A 
ATOM     36  H   UNL A   1      41.246  29.473  32.471  1.00  0.00     0.167 HD
ATOM     37  C   UNL A   1      43.378  27.673  31.922  1.00  0.00     0.074 A 
ATOM     38  C   UNL A   1      44.248  26.755  31.217  1.00  0.00     0.031 C 
ATOM     39  C   UNL A   1      43.547  28.044  33.216  1.00  0.00     0.034 A 
BRANCH  26  40
ATOM     40  C   UNL A   1      39.348  32.071  35.293  1.00  0.00     0.023 A 
ATOM     41  C   UNL A   1      39.792  33.399  35.433  1.00  0.00     0.031 A 
ATOM     42  C   UNL A   1      38.554  31.522  36.315  1.00  0.00     0.131 A 
ATOM     43  C   UNL A   1      39.463  34.122  36.586  1.00  0.00     0.055 A 
ATOM     44  C   UNL A   1      38.195  32.261  37.442  1.00  0.00     0.041 A 
ATOM     45  F   UNL A   1      38.106  30.258  36.227  1.00  0.00    -0.206 F 
ATOM     46  C   UNL A   1      38.661  33.564  37.586  1.00  0.00     0.022 A 
BRANCH  43  47
ATOM     47  S   UNL A   1      40.108  35.796  36.858  1.00  0.00     0.124 S 
ATOM     48  O   UNL A   1      39.410  36.192  38.080  1.00  0.00    -0.237 OA
ATOM     49  O   UNL A   1      41.539  35.550  37.007  1.00  0.00    -0.237 OA
ATOM     50  O   UNL A   1      39.713  36.524  35.657  1.00  0.00    -0.744 OA
ENDBRANCH  43  47
ENDBRANCH  26  40
BRANCH  27  51
ATOM     51  C   UNL A   1      42.310  26.593  27.444  1.00  0.00     0.023 A 
ATOM     52  C   UNL A   1      41.893  25.254  27.344  1.00  0.00     0.031 A 
ATOM     53  C   UNL A   1      43.196  27.084  26.468  1.00  0.00     0.131 A 
ATOM     54  C   UNL A   1      42.398  24.442  26.318  1.00  0.00     0.055 A 
ATOM     55  C   UNL A   1      43.648  26.289  25.414  1.00  0.00     0.041 A 
ATOM     56  F   UNL A   1      43.634  28.351  26.529  1.00  0.00    -0.206 F 
ATOM     57  C   UNL A   1      43.259  24.956  25.344  1.00  0.00     0.022 A 
BRANCH  54  58
ATOM     58  S   UNL A   1      42.047  22.662  26.281  1.00  0.00     0.124 S 
ATOM     59  O   UNL A   1      42.811  22.226  25.115  1.00  0.00    -0.237 OA
ATOM     60  O   UNL A   1      42.569  22.226  27.575  1.00  0.00    -0.237 OA
ATOM     61  O   UNL A   1      40.596  22.599  26.146  1.00  0.00    -0.744 OA
ENDBRANCH  54  58
ENDBRANCH  27  51
BRANCH  39  62
ATOM     62  C   UNL A   1      44.683  27.442  34.007  1.00  0.00     0.023 A 
ATOM     63  C   UNL A   1      44.432  26.359  34.872  1.00  0.00     0.031 A 
ATOM     64  C   UNL A   1      45.957  28.034  34.031  1.00  0.00     0.131 A 
ATOM     65  C   UNL A   1      45.432  25.923  35.751  1.00  0.00     0.055 A 
ATOM     66  C   UNL A   1      46.963  27.567  34.878  1.00  0.00     0.041 A 
ATOM     67  F   UNL A   1      46.239  29.078  33.238  1.00  0.00    -0.206 F 
ATOM     68  C   UNL A   1      46.698  26.518  35.754  1.00  0.00     0.022 A 
BRANCH  65  69
ATOM     69  S   UNL A   1      45.095  24.640  36.989  1.00  0.00     0.124 S 
ATOM     70  O   UNL A   1      45.271  23.417  36.210  1.00  0.00    -0.237 OA
ATOM     71  O   UNL A   1      46.128  24.897  37.989  1.00  0.00    -0.237 OA
ATOM     72  O   UNL A   1      43.728  24.914  37.419  1.00  0.00    -0.744 OA
ENDBRANCH  65  69
ENDBRANCH  39  62
ENDBRANCH  13  14
ENDBRANCH   6   8
ENDBRANCH   3   4
ENDBRANCH   2   3
ENDBRANCH   1   2
BRANCH   1  73
ATOM     73  C   UNL A   1      33.686  27.187  25.909  1.00  0.00     0.002 C 
BRANCH  73  74
ATOM     74  C   UNL A   1      33.980  25.761  25.439  1.00  0.00     0.021 C 
BRANCH  74  75
ATOM     75  C   UNL A   1      34.152  25.599  23.932  1.00  0.00     0.116 C 
BRANCH  75  76
ATOM     76  N   UNL A   1      33.646  24.322  23.451  1.00  0.00    -0.352 N 
ATOM     77  C   UNL A   1      32.354  23.977  23.159  1.00  0.00     0.256 C 
ATOM     78  H   UNL A   1      34.320  23.616  23.321  1.00  0.00     0.163 HD
ATOM     79  O   UNL A   1      32.075  22.832  22.815  1.00  0.00    -0.269 OA
BRANCH  77  80
ATOM     80  C   UNL A   1      31.307  24.992  23.386  1.00  0.00     0.105 A 
ATOM     81  C   UNL A   1      30.531  24.837  24.470  1.00  0.00     0.021 A 
ATOM     82  C   UNL A   1      31.195  26.221  22.546  1.00  0.00     0.263 A 
ATOM     83  C   UNL A   1      29.623  25.881  24.868  1.00  0.00     0.019 A 
ATOM     84  N   UNL A   1      30.379  27.232  23.064  1.00  0.00    -0.309 N 
ATOM     85  O   UNL A   1      31.838  26.327  21.503  1.00  0.00    -0.268 OA
ATOM     86  C   UNL A   1      29.604  27.037  24.196  1.00  0.00     0.089 A 
BRANCH  84  87
ATOM     87  C   UNL A   1      30.374  28.542  22.404  1.00  0.00     0.186 C 
BRANCH  87  88
ATOM     88  C   UNL A   1      29.906  29.719  23.292  1.00  0.00     0.284 C 
BRANCH  88  89
ATOM     89  N   UNL A   1      28.503  30.144  23.088  1.00  0.00    -0.333 N 
ATOM     90  C   UNL A   1      28.121  30.061  21.669  1.00  0.00     0.262 C 
ATOM     91  C   UNL A   1      28.263  31.547  23.470  1.00  0.00     0.262 C 
ATOM     92  H   UNL A   1      27.958  29.513  23.674  1.00  0.00     0.348 HD
ATOM     93  C   UNL A   1      28.518  31.399  21.072  1.00  0.00     0.067 C 
ATOM     94  C   UNL A   1      28.266  32.383  22.197  1.00  0.00     0.067 C 
ENDBRANCH  88  89
ENDBRANCH  87  88
ENDBRANCH  84  87
ENDBRANCH  77  80
ENDBRANCH  75  76
ENDBRANCH  74  75
ENDBRANCH  73  74
ENDBRANCH   1  73
TORSDOF 19
ENDMDL
MODEL 2
REMARK VINA RESULT:     -11.0      4.877      9.661
REMARK SMILES O=C(NCCCCCCNC(=O)c1cccn(CC[NH+]2CCCC2)c1=O)c1ccc(-c2c3nc(c(-c4cc(S(=O)(=O)[O-])ccc4F)c4ccc([nH]4)c(-c4cc(S(=O)(=O)[O-])ccc4F)c4nc(c(-c5cc(S(=O)(=O)[O-])ccc5F)c5ccc2[nH]5)C=C4)C=C3)cc1
REMARK SMILES IDX 6 1 5 2 4 3 3 4 1 5 2 6 27 8 28 9 89 10 29 11 88 12 30 13
REMARK SMILES IDX 31 14 32 15 82 16 33 17 87 18 81 19 83 20 34 21 86 22 80 23
REMARK SMILES IDX 79 24 35 26 67 27 47 28 66 29 48 30 51 31 65 32 84 33 49 34
REMARK SMILES IDX 50 35 64 37 85 38 52 39 36 40 37 41 45 42 38 43 44 44 46 45
REMARK SMILES IDX 43 46 39 47 40 48 41 49 42 50 68 51 69 52 77 53 70 54 76 55
REMARK SMILES IDX 78 56 75 57 71 58 72 59 73 60 74 61 53 62 54 63 62 64 55 65
REMARK SMILES IDX 61 66 63 67 60 68 56 69 57 70 58 71 59 72 7 73 8 74 9 75
REMARK SMILES IDX 10 76 11 77 12 79 13 80 14 81 25 82 15 83 17 84 26 85 16 86
REMARK SMILES IDX 18 87 19 88 20 89 21 90 24 91 22 93 23 94
REMARK H PARENT 3 7 83 25 51 36 10 78 20 92
REMARK Flexibility Score: inf
ROOT
ATOM      1  C   UNL A   1      35.167  22.916  23.856  1.00  0.00     0.002 C 
ENDROOT
BRANCH   1   2
ATOM      2  C   UNL A   1      36.578  22.371  24.100  1.00  0.00     0.021 C 
BRANCH   2   3
ATOM      3  C   UNL A   1      36.989  22.236  25.563  1.00  0.00     0.116 C 
BRANCH   3   4
ATOM      4  N   UNL A   1      38.056  21.270  25.752  1.00  0.00    -0.352 N 
ATOM      5  O   UNL A   1      40.131  20.508  26.124  1.00  0.00    -0.269 OA
ATOM      6  C   UNL A   1      39.342  21.449  26.191  1.00  0.00     0.251 C 
ATOM      7  H   UNL A   1      37.818  20.340  25.531  1.00  0.00     0.163 HD
BRANCH   6   8
ATOM      8  C   UNL A   1      39.796  22.751  26.736  1.00  0.00     0.039 A 
ATOM      9  C   UNL A   1      39.361  23.922  26.108  1.00  0.00     0.014 A 
ATOM     10  C   UNL A   1      40.701  22.833  27.799  1.00  0.00     0.014 A 
ATOM     11  C   UNL A   1      39.823  25.166  26.545  1.00  0.00     0.010 A 
ATOM     12  C   UNL A   1      41.108  24.079  28.280  1.00  0.00     0.010 A 
ATOM     13  C   UNL A   1      40.702  25.256  27.635  1.00  0.00    -0.014 A 
BRANCH  13  14
ATOM     14  C   UNL A   1      41.263  26.567  28.054  1.00  0.00     0.031 A 
ATOM     15  C   UNL A   1      42.684  26.921  27.700  1.00  0.00     0.074 A 
ATOM     16  C   UNL A   1      40.505  27.436  28.751  1.00  0.00     0.049 A 
ATOM     17  N   UNL A   1      43.352  28.015  27.961  1.00  0.00    -0.248 NA
ATOM     18  C   UNL A   1      43.465  25.905  26.975  1.00  0.00     0.031 C 
ATOM     19  C   UNL A   1      39.127  27.192  29.179  1.00  0.00     0.029 A 
ATOM     20  N   UNL A   1      40.778  28.699  29.214  1.00  0.00    -0.354 N 
ATOM     21  C   UNL A   1      44.629  27.811  27.450  1.00  0.00     0.074 A 
ATOM     22  C   UNL A   1      44.661  26.470  26.914  1.00  0.00     0.031 C 
ATOM     23  C   UNL A   1      38.661  28.287  29.802  1.00  0.00     0.029 A 
ATOM     24  C   UNL A   1      39.713  29.301  29.847  1.00  0.00     0.049 A 
ATOM     25  H   UNL A   1      41.655  29.136  29.104  1.00  0.00     0.167 HD
ATOM     26  C   UNL A   1      45.671  28.675  27.403  1.00  0.00     0.034 A 
ATOM     27  C   UNL A   1      39.592  30.534  30.381  1.00  0.00     0.034 A 
ATOM     28  C   UNL A   1      45.613  30.025  27.898  1.00  0.00     0.049 A 
ATOM     29  C   UNL A   1      40.757  31.489  30.285  1.00  0.00     0.074 A 
ATOM     30  C   UNL A   1      46.602  30.992  27.863  1.00  0.00     0.029 A 
ATOM     31  N   UNL A   1      44.506  30.607  28.497  1.00  0.00    -0.354 N 
ATOM     32  N   UNL A   1      41.934  31.305  29.734  1.00  0.00    -0.248 NA
ATOM     33  C   UNL A   1      40.576  32.829  30.865  1.00  0.00     0.031 C 
ATOM     34  C   UNL A   1      46.108  32.143  28.475  1.00  0.00     0.029 A 
ATOM     35  C   UNL A   1      44.790  31.916  28.840  1.00  0.00     0.049 A 
ATOM     36  H   UNL A   1      43.646  30.154  28.656  1.00  0.00     0.167 HD
ATOM     37  C   UNL A   1      42.612  32.515  29.859  1.00  0.00     0.074 A 
ATOM     38  C   UNL A   1      41.709  33.429  30.528  1.00  0.00     0.031 C 
ATOM     39  C   UNL A   1      43.867  32.837  29.460  1.00  0.00     0.034 A 
BRANCH  26  40
ATOM     40  C   UNL A   1      46.959  28.219  26.764  1.00  0.00     0.023 A 
ATOM     41  C   UNL A   1      47.083  28.200  25.362  1.00  0.00     0.031 A 
ATOM     42  C   UNL A   1      48.010  27.689  27.533  1.00  0.00     0.131 A 
ATOM     43  C   UNL A   1      48.221  27.633  24.774  1.00  0.00     0.055 A 
ATOM     44  C   UNL A   1      49.159  27.163  26.942  1.00  0.00     0.041 A 
ATOM     45  F   UNL A   1      47.938  27.684  28.874  1.00  0.00    -0.206 F 
ATOM     46  C   UNL A   1      49.262  27.123  25.555  1.00  0.00     0.022 A 
BRANCH  43  47
ATOM     47  S   UNL A   1      48.369  27.487  22.971  1.00  0.00     0.124 S 
ATOM     48  O   UNL A   1      47.177  28.198  22.513  1.00  0.00    -0.237 OA
ATOM     49  O   UNL A   1      49.637  28.163  22.715  1.00  0.00    -0.237 OA
ATOM     50  O   UNL A   1      48.360  26.047  22.734  1.00  0.00    -0.744 OA
ENDBRANCH  43  47
ENDBRANCH  26  40
BRANCH  27  51
ATOM     51  C   UNL A   1      38.281  30.962  30.952  1.00  0.00     0.023 A 
ATOM     52  C   UNL A   1      37.300  31.582  30.157  1.00  0.00     0.031 A 
ATOM     53  C   UNL A   1      38.027  30.826  32.328  1.00  0.00     0.131 A 
ATOM     54  C   UNL A   1      36.134  32.082  30.755  1.00  0.00     0.055 A 
ATOM     55  C   UNL A   1      36.838  31.270  32.908  1.00  0.00     0.041 A 
ATOM     56  F   UNL A   1      38.939  30.255  33.130  1.00  0.00    -0.206 F 
ATOM     57  C   UNL A   1      35.889  31.914  32.121  1.00  0.00     0.022 A 
BRANCH  54  58
ATOM     58  S   UNL A   1      34.947  33.069  29.799  1.00  0.00     0.124 S 
ATOM     59  O   UNL A   1      34.407  32.079  28.872  1.00  0.00    -0.237 OA
ATOM     60  O   UNL A   1      34.030  33.525  30.841  1.00  0.00    -0.237 OA
ATOM     61  O   UNL A   1      35.772  34.113  29.200  1.00  0.00    -0.744 OA
ENDBRANCH  54  58
ENDBRANCH  27  51
BRANCH  39  62
ATOM     62  C   UNL A   1      44.365  34.246  29.677  1.00  0.00     0.023 A 
ATOM     63  C   UNL A   1      44.099  35.235  28.709  1.00  0.00     0.031 A 
ATOM     64  C   UNL A   1      45.228  34.566  30.738  1.00  0.00     0.131 A 
ATOM     65  C   UNL A   1      44.719  36.487  28.805  1.00  0.00     0.055 A 
ATOM     66  C   UNL A   1      45.808  35.830  30.852  1.00  0.00     0.041 A 
ATOM     67  F   UNL A   1      45.525  33.652  31.674  1.00  0.00    -0.206 F 
ATOM     68  C   UNL A   1      45.567  36.791  29.875  1.00  0.00     0.022 A 
BRANCH  65  69
ATOM     69  S   UNL A   1      44.528  37.729  27.495  1.00  0.00     0.124 S 
ATOM     70  O   UNL A   1      44.372  38.959  28.267  1.00  0.00    -0.237 OA
ATOM     71  O   UNL A   1      45.788  37.605  26.766  1.00  0.00    -0.237 OA
ATOM     72  O   UNL A   1      43.341  37.294  26.767  1.00  0.00    -0.744 OA
ENDBRANCH  65  69
ENDBRANCH  39  62
ENDBRANCH  13  14
ENDBRANCH   6   8
ENDBRANCH   3   4
ENDBRANCH   2   3
ENDBRANCH   1   2
BRANCH   1  73
ATOM     73  C   UNL A   1      34.020  21.940  24.125  1.00  0.00     0.002 C 
BRANCH  73  74
ATOM     74  C   UNL A   1      33.380  22.039  25.511  1.00  0.00     0.021 C 
BRANCH  74  75
ATOM     75  C   UNL A   1      33.158  23.459  26.022  1.00  0.00     0.116 C 
BRANCH  75  76
ATOM     76  N   UNL A   1      31.844  23.632  26.622  1.00  0.00    -0.352 N 
ATOM     77  C   UNL A   1      30.825  24.452  26.215  1.00  0.00     0.256 C 
ATOM     78  H   UNL A   1      31.665  23.091  27.425  1.00  0.00     0.163 HD
ATOM     79  O   UNL A   1      29.788  24.530  26.866  1.00  0.00    -0.269 OA
BRANCH  77  80
ATOM     80  C   UNL A   1      31.070  25.314  25.044  1.00  0.00     0.105 A 
ATOM     81  C   UNL A   1      31.141  24.713  23.845  1.00  0.00     0.021 A 
ATOM     82  C   UNL A   1      31.091  26.803  25.143  1.00  0.00     0.263 A 
ATOM     83  C   UNL A   1      31.180  25.498  22.640  1.00  0.00     0.019 A 
ATOM     84  N   UNL A   1      31.011  27.490  23.926  1.00  0.00    -0.309 N 
ATOM     85  O   UNL A   1      31.117  27.358  26.241  1.00  0.00    -0.268 OA
ATOM     86  C   UNL A   1      31.074  26.829  22.710  1.00  0.00     0.089 A 
BRANCH  84  87
ATOM     87  C   UNL A   1      30.825  28.945  23.947  1.00  0.00     0.186 C 
BRANCH  87  88
ATOM     88  C   UNL A   1      30.129  29.532  22.698  1.00  0.00     0.284 C 
BRANCH  88  89
ATOM     89  N   UNL A   1      28.740  29.997  22.909  1.00  0.00    -0.333 N 
ATOM     90  C   UNL A   1      28.029  30.154  21.630  1.00  0.00     0.262 C 
ATOM     91  C   UNL A   1      28.665  31.319  23.557  1.00  0.00     0.262 C 
ATOM     92  H   UNL A   1      28.320  29.282  23.502  1.00  0.00     0.348 HD
ATOM     93  C   UNL A   1      28.337  31.569  21.176  1.00  0.00     0.067 C 
ATOM     94  C   UNL A   1      28.406  32.355  22.471  1.00  0.00     0.067 C 
ENDBRANCH  88  89
ENDBRANCH  87  88
ENDBRANCH  84  87
ENDBRANCH  77  80
ENDBRANCH  75  76
ENDBRANCH  74  75
ENDBRANCH  73  74
ENDBRANCH   1  73
TORSDOF 19
ENDMDL
MODEL 3
REMARK VINA RESULT:     -11.0      1.911      4.154
REMARK SMILES O=C(NCCCCCCNC(=O)c1cccn(CC[NH+]2CCCC2)c1=O)c1ccc(-c2c3nc(c(-c4cc(S(=O)(=O)[O-])ccc4F)c4ccc([nH]4)c(-c4cc(S(=O)(=O)[O-])ccc4F)c4nc(c(-c5cc(S(=O)(=O)[O-])ccc5F)c5ccc2[nH]5)C=C4)C=C3)cc1
REMARK SMILES IDX 6 1 5 2 4 3 3 4 1 5 2 6 27 8 28 9 89 10 29 11 88 12 30 13
REMARK SMILES IDX 31 14 32 15 82 16 33 17 87 18 81 19 83 20 34 21 86 22 80 23
REMARK SMILES IDX 79 24 35 26 67 27 47 28 66 29 48 30 51 31 65 32 84 33 49 34
REMARK SMILES IDX 50 35 64 37 85 38 52 39 36 40 37 41 45 42 38 43 44 44 46 45
REMARK SMILES IDX 43 46 39 47 40 48 41 49 42 50 68 51 69 52 77 53 70 54 76 55
REMARK SMILES IDX 78 56 75 57 71 58 72 59 73 60 74 61 53 62 54 63 62 64 55 65
REMARK SMILES IDX 61 66 63 67 60 68 56 69 57 70 58 71 59 72 7 73 8 74 9 75
REMARK SMILES IDX 10 76 11 77 12 79 13 80 14 81 25 82 15 83 17 84 26 85 16 86
REMARK SMILES IDX 18 87 19 88 20 89 21 90 24 91 22 93 23 94
REMARK H PARENT 3 7 83 25 51 36 10 78 20 92
REMARK Flexibility Score: inf
ROOT
ATOM      1  C   UNL A   1      32.169  27.593  23.735  1.00  0.00     0.002 C 
ENDROOT
BRANCH   1   2
ATOM      2  C   UNL A   1      33.028  28.856  23.858  1.00  0.00     0.021 C 
BRANCH   2   3
ATOM      3  C   UNL A   1      33.482  29.210  25.270  1.00  0.00     0.116 C 
BRANCH   3   4
ATOM      4  N   UNL A   1      32.909  30.459  25.741  1.00  0.00    -0.352 N 
ATOM      5  O   UNL A   1      32.485  32.155  27.143  1.00  0.00    -0.269 OA
ATOM      6  C   UNL A   1      33.209  31.205  26.850  1.00  0.00     0.251 C 
ATOM      7  H   UNL A   1      32.194  30.827  25.173  1.00  0.00     0.163 HD
BRANCH   6   8
ATOM      8  C   UNL A   1      34.381  30.886  27.701  1.00  0.00     0.039 A 
ATOM      9  C   UNL A   1      35.367  31.863  27.866  1.00  0.00     0.014 A 
ATOM     10  C   UNL A   1      34.562  29.619  28.267  1.00  0.00     0.014 A 
ATOM     11  C   UNL A   1      36.522  31.577  28.599  1.00  0.00     0.010 A 
ATOM     12  C   UNL A   1      35.682  29.358  29.057  1.00  0.00     0.010 A 
ATOM     13  C   UNL A   1      36.691  30.321  29.201  1.00  0.00    -0.014 A 
BRANCH  13  14
ATOM     14  C   UNL A   1      37.951  29.981  29.911  1.00  0.00     0.031 A 
ATOM     15  C   UNL A   1      38.199  30.521  31.296  1.00  0.00     0.074 A 
ATOM     16  C   UNL A   1      38.871  29.195  29.319  1.00  0.00     0.049 A 
ATOM     17  N   UNL A   1      39.225  30.331  32.085  1.00  0.00    -0.248 NA
ATOM     18  C   UNL A   1      37.169  31.408  31.861  1.00  0.00     0.031 C 
ATOM     19  C   UNL A   1      38.756  28.638  27.970  1.00  0.00     0.029 A 
ATOM     20  N   UNL A   1      40.076  28.718  29.774  1.00  0.00    -0.354 N 
ATOM     21  C   UNL A   1      38.972  31.085  33.226  1.00  0.00     0.074 A 
ATOM     22  C   UNL A   1      37.725  31.779  33.006  1.00  0.00     0.031 C 
ATOM     23  C   UNL A   1      39.824  27.862  27.724  1.00  0.00     0.029 A 
ATOM     24  C   UNL A   1      40.716  27.886  28.883  1.00  0.00     0.049 A 
ATOM     25  H   UNL A   1      40.448  28.950  30.656  1.00  0.00     0.167 HD
ATOM     26  C   UNL A   1      39.697  31.165  34.367  1.00  0.00     0.034 A 
ATOM     27  C   UNL A   1      41.875  27.205  28.995  1.00  0.00     0.034 A 
ATOM     28  C   UNL A   1      40.915  30.432  34.593  1.00  0.00     0.049 A 
ATOM     29  C   UNL A   1      42.647  27.285  30.290  1.00  0.00     0.074 A 
ATOM     30  C   UNL A   1      41.704  30.416  35.729  1.00  0.00     0.029 A 
ATOM     31  N   UNL A   1      41.508  29.573  33.681  1.00  0.00    -0.354 N 
ATOM     32  N   UNL A   1      42.356  27.946  31.386  1.00  0.00    -0.248 NA
ATOM     33  C   UNL A   1      43.896  26.512  30.375  1.00  0.00     0.031 C 
ATOM     34  C   UNL A   1      42.794  29.579  35.491  1.00  0.00     0.029 A 
ATOM     35  C   UNL A   1      42.655  29.025  34.228  1.00  0.00     0.049 A 
ATOM     36  H   UNL A   1      41.165  29.381  32.778  1.00  0.00     0.167 HD
ATOM     37  C   UNL A   1      43.357  27.632  32.302  1.00  0.00     0.074 A 
ATOM     38  C   UNL A   1      44.255  26.712  31.636  1.00  0.00     0.031 C 
ATOM     39  C   UNL A   1      43.518  28.069  33.576  1.00  0.00     0.034 A 
BRANCH  26  40
ATOM     40  C   UNL A   1      39.190  32.042  35.484  1.00  0.00     0.023 A 
ATOM     41  C   UNL A   1      39.676  33.355  35.627  1.00  0.00     0.031 A 
ATOM     42  C   UNL A   1      38.326  31.541  36.474  1.00  0.00     0.131 A 
ATOM     43  C   UNL A   1      39.319  34.110  36.751  1.00  0.00     0.055 A 
ATOM     44  C   UNL A   1      37.941  32.312  37.571  1.00  0.00     0.041 A 
ATOM     45  F   UNL A   1      37.836  30.293  36.382  1.00  0.00    -0.206 F 
ATOM     46  C   UNL A   1      38.447  33.599  37.718  1.00  0.00     0.022 A 
BRANCH  43  47
ATOM     47  S   UNL A   1      40.012  35.763  37.029  1.00  0.00     0.124 S 
ATOM     48  O   UNL A   1      41.435  35.468  37.189  1.00  0.00    -0.237 OA
ATOM     49  O   UNL A   1      39.652  36.456  35.796  1.00  0.00    -0.237 OA
ATOM     50  O   UNL A   1      39.338  36.228  38.237  1.00  0.00    -0.744 OA
ENDBRANCH  43  47
ENDBRANCH  26  40
BRANCH  27  51
ATOM     51  C   UNL A   1      42.309  26.304  27.886  1.00  0.00     0.023 A 
ATOM     52  C   UNL A   1      41.805  24.997  27.760  1.00  0.00     0.031 A 
ATOM     53  C   UNL A   1      43.300  26.721  26.980  1.00  0.00     0.131 A 
ATOM     54  C   UNL A   1      42.329  24.141  26.781  1.00  0.00     0.055 A 
ATOM     55  C   UNL A   1      43.775  25.885  25.968  1.00  0.00     0.041 A 
ATOM     56  F   UNL A   1      43.822  27.954  27.069  1.00  0.00    -0.206 F 
ATOM     57  C   UNL A   1      43.297  24.582  25.874  1.00  0.00     0.022 A 
BRANCH  54  58
ATOM     58  S   UNL A   1      41.855  22.390  26.725  1.00  0.00     0.124 S 
ATOM     59  O   UNL A   1      42.265  22.007  25.377  1.00  0.00    -0.237 OA
ATOM     60  O   UNL A   1      42.655  21.828  27.811  1.00  0.00    -0.237 OA
ATOM     61  O   UNL A   1      40.416  22.415  26.965  1.00  0.00    -0.744 OA
ENDBRANCH  54  58
ENDBRANCH  27  51
BRANCH  39  62
ATOM     62  C   UNL A   1      44.677  27.545  34.388  1.00  0.00     0.023 A 
ATOM     63  C   UNL A   1      44.502  26.404  35.196  1.00  0.00     0.031 A 
ATOM     64  C   UNL A   1      45.884  28.255  34.491  1.00  0.00     0.131 A 
ATOM     65  C   UNL A   1      45.506  26.028  36.097  1.00  0.00     0.055 A 
ATOM     66  C   UNL A   1      46.899  27.851  35.359  1.00  0.00     0.041 A 
ATOM     67  F   UNL A   1      46.091  29.358  33.754  1.00  0.00    -0.206 F 
ATOM     68  C   UNL A   1      46.706  26.742  36.178  1.00  0.00     0.022 A 
BRANCH  65  69
ATOM     69  S   UNL A   1      45.251  24.662  37.265  1.00  0.00     0.124 S 
ATOM     70  O   UNL A   1      44.928  23.555  36.368  1.00  0.00    -0.237 OA
ATOM     71  O   UNL A   1      46.552  24.572  37.923  1.00  0.00    -0.237 OA
ATOM     72  O   UNL A   1      44.155  25.121  38.110  1.00  0.00    -0.744 OA
ENDBRANCH  65  69
ENDBRANCH  39  62
ENDBRANCH  13  14
ENDBRANCH   6   8
ENDBRANCH   3   4
ENDBRANCH   2   3
ENDBRANCH   1   2
BRANCH   1  73
ATOM     73  C   UNL A   1      30.793  27.783  23.094  1.00  0.00     0.002 C 
BRANCH  73  74
ATOM     74  C   UNL A   1      29.698  26.835  23.590  1.00  0.00     0.021 C 
BRANCH  74  75
ATOM     75  C   UNL A   1      30.157  25.408  23.874  1.00  0.00     0.116 C 
BRANCH  75  76
ATOM     76  N   UNL A   1      29.903  25.009  25.250  1.00  0.00    -0.352 N 
ATOM     77  C   UNL A   1      30.760  24.406  26.132  1.00  0.00     0.256 C 
ATOM     78  H   UNL A   1      28.998  25.196  25.591  1.00  0.00     0.163 HD
ATOM     79  O   UNL A   1      30.377  24.077  27.250  1.00  0.00    -0.269 OA
BRANCH  77  80
ATOM     80  C   UNL A   1      32.111  24.066  25.647  1.00  0.00     0.105 A 
ATOM     81  C   UNL A   1      33.116  24.876  26.018  1.00  0.00     0.021 A 
ATOM     82  C   UNL A   1      32.395  22.805  24.901  1.00  0.00     0.263 A 
ATOM     83  C   UNL A   1      34.482  24.506  25.753  1.00  0.00     0.019 A 
ATOM     84  N   UNL A   1      33.746  22.463  24.787  1.00  0.00    -0.309 N 
ATOM     85  O   UNL A   1      31.474  22.106  24.479  1.00  0.00    -0.268 OA
ATOM     86  C   UNL A   1      34.754  23.321  25.197  1.00  0.00     0.089 A 
BRANCH  84  87
ATOM     87  C   UNL A   1      34.098  21.145  24.247  1.00  0.00     0.186 C 
BRANCH  87  88
ATOM     88  C   UNL A   1      33.818  19.955  25.194  1.00  0.00     0.284 C 
BRANCH  88  89
ATOM     89  N   UNL A   1      32.642  19.130  24.841  1.00  0.00    -0.333 N 
ATOM     90  C   UNL A   1      32.719  17.798  25.461  1.00  0.00     0.262 C 
ATOM     91  C   UNL A   1      32.528  18.875  23.394  1.00  0.00     0.262 C 
ATOM     92  H   UNL A   1      31.844  19.669  25.175  1.00  0.00     0.348 HD
ATOM     93  C   UNL A   1      33.498  16.945  24.477  1.00  0.00     0.067 C 
ATOM     94  C   UNL A   1      33.069  17.478  23.123  1.00  0.00     0.067 C 
ENDBRANCH  88  89
ENDBRANCH  87  88
ENDBRANCH  84  87
ENDBRANCH  77  80
ENDBRANCH  75  76
ENDBRANCH  74  75
ENDBRANCH  73  74
ENDBRANCH   1  73
TORSDOF 19
ENDMDL
