MODEL 1
REMARK VINA RESULT:     -11.8      0.000      0.000
REMARK SMILES CCCc1nn(-c2ccc(OC)cc2)c2sc(C(=O)NCCCCCCNC(=O)c3ccc(-c4c5nc(c(-c6cc(S(=O)(=O)[O-])ccc6F)c6ccc([nH]6)c(-c6cc(S(=O)(=O)[O-])ccc6F)c6nc(c(-c7cc(S(=O)(=O)[O-])ccc7F)c7ccc4[nH]7)C=C6)C=C5)cc3)cc12
REMARK SMILES IDX 24 1 23 2 22 3 21 4 20 5 18 6 19 7 17 9 4 10 5 11 94 12 6 13
REMARK SMILES IDX 15 14 93 15 16 16 3 17 2 18 1 19 7 20 8 21 14 22 9 23 13 24
REMARK SMILES IDX 10 25 11 26 12 27 25 28 26 29 27 30 28 31 29 33 30 34 31 35
REMARK SMILES IDX 92 36 32 37 91 38 33 39 34 40 35 41 85 42 36 43 90 44 84 45
REMARK SMILES IDX 86 46 37 47 89 48 83 49 82 50 38 52 70 53 50 54 69 55 51 56
REMARK SMILES IDX 54 57 68 58 87 59 52 60 53 61 67 63 88 64 55 65 39 66 40 67
REMARK SMILES IDX 48 68 41 69 47 70 49 71 46 72 42 73 43 74 44 75 45 76 71 77
REMARK SMILES IDX 72 78 80 79 73 80 79 81 81 82 78 83 74 84 75 85 76 86 77 87
REMARK SMILES IDX 56 88 57 89 65 90 58 91 64 92 66 93 63 94 59 95 60 96 61 97
REMARK SMILES IDX 62 98
REMARK H PARENT 20 8 27 32 86 51 54 62
REMARK Flexibility Score: inf
ROOT
ATOM      1  C   UNL A   1      36.859  21.508  25.445  1.00  0.00     0.002 C 
ENDROOT
BRANCH   1   2
ATOM      2  C   UNL A   1      36.233  21.999  24.127  1.00  0.00     0.002 C 
BRANCH   2   3
ATOM      3  C   UNL A   1      35.178  23.103  24.260  1.00  0.00     0.021 C 
BRANCH   3   4
ATOM      4  C   UNL A   1      33.905  22.837  23.449  1.00  0.00     0.116 C 
BRANCH   4   5
ATOM      5  N   UNL A   1      32.771  22.483  24.298  1.00  0.00    -0.351 N 
ATOM      6  C   UNL A   1      31.818  23.247  24.949  1.00  0.00     0.261 C 
ATOM      7  O   UNL A   1      30.873  22.626  25.443  1.00  0.00    -0.268 OA
ATOM      8  H   UNL A   1      32.662  21.515  24.432  1.00  0.00     0.163 HD
BRANCH   6   9
ATOM      9  C   UNL A   1      31.878  24.702  24.988  1.00  0.00     0.095 A 
ATOM     10  C   UNL A   1      31.930  28.151  26.280  1.00  0.00     0.072 A 
ATOM     11  N   UNL A   1      31.366  29.024  25.400  1.00  0.00    -0.171 NA
ATOM     12  C   UNL A   1      31.910  26.863  25.740  1.00  0.00     0.035 A 
ATOM     13  N   UNL A   1      31.003  28.249  24.336  1.00  0.00    -0.223 N 
ATOM     14  C   UNL A   1      31.452  26.988  24.501  1.00  0.00     0.128 A 
ATOM     15  C   UNL A   1      32.207  25.539  26.078  1.00  0.00     0.038 A 
ATOM     16  S   UNL A   1      31.634  25.654  23.556  1.00  0.00    -0.110 S 
BRANCH  10  17
ATOM     17  C   UNL A   1      32.485  28.615  27.589  1.00  0.00     0.058 C 
BRANCH  17  18
ATOM     18  C   UNL A   1      33.575  29.693  27.492  1.00  0.00     0.003 C 
ATOM     19  C   UNL A   1      34.947  29.152  27.104  1.00  0.00     0.004 C 
ENDBRANCH  17  18
ENDBRANCH  10  17
BRANCH  13  20
ATOM     20  C   UNL A   1      30.148  28.652  23.298  1.00  0.00     0.066 A 
ATOM     21  C   UNL A   1      30.683  29.434  22.262  1.00  0.00     0.032 A 
ATOM     22  C   UNL A   1      28.773  28.521  23.461  1.00  0.00     0.032 A 
ATOM     23  C   UNL A   1      29.831  30.132  21.414  1.00  0.00     0.048 A 
ATOM     24  C   UNL A   1      27.927  29.261  22.626  1.00  0.00     0.048 A 
ATOM     25  C   UNL A   1      28.451  30.078  21.615  1.00  0.00     0.119 A 
BRANCH  25  26
ATOM     26  O   UNL A   1      27.734  30.883  20.772  1.00  0.00    -0.497 OA
ATOM     27  C   UNL A   1      27.979  32.280  20.866  1.00  0.00     0.278 C 
ENDBRANCH  25  26
ENDBRANCH  13  20
ENDBRANCH   6   9
ENDBRANCH   4   5
ENDBRANCH   3   4
ENDBRANCH   2   3
ENDBRANCH   1   2
BRANCH   1  28
ATOM     28  C   UNL A   1      38.393  21.406  25.487  1.00  0.00     0.021 C 
BRANCH  28  29
ATOM     29  C   UNL A   1      39.057  22.504  26.301  1.00  0.00     0.116 C 
BRANCH  29  30
ATOM     30  N   UNL A   1      40.147  21.997  27.140  1.00  0.00    -0.352 N 
ATOM     31  C   UNL A   1      41.179  22.684  27.764  1.00  0.00     0.251 C 
ATOM     32  H   UNL A   1      40.148  21.023  27.283  1.00  0.00     0.163 HD
ATOM     33  O   UNL A   1      42.199  22.100  28.087  1.00  0.00    -0.269 OA
BRANCH  31  34
ATOM     34  C   UNL A   1      41.015  24.128  28.028  1.00  0.00     0.039 A 
ATOM     35  C   UNL A   1      39.807  24.804  27.834  1.00  0.00     0.014 A 
ATOM     36  C   UNL A   1      42.130  24.813  28.490  1.00  0.00     0.014 A 
ATOM     37  C   UNL A   1      39.745  26.159  28.161  1.00  0.00     0.010 A 
ATOM     38  C   UNL A   1      41.991  26.037  29.068  1.00  0.00     0.010 A 
ATOM     39  C   UNL A   1      40.851  26.761  28.781  1.00  0.00    -0.014 A 
BRANCH  39  40
ATOM     40  C   UNL A   1      40.869  28.144  29.215  1.00  0.00     0.031 A 
ATOM     41  C   UNL A   1      41.858  28.977  28.508  1.00  0.00     0.074 A 
ATOM     42  C   UNL A   1      39.909  28.686  29.997  1.00  0.00     0.049 A 
ATOM     43  N   UNL A   1      43.014  29.329  28.952  1.00  0.00    -0.248 NA
ATOM     44  C   UNL A   1      41.648  29.284  27.086  1.00  0.00     0.031 C 
ATOM     45  C   UNL A   1      38.680  28.072  30.514  1.00  0.00     0.029 A 
ATOM     46  N   UNL A   1      39.790  29.974  30.411  1.00  0.00    -0.354 N 
ATOM     47  C   UNL A   1      43.564  30.141  27.972  1.00  0.00     0.074 A 
ATOM     48  C   UNL A   1      42.813  29.861  26.778  1.00  0.00     0.031 C 
ATOM     49  C   UNL A   1      37.851  29.036  30.977  1.00  0.00     0.029 A 
ATOM     50  C   UNL A   1      38.546  30.312  30.934  1.00  0.00     0.049 A 
ATOM     51  H   UNL A   1      40.530  30.619  30.346  1.00  0.00     0.167 HD
ATOM     52  C   UNL A   1      44.408  31.155  28.311  1.00  0.00     0.034 A 
ATOM     53  C   UNL A   1      38.122  31.559  31.278  1.00  0.00     0.034 A 
ATOM     54  C   UNL A   1      44.770  31.067  29.714  1.00  0.00     0.049 A 
ATOM     55  C   UNL A   1      39.354  32.351  31.550  1.00  0.00     0.074 A 
ATOM     56  C   UNL A   1      45.367  30.097  30.500  1.00  0.00     0.029 A 
ATOM     57  N   UNL A   1      44.119  31.905  30.597  1.00  0.00    -0.354 N 
ATOM     58  N   UNL A   1      40.173  32.071  32.530  1.00  0.00    -0.248 NA
ATOM     59  C   UNL A   1      39.951  33.093  30.448  1.00  0.00     0.031 C 
ATOM     60  C   UNL A   1      44.619  30.103  31.715  1.00  0.00     0.029 A 
ATOM     61  C   UNL A   1      43.684  31.140  31.654  1.00  0.00     0.049 A 
ATOM     62  H   UNL A   1      43.989  32.875  30.490  1.00  0.00     0.167 HD
ATOM     63  C   UNL A   1      41.443  32.181  31.981  1.00  0.00     0.074 A 
ATOM     64  C   UNL A   1      41.247  32.912  30.728  1.00  0.00     0.031 C 
ATOM     65  C   UNL A   1      42.486  31.417  32.430  1.00  0.00     0.034 A 
BRANCH  52  66
ATOM     66  C   UNL A   1      44.627  32.425  27.526  1.00  0.00     0.023 A 
ATOM     67  C   UNL A   1      43.988  33.580  28.014  1.00  0.00     0.031 A 
ATOM     68  C   UNL A   1      45.171  32.528  26.226  1.00  0.00     0.131 A 
ATOM     69  C   UNL A   1      43.796  34.703  27.196  1.00  0.00     0.055 A 
ATOM     70  C   UNL A   1      45.041  33.678  25.440  1.00  0.00     0.041 A 
ATOM     71  F   UNL A   1      45.774  31.510  25.605  1.00  0.00    -0.206 F 
ATOM     72  C   UNL A   1      44.318  34.761  25.909  1.00  0.00     0.022 A 
BRANCH  69  73
ATOM     73  S   UNL A   1      42.686  36.004  27.787  1.00  0.00     0.124 S 
ATOM     74  O   UNL A   1      43.403  36.485  28.963  1.00  0.00    -0.237 OA
ATOM     75  O   UNL A   1      42.647  36.907  26.641  1.00  0.00    -0.237 OA
ATOM     76  O   UNL A   1      41.443  35.289  28.061  1.00  0.00    -0.744 OA
ENDBRANCH  69  73
ENDBRANCH  52  66
BRANCH  53  77
ATOM     77  C   UNL A   1      36.770  32.156  31.049  1.00  0.00     0.023 A 
ATOM     78  C   UNL A   1      36.120  32.981  31.996  1.00  0.00     0.031 A 
ATOM     79  C   UNL A   1      36.193  32.113  29.758  1.00  0.00     0.131 A 
ATOM     80  C   UNL A   1      34.961  33.717  31.633  1.00  0.00     0.055 A 
ATOM     81  C   UNL A   1      35.053  32.840  29.407  1.00  0.00     0.041 A 
ATOM     82  F   UNL A   1      36.772  31.430  28.758  1.00  0.00    -0.206 F 
ATOM     83  C   UNL A   1      34.437  33.654  30.341  1.00  0.00     0.022 A 
BRANCH  80  84
ATOM     84  S   UNL A   1      34.166  34.858  32.814  1.00  0.00     0.124 S 
ATOM     85  O   UNL A   1      34.911  36.093  32.600  1.00  0.00    -0.237 OA
ATOM     86  O   UNL A   1      32.776  34.852  32.374  1.00  0.00    -0.237 OA
ATOM     87  O   UNL A   1      34.396  34.220  34.112  1.00  0.00    -0.744 OA
ENDBRANCH  80  84
ENDBRANCH  53  77
BRANCH  65  88
ATOM     88  C   UNL A   1      42.317  30.635  33.722  1.00  0.00     0.023 A 
ATOM     89  C   UNL A   1      42.132  29.234  33.810  1.00  0.00     0.031 A 
ATOM     90  C   UNL A   1      42.492  31.340  34.926  1.00  0.00     0.131 A 
ATOM     91  C   UNL A   1      42.121  28.600  35.070  1.00  0.00     0.055 A 
ATOM     92  C   UNL A   1      42.507  30.706  36.168  1.00  0.00     0.041 A 
ATOM     93  F   UNL A   1      42.695  32.669  34.913  1.00  0.00    -0.206 F 
ATOM     94  C   UNL A   1      42.316  29.333  36.245  1.00  0.00     0.022 A 
BRANCH  91  95
ATOM     95  S   UNL A   1      41.833  26.804  35.212  1.00  0.00     0.124 S 
ATOM     96  O   UNL A   1      40.617  26.592  34.435  1.00  0.00    -0.237 OA
ATOM     97  O   UNL A   1      43.057  26.241  34.651  1.00  0.00    -0.237 OA
ATOM     98  O   UNL A   1      41.676  26.599  36.654  1.00  0.00    -0.744 OA
ENDBRANCH  91  95
ENDBRANCH  65  88
ENDBRANCH  39  40
ENDBRANCH  31  34
ENDBRANCH  29  30
ENDBRANCH  28  29
ENDBRANCH   1  28
TORSDOF 20
ENDMDL
MODEL 2
REMARK VINA RESULT:     -11.6      4.740     11.535
REMARK SMILES CCCc1nn(-c2ccc(OC)cc2)c2sc(C(=O)NCCCCCCNC(=O)c3ccc(-c4c5nc(c(-c6cc(S(=O)(=O)[O-])ccc6F)c6ccc([nH]6)c(-c6cc(S(=O)(=O)[O-])ccc6F)c6nc(c(-c7cc(S(=O)(=O)[O-])ccc7F)c7ccc4[nH]7)C=C6)C=C5)cc3)cc12
REMARK SMILES IDX 24 1 23 2 22 3 21 4 20 5 18 6 19 7 17 9 4 10 5 11 94 12 6 13
REMARK SMILES IDX 15 14 93 15 16 16 3 17 2 18 1 19 7 20 8 21 14 22 9 23 13 24
REMARK SMILES IDX 10 25 11 26 12 27 25 28 26 29 27 30 28 31 29 33 30 34 31 35
REMARK SMILES IDX 92 36 32 37 91 38 33 39 34 40 35 41 85 42 36 43 90 44 84 45
REMARK SMILES IDX 86 46 37 47 89 48 83 49 82 50 38 52 70 53 50 54 69 55 51 56
REMARK SMILES IDX 54 57 68 58 87 59 52 60 53 61 67 63 88 64 55 65 39 66 40 67
REMARK SMILES IDX 48 68 41 69 47 70 49 71 46 72 42 73 43 74 44 75 45 76 71 77
REMARK SMILES IDX 72 78 80 79 73 80 79 81 81 82 78 83 74 84 75 85 76 86 77 87
REMARK SMILES IDX 56 88 57 89 65 90 58 91 64 92 66 93 63 94 59 95 60 96 61 97
REMARK SMILES IDX 62 98
REMARK H PARENT 20 8 27 32 86 51 54 62
REMARK Flexibility Score: inf
ROOT
ATOM      1  C   UNL A   1      35.736  31.126  32.147  1.00  0.00     0.002 C 
ENDROOT
BRANCH   1   2
ATOM      2  C   UNL A   1      37.199  31.372  32.556  1.00  0.00     0.002 C 
BRANCH   2   3
ATOM      3  C   UNL A   1      37.600  30.858  33.944  1.00  0.00     0.021 C 
BRANCH   3   4
ATOM      4  C   UNL A   1      37.792  31.971  34.979  1.00  0.00     0.116 C 
BRANCH   4   5
ATOM      5  N   UNL A   1      37.251  33.249  34.524  1.00  0.00    -0.351 N 
ATOM      6  C   UNL A   1      37.800  34.290  33.797  1.00  0.00     0.261 C 
ATOM      7  O   UNL A   1      37.011  35.160  33.418  1.00  0.00    -0.268 OA
ATOM      8  H   UNL A   1      36.314  33.398  34.784  1.00  0.00     0.163 HD
BRANCH   6   9
ATOM      9  C   UNL A   1      39.210  34.327  33.431  1.00  0.00     0.095 A 
ATOM     10  C   UNL A   1      42.775  35.251  33.398  1.00  0.00     0.072 A 
ATOM     11  N   UNL A   1      43.305  35.156  32.146  1.00  0.00    -0.171 NA
ATOM     12  C   UNL A   1      41.432  34.869  33.367  1.00  0.00     0.035 A 
ATOM     13  N   UNL A   1      42.269  34.725  31.369  1.00  0.00    -0.223 N 
ATOM     14  C   UNL A   1      41.199  34.435  32.135  1.00  0.00     0.128 A 
ATOM     15  C   UNL A   1      40.303  34.805  34.189  1.00  0.00     0.038 A 
ATOM     16  S   UNL A   1      39.773  33.638  31.940  1.00  0.00    -0.110 S 
BRANCH  10  17
ATOM     17  C   UNL A   1      43.607  35.679  34.565  1.00  0.00     0.058 C 
BRANCH  17  18
ATOM     18  C   UNL A   1      43.023  36.828  35.399  1.00  0.00     0.003 C 
ATOM     19  C   UNL A   1      42.725  36.451  36.846  1.00  0.00     0.004 C 
ENDBRANCH  17  18
ENDBRANCH  10  17
BRANCH  13  20
ATOM     20  C   UNL A   1      42.255  34.734  29.965  1.00  0.00     0.066 A 
ATOM     21  C   UNL A   1      43.397  34.280  29.285  1.00  0.00     0.032 A 
ATOM     22  C   UNL A   1      41.260  35.444  29.301  1.00  0.00     0.032 A 
ATOM     23  C   UNL A   1      43.564  34.583  27.940  1.00  0.00     0.048 A 
ATOM     24  C   UNL A   1      41.461  35.778  27.956  1.00  0.00     0.048 A 
ATOM     25  C   UNL A   1      42.615  35.364  27.278  1.00  0.00     0.119 A 
BRANCH  25  26
ATOM     26  O   UNL A   1      42.948  35.668  25.986  1.00  0.00    -0.497 OA
ATOM     27  C   UNL A   1      43.286  34.575  25.142  1.00  0.00     0.278 C 
ENDBRANCH  25  26
ENDBRANCH  13  20
ENDBRANCH   6   9
ENDBRANCH   4   5
ENDBRANCH   3   4
ENDBRANCH   2   3
ENDBRANCH   1   2
BRANCH   1  28
ATOM     28  C   UNL A   1      34.853  32.369  31.949  1.00  0.00     0.021 C 
BRANCH  28  29
ATOM     29  C   UNL A   1      35.318  33.275  30.820  1.00  0.00     0.116 C 
BRANCH  29  30
ATOM     30  N   UNL A   1      34.770  32.873  29.519  1.00  0.00    -0.352 N 
ATOM     31  C   UNL A   1      35.354  32.130  28.503  1.00  0.00     0.251 C 
ATOM     32  H   UNL A   1      33.851  33.176  29.340  1.00  0.00     0.163 HD
ATOM     33  O   UNL A   1      34.934  32.214  27.362  1.00  0.00    -0.269 OA
BRANCH  31  34
ATOM     34  C   UNL A   1      36.486  31.240  28.833  1.00  0.00     0.039 A 
ATOM     35  C   UNL A   1      36.386  29.845  28.817  1.00  0.00     0.014 A 
ATOM     36  C   UNL A   1      37.688  31.848  29.166  1.00  0.00     0.014 A 
ATOM     37  C   UNL A   1      37.529  29.095  29.097  1.00  0.00     0.010 A 
ATOM     38  C   UNL A   1      38.845  31.132  29.154  1.00  0.00     0.010 A 
ATOM     39  C   UNL A   1      38.755  29.759  29.262  1.00  0.00    -0.014 A 
BRANCH  39  40
ATOM     40  C   UNL A   1      40.010  29.072  29.496  1.00  0.00     0.031 A 
ATOM     41  C   UNL A   1      40.312  28.851  30.921  1.00  0.00     0.074 A 
ATOM     42  C   UNL A   1      40.712  28.461  28.515  1.00  0.00     0.049 A 
ATOM     43  N   UNL A   1      41.116  29.547  31.646  1.00  0.00    -0.248 NA
ATOM     44  C   UNL A   1      39.492  27.900  31.686  1.00  0.00     0.031 C 
ATOM     45  C   UNL A   1      40.376  28.307  27.094  1.00  0.00     0.029 A 
ATOM     46  N   UNL A   1      41.858  27.741  28.626  1.00  0.00    -0.354 N 
ATOM     47  C   UNL A   1      41.117  28.944  32.894  1.00  0.00     0.074 A 
ATOM     48  C   UNL A   1      39.933  28.128  32.926  1.00  0.00     0.031 C 
ATOM     49  C   UNL A   1      41.177  27.369  26.538  1.00  0.00     0.029 A 
ATOM     50  C   UNL A   1      42.178  26.969  27.514  1.00  0.00     0.049 A 
ATOM     51  H   UNL A   1      42.420  27.764  29.433  1.00  0.00     0.167 HD
ATOM     52  C   UNL A   1      42.234  28.973  33.673  1.00  0.00     0.034 A 
ATOM     53  C   UNL A   1      43.179  26.051  27.423  1.00  0.00     0.034 A 
ATOM     54  C   UNL A   1      43.225  29.871  33.106  1.00  0.00     0.049 A 
ATOM     55  C   UNL A   1      44.184  26.438  28.453  1.00  0.00     0.074 A 
ATOM     56  C   UNL A   1      43.233  31.212  32.770  1.00  0.00     0.029 A 
ATOM     57  N   UNL A   1      44.269  29.309  32.398  1.00  0.00    -0.354 N 
ATOM     58  N   UNL A   1      44.850  27.562  28.405  1.00  0.00    -0.248 NA
ATOM     59  C   UNL A   1      44.063  25.856  29.783  1.00  0.00     0.031 C 
ATOM     60  C   UNL A   1      43.913  31.269  31.516  1.00  0.00     0.029 A 
ATOM     61  C   UNL A   1      44.378  29.988  31.208  1.00  0.00     0.049 A 
ATOM     62  H   UNL A   1      44.833  28.557  32.692  1.00  0.00     0.167 HD
ATOM     63  C   UNL A   1      44.826  28.051  29.703  1.00  0.00     0.074 A 
ATOM     64  C   UNL A   1      44.419  26.911  30.526  1.00  0.00     0.031 C 
ATOM     65  C   UNL A   1      44.841  29.395  29.964  1.00  0.00     0.034 A 
BRANCH  52  66
ATOM     66  C   UNL A   1      42.613  27.952  34.718  1.00  0.00     0.023 A 
ATOM     67  C   UNL A   1      43.357  26.844  34.270  1.00  0.00     0.031 A 
ATOM     68  C   UNL A   1      42.082  27.847  36.023  1.00  0.00     0.131 A 
ATOM     69  C   UNL A   1      43.439  25.670  35.032  1.00  0.00     0.055 A 
ATOM     70  C   UNL A   1      42.230  26.700  36.809  1.00  0.00     0.041 A 
ATOM     71  F   UNL A   1      41.321  28.794  36.579  1.00  0.00    -0.206 F 
ATOM     72  C   UNL A   1      42.879  25.588  36.302  1.00  0.00     0.022 A 
BRANCH  69  73
ATOM     73  S   UNL A   1      44.129  24.194  34.246  1.00  0.00     0.124 S 
ATOM     74  O   UNL A   1      43.183  23.168  34.670  1.00  0.00    -0.237 OA
ATOM     75  O   UNL A   1      44.092  24.562  32.834  1.00  0.00    -0.237 OA
ATOM     76  O   UNL A   1      45.464  24.094  34.829  1.00  0.00    -0.744 OA
ENDBRANCH  69  73
ENDBRANCH  52  66
BRANCH  53  77
ATOM     77  C   UNL A   1      43.134  24.717  26.750  1.00  0.00     0.023 A 
ATOM     78  C   UNL A   1      42.196  23.713  27.087  1.00  0.00     0.031 A 
ATOM     79  C   UNL A   1      43.880  24.502  25.567  1.00  0.00     0.131 A 
ATOM     80  C   UNL A   1      42.035  22.572  26.258  1.00  0.00     0.055 A 
ATOM     81  C   UNL A   1      43.716  23.377  24.755  1.00  0.00     0.041 A 
ATOM     82  F   UNL A   1      44.736  25.426  25.105  1.00  0.00    -0.206 F 
ATOM     83  C   UNL A   1      42.784  22.411  25.091  1.00  0.00     0.022 A 
BRANCH  80  84
ATOM     84  S   UNL A   1      40.765  21.315  26.628  1.00  0.00     0.124 S 
ATOM     85  O   UNL A   1      41.309  20.126  25.983  1.00  0.00    -0.237 OA
ATOM     86  O   UNL A   1      40.738  21.310  28.086  1.00  0.00    -0.237 OA
ATOM     87  O   UNL A   1      39.557  21.856  26.000  1.00  0.00    -0.744 OA
ENDBRANCH  80  84
ENDBRANCH  53  77
BRANCH  65  88
ATOM     88  C   UNL A   1      45.160  30.356  28.830  1.00  0.00     0.023 A 
ATOM     89  C   UNL A   1      46.452  30.831  28.501  1.00  0.00     0.031 A 
ATOM     90  C   UNL A   1      44.107  30.692  27.959  1.00  0.00     0.131 A 
ATOM     91  C   UNL A   1      46.644  31.614  27.343  1.00  0.00     0.055 A 
ATOM     92  C   UNL A   1      44.305  31.444  26.802  1.00  0.00     0.041 A 
ATOM     93  F   UNL A   1      42.859  30.254  28.200  1.00  0.00    -0.206 F 
ATOM     94  C   UNL A   1      45.575  31.913  26.492  1.00  0.00     0.022 A 
BRANCH  91  95
ATOM     95  S   UNL A   1      48.290  32.281  26.927  1.00  0.00     0.124 S 
ATOM     96  O   UNL A   1      49.039  31.102  26.507  1.00  0.00    -0.237 OA
ATOM     97  O   UNL A   1      47.985  33.251  25.880  1.00  0.00    -0.237 OA
ATOM     98  O   UNL A   1      48.745  32.872  28.188  1.00  0.00    -0.744 OA
ENDBRANCH  91  95
ENDBRANCH  65  88
ENDBRANCH  39  40
ENDBRANCH  31  34
ENDBRANCH  29  30
ENDBRANCH  28  29
ENDBRANCH   1  28
TORSDOF 20
ENDMDL
MODEL 3
REMARK VINA RESULT:     -11.4      1.990      3.482
REMARK SMILES CCCc1nn(-c2ccc(OC)cc2)c2sc(C(=O)NCCCCCCNC(=O)c3ccc(-c4c5nc(c(-c6cc(S(=O)(=O)[O-])ccc6F)c6ccc([nH]6)c(-c6cc(S(=O)(=O)[O-])ccc6F)c6nc(c(-c7cc(S(=O)(=O)[O-])ccc7F)c7ccc4[nH]7)C=C6)C=C5)cc3)cc12
REMARK SMILES IDX 24 1 23 2 22 3 21 4 20 5 18 6 19 7 17 9 4 10 5 11 94 12 6 13
REMARK SMILES IDX 15 14 93 15 16 16 3 17 2 18 1 19 7 20 8 21 14 22 9 23 13 24
REMARK SMILES IDX 10 25 11 26 12 27 25 28 26 29 27 30 28 31 29 33 30 34 31 35
REMARK SMILES IDX 92 36 32 37 91 38 33 39 34 40 35 41 85 42 36 43 90 44 84 45
REMARK SMILES IDX 86 46 37 47 89 48 83 49 82 50 38 52 70 53 50 54 69 55 51 56
REMARK SMILES IDX 54 57 68 58 87 59 52 60 53 61 67 63 88 64 55 65 39 66 40 67
REMARK SMILES IDX 48 68 41 69 47 70 49 71 46 72 42 73 43 74 44 75 45 76 71 77
REMARK SMILES IDX 72 78 80 79 73 80 79 81 81 82 78 83 74 84 75 85 76 86 77 87
REMARK SMILES IDX 56 88 57 89 65 90 58 91 64 92 66 93 63 94 59 95 60 96 61 97
REMARK SMILES IDX 62 98
REMARK H PARENT 20 8 27 32 86 51 54 62
REMARK Flexibility Score: inf
ROOT
ATOM      1  C   UNL A   1      36.267  23.215  23.848  1.00  0.00     0.002 C 
ENDROOT
BRANCH   1   2
ATOM      2  C   UNL A   1      34.785  23.138  23.441  1.00  0.00     0.002 C 
BRANCH   2   3
ATOM      3  C   UNL A   1      33.824  22.613  24.515  1.00  0.00     0.021 C 
BRANCH   3   4
ATOM      4  C   UNL A   1      32.382  23.103  24.340  1.00  0.00     0.116 C 
BRANCH   4   5
ATOM      5  N   UNL A   1      31.622  23.043  25.585  1.00  0.00    -0.351 N 
ATOM      6  C   UNL A   1      30.876  23.985  26.270  1.00  0.00     0.261 C 
ATOM      7  O   UNL A   1      30.200  23.560  27.210  1.00  0.00    -0.268 OA
ATOM      8  H   UNL A   1      31.645  22.161  26.021  1.00  0.00     0.163 HD
BRANCH   6   9
ATOM      9  C   UNL A   1      30.824  25.384  25.865  1.00  0.00     0.095 A 
ATOM     10  C   UNL A   1      30.480  28.389  23.763  1.00  0.00     0.072 A 
ATOM     11  N   UNL A   1      31.262  29.409  24.217  1.00  0.00    -0.171 NA
ATOM     12  C   UNL A   1      30.624  27.281  24.602  1.00  0.00     0.035 A 
ATOM     13  N   UNL A   1      31.878  28.900  25.323  1.00  0.00    -0.223 N 
ATOM     14  C   UNL A   1      31.388  27.678  25.612  1.00  0.00     0.128 A 
ATOM     15  C   UNL A   1      30.235  25.943  24.709  1.00  0.00     0.038 A 
ATOM     16  S   UNL A   1      31.440  26.644  26.890  1.00  0.00    -0.110 S 
BRANCH  10  17
ATOM     17  C   UNL A   1      29.611  28.552  22.557  1.00  0.00     0.058 C 
BRANCH  17  18
ATOM     18  C   UNL A   1      28.465  29.563  22.707  1.00  0.00     0.003 C 
ATOM     19  C   UNL A   1      27.114  28.924  23.012  1.00  0.00     0.004 C 
ENDBRANCH  17  18
ENDBRANCH  10  17
BRANCH  13  20
ATOM     20  C   UNL A   1      32.977  29.483  25.976  1.00  0.00     0.066 A 
ATOM     21  C   UNL A   1      34.134  28.708  26.150  1.00  0.00     0.032 A 
ATOM     22  C   UNL A   1      32.799  30.673  26.673  1.00  0.00     0.032 A 
ATOM     23  C   UNL A   1      35.098  29.105  27.069  1.00  0.00     0.048 A 
ATOM     24  C   UNL A   1      33.758  31.041  27.624  1.00  0.00     0.048 A 
ATOM     25  C   UNL A   1      34.898  30.254  27.836  1.00  0.00     0.119 A 
BRANCH  25  26
ATOM     26  O   UNL A   1      35.875  30.479  28.766  1.00  0.00    -0.497 OA
ATOM     27  C   UNL A   1      37.051  29.687  28.659  1.00  0.00     0.278 C 
ENDBRANCH  25  26
ENDBRANCH  13  20
ENDBRANCH   6   9
ENDBRANCH   4   5
ENDBRANCH   3   4
ENDBRANCH   2   3
ENDBRANCH   1   2
BRANCH   1  28
ATOM     28  C   UNL A   1      36.623  22.731  25.264  1.00  0.00     0.021 C 
BRANCH  28  29
ATOM     29  C   UNL A   1      37.786  23.481  25.892  1.00  0.00     0.116 C 
BRANCH  29  30
ATOM     30  N   UNL A   1      38.753  22.581  26.531  1.00  0.00    -0.352 N 
ATOM     31  C   UNL A   1      39.943  22.876  27.181  1.00  0.00     0.251 C 
ATOM     32  H   UNL A   1      38.523  21.625  26.493  1.00  0.00     0.163 HD
ATOM     33  O   UNL A   1      40.803  22.021  27.305  1.00  0.00    -0.269 OA
BRANCH  31  34
ATOM     34  C   UNL A   1      40.143  24.238  27.716  1.00  0.00     0.039 A 
ATOM     35  C   UNL A   1      39.094  25.142  27.908  1.00  0.00     0.014 A 
ATOM     36  C   UNL A   1      41.444  24.604  28.034  1.00  0.00     0.014 A 
ATOM     37  C   UNL A   1      39.385  26.388  28.466  1.00  0.00     0.010 A 
ATOM     38  C   UNL A   1      41.677  25.684  28.828  1.00  0.00     0.010 A 
ATOM     39  C   UNL A   1      40.687  26.641  28.924  1.00  0.00    -0.014 A 
BRANCH  39  40
ATOM     40  C   UNL A   1      41.080  27.877  29.572  1.00  0.00     0.031 A 
ATOM     41  C   UNL A   1      42.072  28.658  28.813  1.00  0.00     0.074 A 
ATOM     42  C   UNL A   1      40.422  28.397  30.632  1.00  0.00     0.049 A 
ATOM     43  N   UNL A   1      43.339  28.706  29.037  1.00  0.00    -0.248 NA
ATOM     44  C   UNL A   1      41.667  29.292  27.549  1.00  0.00     0.031 C 
ATOM     45  C   UNL A   1      39.211  27.906  31.302  1.00  0.00     0.029 A 
ATOM     46  N   UNL A   1      40.660  29.568  31.277  1.00  0.00    -0.354 N 
ATOM     47  C   UNL A   1      43.853  29.600  28.112  1.00  0.00     0.074 A 
ATOM     48  C   UNL A   1      42.848  29.713  27.089  1.00  0.00     0.031 C 
ATOM     49  C   UNL A   1      38.708  28.877  32.098  1.00  0.00     0.029 A 
ATOM     50  C   UNL A   1      39.637  29.995  32.118  1.00  0.00     0.049 A 
ATOM     51  H   UNL A   1      41.494  30.076  31.157  1.00  0.00     0.167 HD
ATOM     52  C   UNL A   1      44.942  30.359  28.418  1.00  0.00     0.034 A 
ATOM     53  C   UNL A   1      39.560  31.195  32.757  1.00  0.00     0.034 A 
ATOM     54  C   UNL A   1      45.535  29.916  29.667  1.00  0.00     0.049 A 
ATOM     55  C   UNL A   1      40.960  31.688  32.875  1.00  0.00     0.074 A 
ATOM     56  C   UNL A   1      46.049  28.714  30.119  1.00  0.00     0.029 A 
ATOM     57  N   UNL A   1      45.254  30.646  30.805  1.00  0.00    -0.354 N 
ATOM     58  N   UNL A   1      41.872  31.071  33.581  1.00  0.00    -0.248 NA
ATOM     59  C   UNL A   1      41.482  32.533  31.809  1.00  0.00     0.031 C 
ATOM     60  C   UNL A   1      45.563  28.590  31.455  1.00  0.00     0.029 A 
ATOM     61  C   UNL A   1      44.875  29.760  31.785  1.00  0.00     0.049 A 
ATOM     62  H   UNL A   1      45.316  31.625  30.897  1.00  0.00     0.167 HD
ATOM     63  C   UNL A   1      43.009  31.076  32.785  1.00  0.00     0.074 A 
ATOM     64  C   UNL A   1      42.740  32.079  31.753  1.00  0.00     0.031 C 
ATOM     65  C   UNL A   1      43.932  30.067  32.848  1.00  0.00     0.034 A 
BRANCH  52  66
ATOM     66  C   UNL A   1      45.273  31.711  27.833  1.00  0.00     0.023 A 
ATOM     67  C   UNL A   1      44.759  32.830  28.514  1.00  0.00     0.031 A 
ATOM     68  C   UNL A   1      45.803  31.964  26.549  1.00  0.00     0.131 A 
ATOM     69  C   UNL A   1      44.666  34.081  27.887  1.00  0.00     0.055 A 
ATOM     70  C   UNL A   1      45.775  33.231  25.955  1.00  0.00     0.041 A 
ATOM     71  F   UNL A   1      46.292  31.004  25.758  1.00  0.00    -0.206 F 
ATOM     72  C   UNL A   1      45.171  34.290  26.608  1.00  0.00     0.022 A 
BRANCH  69  73
ATOM     73  S   UNL A   1      43.701  35.373  28.707  1.00  0.00     0.124 S 
ATOM     74  O   UNL A   1      42.337  34.920  28.456  1.00  0.00    -0.237 OA
ATOM     75  O   UNL A   1      44.172  35.269  30.084  1.00  0.00    -0.237 OA
ATOM     76  O   UNL A   1      44.096  36.589  28.001  1.00  0.00    -0.744 OA
ENDBRANCH  69  73
ENDBRANCH  52  66
BRANCH  53  77
ATOM     77  C   UNL A   1      38.347  32.049  32.946  1.00  0.00     0.023 A 
ATOM     78  C   UNL A   1      37.559  32.521  31.871  1.00  0.00     0.031 A 
ATOM     79  C   UNL A   1      37.798  32.211  34.240  1.00  0.00     0.131 A 
ATOM     80  C   UNL A   1      36.291  33.112  32.114  1.00  0.00     0.055 A 
ATOM     81  C   UNL A   1      36.549  32.793  34.473  1.00  0.00     0.041 A 
ATOM     82  F   UNL A   1      38.418  31.725  35.327  1.00  0.00    -0.206 F 
ATOM     83  C   UNL A   1      35.784  33.237  33.409  1.00  0.00     0.022 A 
BRANCH  80  84
ATOM     84  S   UNL A   1      35.222  33.641  30.733  1.00  0.00     0.124 S 
ATOM     85  O   UNL A   1      36.162  33.706  29.621  1.00  0.00    -0.237 OA
ATOM     86  O   UNL A   1      34.223  32.580  30.681  1.00  0.00    -0.237 OA
ATOM     87  O   UNL A   1      34.708  34.938  31.178  1.00  0.00    -0.744 OA
ENDBRANCH  80  84
ENDBRANCH  53  77
BRANCH  65  88
ATOM     88  C   UNL A   1      43.848  29.069  33.991  1.00  0.00     0.023 A 
ATOM     89  C   UNL A   1      42.814  28.119  34.172  1.00  0.00     0.031 A 
ATOM     90  C   UNL A   1      44.951  28.997  34.862  1.00  0.00     0.131 A 
ATOM     91  C   UNL A   1      42.911  27.154  35.196  1.00  0.00     0.055 A 
ATOM     92  C   UNL A   1      45.055  28.025  35.856  1.00  0.00     0.041 A 
ATOM     93  F   UNL A   1      45.978  29.854  34.731  1.00  0.00    -0.206 F 
ATOM     94  C   UNL A   1      44.032  27.102  36.030  1.00  0.00     0.022 A 
BRANCH  91  95
ATOM     95  S   UNL A   1      41.568  25.952  35.480  1.00  0.00     0.124 S 
ATOM     96  O   UNL A   1      42.202  24.665  35.218  1.00  0.00    -0.237 OA
ATOM     97  O   UNL A   1      41.198  26.212  36.868  1.00  0.00    -0.237 OA
ATOM     98  O   UNL A   1      40.553  26.340  34.498  1.00  0.00    -0.744 OA
ENDBRANCH  91  95
ENDBRANCH  65  88
ENDBRANCH  39  40
ENDBRANCH  31  34
ENDBRANCH  29  30
ENDBRANCH  28  29
ENDBRANCH   1  28
TORSDOF 20
ENDMDL
