MODEL 1
REMARK VINA RESULT:     -11.2      0.000      0.000
REMARK SMILES Cc1nc2scc(C)n2c1CNc1ccc(C(=O)NCCCCCCNC(=O)c2ccc(-c3c4nc(c(-c5cc(S(=O)(=O)[O-])ccc5F)c5ccc([nH]5)c(-c5cc(S(=O)(=O)[O-])ccc5F)c5nc(c(-c6cc(S(=O)(=O)[O-])ccc6F)c6ccc3[nH]6)C=C5)C=C4)cc2)cc1
REMARK SMILES IDX 22 1 21 2 20 3 19 4 17 5 18 6 16 8 13 9 14 10 93 11 15 12
REMARK SMILES IDX 92 13 12 14 11 16 10 17 1 18 2 19 3 20 4 21 9 22 5 23 7 24
REMARK SMILES IDX 6 25 8 26 23 27 24 28 25 29 26 30 27 31 28 33 29 34 30 35
REMARK SMILES IDX 91 36 31 37 90 38 32 39 33 40 34 41 84 42 35 43 89 44 83 45
REMARK SMILES IDX 85 46 36 47 88 48 82 49 81 50 37 52 69 53 49 54 68 55 50 56
REMARK SMILES IDX 53 57 67 58 86 59 51 60 52 61 66 63 87 64 54 65 38 66 39 67
REMARK SMILES IDX 47 68 40 69 46 70 48 71 45 72 41 73 42 74 43 75 44 76 70 77
REMARK SMILES IDX 71 78 79 79 72 80 78 81 80 82 77 83 73 84 74 85 75 86 76 87
REMARK SMILES IDX 55 88 56 89 64 90 57 91 63 92 65 93 62 94 58 95 59 96 60 97
REMARK SMILES IDX 61 98
REMARK H PARENT 19 7 12 15 26 32 85 51 53 62
REMARK Flexibility Score: inf
ROOT
ATOM      1  C   UNL A   1      40.785  23.111  26.906  1.00  0.00     0.002 C 
ENDROOT
BRANCH   1   2
ATOM      2  C   UNL A   1      39.355  23.545  27.253  1.00  0.00     0.021 C 
BRANCH   2   3
ATOM      3  C   UNL A   1      38.383  23.409  26.079  1.00  0.00     0.116 C 
BRANCH   3   4
ATOM      4  N   UNL A   1      38.421  22.059  25.553  1.00  0.00    -0.352 N 
ATOM      5  C   UNL A   1      37.485  21.264  24.946  1.00  0.00     0.251 C 
ATOM      6  O   UNL A   1      37.843  20.133  24.607  1.00  0.00    -0.269 OA
ATOM      7  H   UNL A   1      39.300  21.625  25.651  1.00  0.00     0.163 HD
BRANCH   5   8
ATOM      8  C   UNL A   1      36.110  21.721  24.594  1.00  0.00     0.039 A 
ATOM      9  C   UNL A   1      33.419  22.238  23.869  1.00  0.00     0.034 A 
ATOM     10  C   UNL A   1      33.724  21.357  24.908  1.00  0.00     0.026 A 
ATOM     11  C   UNL A   1      34.473  22.926  23.266  1.00  0.00     0.026 A 
ATOM     12  C   UNL A   1      35.051  21.083  25.251  1.00  0.00     0.016 A 
ATOM     13  C   UNL A   1      35.801  22.712  23.663  1.00  0.00     0.016 A 
BRANCH   9  14
ATOM     14  N   UNL A   1      32.123  22.298  23.404  1.00  0.00    -0.379 N 
ATOM     15  H   UNL A   1      31.698  21.474  23.069  1.00  0.00     0.160 HD
BRANCH  14  16
ATOM     16  C   UNL A   1      31.364  23.531  23.392  1.00  0.00     0.169 C 
BRANCH  16  17
ATOM     17  C   UNL A   1      31.516  24.303  24.652  1.00  0.00     0.066 A 
ATOM     18  C   UNL A   1      30.325  22.833  26.440  1.00  0.00     0.069 C 
ATOM     19  C   UNL A   1      31.074  24.013  25.945  1.00  0.00     0.062 A 
ATOM     20  N   UNL A   1      31.406  25.018  26.830  1.00  0.00    -0.224 NA
ATOM     21  C   UNL A   1      32.033  25.882  26.086  1.00  0.00     0.194 A 
ATOM     22  N   UNL A   1      32.158  25.519  24.771  1.00  0.00    -0.290 N 
ATOM     23  S   UNL A   1      32.771  27.416  26.415  1.00  0.00    -0.105 S 
ATOM     24  C   UNL A   1      32.856  26.438  23.991  1.00  0.00     0.032 A 
ATOM     25  C   UNL A   1      33.248  27.501  24.723  1.00  0.00     0.090 A 
ATOM     26  C   UNL A   1      33.168  26.285  22.546  1.00  0.00     0.066 C 
ENDBRANCH  16  17
ENDBRANCH  14  16
ENDBRANCH   9  14
ENDBRANCH   5   8
ENDBRANCH   3   4
ENDBRANCH   2   3
ENDBRANCH   1   2
BRANCH   1  27
ATOM     27  C   UNL A   1      41.480  22.233  27.959  1.00  0.00     0.002 C 
BRANCH  27  28
ATOM     28  C   UNL A   1      42.090  20.924  27.440  1.00  0.00     0.021 C 
BRANCH  28  29
ATOM     29  C   UNL A   1      42.047  20.792  25.923  1.00  0.00     0.116 C 
BRANCH  29  30
ATOM     30  N   UNL A   1      43.357  20.457  25.375  1.00  0.00    -0.352 N 
ATOM     31  C   UNL A   1      44.373  21.307  25.004  1.00  0.00     0.251 C 
ATOM     32  H   UNL A   1      43.537  19.496  25.256  1.00  0.00     0.163 HD
ATOM     33  O   UNL A   1      45.220  20.925  24.194  1.00  0.00    -0.269 OA
BRANCH  31  34
ATOM     34  C   UNL A   1      44.435  22.665  25.573  1.00  0.00     0.039 A 
ATOM     35  C   UNL A   1      43.758  23.721  24.959  1.00  0.00     0.014 A 
ATOM     36  C   UNL A   1      45.184  22.884  26.730  1.00  0.00     0.014 A 
ATOM     37  C   UNL A   1      43.775  24.974  25.566  1.00  0.00     0.010 A 
ATOM     38  C   UNL A   1      45.108  24.092  27.389  1.00  0.00     0.010 A 
ATOM     39  C   UNL A   1      44.427  25.151  26.802  1.00  0.00    -0.014 A 
BRANCH  39  40
ATOM     40  C   UNL A   1      44.215  26.379  27.573  1.00  0.00     0.031 A 
ATOM     41  C   UNL A   1      45.262  27.403  27.321  1.00  0.00     0.074 A 
ATOM     42  C   UNL A   1      43.106  26.676  28.287  1.00  0.00     0.049 A 
ATOM     43  N   UNL A   1      46.224  27.740  28.113  1.00  0.00    -0.248 NA
ATOM     44  C   UNL A   1      45.390  27.966  25.966  1.00  0.00     0.031 C 
ATOM     45  C   UNL A   1      41.881  25.881  28.410  1.00  0.00     0.029 A 
ATOM     46  N   UNL A   1      42.795  27.807  28.990  1.00  0.00    -0.354 N 
ATOM     47  C   UNL A   1      46.886  28.779  27.473  1.00  0.00     0.074 A 
ATOM     48  C   UNL A   1      46.506  28.691  26.090  1.00  0.00     0.031 C 
ATOM     49  C   UNL A   1      40.895  26.637  28.947  1.00  0.00     0.029 A 
ATOM     50  C   UNL A   1      41.449  27.918  29.353  1.00  0.00     0.049 A 
ATOM     51  H   UNL A   1      43.465  28.490  29.222  1.00  0.00     0.167 HD
ATOM     52  C   UNL A   1      47.421  29.800  28.199  1.00  0.00     0.034 A 
ATOM     53  C   UNL A   1      40.823  28.976  29.943  1.00  0.00     0.034 A 
ATOM     54  C   UNL A   1      47.567  29.418  29.591  1.00  0.00     0.049 A 
ATOM     55  C   UNL A   1      41.872  29.749  30.647  1.00  0.00     0.074 A 
ATOM     56  C   UNL A   1      48.171  28.360  30.247  1.00  0.00     0.029 A 
ATOM     57  N   UNL A   1      46.686  29.956  30.506  1.00  0.00    -0.354 N 
ATOM     58  N   UNL A   1      42.536  29.282  31.667  1.00  0.00    -0.248 NA
ATOM     59  C   UNL A   1      42.521  30.835  29.930  1.00  0.00     0.031 C 
ATOM     60  C   UNL A   1      47.265  28.010  31.293  1.00  0.00     0.029 A 
ATOM     61  C   UNL A   1      46.218  28.933  31.293  1.00  0.00     0.049 A 
ATOM     62  H   UNL A   1      46.437  30.905  30.580  1.00  0.00     0.167 HD
ATOM     63  C   UNL A   1      43.847  29.667  31.440  1.00  0.00     0.074 A 
ATOM     64  C   UNL A   1      43.758  30.712  30.420  1.00  0.00     0.031 C 
ATOM     65  C   UNL A   1      44.892  28.904  31.884  1.00  0.00     0.034 A 
BRANCH  52  66
ATOM     66  C   UNL A   1      47.402  31.253  27.762  1.00  0.00     0.023 A 
ATOM     67  C   UNL A   1      46.161  31.775  27.349  1.00  0.00     0.031 A 
ATOM     68  C   UNL A   1      48.533  32.039  27.434  1.00  0.00     0.131 A 
ATOM     69  C   UNL A   1      46.093  32.925  26.545  1.00  0.00     0.055 A 
ATOM     70  C   UNL A   1      48.450  33.223  26.696  1.00  0.00     0.041 A 
ATOM     71  F   UNL A   1      49.787  31.675  27.722  1.00  0.00    -0.206 F 
ATOM     72  C   UNL A   1      47.230  33.654  26.213  1.00  0.00     0.022 A 
BRANCH  69  73
ATOM     73  S   UNL A   1      44.505  33.335  25.780  1.00  0.00     0.124 S 
ATOM     74  O   UNL A   1      43.928  34.224  26.781  1.00  0.00    -0.237 OA
ATOM     75  O   UNL A   1      44.927  33.956  24.529  1.00  0.00    -0.237 OA
ATOM     76  O   UNL A   1      43.853  32.034  25.643  1.00  0.00    -0.744 OA
ENDBRANCH  69  73
ENDBRANCH  52  66
BRANCH  53  77
ATOM     77  C   UNL A   1      39.444  29.503  29.710  1.00  0.00     0.023 A 
ATOM     78  C   UNL A   1      38.659  30.101  30.725  1.00  0.00     0.031 A 
ATOM     79  C   UNL A   1      38.982  29.664  28.385  1.00  0.00     0.131 A 
ATOM     80  C   UNL A   1      37.486  30.827  30.394  1.00  0.00     0.055 A 
ATOM     81  C   UNL A   1      37.827  30.382  28.065  1.00  0.00     0.041 A 
ATOM     82  F   UNL A   1      39.691  29.206  27.342  1.00  0.00    -0.206 F 
ATOM     83  C   UNL A   1      37.080  30.978  29.068  1.00  0.00     0.022 A 
BRANCH  80  84
ATOM     84  S   UNL A   1      36.509  31.680  31.681  1.00  0.00     0.124 S 
ATOM     85  O   UNL A   1      36.495  30.703  32.763  1.00  0.00    -0.237 OA
ATOM     86  O   UNL A   1      37.281  32.895  31.911  1.00  0.00    -0.237 OA
ATOM     87  O   UNL A   1      35.211  31.898  31.038  1.00  0.00    -0.744 OA
ENDBRANCH  80  84
ENDBRANCH  53  77
BRANCH  65  88
ATOM     88  C   UNL A   1      44.616  27.838  32.931  1.00  0.00     0.023 A 
ATOM     89  C   UNL A   1      44.560  26.444  32.695  1.00  0.00     0.031 A 
ATOM     90  C   UNL A   1      44.486  28.275  34.262  1.00  0.00     0.131 A 
ATOM     91  C   UNL A   1      44.360  25.554  33.771  1.00  0.00     0.055 A 
ATOM     92  C   UNL A   1      44.314  27.391  35.326  1.00  0.00     0.041 A 
ATOM     93  F   UNL A   1      44.549  29.584  34.559  1.00  0.00    -0.206 F 
ATOM     94  C   UNL A   1      44.242  26.026  35.083  1.00  0.00     0.022 A 
BRANCH  91  95
ATOM     95  S   UNL A   1      44.212  23.757  33.488  1.00  0.00     0.124 S 
ATOM     96  O   UNL A   1      43.039  23.382  34.267  1.00  0.00    -0.237 OA
ATOM     97  O   UNL A   1      44.066  23.678  32.037  1.00  0.00    -0.237 OA
ATOM     98  O   UNL A   1      45.478  23.227  33.998  1.00  0.00    -0.744 OA
ENDBRANCH  91  95
ENDBRANCH  65  88
ENDBRANCH  39  40
ENDBRANCH  31  34
ENDBRANCH  29  30
ENDBRANCH  28  29
ENDBRANCH  27  28
ENDBRANCH   1  27
TORSDOF 19
ENDMDL
MODEL 2
REMARK VINA RESULT:     -11.1      2.691      8.902
REMARK SMILES Cc1nc2scc(C)n2c1CNc1ccc(C(=O)NCCCCCCNC(=O)c2ccc(-c3c4nc(c(-c5cc(S(=O)(=O)[O-])ccc5F)c5ccc([nH]5)c(-c5cc(S(=O)(=O)[O-])ccc5F)c5nc(c(-c6cc(S(=O)(=O)[O-])ccc6F)c6ccc3[nH]6)C=C5)C=C4)cc2)cc1
REMARK SMILES IDX 22 1 21 2 20 3 19 4 17 5 18 6 16 8 13 9 14 10 93 11 15 12
REMARK SMILES IDX 92 13 12 14 11 16 10 17 1 18 2 19 3 20 4 21 9 22 5 23 7 24
REMARK SMILES IDX 6 25 8 26 23 27 24 28 25 29 26 30 27 31 28 33 29 34 30 35
REMARK SMILES IDX 91 36 31 37 90 38 32 39 33 40 34 41 84 42 35 43 89 44 83 45
REMARK SMILES IDX 85 46 36 47 88 48 82 49 81 50 37 52 69 53 49 54 68 55 50 56
REMARK SMILES IDX 53 57 67 58 86 59 51 60 52 61 66 63 87 64 54 65 38 66 39 67
REMARK SMILES IDX 47 68 40 69 46 70 48 71 45 72 41 73 42 74 43 75 44 76 70 77
REMARK SMILES IDX 71 78 79 79 72 80 78 81 80 82 77 83 73 84 74 85 75 86 76 87
REMARK SMILES IDX 55 88 56 89 64 90 57 91 63 92 65 93 62 94 58 95 59 96 60 97
REMARK SMILES IDX 61 98
REMARK H PARENT 19 7 12 15 26 32 85 51 53 62
REMARK Flexibility Score: inf
ROOT
ATOM      1  C   UNL A   1      33.304  28.518  27.012  1.00  0.00     0.002 C 
ENDROOT
BRANCH   1   2
ATOM      2  C   UNL A   1      31.984  29.281  26.840  1.00  0.00     0.021 C 
BRANCH   2   3
ATOM      3  C   UNL A   1      31.497  29.320  25.390  1.00  0.00     0.116 C 
BRANCH   3   4
ATOM      4  N   UNL A   1      32.586  29.684  24.506  1.00  0.00    -0.352 N 
ATOM      5  C   UNL A   1      33.336  28.977  23.604  1.00  0.00     0.251 C 
ATOM      6  O   UNL A   1      34.213  29.594  22.995  1.00  0.00    -0.269 OA
ATOM      7  H   UNL A   1      32.840  30.634  24.567  1.00  0.00     0.163 HD
BRANCH   5   8
ATOM      8  C   UNL A   1      33.088  27.547  23.258  1.00  0.00     0.039 A 
ATOM      9  C   UNL A   1      32.279  24.882  22.734  1.00  0.00     0.034 A 
ATOM     10  C   UNL A   1      31.561  25.962  22.218  1.00  0.00     0.026 A 
ATOM     11  C   UNL A   1      33.457  25.154  23.432  1.00  0.00     0.026 A 
ATOM     12  C   UNL A   1      31.944  27.277  22.496  1.00  0.00     0.016 A 
ATOM     13  C   UNL A   1      33.887  26.472  23.643  1.00  0.00     0.016 A 
BRANCH   9  14
ATOM     14  N   UNL A   1      31.738  23.617  22.643  1.00  0.00    -0.379 N 
ATOM     15  H   UNL A   1      32.012  23.034  21.898  1.00  0.00     0.160 HD
BRANCH  14  16
ATOM     16  C   UNL A   1      30.782  23.117  23.608  1.00  0.00     0.169 C 
BRANCH  16  17
ATOM     17  C   UNL A   1      31.235  23.308  25.009  1.00  0.00     0.066 A 
ATOM     18  C   UNL A   1      29.928  25.411  25.814  1.00  0.00     0.069 C 
ATOM     19  C   UNL A   1      30.879  24.280  25.947  1.00  0.00     0.062 A 
ATOM     20  N   UNL A   1      31.558  24.109  27.136  1.00  0.00    -0.224 NA
ATOM     21  C   UNL A   1      32.296  23.061  26.915  1.00  0.00     0.194 A 
ATOM     22  N   UNL A   1      32.146  22.509  25.671  1.00  0.00    -0.290 N 
ATOM     23  S   UNL A   1      33.437  22.188  27.886  1.00  0.00    -0.105 S 
ATOM     24  C   UNL A   1      32.920  21.370  25.457  1.00  0.00     0.032 A 
ATOM     25  C   UNL A   1      33.660  21.072  26.544  1.00  0.00     0.090 A 
ATOM     26  C   UNL A   1      32.930  20.553  24.215  1.00  0.00     0.066 C 
ENDBRANCH  16  17
ENDBRANCH  14  16
ENDBRANCH   9  14
ENDBRANCH   5   8
ENDBRANCH   3   4
ENDBRANCH   2   3
ENDBRANCH   1   2
BRANCH   1  27
ATOM     27  C   UNL A   1      34.481  29.351  27.543  1.00  0.00     0.002 C 
BRANCH  27  28
ATOM     28  C   UNL A   1      34.319  30.875  27.445  1.00  0.00     0.021 C 
BRANCH  28  29
ATOM     29  C   UNL A   1      34.808  31.618  28.681  1.00  0.00     0.116 C 
BRANCH  29  30
ATOM     30  N   UNL A   1      35.636  32.766  28.326  1.00  0.00    -0.352 N 
ATOM     31  C   UNL A   1      36.934  33.033  28.696  1.00  0.00     0.251 C 
ATOM     32  H   UNL A   1      35.210  33.436  27.743  1.00  0.00     0.163 HD
ATOM     33  O   UNL A   1      37.347  34.194  28.675  1.00  0.00    -0.269 OA
BRANCH  31  34
ATOM     34  C   UNL A   1      37.815  31.930  29.119  1.00  0.00     0.039 A 
ATOM     35  C   UNL A   1      37.794  30.707  28.446  1.00  0.00     0.014 A 
ATOM     36  C   UNL A   1      38.668  32.122  30.208  1.00  0.00     0.014 A 
ATOM     37  C   UNL A   1      38.694  29.714  28.824  1.00  0.00     0.010 A 
ATOM     38  C   UNL A   1      39.633  31.184  30.508  1.00  0.00     0.010 A 
ATOM     39  C   UNL A   1      39.637  29.966  29.838  1.00  0.00    -0.014 A 
BRANCH  39  40
ATOM     40  C   UNL A   1      40.753  29.041  30.047  1.00  0.00     0.031 A 
ATOM     41  C   UNL A   1      40.975  28.723  31.482  1.00  0.00     0.074 A 
ATOM     42  C   UNL A   1      41.407  28.367  29.074  1.00  0.00     0.049 A 
ATOM     43  N   UNL A   1      41.930  29.157  32.234  1.00  0.00    -0.248 NA
ATOM     44  C   UNL A   1      39.913  28.021  32.224  1.00  0.00     0.031 C 
ATOM     45  C   UNL A   1      41.125  28.372  27.636  1.00  0.00     0.029 A 
ATOM     46  N   UNL A   1      42.416  27.449  29.172  1.00  0.00    -0.354 N 
ATOM     47  C   UNL A   1      41.753  28.527  33.459  1.00  0.00     0.074 A 
ATOM     48  C   UNL A   1      40.391  28.070  33.470  1.00  0.00     0.031 C 
ATOM     49  C   UNL A   1      41.781  27.354  27.035  1.00  0.00     0.029 A 
ATOM     50  C   UNL A   1      42.654  26.714  28.007  1.00  0.00     0.049 A 
ATOM     51  H   UNL A   1      42.934  27.315  29.999  1.00  0.00     0.167 HD
ATOM     52  C   UNL A   1      42.835  28.163  34.204  1.00  0.00     0.034 A 
ATOM     53  C   UNL A   1      43.500  25.659  27.837  1.00  0.00     0.034 A 
ATOM     54  C   UNL A   1      44.021  28.876  33.768  1.00  0.00     0.049 A 
ATOM     55  C   UNL A   1      44.530  25.768  28.896  1.00  0.00     0.074 A 
ATOM     56  C   UNL A   1      44.337  30.210  33.585  1.00  0.00     0.029 A 
ATOM     57  N   UNL A   1      44.967  28.178  33.048  1.00  0.00    -0.354 N 
ATOM     58  N   UNL A   1      45.393  26.743  28.951  1.00  0.00    -0.248 NA
ATOM     59  C   UNL A   1      44.296  25.076  30.153  1.00  0.00     0.031 C 
ATOM     60  C   UNL A   1      45.102  30.247  32.381  1.00  0.00     0.029 A 
ATOM     61  C   UNL A   1      45.307  28.934  31.953  1.00  0.00     0.049 A 
ATOM     62  H   UNL A   1      45.334  27.294  33.277  1.00  0.00     0.167 HD
ATOM     63  C   UNL A   1      45.448  27.090  30.291  1.00  0.00     0.074 A 
ATOM     64  C   UNL A   1      44.841  25.960  30.994  1.00  0.00     0.031 C 
ATOM     65  C   UNL A   1      45.712  28.375  30.675  1.00  0.00     0.034 A 
BRANCH  52  66
ATOM     66  C   UNL A   1      42.918  26.878  35.006  1.00  0.00     0.023 A 
ATOM     67  C   UNL A   1      43.698  25.840  34.462  1.00  0.00     0.031 A 
ATOM     68  C   UNL A   1      42.061  26.504  36.069  1.00  0.00     0.131 A 
ATOM     69  C   UNL A   1      43.515  24.509  34.871  1.00  0.00     0.055 A 
ATOM     70  C   UNL A   1      41.938  25.187  36.520  1.00  0.00     0.041 A 
ATOM     71  F   UNL A   1      41.229  27.356  36.675  1.00  0.00    -0.206 F 
ATOM     72  C   UNL A   1      42.638  24.172  35.897  1.00  0.00     0.022 A 
BRANCH  69  73
ATOM     73  S   UNL A   1      44.305  23.204  33.896  1.00  0.00     0.124 S 
ATOM     74  O   UNL A   1      45.572  23.837  33.549  1.00  0.00    -0.237 OA
ATOM     75  O   UNL A   1      44.371  22.110  34.859  1.00  0.00    -0.237 OA
ATOM     76  O   UNL A   1      43.375  23.005  32.787  1.00  0.00    -0.744 OA
ENDBRANCH  69  73
ENDBRANCH  52  66
BRANCH  53  77
ATOM     77  C   UNL A   1      43.318  24.431  27.004  1.00  0.00     0.023 A 
ATOM     78  C   UNL A   1      44.266  23.996  26.045  1.00  0.00     0.031 A 
ATOM     79  C   UNL A   1      42.305  23.510  27.345  1.00  0.00     0.131 A 
ATOM     80  C   UNL A   1      44.179  22.694  25.489  1.00  0.00     0.055 A 
ATOM     81  C   UNL A   1      42.226  22.227  26.795  1.00  0.00     0.041 A 
ATOM     82  F   UNL A   1      41.404  23.790  28.299  1.00  0.00    -0.206 F 
ATOM     83  C   UNL A   1      43.172  21.808  25.874  1.00  0.00     0.022 A 
BRANCH  80  84
ATOM     84  S   UNL A   1      45.442  22.081  24.319  1.00  0.00     0.124 S 
ATOM     85  O   UNL A   1      46.259  21.218  25.164  1.00  0.00    -0.237 OA
ATOM     86  O   UNL A   1      44.636  21.419  23.300  1.00  0.00    -0.237 OA
ATOM     87  O   UNL A   1      46.111  23.303  23.865  1.00  0.00    -0.744 OA
ENDBRANCH  80  84
ENDBRANCH  53  77
BRANCH  65  88
ATOM     88  C   UNL A   1      46.300  29.331  29.649  1.00  0.00     0.023 A 
ATOM     89  C   UNL A   1      45.564  30.235  28.847  1.00  0.00     0.031 A 
ATOM     90  C   UNL A   1      47.702  29.373  29.553  1.00  0.00     0.131 A 
ATOM     91  C   UNL A   1      46.240  31.118  27.978  1.00  0.00     0.055 A 
ATOM     92  C   UNL A   1      48.367  30.264  28.712  1.00  0.00     0.041 A 
ATOM     93  F   UNL A   1      48.462  28.555  30.301  1.00  0.00    -0.206 F 
ATOM     94  C   UNL A   1      47.637  31.135  27.914  1.00  0.00     0.022 A 
BRANCH  91  95
ATOM     95  S   UNL A   1      45.316  32.244  26.879  1.00  0.00     0.124 S 
ATOM     96  O   UNL A   1      43.943  32.142  27.359  1.00  0.00    -0.237 OA
ATOM     97  O   UNL A   1      45.980  33.524  27.110  1.00  0.00    -0.237 OA
ATOM     98  O   UNL A   1      45.539  31.678  25.547  1.00  0.00    -0.744 OA
ENDBRANCH  91  95
ENDBRANCH  65  88
ENDBRANCH  39  40
ENDBRANCH  31  34
ENDBRANCH  29  30
ENDBRANCH  28  29
ENDBRANCH  27  28
ENDBRANCH   1  27
TORSDOF 19
ENDMDL
MODEL 3
REMARK VINA RESULT:     -10.7      4.306      9.910
REMARK SMILES Cc1nc2scc(C)n2c1CNc1ccc(C(=O)NCCCCCCNC(=O)c2ccc(-c3c4nc(c(-c5cc(S(=O)(=O)[O-])ccc5F)c5ccc([nH]5)c(-c5cc(S(=O)(=O)[O-])ccc5F)c5nc(c(-c6cc(S(=O)(=O)[O-])ccc6F)c6ccc3[nH]6)C=C5)C=C4)cc2)cc1
REMARK SMILES IDX 22 1 21 2 20 3 19 4 17 5 18 6 16 8 13 9 14 10 93 11 15 12
REMARK SMILES IDX 92 13 12 14 11 16 10 17 1 18 2 19 3 20 4 21 9 22 5 23 7 24
REMARK SMILES IDX 6 25 8 26 23 27 24 28 25 29 26 30 27 31 28 33 29 34 30 35
REMARK SMILES IDX 91 36 31 37 90 38 32 39 33 40 34 41 84 42 35 43 89 44 83 45
REMARK SMILES IDX 85 46 36 47 88 48 82 49 81 50 37 52 69 53 49 54 68 55 50 56
REMARK SMILES IDX 53 57 67 58 86 59 51 60 52 61 66 63 87 64 54 65 38 66 39 67
REMARK SMILES IDX 47 68 40 69 46 70 48 71 45 72 41 73 42 74 43 75 44 76 70 77
REMARK SMILES IDX 71 78 79 79 72 80 78 81 80 82 77 83 73 84 74 85 75 86 76 87
REMARK SMILES IDX 55 88 56 89 64 90 57 91 63 92 65 93 62 94 58 95 59 96 60 97
REMARK SMILES IDX 61 98
REMARK H PARENT 19 7 12 15 26 32 85 51 53 62
REMARK Flexibility Score: inf
ROOT
ATOM      1  C   UNL A   1      39.142  30.335  32.100  1.00  0.00     0.002 C 
ENDROOT
BRANCH   1   2
ATOM      2  C   UNL A   1      40.528  29.988  32.661  1.00  0.00     0.021 C 
BRANCH   2   3
ATOM      3  C   UNL A   1      40.514  29.698  34.163  1.00  0.00     0.116 C 
BRANCH   3   4
ATOM      4  N   UNL A   1      41.191  30.758  34.883  1.00  0.00    -0.352 N 
ATOM      5  C   UNL A   1      40.902  32.081  35.093  1.00  0.00     0.251 C 
ATOM      6  O   UNL A   1      41.704  32.731  35.766  1.00  0.00    -0.269 OA
ATOM      7  H   UNL A   1      42.031  30.469  35.307  1.00  0.00     0.163 HD
BRANCH   5   8
ATOM      8  C   UNL A   1      39.642  32.737  34.637  1.00  0.00     0.039 A 
ATOM      9  C   UNL A   1      37.134  33.649  33.682  1.00  0.00     0.034 A 
ATOM     10  C   UNL A   1      37.209  32.678  34.682  1.00  0.00     0.026 A 
ATOM     11  C   UNL A   1      38.327  34.223  33.238  1.00  0.00     0.026 A 
ATOM     12  C   UNL A   1      38.445  32.210  35.137  1.00  0.00     0.016 A 
ATOM     13  C   UNL A   1      39.565  33.811  33.751  1.00  0.00     0.016 A 
BRANCH   9  14
ATOM     14  N   UNL A   1      35.914  33.907  33.093  1.00  0.00    -0.379 N 
ATOM     15  H   UNL A   1      35.210  33.220  33.135  1.00  0.00     0.160 HD
BRANCH  14  16
ATOM     16  C   UNL A   1      35.635  35.156  32.417  1.00  0.00     0.169 C 
BRANCH  16  17
ATOM     17  C   UNL A   1      34.579  35.018  31.382  1.00  0.00     0.066 A 
ATOM     18  C   UNL A   1      32.455  36.014  32.510  1.00  0.00     0.069 C 
ATOM     19  C   UNL A   1      33.230  35.377  31.417  1.00  0.00     0.062 A 
ATOM     20  N   UNL A   1      32.587  35.049  30.240  1.00  0.00    -0.224 NA
ATOM     21  C   UNL A   1      33.530  34.514  29.521  1.00  0.00     0.194 A 
ATOM     22  N   UNL A   1      34.758  34.475  30.125  1.00  0.00    -0.290 N 
ATOM     23  S   UNL A   1      33.564  33.840  27.923  1.00  0.00    -0.105 S 
ATOM     24  C   UNL A   1      35.764  33.925  29.333  1.00  0.00     0.032 A 
ATOM     25  C   UNL A   1      35.286  33.542  28.132  1.00  0.00     0.090 A 
ATOM     26  C   UNL A   1      37.193  33.791  29.721  1.00  0.00     0.066 C 
ENDBRANCH  16  17
ENDBRANCH  14  16
ENDBRANCH   9  14
ENDBRANCH   5   8
ENDBRANCH   3   4
ENDBRANCH   2   3
ENDBRANCH   1   2
BRANCH   1  27
ATOM     27  C   UNL A   1      37.995  29.431  32.574  1.00  0.00     0.002 C 
BRANCH  27  28
ATOM     28  C   UNL A   1      36.577  29.958  32.314  1.00  0.00     0.021 C 
BRANCH  28  29
ATOM     29  C   UNL A   1      36.464  30.800  31.049  1.00  0.00     0.116 C 
BRANCH  29  30
ATOM     30  N   UNL A   1      35.850  30.052  29.958  1.00  0.00    -0.352 N 
ATOM     31  C   UNL A   1      36.459  29.463  28.874  1.00  0.00     0.251 C 
ATOM     32  H   UNL A   1      34.871  29.955  30.004  1.00  0.00     0.163 HD
ATOM     33  O   UNL A   1      35.804  29.242  27.853  1.00  0.00    -0.269 OA
BRANCH  31  34
ATOM     34  C   UNL A   1      37.888  29.109  28.942  1.00  0.00     0.039 A 
ATOM     35  C   UNL A   1      38.295  27.922  29.554  1.00  0.00     0.014 A 
ATOM     36  C   UNL A   1      38.830  29.979  28.391  1.00  0.00     0.014 A 
ATOM     37  C   UNL A   1      39.646  27.582  29.531  1.00  0.00     0.010 A 
ATOM     38  C   UNL A   1      40.147  29.590  28.269  1.00  0.00     0.010 A 
ATOM     39  C   UNL A   1      40.569  28.405  28.859  1.00  0.00    -0.014 A 
BRANCH  39  40
ATOM     40  C   UNL A   1      41.926  27.920  28.595  1.00  0.00     0.031 A 
ATOM     41  C   UNL A   1      41.941  26.637  27.845  1.00  0.00     0.074 A 
ATOM     42  C   UNL A   1      43.065  28.619  28.805  1.00  0.00     0.049 A 
ATOM     43  N   UNL A   1      42.221  25.467  28.315  1.00  0.00    -0.248 NA
ATOM     44  C   UNL A   1      41.384  26.607  26.482  1.00  0.00     0.031 C 
ATOM     45  C   UNL A   1      43.193  29.997  29.288  1.00  0.00     0.029 A 
ATOM     46  N   UNL A   1      44.362  28.277  28.542  1.00  0.00    -0.354 N 
ATOM     47  C   UNL A   1      42.174  24.608  27.224  1.00  0.00     0.074 A 
ATOM     48  C   UNL A   1      41.417  25.298  26.217  1.00  0.00     0.031 C 
ATOM     49  C   UNL A   1      44.453  30.442  29.077  1.00  0.00     0.029 A 
ATOM     50  C   UNL A   1      45.268  29.341  28.589  1.00  0.00     0.049 A 
ATOM     51  H   UNL A   1      44.637  27.354  28.336  1.00  0.00     0.167 HD
ATOM     52  C   UNL A   1      43.035  23.556  27.146  1.00  0.00     0.034 A 
ATOM     53  C   UNL A   1      46.591  29.333  28.258  1.00  0.00     0.034 A 
ATOM     54  C   UNL A   1      43.607  23.262  28.446  1.00  0.00     0.049 A 
ATOM     55  C   UNL A   1      47.050  27.930  28.383  1.00  0.00     0.074 A 
ATOM     56  C   UNL A   1      43.081  23.003  29.700  1.00  0.00     0.029 A 
ATOM     57  N   UNL A   1      44.921  23.615  28.671  1.00  0.00    -0.354 N 
ATOM     58  N   UNL A   1      47.099  27.297  29.521  1.00  0.00    -0.248 NA
ATOM     59  C   UNL A   1      46.990  27.081  27.204  1.00  0.00     0.031 C 
ATOM     60  C   UNL A   1      43.928  23.707  30.608  1.00  0.00     0.029 A 
ATOM     61  C   UNL A   1      44.983  24.263  29.881  1.00  0.00     0.049 A 
ATOM     62  H   UNL A   1      45.679  23.436  28.070  1.00  0.00     0.167 HD
ATOM     63  C   UNL A   1      46.608  26.032  29.242  1.00  0.00     0.074 A 
ATOM     64  C   UNL A   1      46.664  25.923  27.784  1.00  0.00     0.031 C 
ATOM     65  C   UNL A   1      45.936  25.313  30.191  1.00  0.00     0.034 A 
BRANCH  52  66
ATOM     66  C   UNL A   1      43.685  23.086  25.857  1.00  0.00     0.023 A 
ATOM     67  C   UNL A   1      43.617  21.708  25.578  1.00  0.00     0.031 A 
ATOM     68  C   UNL A   1      44.604  23.823  25.073  1.00  0.00     0.131 A 
ATOM     69  C   UNL A   1      44.514  21.109  24.676  1.00  0.00     0.055 A 
ATOM     70  C   UNL A   1      45.443  23.230  24.124  1.00  0.00     0.041 A 
ATOM     71  F   UNL A   1      44.818  25.133  25.230  1.00  0.00    -0.206 F 
ATOM     72  C   UNL A   1      45.429  21.860  23.947  1.00  0.00     0.022 A 
BRANCH  69  73
ATOM     73  S   UNL A   1      44.588  19.302  24.627  1.00  0.00     0.124 S 
ATOM     74  O   UNL A   1      45.457  19.022  25.764  1.00  0.00    -0.237 OA
ATOM     75  O   UNL A   1      43.183  18.940  24.782  1.00  0.00    -0.237 OA
ATOM     76  O   UNL A   1      45.163  19.025  23.313  1.00  0.00    -0.744 OA
ENDBRANCH  69  73
ENDBRANCH  52  66
BRANCH  53  77
ATOM     77  C   UNL A   1      47.398  30.395  27.584  1.00  0.00     0.023 A 
ATOM     78  C   UNL A   1      46.829  31.563  27.021  1.00  0.00     0.031 A 
ATOM     79  C   UNL A   1      48.802  30.392  27.731  1.00  0.00     0.131 A 
ATOM     80  C   UNL A   1      47.651  32.657  26.647  1.00  0.00     0.055 A 
ATOM     81  C   UNL A   1      49.608  31.474  27.363  1.00  0.00     0.041 A 
ATOM     82  F   UNL A   1      49.436  29.369  28.325  1.00  0.00    -0.206 F 
ATOM     83  C   UNL A   1      49.034  32.617  26.831  1.00  0.00     0.022 A 
BRANCH  80  84
ATOM     84  S   UNL A   1      46.928  34.206  26.002  1.00  0.00     0.124 S 
ATOM     85  O   UNL A   1      46.812  35.021  27.205  1.00  0.00    -0.237 OA
ATOM     86  O   UNL A   1      47.918  34.633  25.020  1.00  0.00    -0.237 OA
ATOM     87  O   UNL A   1      45.651  33.775  25.429  1.00  0.00    -0.744 OA
ENDBRANCH  80  84
ENDBRANCH  53  77
BRANCH  65  88
ATOM     88  C   UNL A   1      46.048  25.748  31.643  1.00  0.00     0.023 A 
ATOM     89  C   UNL A   1      47.114  25.434  32.519  1.00  0.00     0.031 A 
ATOM     90  C   UNL A   1      45.043  26.604  32.128  1.00  0.00     0.131 A 
ATOM     91  C   UNL A   1      47.129  25.957  33.829  1.00  0.00     0.055 A 
ATOM     92  C   UNL A   1      45.074  27.140  33.415  1.00  0.00     0.041 A 
ATOM     93  F   UNL A   1      44.012  26.959  31.343  1.00  0.00    -0.206 F 
ATOM     94  C   UNL A   1      46.114  26.811  34.274  1.00  0.00     0.022 A 
BRANCH  91  95
ATOM     95  S   UNL A   1      48.453  25.511  35.003  1.00  0.00     0.124 S 
ATOM     96  O   UNL A   1      47.735  24.894  36.112  1.00  0.00    -0.237 OA
ATOM     97  O   UNL A   1      49.291  24.617  34.208  1.00  0.00    -0.237 OA
ATOM     98  O   UNL A   1      49.074  26.799  35.320  1.00  0.00    -0.744 OA
ENDBRANCH  91  95
ENDBRANCH  65  88
ENDBRANCH  39  40
ENDBRANCH  31  34
ENDBRANCH  29  30
ENDBRANCH  28  29
ENDBRANCH  27  28
ENDBRANCH   1  27
TORSDOF 19
ENDMDL
