MODEL 1
REMARK VINA RESULT:     -10.9      0.000      0.000
REMARK SMILES CO[C@@H]1C[C@H](C(=O)NCCCCCCNC(=O)c2ccc(-c3c4nc(c(-c5cc(S(=O)(=O)[O-])ccc5F)c5ccc([nH]5)c(-c5cc(S(=O)(=O)[O-])ccc5F)c5nc(c(-c6cc(S(=O)(=O)[O-])ccc6F)c6ccc3[nH]6)C=C5)C=C4)cc2)N(C(=O)c2ccc([N+](=O)[O-])s2)C1
REMARK SMILES IDX 11 1 10 2 9 3 8 4 6 5 7 6 5 8 3 9 4 10 92 11 81 12 2 13 1 14
REMARK SMILES IDX 82 15 83 16 84 17 85 18 91 19 86 20 87 21 88 22 89 23 90 24
REMARK SMILES IDX 12 25 13 26 14 27 15 28 16 29 17 31 18 32 19 33 80 34 20 35
REMARK SMILES IDX 79 36 21 37 22 38 23 39 73 40 24 41 78 42 72 43 74 44 25 45
REMARK SMILES IDX 77 46 71 47 70 48 26 50 58 51 38 52 57 53 39 54 42 55 56 56
REMARK SMILES IDX 75 57 40 58 41 59 55 61 76 62 43 63 27 64 28 65 36 66 29 67
REMARK SMILES IDX 35 68 37 69 34 70 30 71 31 72 32 73 33 74 59 75 60 76 68 77
REMARK SMILES IDX 61 78 67 79 69 80 66 81 62 82 63 83 64 84 65 85 44 86 45 87
REMARK SMILES IDX 53 88 46 89 52 90 54 91 51 92 47 93 48 94 49 95 50 96
REMARK H PARENT 8 7 15 30 74 49 42 60
REMARK Flexibility Score: inf
ROOT
ATOM      1  C   UNL A   1      31.958  29.728  27.131  1.00  0.00     0.002 C 
ENDROOT
BRANCH   1   2
ATOM      2  C   UNL A   1      33.476  29.688  27.322  1.00  0.00     0.021 C 
BRANCH   2   3
ATOM      3  C   UNL A   1      34.208  28.622  26.495  1.00  0.00     0.116 C 
BRANCH   3   4
ATOM      4  N   UNL A   1      34.176  28.956  25.080  1.00  0.00    -0.354 N 
ATOM      5  C   UNL A   1      33.712  28.328  23.973  1.00  0.00     0.242 C 
ATOM      6  O   UNL A   1      34.073  28.825  22.894  1.00  0.00    -0.273 OA
ATOM      7  H   UNL A   1      34.580  29.831  24.883  1.00  0.00     0.163 HD
BRANCH   5   8
ATOM      8  C   UNL A   1      32.865  27.027  23.917  1.00  0.00     0.177 C 
ATOM      9  C   UNL A   1      30.542  27.499  23.634  1.00  0.00     0.139 C 
ATOM     10  C   UNL A   1      31.556  27.078  24.695  1.00  0.00     0.069 C 
ATOM     11  C   UNL A   1      31.040  26.744  22.377  1.00  0.00     0.152 C 
ATOM     12  N   UNL A   1      32.453  26.449  22.646  1.00  0.00    -0.323 N 
BRANCH   9  13
ATOM     13  O   UNL A   1      30.543  28.909  23.414  1.00  0.00    -0.380 OA
ATOM     14  C   UNL A   1      29.635  29.346  22.404  1.00  0.00     0.195 C 
ENDBRANCH   9  13
BRANCH  12  15
ATOM     15  C   UNL A   1      33.114  25.441  21.951  1.00  0.00     0.264 C 
ATOM     16  O   UNL A   1      33.240  25.482  20.732  1.00  0.00    -0.268 OA
BRANCH  15  17
ATOM     17  C   UNL A   1      33.504  24.274  22.738  1.00  0.00     0.099 A 
ATOM     18  C   UNL A   1      34.733  24.035  23.336  1.00  0.00     0.033 A 
ATOM     19  S   UNL A   1      32.401  23.005  23.045  1.00  0.00    -0.058 S 
ATOM     20  C   UNL A   1      34.800  22.748  23.944  1.00  0.00     0.099 A 
ATOM     21  C   UNL A   1      33.591  22.093  23.855  1.00  0.00     0.324 A 
BRANCH  21  22
ATOM     22  N   UNL A   1      33.304  20.777  24.365  1.00  0.00     0.074 N 
ATOM     23  O   UNL A   1      32.169  20.337  24.132  1.00  0.00    -0.258 OA
ATOM     24  O   UNL A   1      34.189  20.177  24.987  1.00  0.00    -0.258 OA
ENDBRANCH  21  22
ENDBRANCH  15  17
ENDBRANCH  12  15
ENDBRANCH   5   8
ENDBRANCH   3   4
ENDBRANCH   2   3
ENDBRANCH   1   2
BRANCH   1  25
ATOM     25  C   UNL A   1      31.448  30.831  26.202  1.00  0.00     0.002 C 
BRANCH  25  26
ATOM     26  C   UNL A   1      31.375  32.232  26.816  1.00  0.00     0.021 C 
BRANCH  26  27
ATOM     27  C   UNL A   1      32.702  32.986  26.880  1.00  0.00     0.116 C 
BRANCH  27  28
ATOM     28  N   UNL A   1      32.580  34.238  27.611  1.00  0.00    -0.352 N 
ATOM     29  C   UNL A   1      33.216  34.633  28.762  1.00  0.00     0.251 C 
ATOM     30  H   UNL A   1      31.954  34.893  27.226  1.00  0.00     0.163 HD
ATOM     31  O   UNL A   1      32.814  35.615  29.379  1.00  0.00    -0.269 OA
BRANCH  29  32
ATOM     32  C   UNL A   1      34.375  33.861  29.257  1.00  0.00     0.039 A 
ATOM     33  C   UNL A   1      35.666  34.280  28.926  1.00  0.00     0.014 A 
ATOM     34  C   UNL A   1      34.183  32.722  30.045  1.00  0.00     0.014 A 
ATOM     35  C   UNL A   1      36.767  33.586  29.434  1.00  0.00     0.010 A 
ATOM     36  C   UNL A   1      35.281  32.075  30.606  1.00  0.00     0.010 A 
ATOM     37  C   UNL A   1      36.584  32.497  30.303  1.00  0.00    -0.014 A 
BRANCH  37  38
ATOM     38  C   UNL A   1      37.745  31.781  30.893  1.00  0.00     0.031 A 
ATOM     39  C   UNL A   1      38.210  32.118  32.283  1.00  0.00     0.074 A 
ATOM     40  C   UNL A   1      38.409  30.866  30.160  1.00  0.00     0.049 A 
ATOM     41  N   UNL A   1      39.233  31.650  32.953  1.00  0.00    -0.248 NA
ATOM     42  C   UNL A   1      37.436  33.140  33.003  1.00  0.00     0.031 C 
ATOM     43  C   UNL A   1      38.071  30.476  28.791  1.00  0.00     0.029 A 
ATOM     44  N   UNL A   1      39.507  30.099  30.463  1.00  0.00    -0.354 N 
ATOM     45  C   UNL A   1      39.226  32.320  34.172  1.00  0.00     0.074 A 
ATOM     46  C   UNL A   1      38.145  33.281  34.113  1.00  0.00     0.031 C 
ATOM     47  C   UNL A   1      38.920  29.518  28.385  1.00  0.00     0.029 A 
ATOM     48  C   UNL A   1      39.893  29.261  29.443  1.00  0.00     0.049 A 
ATOM     49  H   UNL A   1      39.973  30.144  31.328  1.00  0.00     0.167 HD
ATOM     50  C   UNL A   1      40.029  32.133  35.251  1.00  0.00     0.034 A 
ATOM     51  C   UNL A   1      40.919  28.391  29.365  1.00  0.00     0.034 A 
ATOM     52  C   UNL A   1      41.107  31.173  35.288  1.00  0.00     0.049 A 
ATOM     53  C   UNL A   1      41.838  28.242  30.552  1.00  0.00     0.074 A 
ATOM     54  C   UNL A   1      41.962  30.874  36.334  1.00  0.00     0.029 A 
ATOM     55  N   UNL A   1      41.488  30.362  34.225  1.00  0.00    -0.354 N 
ATOM     56  N   UNL A   1      41.794  28.853  31.713  1.00  0.00    -0.248 NA
ATOM     57  C   UNL A   1      42.937  27.278  30.418  1.00  0.00     0.031 C 
ATOM     58  C   UNL A   1      42.902  29.942  35.882  1.00  0.00     0.029 A 
ATOM     59  C   UNL A   1      42.586  29.591  34.579  1.00  0.00     0.049 A 
ATOM     60  H   UNL A   1      41.043  30.339  33.347  1.00  0.00     0.167 HD
ATOM     61  C   UNL A   1      42.842  28.322  32.460  1.00  0.00     0.074 A 
ATOM     62  C   UNL A   1      43.488  27.332  31.621  1.00  0.00     0.031 C 
ATOM     63  C   UNL A   1      43.231  28.619  33.728  1.00  0.00     0.034 A 
BRANCH  50  64
ATOM     64  C   UNL A   1      39.778  33.007  36.458  1.00  0.00     0.023 A 
ATOM     65  C   UNL A   1      40.508  34.191  36.674  1.00  0.00     0.031 A 
ATOM     66  C   UNL A   1      38.837  32.633  37.434  1.00  0.00     0.131 A 
ATOM     67  C   UNL A   1      40.357  34.900  37.875  1.00  0.00     0.055 A 
ATOM     68  C   UNL A   1      38.623  33.397  38.584  1.00  0.00     0.041 A 
ATOM     69  F   UNL A   1      38.123  31.504  37.298  1.00  0.00    -0.206 F 
ATOM     70  C   UNL A   1      39.400  34.527  38.820  1.00  0.00     0.022 A 
BRANCH  67  71
ATOM     71  S   UNL A   1      41.556  36.207  38.261  1.00  0.00     0.124 S 
ATOM     72  O   UNL A   1      42.419  35.537  39.230  1.00  0.00    -0.237 OA
ATOM     73  O   UNL A   1      42.149  36.484  36.959  1.00  0.00    -0.237 OA
ATOM     74  O   UNL A   1      40.728  37.278  38.812  1.00  0.00    -0.744 OA
ENDBRANCH  67  71
ENDBRANCH  50  64
BRANCH  51  75
ATOM     75  C   UNL A   1      41.137  27.588  28.127  1.00  0.00     0.023 A 
ATOM     76  C   UNL A   1      40.843  26.216  28.098  1.00  0.00     0.031 A 
ATOM     77  C   UNL A   1      41.677  28.171  26.967  1.00  0.00     0.131 A 
ATOM     78  C   UNL A   1      41.130  25.462  26.950  1.00  0.00     0.055 A 
ATOM     79  C   UNL A   1      41.909  27.429  25.808  1.00  0.00     0.041 A 
ATOM     80  F   UNL A   1      41.974  29.481  26.940  1.00  0.00    -0.206 F 
ATOM     81  C   UNL A   1      41.648  26.063  25.799  1.00  0.00     0.022 A 
BRANCH  78  82
ATOM     82  S   UNL A   1      40.894  23.666  27.009  1.00  0.00     0.124 S 
ATOM     83  O   UNL A   1      39.461  23.547  26.760  1.00  0.00    -0.237 OA
ATOM     84  O   UNL A   1      41.772  23.208  25.938  1.00  0.00    -0.237 OA
ATOM     85  O   UNL A   1      41.325  23.311  28.360  1.00  0.00    -0.744 OA
ENDBRANCH  78  82
ENDBRANCH  51  75
BRANCH  63  86
ATOM     86  C   UNL A   1      44.387  27.827  34.294  1.00  0.00     0.023 A 
ATOM     87  C   UNL A   1      44.188  26.649  35.035  1.00  0.00     0.031 A 
ATOM     88  C   UNL A   1      45.707  28.270  34.099  1.00  0.00     0.131 A 
ATOM     89  C   UNL A   1      45.287  25.988  35.604  1.00  0.00     0.055 A 
ATOM     90  C   UNL A   1      46.801  27.571  34.612  1.00  0.00     0.041 A 
ATOM     91  F   UNL A   1      45.958  29.390  33.403  1.00  0.00    -0.206 F 
ATOM     92  C   UNL A   1      46.593  26.431  35.383  1.00  0.00     0.022 A 
BRANCH  89  93
ATOM     93  S   UNL A   1      44.980  24.595  36.725  1.00  0.00     0.124 S 
ATOM     94  O   UNL A   1      46.214  24.554  37.503  1.00  0.00    -0.237 OA
ATOM     95  O   UNL A   1      43.788  25.030  37.446  1.00  0.00    -0.237 OA
ATOM     96  O   UNL A   1      44.778  23.464  35.822  1.00  0.00    -0.744 OA
ENDBRANCH  89  93
ENDBRANCH  63  86
ENDBRANCH  37  38
ENDBRANCH  29  32
ENDBRANCH  27  28
ENDBRANCH  26  27
ENDBRANCH  25  26
ENDBRANCH   1  25
TORSDOF 20
ENDMDL
MODEL 2
REMARK VINA RESULT:     -10.8      2.467      8.154
REMARK SMILES CO[C@@H]1C[C@H](C(=O)NCCCCCCNC(=O)c2ccc(-c3c4nc(c(-c5cc(S(=O)(=O)[O-])ccc5F)c5ccc([nH]5)c(-c5cc(S(=O)(=O)[O-])ccc5F)c5nc(c(-c6cc(S(=O)(=O)[O-])ccc6F)c6ccc3[nH]6)C=C5)C=C4)cc2)N(C(=O)c2ccc([N+](=O)[O-])s2)C1
REMARK SMILES IDX 11 1 10 2 9 3 8 4 6 5 7 6 5 8 3 9 4 10 92 11 81 12 2 13 1 14
REMARK SMILES IDX 82 15 83 16 84 17 85 18 91 19 86 20 87 21 88 22 89 23 90 24
REMARK SMILES IDX 12 25 13 26 14 27 15 28 16 29 17 31 18 32 19 33 80 34 20 35
REMARK SMILES IDX 79 36 21 37 22 38 23 39 73 40 24 41 78 42 72 43 74 44 25 45
REMARK SMILES IDX 77 46 71 47 70 48 26 50 58 51 38 52 57 53 39 54 42 55 56 56
REMARK SMILES IDX 75 57 40 58 41 59 55 61 76 62 43 63 27 64 28 65 36 66 29 67
REMARK SMILES IDX 35 68 37 69 34 70 30 71 31 72 32 73 33 74 59 75 60 76 68 77
REMARK SMILES IDX 61 78 67 79 69 80 66 81 62 82 63 83 64 84 65 85 44 86 45 87
REMARK SMILES IDX 53 88 46 89 52 90 54 91 51 92 47 93 48 94 49 95 50 96
REMARK H PARENT 8 7 15 30 74 49 42 60
REMARK Flexibility Score: inf
ROOT
ATOM      1  C   UNL A   1      33.656  27.112  25.018  1.00  0.00     0.002 C 
ENDROOT
BRANCH   1   2
ATOM      2  C   UNL A   1      32.831  26.097  25.813  1.00  0.00     0.021 C 
BRANCH   2   3
ATOM      3  C   UNL A   1      33.209  24.628  25.580  1.00  0.00     0.116 C 
BRANCH   3   4
ATOM      4  N   UNL A   1      33.640  24.418  24.206  1.00  0.00    -0.354 N 
ATOM      5  C   UNL A   1      34.212  23.383  23.546  1.00  0.00     0.242 C 
ATOM      6  O   UNL A   1      34.651  23.656  22.416  1.00  0.00    -0.273 OA
ATOM      7  H   UNL A   1      33.478  25.198  23.630  1.00  0.00     0.163 HD
BRANCH   5   8
ATOM      8  C   UNL A   1      34.451  21.944  24.079  1.00  0.00     0.177 C 
ATOM      9  C   UNL A   1      35.838  21.943  26.023  1.00  0.00     0.139 C 
ATOM     10  C   UNL A   1      35.879  21.653  24.525  1.00  0.00     0.069 C 
ATOM     11  C   UNL A   1      34.437  21.421  26.426  1.00  0.00     0.152 C 
ATOM     12  N   UNL A   1      33.663  21.405  25.178  1.00  0.00    -0.323 N 
BRANCH   9  13
ATOM     13  O   UNL A   1      35.963  23.336  26.308  1.00  0.00    -0.380 OA
ATOM     14  C   UNL A   1      37.166  23.928  25.823  1.00  0.00     0.195 C 
ENDBRANCH   9  13
BRANCH  12  15
ATOM     15  C   UNL A   1      32.519  20.622  25.060  1.00  0.00     0.264 C 
ATOM     16  O   UNL A   1      31.413  21.056  25.363  1.00  0.00    -0.268 OA
BRANCH  15  17
ATOM     17  C   UNL A   1      32.739  19.222  24.706  1.00  0.00     0.099 A 
ATOM     18  C   UNL A   1      32.857  18.684  23.433  1.00  0.00     0.033 A 
ATOM     19  S   UNL A   1      32.911  18.021  25.911  1.00  0.00    -0.058 S 
ATOM     20  C   UNL A   1      32.966  17.264  23.450  1.00  0.00     0.099 A 
ATOM     21  C   UNL A   1      33.010  16.785  24.741  1.00  0.00     0.324 A 
BRANCH  21  22
ATOM     22  N   UNL A   1      33.122  15.402  25.126  1.00  0.00     0.074 N 
ATOM     23  O   UNL A   1      34.274  14.957  25.236  1.00  0.00    -0.258 OA
ATOM     24  O   UNL A   1      32.085  14.757  25.322  1.00  0.00    -0.258 OA
ENDBRANCH  21  22
ENDBRANCH  15  17
ENDBRANCH  12  15
ENDBRANCH   5   8
ENDBRANCH   3   4
ENDBRANCH   2   3
ENDBRANCH   1   2
BRANCH   1  25
ATOM     25  C   UNL A   1      33.895  28.449  25.723  1.00  0.00     0.002 C 
BRANCH  25  26
ATOM     26  C   UNL A   1      32.801  29.503  25.532  1.00  0.00     0.021 C 
BRANCH  26  27
ATOM     27  C   UNL A   1      32.255  30.117  26.820  1.00  0.00     0.116 C 
BRANCH  27  28
ATOM     28  N   UNL A   1      32.236  31.571  26.763  1.00  0.00    -0.352 N 
ATOM     29  C   UNL A   1      33.066  32.471  27.382  1.00  0.00     0.251 C 
ATOM     30  H   UNL A   1      31.528  31.963  26.201  1.00  0.00     0.163 HD
ATOM     31  O   UNL A   1      32.758  33.659  27.427  1.00  0.00    -0.269 OA
BRANCH  29  32
ATOM     32  C   UNL A   1      34.321  31.999  28.003  1.00  0.00     0.039 A 
ATOM     33  C   UNL A   1      35.420  32.860  28.061  1.00  0.00     0.014 A 
ATOM     34  C   UNL A   1      34.410  30.705  28.525  1.00  0.00     0.014 A 
ATOM     35  C   UNL A   1      36.592  32.439  28.695  1.00  0.00     0.010 A 
ATOM     36  C   UNL A   1      35.554  30.314  29.215  1.00  0.00     0.010 A 
ATOM     37  C   UNL A   1      36.659  31.175  29.303  1.00  0.00    -0.014 A 
BRANCH  37  38
ATOM     38  C   UNL A   1      37.880  30.733  30.026  1.00  0.00     0.031 A 
ATOM     39  C   UNL A   1      38.823  29.754  29.382  1.00  0.00     0.074 A 
ATOM     40  C   UNL A   1      38.113  31.175  31.277  1.00  0.00     0.049 A 
ATOM     41  N   UNL A   1      39.908  29.205  29.867  1.00  0.00    -0.248 NA
ATOM     42  C   UNL A   1      38.483  29.314  28.022  1.00  0.00     0.031 C 
ATOM     43  C   UNL A   1      37.256  32.103  32.017  1.00  0.00     0.029 A 
ATOM     44  N   UNL A   1      39.137  30.903  32.149  1.00  0.00    -0.354 N 
ATOM     45  C   UNL A   1      40.379  28.354  28.873  1.00  0.00     0.074 A 
ATOM     46  C   UNL A   1      39.417  28.403  27.792  1.00  0.00     0.031 C 
ATOM     47  C   UNL A   1      37.809  32.350  33.215  1.00  0.00     0.029 A 
ATOM     48  C   UNL A   1      39.030  31.562  33.352  1.00  0.00     0.049 A 
ATOM     49  H   UNL A   1      39.880  30.293  31.934  1.00  0.00     0.167 HD
ATOM     50  C   UNL A   1      41.522  27.621  28.851  1.00  0.00     0.034 A 
ATOM     51  C   UNL A   1      39.820  31.529  34.442  1.00  0.00     0.034 A 
ATOM     52  C   UNL A   1      42.466  27.579  29.942  1.00  0.00     0.049 A 
ATOM     53  C   UNL A   1      41.053  30.660  34.421  1.00  0.00     0.074 A 
ATOM     54  C   UNL A   1      43.670  26.900  30.017  1.00  0.00     0.029 A 
ATOM     55  N   UNL A   1      42.309  28.237  31.157  1.00  0.00    -0.354 N 
ATOM     56  N   UNL A   1      41.506  29.892  33.458  1.00  0.00    -0.248 NA
ATOM     57  C   UNL A   1      41.882  30.662  35.633  1.00  0.00     0.031 C 
ATOM     58  C   UNL A   1      44.200  27.086  31.299  1.00  0.00     0.029 A 
ATOM     59  C   UNL A   1      43.374  27.951  31.998  1.00  0.00     0.049 A 
ATOM     60  H   UNL A   1      41.551  28.822  31.386  1.00  0.00     0.167 HD
ATOM     61  C   UNL A   1      42.694  29.345  33.938  1.00  0.00     0.074 A 
ATOM     62  C   UNL A   1      42.890  29.884  35.268  1.00  0.00     0.031 C 
ATOM     63  C   UNL A   1      43.550  28.482  33.330  1.00  0.00     0.034 A 
BRANCH  50  64
ATOM     64  C   UNL A   1      41.784  26.789  27.616  1.00  0.00     0.023 A 
ATOM     65  C   UNL A   1      41.486  25.414  27.578  1.00  0.00     0.031 A 
ATOM     66  C   UNL A   1      42.385  27.358  26.480  1.00  0.00     0.131 A 
ATOM     67  C   UNL A   1      41.878  24.640  26.475  1.00  0.00     0.055 A 
ATOM     68  C   UNL A   1      42.686  26.600  25.345  1.00  0.00     0.041 A 
ATOM     69  F   UNL A   1      42.715  28.660  26.460  1.00  0.00    -0.206 F 
ATOM     70  C   UNL A   1      42.451  25.228  25.347  1.00  0.00     0.022 A 
BRANCH  67  71
ATOM     71  S   UNL A   1      41.792  22.833  26.615  1.00  0.00     0.124 S 
ATOM     72  O   UNL A   1      42.018  22.638  28.045  1.00  0.00    -0.237 OA
ATOM     73  O   UNL A   1      40.447  22.544  26.134  1.00  0.00    -0.237 OA
ATOM     74  O   UNL A   1      42.877  22.371  25.752  1.00  0.00    -0.744 OA
ENDBRANCH  67  71
ENDBRANCH  50  64
BRANCH  51  75
ATOM     75  C   UNL A   1      39.481  32.342  35.646  1.00  0.00     0.023 A 
ATOM     76  C   UNL A   1      38.659  31.821  36.658  1.00  0.00     0.031 A 
ATOM     77  C   UNL A   1      39.942  33.663  35.786  1.00  0.00     0.131 A 
ATOM     78  C   UNL A   1      38.287  32.629  37.743  1.00  0.00     0.055 A 
ATOM     79  C   UNL A   1      39.614  34.444  36.895  1.00  0.00     0.041 A 
ATOM     80  F   UNL A   1      40.732  34.210  34.848  1.00  0.00    -0.206 F 
ATOM     81  C   UNL A   1      38.771  33.932  37.876  1.00  0.00     0.022 A 
BRANCH  78  82
ATOM     82  S   UNL A   1      37.092  31.977  38.940  1.00  0.00     0.124 S 
ATOM     83  O   UNL A   1      37.747  32.280  40.209  1.00  0.00    -0.237 OA
ATOM     84  O   UNL A   1      35.897  32.756  38.632  1.00  0.00    -0.237 OA
ATOM     85  O   UNL A   1      37.011  30.557  38.602  1.00  0.00    -0.744 OA
ENDBRANCH  78  82
ENDBRANCH  51  75
BRANCH  63  86
ATOM     86  C   UNL A   1      44.799  28.105  34.092  1.00  0.00     0.023 A 
ATOM     87  C   UNL A   1      44.848  26.975  34.926  1.00  0.00     0.031 A 
ATOM     88  C   UNL A   1      45.954  28.902  33.991  1.00  0.00     0.131 A 
ATOM     89  C   UNL A   1      46.006  26.706  35.672  1.00  0.00     0.055 A 
ATOM     90  C   UNL A   1      47.124  28.592  34.684  1.00  0.00     0.041 A 
ATOM     91  F   UNL A   1      45.965  29.996  33.213  1.00  0.00    -0.206 F 
ATOM     92  C   UNL A   1      47.151  27.496  35.543  1.00  0.00     0.022 A 
BRANCH  89  93
ATOM     93  S   UNL A   1      45.964  25.364  36.892  1.00  0.00     0.124 S 
ATOM     94  O   UNL A   1      47.142  24.585  36.527  1.00  0.00    -0.237 OA
ATOM     95  O   UNL A   1      46.046  26.089  38.156  1.00  0.00    -0.237 OA
ATOM     96  O   UNL A   1      44.682  24.708  36.638  1.00  0.00    -0.744 OA
ENDBRANCH  89  93
ENDBRANCH  63  86
ENDBRANCH  37  38
ENDBRANCH  29  32
ENDBRANCH  27  28
ENDBRANCH  26  27
ENDBRANCH  25  26
ENDBRANCH   1  25
TORSDOF 20
ENDMDL
MODEL 3
REMARK VINA RESULT:     -10.7      5.616     10.456
REMARK SMILES CO[C@@H]1C[C@H](C(=O)NCCCCCCNC(=O)c2ccc(-c3c4nc(c(-c5cc(S(=O)(=O)[O-])ccc5F)c5ccc([nH]5)c(-c5cc(S(=O)(=O)[O-])ccc5F)c5nc(c(-c6cc(S(=O)(=O)[O-])ccc6F)c6ccc3[nH]6)C=C5)C=C4)cc2)N(C(=O)c2ccc([N+](=O)[O-])s2)C1
REMARK SMILES IDX 11 1 10 2 9 3 8 4 6 5 7 6 5 8 3 9 4 10 92 11 81 12 2 13 1 14
REMARK SMILES IDX 82 15 83 16 84 17 85 18 91 19 86 20 87 21 88 22 89 23 90 24
REMARK SMILES IDX 12 25 13 26 14 27 15 28 16 29 17 31 18 32 19 33 80 34 20 35
REMARK SMILES IDX 79 36 21 37 22 38 23 39 73 40 24 41 78 42 72 43 74 44 25 45
REMARK SMILES IDX 77 46 71 47 70 48 26 50 58 51 38 52 57 53 39 54 42 55 56 56
REMARK SMILES IDX 75 57 40 58 41 59 55 61 76 62 43 63 27 64 28 65 36 66 29 67
REMARK SMILES IDX 35 68 37 69 34 70 30 71 31 72 32 73 33 74 59 75 60 76 68 77
REMARK SMILES IDX 61 78 67 79 69 80 66 81 62 82 63 83 64 84 65 85 44 86 45 87
REMARK SMILES IDX 53 88 46 89 52 90 54 91 51 92 47 93 48 94 49 95 50 96
REMARK H PARENT 8 7 15 30 74 49 42 60
REMARK Flexibility Score: inf
ROOT
ATOM      1  C   UNL A   1      37.720  22.589  25.732  1.00  0.00     0.002 C 
ENDROOT
BRANCH   1   2
ATOM      2  C   UNL A   1      36.772  23.786  25.631  1.00  0.00     0.021 C 
BRANCH   2   3
ATOM      3  C   UNL A   1      35.331  23.442  25.232  1.00  0.00     0.116 C 
BRANCH   3   4
ATOM      4  N   UNL A   1      34.399  24.423  25.768  1.00  0.00    -0.354 N 
ATOM      5  C   UNL A   1      33.087  24.687  25.563  1.00  0.00     0.242 C 
ATOM      6  O   UNL A   1      32.684  25.763  26.035  1.00  0.00    -0.273 OA
ATOM      7  H   UNL A   1      34.813  25.027  26.425  1.00  0.00     0.163 HD
BRANCH   5   8
ATOM      8  C   UNL A   1      32.076  23.842  24.740  1.00  0.00     0.177 C 
ATOM      9  C   UNL A   1      32.573  23.901  22.405  1.00  0.00     0.139 C 
ATOM     10  C   UNL A   1      31.612  24.485  23.438  1.00  0.00     0.069 C 
ATOM     11  C   UNL A   1      32.756  22.447  22.904  1.00  0.00     0.152 C 
ATOM     12  N   UNL A   1      32.388  22.483  24.325  1.00  0.00    -0.323 N 
BRANCH   9  13
ATOM     13  O   UNL A   1      33.822  24.591  22.378  1.00  0.00    -0.380 OA
ATOM     14  C   UNL A   1      33.707  26.007  22.252  1.00  0.00     0.195 C 
ENDBRANCH   9  13
BRANCH  12  15
ATOM     15  C   UNL A   1      32.032  21.318  24.997  1.00  0.00     0.264 C 
ATOM     16  O   UNL A   1      31.115  21.304  25.811  1.00  0.00    -0.268 OA
BRANCH  15  17
ATOM     17  C   UNL A   1      32.909  20.169  24.790  1.00  0.00     0.099 A 
ATOM     18  C   UNL A   1      34.268  20.089  25.058  1.00  0.00     0.033 A 
ATOM     19  S   UNL A   1      32.305  18.692  24.176  1.00  0.00    -0.058 S 
ATOM     20  C   UNL A   1      34.832  18.849  24.642  1.00  0.00     0.099 A 
ATOM     21  C   UNL A   1      33.863  18.003  24.148  1.00  0.00     0.324 A 
BRANCH  21  22
ATOM     22  N   UNL A   1      34.081  16.672  23.644  1.00  0.00     0.074 N 
ATOM     23  O   UNL A   1      34.212  16.568  22.415  1.00  0.00    -0.258 OA
ATOM     24  O   UNL A   1      34.129  15.734  24.449  1.00  0.00    -0.258 OA
ENDBRANCH  21  22
ENDBRANCH  15  17
ENDBRANCH  12  15
ENDBRANCH   5   8
ENDBRANCH   3   4
ENDBRANCH   2   3
ENDBRANCH   1   2
BRANCH   1  25
ATOM     25  C   UNL A   1      37.523  21.512  24.664  1.00  0.00     0.002 C 
BRANCH  25  26
ATOM     26  C   UNL A   1      38.395  20.262  24.816  1.00  0.00     0.021 C 
BRANCH  26  27
ATOM     27  C   UNL A   1      39.051  20.087  26.184  1.00  0.00     0.116 C 
BRANCH  27  28
ATOM     28  N   UNL A   1      40.209  19.209  26.123  1.00  0.00    -0.352 N 
ATOM     29  C   UNL A   1      41.541  19.536  26.091  1.00  0.00     0.251 C 
ATOM     30  H   UNL A   1      40.008  18.245  26.102  1.00  0.00     0.163 HD
ATOM     31  O   UNL A   1      42.375  18.687  25.789  1.00  0.00    -0.269 OA
BRANCH  29  32
ATOM     32  C   UNL A   1      41.961  20.917  26.408  1.00  0.00     0.039 A 
ATOM     33  C   UNL A   1      42.075  21.850  25.374  1.00  0.00     0.014 A 
ATOM     34  C   UNL A   1      42.246  21.285  27.726  1.00  0.00     0.014 A 
ATOM     35  C   UNL A   1      42.419  23.171  25.673  1.00  0.00     0.010 A 
ATOM     36  C   UNL A   1      42.521  22.616  28.029  1.00  0.00     0.010 A 
ATOM     37  C   UNL A   1      42.616  23.572  27.005  1.00  0.00    -0.014 A 
BRANCH  37  38
ATOM     38  C   UNL A   1      42.932  24.984  27.344  1.00  0.00     0.031 A 
ATOM     39  C   UNL A   1      44.316  25.523  27.110  1.00  0.00     0.074 A 
ATOM     40  C   UNL A   1      41.988  25.764  27.906  1.00  0.00     0.049 A 
ATOM     41  N   UNL A   1      44.806  26.705  27.389  1.00  0.00    -0.248 NA
ATOM     42  C   UNL A   1      45.287  24.598  26.507  1.00  0.00     0.031 C 
ATOM     43  C   UNL A   1      40.618  25.345  28.208  1.00  0.00     0.029 A 
ATOM     44  N   UNL A   1      42.035  27.070  28.324  1.00  0.00    -0.354 N 
ATOM     45  C   UNL A   1      46.140  26.665  26.998  1.00  0.00     0.074 A 
ATOM     46  C   UNL A   1      46.398  25.317  26.536  1.00  0.00     0.031 C 
ATOM     47  C   UNL A   1      39.947  26.384  28.729  1.00  0.00     0.029 A 
ATOM     48  C   UNL A   1      40.847  27.527  28.847  1.00  0.00     0.049 A 
ATOM     49  H   UNL A   1      42.843  27.628  28.257  1.00  0.00     0.167 HD
ATOM     50  C   UNL A   1      47.057  27.666  26.997  1.00  0.00     0.034 A 
ATOM     51  C   UNL A   1      40.524  28.726  29.368  1.00  0.00     0.034 A 
ATOM     52  C   UNL A   1      46.782  29.003  27.468  1.00  0.00     0.049 A 
ATOM     53  C   UNL A   1      41.575  29.806  29.416  1.00  0.00     0.074 A 
ATOM     54  C   UNL A   1      47.621  30.103  27.484  1.00  0.00     0.029 A 
ATOM     55  N   UNL A   1      45.575  29.420  28.018  1.00  0.00    -0.354 N 
ATOM     56  N   UNL A   1      42.821  29.766  29.005  1.00  0.00    -0.248 NA
ATOM     57  C   UNL A   1      41.170  31.096  29.990  1.00  0.00     0.031 C 
ATOM     58  C   UNL A   1      46.950  31.159  28.109  1.00  0.00     0.029 A 
ATOM     59  C   UNL A   1      45.661  30.749  28.409  1.00  0.00     0.049 A 
ATOM     60  H   UNL A   1      44.776  28.855  28.117  1.00  0.00     0.167 HD
ATOM     61  C   UNL A   1      43.339  31.037  29.241  1.00  0.00     0.074 A 
ATOM     62  C   UNL A   1      42.265  31.821  29.817  1.00  0.00     0.031 C 
ATOM     63  C   UNL A   1      44.587  31.516  28.997  1.00  0.00     0.034 A 
BRANCH  50  64
ATOM     64  C   UNL A   1      48.444  27.331  26.496  1.00  0.00     0.023 A 
ATOM     65  C   UNL A   1      49.477  26.965  27.379  1.00  0.00     0.031 A 
ATOM     66  C   UNL A   1      48.756  27.426  25.129  1.00  0.00     0.131 A 
ATOM     67  C   UNL A   1      50.786  26.807  26.901  1.00  0.00     0.055 A 
ATOM     68  C   UNL A   1      50.043  27.172  24.646  1.00  0.00     0.041 A 
ATOM     69  F   UNL A   1      47.821  27.790  24.236  1.00  0.00    -0.206 F 
ATOM     70  C   UNL A   1      51.072  26.881  25.537  1.00  0.00     0.022 A 
BRANCH  67  71
ATOM     71  S   UNL A   1      52.136  26.684  28.108  1.00  0.00     0.124 S 
ATOM     72  O   UNL A   1      51.496  25.938  29.188  1.00  0.00    -0.237 OA
ATOM     73  O   UNL A   1      53.164  25.971  27.359  1.00  0.00    -0.237 OA
ATOM     74  O   UNL A   1      52.443  28.078  28.421  1.00  0.00    -0.744 OA
ENDBRANCH  67  71
ENDBRANCH  50  64
BRANCH  51  75
ATOM     75  C   UNL A   1      39.148  28.978  29.886  1.00  0.00     0.023 A 
ATOM     76  C   UNL A   1      38.163  29.548  29.064  1.00  0.00     0.031 A 
ATOM     77  C   UNL A   1      38.806  28.689  31.219  1.00  0.00     0.131 A 
ATOM     78  C   UNL A   1      36.898  29.851  29.592  1.00  0.00     0.055 A 
ATOM     79  C   UNL A   1      37.530  28.941  31.725  1.00  0.00     0.041 A 
ATOM     80  F   UNL A   1      39.710  28.141  32.048  1.00  0.00    -0.206 F 
ATOM     81  C   UNL A   1      36.571  29.538  30.913  1.00  0.00     0.022 A 
BRANCH  78  82
ATOM     82  S   UNL A   1      35.712  30.738  28.547  1.00  0.00     0.124 S 
ATOM     83  O   UNL A   1      36.597  31.462  27.641  1.00  0.00    -0.237 OA
ATOM     84  O   UNL A   1      34.947  29.643  27.959  1.00  0.00    -0.237 OA
ATOM     85  O   UNL A   1      34.976  31.569  29.498  1.00  0.00    -0.744 OA
ENDBRANCH  78  82
ENDBRANCH  51  75
BRANCH  63  86
ATOM     86  C   UNL A   1      44.838  32.971  29.316  1.00  0.00     0.023 A 
ATOM     87  C   UNL A   1      44.559  33.993  28.391  1.00  0.00     0.031 A 
ATOM     88  C   UNL A   1      45.380  33.336  30.561  1.00  0.00     0.131 A 
ATOM     89  C   UNL A   1      44.878  35.323  28.703  1.00  0.00     0.055 A 
ATOM     90  C   UNL A   1      45.633  34.668  30.891  1.00  0.00     0.041 A 
ATOM     91  F   UNL A   1      45.670  32.404  31.482  1.00  0.00    -0.206 F 
ATOM     92  C   UNL A   1      45.397  35.670  29.954  1.00  0.00     0.022 A 
BRANCH  89  93
ATOM     93  S   UNL A   1      44.701  36.587  27.414  1.00  0.00     0.124 S 
ATOM     94  O   UNL A   1      45.944  36.433  26.665  1.00  0.00    -0.237 OA
ATOM     95  O   UNL A   1      43.486  36.162  26.725  1.00  0.00    -0.237 OA
ATOM     96  O   UNL A   1      44.580  37.833  28.168  1.00  0.00    -0.744 OA
ENDBRANCH  89  93
ENDBRANCH  63  86
ENDBRANCH  37  38
ENDBRANCH  29  32
ENDBRANCH  27  28
ENDBRANCH  26  27
ENDBRANCH  25  26
ENDBRANCH   1  25
TORSDOF 20
ENDMDL
