MODEL 1
REMARK VINA RESULT:     -11.9      0.000      0.000
REMARK SMILES CC(=O)c1cc2c(cc1NC(=O)/C=C/C(=O)NCCCCCCNC(=O)c1ccc(-c3c4nc(c(-c5cc(S(=O)(=O)[O-])ccc5F)c5ccc([nH]5)c(-c5cc(S(=O)(=O)[O-])ccc5F)c5nc(c(-c6cc(S(=O)(=O)[O-])ccc6F)c6ccc3[nH]6)C=C5)C=C4)cc1)OCO2
REMARK SMILES IDX 20 1 19 2 18 3 17 4 15 5 16 6 14 8 13 9 11 10 10 11 12 13
REMARK SMILES IDX 9 14 4 15 5 16 6 17 8 18 7 19 92 20 90 21 91 22 2 23 1 24
REMARK SMILES IDX 3 25 21 26 22 27 23 28 24 29 25 30 26 32 27 33 28 34 89 35
REMARK SMILES IDX 29 36 88 37 30 38 31 39 32 40 82 41 33 42 87 43 81 44 83 45
REMARK SMILES IDX 34 46 86 47 80 48 79 49 35 51 67 52 47 53 66 54 48 55 51 56
REMARK SMILES IDX 65 57 84 58 49 59 50 60 64 62 85 63 52 64 36 65 37 66 45 67
REMARK SMILES IDX 38 68 44 69 46 70 43 71 39 72 40 73 41 74 42 75 68 76 69 77
REMARK SMILES IDX 77 78 70 79 76 80 78 81 75 82 71 83 72 84 73 85 74 86 53 87
REMARK SMILES IDX 54 88 62 89 55 90 61 91 63 92 60 93 56 94 57 95 58 96 59 97
REMARK H PARENT 17 7 10 12 24 31 83 50 51 61
REMARK Flexibility Score: inf
ROOT
ATOM      1  C   UNL A   1      34.524  20.899  25.018  1.00  0.00     0.002 C 
ENDROOT
BRANCH   1   2
ATOM      2  C   UNL A   1      33.546  20.875  26.198  1.00  0.00     0.021 C 
BRANCH   2   3
ATOM      3  C   UNL A   1      33.618  22.119  27.078  1.00  0.00     0.116 C 
BRANCH   3   4
ATOM      4  N   UNL A   1      32.312  22.450  27.609  1.00  0.00    -0.353 N 
ATOM      5  C   UNL A   1      31.219  22.929  26.969  1.00  0.00     0.244 C 
ATOM      6  O   UNL A   1      30.135  22.984  27.546  1.00  0.00    -0.270 OA
ATOM      7  H   UNL A   1      32.203  22.307  28.577  1.00  0.00     0.163 HD
BRANCH   5   8
ATOM      8  C   UNL A   1      31.319  23.375  25.567  1.00  0.00     0.077 C 
ATOM      9  C   UNL A   1      30.906  24.596  25.198  1.00  0.00     0.077 C 
BRANCH   9  10
ATOM     10  C   UNL A   1      30.775  24.924  23.772  1.00  0.00     0.248 C 
ATOM     11  N   UNL A   1      31.133  26.166  23.327  1.00  0.00    -0.322 N 
ATOM     12  H   UNL A   1      30.979  26.307  22.364  1.00  0.00     0.170 HD
ATOM     13  O   UNL A   1      30.332  24.074  23.006  1.00  0.00    -0.270 OA
BRANCH  11  14
ATOM     14  C   UNL A   1      31.686  27.289  23.991  1.00  0.00     0.056 A 
ATOM     15  C   UNL A   1      30.939  28.495  24.041  1.00  0.00     0.045 A 
ATOM     16  C   UNL A   1      31.282  29.532  24.923  1.00  0.00     0.064 A 
ATOM     17  C   UNL A   1      32.399  29.351  25.705  1.00  0.00     0.166 A 
ATOM     18  C   UNL A   1      32.916  27.253  24.655  1.00  0.00     0.077 A 
ATOM     19  C   UNL A   1      33.216  28.263  25.539  1.00  0.00     0.167 A 
ATOM     20  O   UNL A   1      32.845  30.177  26.691  1.00  0.00    -0.454 OA
ATOM     21  O   UNL A   1      34.294  28.288  26.367  1.00  0.00    -0.454 OA
ATOM     22  C   UNL A   1      33.927  29.381  27.229  1.00  0.00     0.468 C 
BRANCH  15  23
ATOM     23  C   UNL A   1      29.784  28.687  23.132  1.00  0.00     0.162 C 
ATOM     24  C   UNL A   1      29.937  29.719  22.045  1.00  0.00     0.093 C 
ATOM     25  O   UNL A   1      28.806  27.954  23.219  1.00  0.00    -0.294 OA
ENDBRANCH  15  23
ENDBRANCH  11  14
ENDBRANCH   9  10
ENDBRANCH   5   8
ENDBRANCH   3   4
ENDBRANCH   2   3
ENDBRANCH   1   2
BRANCH   1  26
ATOM     26  C   UNL A   1      34.657  22.262  24.328  1.00  0.00     0.002 C 
BRANCH  26  27
ATOM     27  C   UNL A   1      36.093  22.782  24.214  1.00  0.00     0.021 C 
BRANCH  27  28
ATOM     28  C   UNL A   1      36.698  23.215  25.543  1.00  0.00     0.116 C 
BRANCH  28  29
ATOM     29  N   UNL A   1      37.688  22.258  26.006  1.00  0.00    -0.352 N 
ATOM     30  C   UNL A   1      38.949  22.504  26.484  1.00  0.00     0.251 C 
ATOM     31  H   UNL A   1      37.418  21.312  25.973  1.00  0.00     0.163 HD
ATOM     32  O   UNL A   1      39.763  21.585  26.571  1.00  0.00    -0.269 OA
BRANCH  30  33
ATOM     33  C   UNL A   1      39.314  23.880  26.873  1.00  0.00     0.039 A 
ATOM     34  C   UNL A   1      39.111  24.295  28.190  1.00  0.00     0.014 A 
ATOM     35  C   UNL A   1      39.874  24.751  25.933  1.00  0.00     0.014 A 
ATOM     36  C   UNL A   1      39.513  25.574  28.574  1.00  0.00     0.010 A 
ATOM     37  C   UNL A   1      40.351  25.990  26.339  1.00  0.00     0.010 A 
ATOM     38  C   UNL A   1      40.161  26.421  27.660  1.00  0.00    -0.014 A 
BRANCH  38  39
ATOM     39  C   UNL A   1      40.625  27.774  28.059  1.00  0.00     0.031 A 
ATOM     40  C   UNL A   1      42.066  28.157  27.873  1.00  0.00     0.074 A 
ATOM     41  C   UNL A   1      39.762  28.634  28.632  1.00  0.00     0.049 A 
ATOM     42  N   UNL A   1      42.679  29.267  28.196  1.00  0.00    -0.248 NA
ATOM     43  C   UNL A   1      42.941  27.140  27.272  1.00  0.00     0.031 C 
ATOM     44  C   UNL A   1      38.347  28.362  28.892  1.00  0.00     0.029 A 
ATOM     45  N   UNL A   1      39.946  29.910  29.096  1.00  0.00    -0.354 N 
ATOM     46  C   UNL A   1      44.012  29.078  27.845  1.00  0.00     0.074 A 
ATOM     47  C   UNL A   1      44.128  27.717  27.368  1.00  0.00     0.031 C 
ATOM     48  C   UNL A   1      37.781  29.457  29.424  1.00  0.00     0.029 A 
ATOM     49  C   UNL A   1      38.801  30.487  29.592  1.00  0.00     0.049 A 
ATOM     50  H   UNL A   1      40.817  30.370  29.076  1.00  0.00     0.167 HD
ATOM     51  C   UNL A   1      45.036  29.968  27.884  1.00  0.00     0.034 A 
ATOM     52  C   UNL A   1      38.599  31.709  30.124  1.00  0.00     0.034 A 
ATOM     53  C   UNL A   1      44.899  31.319  28.373  1.00  0.00     0.049 A 
ATOM     54  C   UNL A   1      39.765  32.658  30.228  1.00  0.00     0.074 A 
ATOM     55  C   UNL A   1      45.853  32.319  28.428  1.00  0.00     0.029 A 
ATOM     56  N   UNL A   1      43.733  31.855  28.910  1.00  0.00    -0.354 N 
ATOM     57  N   UNL A   1      41.010  32.486  29.848  1.00  0.00    -0.248 NA
ATOM     58  C   UNL A   1      39.492  33.970  30.827  1.00  0.00     0.031 C 
ATOM     59  C   UNL A   1      45.290  33.428  29.072  1.00  0.00     0.029 A 
ATOM     60  C   UNL A   1      43.957  33.156  29.336  1.00  0.00     0.049 A 
ATOM     61  H   UNL A   1      42.873  31.380  28.978  1.00  0.00     0.167 HD
ATOM     62  C   UNL A   1      41.661  33.685  30.129  1.00  0.00     0.074 A 
ATOM     63  C   UNL A   1      40.666  34.570  30.702  1.00  0.00     0.031 C 
ATOM     64  C   UNL A   1      42.961  34.025  29.924  1.00  0.00     0.034 A 
BRANCH  51  65
ATOM     65  C   UNL A   1      46.389  29.477  27.414  1.00  0.00     0.023 A 
ATOM     66  C   UNL A   1      46.625  29.146  26.067  1.00  0.00     0.031 A 
ATOM     67  C   UNL A   1      47.432  29.261  28.331  1.00  0.00     0.131 A 
ATOM     68  C   UNL A   1      47.818  28.508  25.699  1.00  0.00     0.055 A 
ATOM     69  C   UNL A   1      48.661  28.725  27.938  1.00  0.00     0.041 A 
ATOM     70  F   UNL A   1      47.267  29.535  29.634  1.00  0.00    -0.206 F 
ATOM     71  C   UNL A   1      48.850  28.321  26.619  1.00  0.00     0.022 A 
BRANCH  68  72
ATOM     72  S   UNL A   1      47.910  27.736  24.059  1.00  0.00     0.124 S 
ATOM     73  O   UNL A   1      46.937  28.526  23.307  1.00  0.00    -0.237 OA
ATOM     74  O   UNL A   1      49.309  27.932  23.696  1.00  0.00    -0.237 OA
ATOM     75  O   UNL A   1      47.516  26.351  24.309  1.00  0.00    -0.744 OA
ENDBRANCH  68  72
ENDBRANCH  51  65
BRANCH  52  76
ATOM     76  C   UNL A   1      37.240  32.113  30.580  1.00  0.00     0.023 A 
ATOM     77  C   UNL A   1      36.347  32.740  29.696  1.00  0.00     0.031 A 
ATOM     78  C   UNL A   1      36.817  31.898  31.903  1.00  0.00     0.131 A 
ATOM     79  C   UNL A   1      35.090  33.163  30.154  1.00  0.00     0.055 A 
ATOM     80  C   UNL A   1      35.545  32.273  32.341  1.00  0.00     0.041 A 
ATOM     81  F   UNL A   1      37.630  31.297  32.787  1.00  0.00    -0.206 F 
ATOM     82  C   UNL A   1      34.677  32.920  31.466  1.00  0.00     0.022 A 
BRANCH  79  83
ATOM     83  S   UNL A   1      34.025  34.099  29.023  1.00  0.00     0.124 S 
ATOM     84  O   UNL A   1      33.539  33.048  28.137  1.00  0.00    -0.237 OA
ATOM     85  O   UNL A   1      33.045  34.675  29.937  1.00  0.00    -0.237 OA
ATOM     86  O   UNL A   1      34.942  35.059  28.411  1.00  0.00    -0.744 OA
ENDBRANCH  79  83
ENDBRANCH  52  76
BRANCH  64  87
ATOM     87  C   UNL A   1      43.365  35.437  30.280  1.00  0.00     0.023 A 
ATOM     88  C   UNL A   1      43.332  36.481  29.339  1.00  0.00     0.031 A 
ATOM     89  C   UNL A   1      43.802  35.737  31.583  1.00  0.00     0.131 A 
ATOM     90  C   UNL A   1      43.786  37.759  29.697  1.00  0.00     0.055 A 
ATOM     91  C   UNL A   1      44.185  37.027  31.953  1.00  0.00     0.041 A 
ATOM     92  F   UNL A   1      43.861  34.779  32.523  1.00  0.00    -0.206 F 
ATOM     93  C   UNL A   1      44.193  38.044  31.004  1.00  0.00     0.022 A 
BRANCH  90  94
ATOM     94  S   UNL A   1      43.938  39.024  28.405  1.00  0.00     0.124 S 
ATOM     95  O   UNL A   1      43.336  40.187  29.047  1.00  0.00    -0.237 OA
ATOM     96  O   UNL A   1      45.380  39.084  28.196  1.00  0.00    -0.237 OA
ATOM     97  O   UNL A   1      43.173  38.467  27.289  1.00  0.00    -0.744 OA
ENDBRANCH  90  94
ENDBRANCH  64  87
ENDBRANCH  38  39
ENDBRANCH  30  33
ENDBRANCH  28  29
ENDBRANCH  27  28
ENDBRANCH  26  27
ENDBRANCH   1  26
TORSDOF 19
ENDMDL
MODEL 2
REMARK VINA RESULT:     -11.6      3.446      8.654
REMARK SMILES CC(=O)c1cc2c(cc1NC(=O)/C=C/C(=O)NCCCCCCNC(=O)c1ccc(-c3c4nc(c(-c5cc(S(=O)(=O)[O-])ccc5F)c5ccc([nH]5)c(-c5cc(S(=O)(=O)[O-])ccc5F)c5nc(c(-c6cc(S(=O)(=O)[O-])ccc6F)c6ccc3[nH]6)C=C5)C=C4)cc1)OCO2
REMARK SMILES IDX 20 1 19 2 18 3 17 4 15 5 16 6 14 8 13 9 11 10 10 11 12 13
REMARK SMILES IDX 9 14 4 15 5 16 6 17 8 18 7 19 92 20 90 21 91 22 2 23 1 24
REMARK SMILES IDX 3 25 21 26 22 27 23 28 24 29 25 30 26 32 27 33 28 34 89 35
REMARK SMILES IDX 29 36 88 37 30 38 31 39 32 40 82 41 33 42 87 43 81 44 83 45
REMARK SMILES IDX 34 46 86 47 80 48 79 49 35 51 67 52 47 53 66 54 48 55 51 56
REMARK SMILES IDX 65 57 84 58 49 59 50 60 64 62 85 63 52 64 36 65 37 66 45 67
REMARK SMILES IDX 38 68 44 69 46 70 43 71 39 72 40 73 41 74 42 75 68 76 69 77
REMARK SMILES IDX 77 78 70 79 76 80 78 81 75 82 71 83 72 84 73 85 74 86 53 87
REMARK SMILES IDX 54 88 62 89 55 90 61 91 63 92 60 93 56 94 57 95 58 96 59 97
REMARK H PARENT 17 7 10 12 24 31 83 50 51 61
REMARK Flexibility Score: inf
ROOT
ATOM      1  C   UNL A   1      37.341  22.248  25.618  1.00  0.00     0.002 C 
ENDROOT
BRANCH   1   2
ATOM      2  C   UNL A   1      36.770  23.451  24.858  1.00  0.00     0.021 C 
BRANCH   2   3
ATOM      3  C   UNL A   1      35.426  23.932  25.397  1.00  0.00     0.116 C 
BRANCH   3   4
ATOM      4  N   UNL A   1      34.350  23.084  24.926  1.00  0.00    -0.353 N 
ATOM      5  C   UNL A   1      33.654  23.142  23.766  1.00  0.00     0.244 C 
ATOM      6  O   UNL A   1      32.893  22.230  23.451  1.00  0.00    -0.270 OA
ATOM      7  H   UNL A   1      34.085  22.361  25.539  1.00  0.00     0.163 HD
BRANCH   5   8
ATOM      8  C   UNL A   1      33.817  24.296  22.862  1.00  0.00     0.077 C 
ATOM      9  C   UNL A   1      32.839  25.200  22.710  1.00  0.00     0.077 C 
BRANCH   9  10
ATOM     10  C   UNL A   1      32.917  26.187  21.625  1.00  0.00     0.248 C 
ATOM     11  N   UNL A   1      32.850  27.521  21.916  1.00  0.00    -0.322 N 
ATOM     12  H   UNL A   1      32.876  28.106  21.124  1.00  0.00     0.170 HD
ATOM     13  O   UNL A   1      33.029  25.791  20.468  1.00  0.00    -0.270 OA
BRANCH  11  14
ATOM     14  C   UNL A   1      32.752  28.220  23.145  1.00  0.00     0.056 A 
ATOM     15  C   UNL A   1      31.473  28.635  23.599  1.00  0.00     0.045 A 
ATOM     16  C   UNL A   1      31.268  29.054  24.924  1.00  0.00     0.064 A 
ATOM     17  C   UNL A   1      32.367  29.089  25.752  1.00  0.00     0.166 A 
ATOM     18  C   UNL A   1      33.854  28.474  23.968  1.00  0.00     0.077 A 
ATOM     19  C   UNL A   1      33.628  28.851  25.271  1.00  0.00     0.167 A 
ATOM     20  O   UNL A   1      32.373  29.362  27.084  1.00  0.00    -0.454 OA
ATOM     21  O   UNL A   1      34.585  28.982  26.228  1.00  0.00    -0.454 OA
ATOM     22  C   UNL A   1      33.759  29.088  27.401  1.00  0.00     0.468 C 
BRANCH  15  23
ATOM     23  C   UNL A   1      30.326  28.655  22.661  1.00  0.00     0.162 C 
ATOM     24  C   UNL A   1      29.088  27.909  23.083  1.00  0.00     0.093 C 
ATOM     25  O   UNL A   1      30.375  29.342  21.647  1.00  0.00    -0.294 OA
ENDBRANCH  15  23
ENDBRANCH  11  14
ENDBRANCH   9  10
ENDBRANCH   5   8
ENDBRANCH   3   4
ENDBRANCH   2   3
ENDBRANCH   1   2
BRANCH   1  26
ATOM     26  C   UNL A   1      37.063  20.890  24.963  1.00  0.00     0.002 C 
BRANCH  26  27
ATOM     27  C   UNL A   1      38.245  19.917  24.986  1.00  0.00     0.021 C 
BRANCH  27  28
ATOM     28  C   UNL A   1      39.408  20.382  25.851  1.00  0.00     0.116 C 
BRANCH  28  29
ATOM     29  N   UNL A   1      40.370  19.314  26.057  1.00  0.00    -0.352 N 
ATOM     30  C   UNL A   1      41.733  19.408  26.174  1.00  0.00     0.251 C 
ATOM     31  H   UNL A   1      39.996  18.406  26.122  1.00  0.00     0.163 HD
ATOM     32  O   UNL A   1      42.430  18.400  26.064  1.00  0.00    -0.269 OA
BRANCH  30  33
ATOM     33  C   UNL A   1      42.344  20.729  26.416  1.00  0.00     0.039 A 
ATOM     34  C   UNL A   1      42.681  21.537  25.328  1.00  0.00     0.014 A 
ATOM     35  C   UNL A   1      42.567  21.172  27.724  1.00  0.00     0.014 A 
ATOM     36  C   UNL A   1      43.201  22.811  25.557  1.00  0.00     0.010 A 
ATOM     37  C   UNL A   1      43.004  22.471  27.948  1.00  0.00     0.010 A 
ATOM     38  C   UNL A   1      43.341  23.298  26.866  1.00  0.00    -0.014 A 
BRANCH  38  39
ATOM     39  C   UNL A   1      43.863  24.663  27.128  1.00  0.00     0.031 A 
ATOM     40  C   UNL A   1      42.944  25.728  27.657  1.00  0.00     0.074 A 
ATOM     41  C   UNL A   1      45.147  24.953  26.843  1.00  0.00     0.049 A 
ATOM     42  N   UNL A   1      43.191  26.989  27.909  1.00  0.00    -0.248 NA
ATOM     43  C   UNL A   1      41.552  25.327  27.904  1.00  0.00     0.031 C 
ATOM     44  C   UNL A   1      46.124  24.010  26.298  1.00  0.00     0.029 A 
ATOM     45  N   UNL A   1      45.850  26.122  26.976  1.00  0.00    -0.354 N 
ATOM     46  C   UNL A   1      41.984  27.531  28.336  1.00  0.00     0.074 A 
ATOM     47  C   UNL A   1      40.992  26.483  28.222  1.00  0.00     0.031 C 
ATOM     48  C   UNL A   1      47.312  24.625  26.188  1.00  0.00     0.029 A 
ATOM     49  C   UNL A   1      47.169  26.016  26.604  1.00  0.00     0.049 A 
ATOM     50  H   UNL A   1      45.449  26.958  27.306  1.00  0.00     0.167 HD
ATOM     51  C   UNL A   1      41.732  28.777  28.811  1.00  0.00     0.034 A 
ATOM     52  C   UNL A   1      48.152  26.939  26.598  1.00  0.00     0.034 A 
ATOM     53  C   UNL A   1      42.735  29.811  28.906  1.00  0.00     0.049 A 
ATOM     54  C   UNL A   1      47.836  28.338  27.060  1.00  0.00     0.074 A 
ATOM     55  C   UNL A   1      42.608  31.096  29.402  1.00  0.00     0.029 A 
ATOM     56  N   UNL A   1      44.052  29.681  28.478  1.00  0.00    -0.354 N 
ATOM     57  N   UNL A   1      46.702  28.828  27.507  1.00  0.00    -0.248 NA
ATOM     58  C   UNL A   1      48.938  29.307  27.021  1.00  0.00     0.031 C 
ATOM     59  C   UNL A   1      43.821  31.767  29.198  1.00  0.00     0.029 A 
ATOM     60  C   UNL A   1      44.735  30.876  28.660  1.00  0.00     0.049 A 
ATOM     61  H   UNL A   1      44.444  28.861  28.100  1.00  0.00     0.167 HD
ATOM     62  C   UNL A   1      46.967  30.155  27.839  1.00  0.00     0.074 A 
ATOM     63  C   UNL A   1      48.369  30.381  27.546  1.00  0.00     0.031 C 
ATOM     64  C   UNL A   1      46.129  31.096  28.347  1.00  0.00     0.034 A 
BRANCH  51  65
ATOM     65  C   UNL A   1      40.307  29.080  29.224  1.00  0.00     0.023 A 
ATOM     66  C   UNL A   1      39.914  29.066  30.575  1.00  0.00     0.031 A 
ATOM     67  C   UNL A   1      39.313  29.305  28.257  1.00  0.00     0.131 A 
ATOM     68  C   UNL A   1      38.555  29.151  30.912  1.00  0.00     0.055 A 
ATOM     69  C   UNL A   1      37.973  29.497  28.608  1.00  0.00     0.041 A 
ATOM     70  F   UNL A   1      39.615  29.310  26.950  1.00  0.00    -0.206 F 
ATOM     71  C   UNL A   1      37.584  29.395  29.940  1.00  0.00     0.022 A 
BRANCH  68  72
ATOM     72  S   UNL A   1      38.060  28.720  32.604  1.00  0.00     0.124 S 
ATOM     73  O   UNL A   1      36.704  29.259  32.661  1.00  0.00    -0.237 OA
ATOM     74  O   UNL A   1      38.171  27.266  32.606  1.00  0.00    -0.237 OA
ATOM     75  O   UNL A   1      39.036  29.424  33.435  1.00  0.00    -0.744 OA
ENDBRANCH  68  72
ENDBRANCH  51  65
BRANCH  52  76
ATOM     76  C   UNL A   1      49.527  26.569  26.162  1.00  0.00     0.023 A 
ATOM     77  C   UNL A   1      50.032  27.016  24.931  1.00  0.00     0.031 A 
ATOM     78  C   UNL A   1      50.351  25.750  26.955  1.00  0.00     0.131 A 
ATOM     79  C   UNL A   1      51.308  26.615  24.510  1.00  0.00     0.055 A 
ATOM     80  C   UNL A   1      51.641  25.396  26.556  1.00  0.00     0.041 A 
ATOM     81  F   UNL A   1      49.919  25.299  28.143  1.00  0.00    -0.206 F 
ATOM     82  C   UNL A   1      52.122  25.820  25.321  1.00  0.00     0.022 A 
BRANCH  79  83
ATOM     83  S   UNL A   1      51.864  27.093  22.852  1.00  0.00     0.124 S 
ATOM     84  O   UNL A   1      50.612  27.077  22.104  1.00  0.00    -0.237 OA
ATOM     85  O   UNL A   1      52.451  28.406  23.095  1.00  0.00    -0.237 OA
ATOM     86  O   UNL A   1      52.817  26.043  22.498  1.00  0.00    -0.744 OA
ENDBRANCH  79  83
ENDBRANCH  52  76
BRANCH  64  87
ATOM     87  C   UNL A   1      46.727  32.447  28.664  1.00  0.00     0.023 A 
ATOM     88  C   UNL A   1      47.279  32.742  29.923  1.00  0.00     0.031 A 
ATOM     89  C   UNL A   1      46.733  33.461  27.688  1.00  0.00     0.131 A 
ATOM     90  C   UNL A   1      47.756  34.033  30.193  1.00  0.00     0.055 A 
ATOM     91  C   UNL A   1      47.274  34.722  27.940  1.00  0.00     0.041 A 
ATOM     92  F   UNL A   1      46.215  33.240  26.469  1.00  0.00    -0.206 F 
ATOM     93  C   UNL A   1      47.776  35.019  29.202  1.00  0.00     0.022 A 
BRANCH  90  94
ATOM     94  S   UNL A   1      48.255  34.441  31.889  1.00  0.00     0.124 S 
ATOM     95  O   UNL A   1      47.040  34.147  32.641  1.00  0.00    -0.237 OA
ATOM     96  O   UNL A   1      49.378  33.537  32.110  1.00  0.00    -0.237 OA
ATOM     97  O   UNL A   1      48.608  35.858  31.811  1.00  0.00    -0.744 OA
ENDBRANCH  90  94
ENDBRANCH  64  87
ENDBRANCH  38  39
ENDBRANCH  30  33
ENDBRANCH  28  29
ENDBRANCH  27  28
ENDBRANCH  26  27
ENDBRANCH   1  26
TORSDOF 19
ENDMDL
MODEL 3
REMARK VINA RESULT:     -11.2      2.537      8.080
REMARK SMILES CC(=O)c1cc2c(cc1NC(=O)/C=C/C(=O)NCCCCCCNC(=O)c1ccc(-c3c4nc(c(-c5cc(S(=O)(=O)[O-])ccc5F)c5ccc([nH]5)c(-c5cc(S(=O)(=O)[O-])ccc5F)c5nc(c(-c6cc(S(=O)(=O)[O-])ccc6F)c6ccc3[nH]6)C=C5)C=C4)cc1)OCO2
REMARK SMILES IDX 20 1 19 2 18 3 17 4 15 5 16 6 14 8 13 9 11 10 10 11 12 13
REMARK SMILES IDX 9 14 4 15 5 16 6 17 8 18 7 19 92 20 90 21 91 22 2 23 1 24
REMARK SMILES IDX 3 25 21 26 22 27 23 28 24 29 25 30 26 32 27 33 28 34 89 35
REMARK SMILES IDX 29 36 88 37 30 38 31 39 32 40 82 41 33 42 87 43 81 44 83 45
REMARK SMILES IDX 34 46 86 47 80 48 79 49 35 51 67 52 47 53 66 54 48 55 51 56
REMARK SMILES IDX 65 57 84 58 49 59 50 60 64 62 85 63 52 64 36 65 37 66 45 67
REMARK SMILES IDX 38 68 44 69 46 70 43 71 39 72 40 73 41 74 42 75 68 76 69 77
REMARK SMILES IDX 77 78 70 79 76 80 78 81 75 82 71 83 72 84 73 85 74 86 53 87
REMARK SMILES IDX 54 88 62 89 55 90 61 91 63 92 60 93 56 94 57 95 58 96 59 97
REMARK H PARENT 17 7 10 12 24 31 83 50 51 61
REMARK Flexibility Score: inf
ROOT
ATOM      1  C   UNL A   1      36.932  21.708  25.377  1.00  0.00     0.002 C 
ENDROOT
BRANCH   1   2
ATOM      2  C   UNL A   1      36.927  22.938  24.462  1.00  0.00     0.021 C 
BRANCH   2   3
ATOM      3  C   UNL A   1      35.603  23.697  24.466  1.00  0.00     0.116 C 
BRANCH   3   4
ATOM      4  N   UNL A   1      34.485  22.782  24.351  1.00  0.00    -0.353 N 
ATOM      5  C   UNL A   1      33.552  22.682  23.375  1.00  0.00     0.244 C 
ATOM      6  O   UNL A   1      32.779  21.729  23.349  1.00  0.00    -0.270 OA
ATOM      7  H   UNL A   1      34.390  22.139  25.091  1.00  0.00     0.163 HD
BRANCH   5   8
ATOM      8  C   UNL A   1      33.468  23.714  22.325  1.00  0.00     0.077 C 
ATOM      9  C   UNL A   1      33.322  25.010  22.638  1.00  0.00     0.077 C 
BRANCH   9  10
ATOM     10  C   UNL A   1      32.983  25.982  21.589  1.00  0.00     0.248 C 
ATOM     11  N   UNL A   1      32.616  27.252  21.936  1.00  0.00    -0.322 N 
ATOM     12  H   UNL A   1      32.374  27.823  21.171  1.00  0.00     0.170 HD
ATOM     13  O   UNL A   1      33.026  25.628  20.415  1.00  0.00    -0.270 OA
BRANCH  11  14
ATOM     14  C   UNL A   1      32.518  27.902  23.192  1.00  0.00     0.056 A 
ATOM     15  C   UNL A   1      31.233  28.131  23.749  1.00  0.00     0.045 A 
ATOM     16  C   UNL A   1      31.074  28.486  25.099  1.00  0.00     0.064 A 
ATOM     17  C   UNL A   1      32.217  28.649  25.847  1.00  0.00     0.166 A 
ATOM     18  C   UNL A   1      33.635  28.282  23.942  1.00  0.00     0.077 A 
ATOM     19  C   UNL A   1      33.460  28.594  25.271  1.00  0.00     0.167 A 
ATOM     20  O   UNL A   1      32.287  28.888  27.185  1.00  0.00    -0.454 OA
ATOM     21  O   UNL A   1      34.459  28.830  26.161  1.00  0.00    -0.454 OA
ATOM     22  C   UNL A   1      33.716  28.796  27.393  1.00  0.00     0.468 C 
BRANCH  15  23
ATOM     23  C   UNL A   1      30.026  28.019  22.896  1.00  0.00     0.162 C 
ATOM     24  C   UNL A   1      28.901  27.164  23.416  1.00  0.00     0.093 C 
ATOM     25  O   UNL A   1      29.935  28.686  21.872  1.00  0.00    -0.294 OA
ENDBRANCH  15  23
ENDBRANCH  11  14
ENDBRANCH   9  10
ENDBRANCH   5   8
ENDBRANCH   3   4
ENDBRANCH   2   3
ENDBRANCH   1   2
BRANCH   1  26
ATOM     26  C   UNL A   1      37.037  20.366  24.641  1.00  0.00     0.002 C 
BRANCH  26  27
ATOM     27  C   UNL A   1      38.180  19.466  25.116  1.00  0.00     0.021 C 
BRANCH  27  28
ATOM     28  C   UNL A   1      39.297  20.215  25.831  1.00  0.00     0.116 C 
BRANCH  28  29
ATOM     29  N   UNL A   1      40.433  19.347  26.086  1.00  0.00    -0.352 N 
ATOM     30  C   UNL A   1      41.740  19.698  26.303  1.00  0.00     0.251 C 
ATOM     31  H   UNL A   1      40.240  18.382  26.105  1.00  0.00     0.163 HD
ATOM     32  O   UNL A   1      42.627  18.849  26.224  1.00  0.00    -0.269 OA
BRANCH  30  33
ATOM     33  C   UNL A   1      42.063  21.104  26.616  1.00  0.00     0.039 A 
ATOM     34  C   UNL A   1      42.270  21.479  27.944  1.00  0.00     0.014 A 
ATOM     35  C   UNL A   1      42.176  22.045  25.587  1.00  0.00     0.014 A 
ATOM     36  C   UNL A   1      42.636  22.793  28.235  1.00  0.00     0.010 A 
ATOM     37  C   UNL A   1      42.624  23.328  25.872  1.00  0.00     0.010 A 
ATOM     38  C   UNL A   1      42.843  23.720  27.201  1.00  0.00    -0.014 A 
BRANCH  38  39
ATOM     39  C   UNL A   1      43.264  25.114  27.488  1.00  0.00     0.031 A 
ATOM     40  C   UNL A   1      42.278  26.090  28.069  1.00  0.00     0.074 A 
ATOM     41  C   UNL A   1      44.513  25.512  27.181  1.00  0.00     0.049 A 
ATOM     42  N   UNL A   1      42.433  27.359  28.350  1.00  0.00    -0.248 NA
ATOM     43  C   UNL A   1      40.929  25.575  28.338  1.00  0.00     0.031 C 
ATOM     44  C   UNL A   1      45.546  24.663  26.587  1.00  0.00     0.029 A 
ATOM     45  N   UNL A   1      45.127  26.729  27.330  1.00  0.00    -0.354 N 
ATOM     46  C   UNL A   1      41.199  27.794  28.821  1.00  0.00     0.074 A 
ATOM     47  C   UNL A   1      40.289  26.675  28.701  1.00  0.00     0.031 C 
ATOM     48  C   UNL A   1      46.680  25.372  26.466  1.00  0.00     0.029 A 
ATOM     49  C   UNL A   1      46.440  26.737  26.924  1.00  0.00     0.049 A 
ATOM     50  H   UNL A   1      44.670  27.522  27.693  1.00  0.00     0.167 HD
ATOM     51  C   UNL A   1      40.863  29.004  29.337  1.00  0.00     0.034 A 
ATOM     52  C   UNL A   1      47.347  27.734  26.921  1.00  0.00     0.034 A 
ATOM     53  C   UNL A   1      41.785  30.110  29.436  1.00  0.00     0.049 A 
ATOM     54  C   UNL A   1      46.935  29.092  27.429  1.00  0.00     0.074 A 
ATOM     55  C   UNL A   1      41.571  31.367  29.971  1.00  0.00     0.029 A 
ATOM     56  N   UNL A   1      43.096  30.095  28.974  1.00  0.00    -0.354 N 
ATOM     57  N   UNL A   1      45.779  29.478  27.917  1.00  0.00    -0.248 NA
ATOM     58  C   UNL A   1      47.957  30.145  27.391  1.00  0.00     0.031 C 
ATOM     59  C   UNL A   1      42.722  32.137  29.758  1.00  0.00     0.029 A 
ATOM     60  C   UNL A   1      43.688  31.335  29.173  1.00  0.00     0.049 A 
ATOM     61  H   UNL A   1      43.541  29.318  28.564  1.00  0.00     0.167 HD
ATOM     62  C   UNL A   1      45.948  30.813  28.279  1.00  0.00     0.074 A 
ATOM     63  C   UNL A   1      47.320  31.156  27.959  1.00  0.00     0.031 C 
ATOM     64  C   UNL A   1      45.053  31.672  28.833  1.00  0.00     0.034 A 
BRANCH  51  65
ATOM     65  C   UNL A   1      39.430  29.182  29.792  1.00  0.00     0.023 A 
ATOM     66  C   UNL A   1      38.533  30.008  29.091  1.00  0.00     0.031 A 
ATOM     67  C   UNL A   1      38.976  28.586  30.981  1.00  0.00     0.131 A 
ATOM     68  C   UNL A   1      37.280  30.312  29.643  1.00  0.00     0.055 A 
ATOM     69  C   UNL A   1      37.685  28.807  31.470  1.00  0.00     0.041 A 
ATOM     70  F   UNL A   1      39.786  27.803  31.709  1.00  0.00    -0.206 F 
ATOM     71  C   UNL A   1      36.838  29.695  30.813  1.00  0.00     0.022 A 
BRANCH  68  72
ATOM     72  S   UNL A   1      36.334  31.684  28.925  1.00  0.00     0.124 S 
ATOM     73  O   UNL A   1      37.255  32.804  29.106  1.00  0.00    -0.237 OA
ATOM     74  O   UNL A   1      36.128  31.241  27.551  1.00  0.00    -0.237 OA
ATOM     75  O   UNL A   1      35.129  31.740  29.752  1.00  0.00    -0.744 OA
ENDBRANCH  68  72
ENDBRANCH  51  65
BRANCH  52  76
ATOM     76  C   UNL A   1      48.735  27.484  26.442  1.00  0.00     0.023 A 
ATOM     77  C   UNL A   1      49.088  27.741  25.107  1.00  0.00     0.031 A 
ATOM     78  C   UNL A   1      49.724  26.971  27.299  1.00  0.00     0.131 A 
ATOM     79  C   UNL A   1      50.385  27.449  24.658  1.00  0.00     0.055 A 
ATOM     80  C   UNL A   1      51.028  26.732  26.861  1.00  0.00     0.041 A 
ATOM     81  F   UNL A   1      49.441  26.713  28.586  1.00  0.00    -0.206 F 
ATOM     82  C   UNL A   1      51.361  26.962  25.530  1.00  0.00     0.022 A 
BRANCH  79  83
ATOM     83  S   UNL A   1      50.758  27.656  22.896  1.00  0.00     0.124 S 
ATOM     84  O   UNL A   1      51.030  29.087  22.817  1.00  0.00    -0.237 OA
ATOM     85  O   UNL A   1      51.906  26.773  22.723  1.00  0.00    -0.237 OA
ATOM     86  O   UNL A   1      49.531  27.215  22.235  1.00  0.00    -0.744 OA
ENDBRANCH  79  83
ENDBRANCH  52  76
BRANCH  64  87
ATOM     87  C   UNL A   1      45.552  33.057  29.173  1.00  0.00     0.023 A 
ATOM     88  C   UNL A   1      45.361  34.151  28.310  1.00  0.00     0.031 A 
ATOM     89  C   UNL A   1      46.242  33.282  30.378  1.00  0.00     0.131 A 
ATOM     90  C   UNL A   1      45.905  35.402  28.635  1.00  0.00     0.055 A 
ATOM     91  C   UNL A   1      46.720  34.545  30.730  1.00  0.00     0.041 A 
ATOM     92  F   UNL A   1      46.460  32.274  31.240  1.00  0.00    -0.206 F 
ATOM     93  C   UNL A   1      46.566  35.611  29.850  1.00  0.00     0.022 A 
BRANCH  90  94
ATOM     94  S   UNL A   1      45.833  36.731  27.403  1.00  0.00     0.124 S 
ATOM     95  O   UNL A   1      44.463  36.617  26.915  1.00  0.00    -0.237 OA
ATOM     96  O   UNL A   1      46.129  37.914  28.203  1.00  0.00    -0.237 OA
ATOM     97  O   UNL A   1      46.868  36.361  26.438  1.00  0.00    -0.744 OA
ENDBRANCH  90  94
ENDBRANCH  64  87
ENDBRANCH  38  39
ENDBRANCH  30  33
ENDBRANCH  28  29
ENDBRANCH  27  28
ENDBRANCH  26  27
ENDBRANCH   1  26
TORSDOF 19
ENDMDL
