MODEL 1
REMARK VINA RESULT:     -12.1      0.000      0.000
REMARK SMILES Cc1ccc(C[C@H](C(=O)NCCCCCCNC(=O)c2ccc(-c3c4nc(c(-c5cc(S(=O)(=O)[O-])ccc5F)c5ccc([nH]5)c(-c5cc(S(=O)(=O)[O-])ccc5F)c5nc(c(-c6cc(S(=O)(=O)[O-])ccc6F)c6ccc3[nH]6)C=C5)C=C4)cc2)[C@@H]2CCCC[C@@H]2O)cc1
REMARK SMILES IDX 14 1 13 2 12 3 11 4 10 5 8 6 9 7 7 9 6 10 5 11 1 12 2 13
REMARK SMILES IDX 3 14 91 15 4 16 90 17 83 18 84 19 88 20 85 21 87 22 86 23
REMARK SMILES IDX 89 24 15 26 16 27 17 28 18 29 19 31 20 32 21 33 82 34 22 35
REMARK SMILES IDX 81 36 23 37 24 38 25 39 75 40 26 41 80 42 74 43 76 44 27 45
REMARK SMILES IDX 79 46 73 47 72 48 28 50 60 51 40 52 59 53 41 54 44 55 58 56
REMARK SMILES IDX 77 57 42 58 43 59 57 61 78 62 45 63 29 64 30 65 38 66 31 67
REMARK SMILES IDX 37 68 39 69 36 70 32 71 33 72 34 73 35 74 61 75 62 76 70 77
REMARK SMILES IDX 63 78 69 79 71 80 68 81 64 82 65 83 66 84 67 85 46 86 47 87
REMARK SMILES IDX 55 88 48 89 54 90 56 91 53 92 49 93 50 94 51 95 52 96
REMARK H PARENT 10 8 89 25 17 30 76 49 44 60
REMARK Flexibility Score: inf
ROOT
ATOM      1  C   UNL A   1      37.370  20.979  24.788  1.00  0.00     0.002 C 
ENDROOT
BRANCH   1   2
ATOM      2  C   UNL A   1      36.670  22.102  24.011  1.00  0.00     0.002 C 
BRANCH   2   3
ATOM      3  C   UNL A   1      35.462  22.876  24.598  1.00  0.00     0.021 C 
BRANCH   3   4
ATOM      4  C   UNL A   1      34.119  22.904  23.863  1.00  0.00     0.116 C 
BRANCH   4   5
ATOM      5  N   UNL A   1      32.945  22.715  24.702  1.00  0.00    -0.356 N 
ATOM      6  C   UNL A   1      32.000  23.572  25.177  1.00  0.00     0.223 C 
ATOM      7  O   UNL A   1      31.098  23.019  25.829  1.00  0.00    -0.275 OA
ATOM      8  H   UNL A   1      32.807  21.780  24.981  1.00  0.00     0.163 HD
BRANCH   6   9
ATOM      9  C   UNL A   1      32.019  25.142  25.052  1.00  0.00     0.088 C 
BRANCH   9  10
ATOM     10  C   UNL A   1      33.326  25.810  25.574  1.00  0.00     0.049 C 
BRANCH  10  11
ATOM     11  C   UNL A   1      33.146  27.110  26.323  1.00  0.00    -0.047 A 
ATOM     12  C   UNL A   1      32.132  31.169  27.034  1.00  0.00     0.044 C 
ATOM     13  C   UNL A   1      32.546  29.735  27.006  1.00  0.00    -0.051 A 
ATOM     14  C   UNL A   1      33.855  29.393  26.664  1.00  0.00     0.004 A 
ATOM     15  C   UNL A   1      31.603  28.726  27.232  1.00  0.00     0.004 A 
ATOM     16  C   UNL A   1      34.162  28.076  26.343  1.00  0.00     0.004 A 
ATOM     17  C   UNL A   1      31.909  27.407  26.907  1.00  0.00     0.004 A 
ENDBRANCH  10  11
ENDBRANCH   9  10
BRANCH   9  18
ATOM     18  C   UNL A   1      31.756  25.513  23.513  1.00  0.00     0.030 C 
ATOM     19  C   UNL A   1      32.872  26.231  22.720  1.00  0.00     0.007 C 
ATOM     20  C   UNL A   1      30.438  26.308  23.289  1.00  0.00     0.118 C 
ATOM     21  C   UNL A   1      33.034  27.699  23.100  1.00  0.00     0.001 C 
ATOM     22  C   UNL A   1      30.573  27.801  23.615  1.00  0.00     0.032 C 
ATOM     23  C   UNL A   1      31.732  28.458  22.874  1.00  0.00     0.003 C 
BRANCH  20  24
ATOM     24  O   UNL A   1      29.351  25.790  24.040  1.00  0.00    -0.393 OA
ATOM     25  H   UNL A   1      29.087  26.434  24.715  1.00  0.00     0.210 HD
ENDBRANCH  20  24
ENDBRANCH   9  18
ENDBRANCH   6   9
ENDBRANCH   4   5
ENDBRANCH   3   4
ENDBRANCH   2   3
ENDBRANCH   1   2
BRANCH   1  26
ATOM     26  C   UNL A   1      38.641  21.284  25.622  1.00  0.00     0.021 C 
BRANCH  26  27
ATOM     27  C   UNL A   1      38.948  22.701  26.124  1.00  0.00     0.116 C 
BRANCH  27  28
ATOM     28  N   UNL A   1      40.187  22.883  26.857  1.00  0.00    -0.352 N 
ATOM     29  C   UNL A   1      40.923  24.048  27.048  1.00  0.00     0.251 C 
ATOM     30  H   UNL A   1      40.558  22.071  27.275  1.00  0.00     0.163 HD
ATOM     31  O   UNL A   1      42.128  24.019  27.242  1.00  0.00    -0.269 OA
BRANCH  29  32
ATOM     32  C   UNL A   1      40.202  25.343  27.249  1.00  0.00     0.039 A 
ATOM     33  C   UNL A   1      40.641  26.431  26.472  1.00  0.00     0.014 A 
ATOM     34  C   UNL A   1      39.304  25.567  28.284  1.00  0.00     0.014 A 
ATOM     35  C   UNL A   1      40.415  27.739  26.903  1.00  0.00     0.010 A 
ATOM     36  C   UNL A   1      39.098  26.862  28.726  1.00  0.00     0.010 A 
ATOM     37  C   UNL A   1      39.741  27.931  28.102  1.00  0.00    -0.014 A 
BRANCH  37  38
ATOM     38  C   UNL A   1      39.840  29.145  28.905  1.00  0.00     0.031 A 
ATOM     39  C   UNL A   1      38.785  30.167  28.902  1.00  0.00     0.074 A 
ATOM     40  C   UNL A   1      40.873  29.241  29.771  1.00  0.00     0.049 A 
ATOM     41  N   UNL A   1      38.971  31.409  29.195  1.00  0.00    -0.248 NA
ATOM     42  C   UNL A   1      37.411  29.859  28.539  1.00  0.00     0.031 C 
ATOM     43  C   UNL A   1      41.048  30.187  30.869  1.00  0.00     0.029 A 
ATOM     44  N   UNL A   1      42.099  28.594  29.679  1.00  0.00    -0.354 N 
ATOM     45  C   UNL A   1      37.731  31.983  29.370  1.00  0.00     0.074 A 
ATOM     46  C   UNL A   1      36.801  31.007  28.848  1.00  0.00     0.031 C 
ATOM     47  C   UNL A   1      42.352  30.243  31.188  1.00  0.00     0.029 A 
ATOM     48  C   UNL A   1      43.074  29.452  30.204  1.00  0.00     0.049 A 
ATOM     49  H   UNL A   1      42.255  27.694  29.310  1.00  0.00     0.167 HD
ATOM     50  C   UNL A   1      37.624  33.140  30.089  1.00  0.00     0.034 A 
ATOM     51  C   UNL A   1      44.071  29.923  29.395  1.00  0.00     0.034 A 
ATOM     52  C   UNL A   1      38.941  33.615  30.527  1.00  0.00     0.049 A 
ATOM     53  C   UNL A   1      44.017  31.425  29.205  1.00  0.00     0.074 A 
ATOM     54  C   UNL A   1      39.603  33.539  31.743  1.00  0.00     0.029 A 
ATOM     55  N   UNL A   1      39.892  34.007  29.589  1.00  0.00    -0.354 N 
ATOM     56  N   UNL A   1      42.975  32.161  29.482  1.00  0.00    -0.248 NA
ATOM     57  C   UNL A   1      45.133  32.215  28.696  1.00  0.00     0.031 C 
ATOM     58  C   UNL A   1      40.978  33.802  31.511  1.00  0.00     0.029 A 
ATOM     59  C   UNL A   1      41.146  34.080  30.165  1.00  0.00     0.049 A 
ATOM     60  H   UNL A   1      39.696  34.207  28.644  1.00  0.00     0.167 HD
ATOM     61  C   UNL A   1      43.246  33.476  29.200  1.00  0.00     0.074 A 
ATOM     62  C   UNL A   1      44.621  33.458  28.729  1.00  0.00     0.031 C 
ATOM     63  C   UNL A   1      42.312  34.462  29.377  1.00  0.00     0.034 A 
BRANCH  50  64
ATOM     64  C   UNL A   1      36.328  33.653  30.695  1.00  0.00     0.023 A 
ATOM     65  C   UNL A   1      35.381  34.288  29.860  1.00  0.00     0.031 A 
ATOM     66  C   UNL A   1      35.979  33.609  32.058  1.00  0.00     0.131 A 
ATOM     67  C   UNL A   1      34.249  34.941  30.383  1.00  0.00     0.055 A 
ATOM     68  C   UNL A   1      34.882  34.304  32.590  1.00  0.00     0.041 A 
ATOM     69  F   UNL A   1      36.643  32.845  32.933  1.00  0.00    -0.206 F 
ATOM     70  C   UNL A   1      34.017  34.991  31.753  1.00  0.00     0.022 A 
BRANCH  67  71
ATOM     71  S   UNL A   1      33.076  35.727  29.244  1.00  0.00     0.124 S 
ATOM     72  O   UNL A   1      32.528  34.580  28.526  1.00  0.00    -0.237 OA
ATOM     73  O   UNL A   1      32.170  36.413  30.158  1.00  0.00    -0.237 OA
ATOM     74  O   UNL A   1      33.923  36.608  28.440  1.00  0.00    -0.744 OA
ENDBRANCH  67  71
ENDBRANCH  50  64
BRANCH  51  75
ATOM     75  C   UNL A   1      44.500  28.916  28.376  1.00  0.00     0.023 A 
ATOM     76  C   UNL A   1      45.114  27.739  28.862  1.00  0.00     0.031 A 
ATOM     77  C   UNL A   1      43.952  28.881  27.087  1.00  0.00     0.131 A 
ATOM     78  C   UNL A   1      45.010  26.533  28.150  1.00  0.00     0.055 A 
ATOM     79  C   UNL A   1      43.914  27.689  26.348  1.00  0.00     0.041 A 
ATOM     80  F   UNL A   1      43.327  29.952  26.579  1.00  0.00    -0.206 F 
ATOM     81  C   UNL A   1      44.397  26.498  26.899  1.00  0.00     0.022 A 
BRANCH  78  82
ATOM     82  S   UNL A   1      45.434  24.973  28.988  1.00  0.00     0.124 S 
ATOM     83  O   UNL A   1      44.266  24.747  29.829  1.00  0.00    -0.237 OA
ATOM     84  O   UNL A   1      45.600  24.041  27.875  1.00  0.00    -0.237 OA
ATOM     85  O   UNL A   1      46.677  25.283  29.694  1.00  0.00    -0.744 OA
ENDBRANCH  78  82
ENDBRANCH  51  75
BRANCH  63  86
ATOM     86  C   UNL A   1      42.437  35.899  28.910  1.00  0.00     0.023 A 
ATOM     87  C   UNL A   1      43.136  36.885  29.620  1.00  0.00     0.031 A 
ATOM     88  C   UNL A   1      41.909  36.308  27.658  1.00  0.00     0.131 A 
ATOM     89  C   UNL A   1      43.218  38.207  29.146  1.00  0.00     0.055 A 
ATOM     90  C   UNL A   1      42.068  37.600  27.147  1.00  0.00     0.041 A 
ATOM     91  F   UNL A   1      41.220  35.469  26.871  1.00  0.00    -0.206 F 
ATOM     92  C   UNL A   1      42.712  38.566  27.899  1.00  0.00     0.022 A 
BRANCH  89  93
ATOM     93  S   UNL A   1      43.935  39.465  30.235  1.00  0.00     0.124 S 
ATOM     94  O   UNL A   1      44.343  38.664  31.386  1.00  0.00    -0.237 OA
ATOM     95  O   UNL A   1      45.019  40.003  29.420  1.00  0.00    -0.237 OA
ATOM     96  O   UNL A   1      42.825  40.382  30.481  1.00  0.00    -0.744 OA
ENDBRANCH  89  93
ENDBRANCH  63  86
ENDBRANCH  37  38
ENDBRANCH  29  32
ENDBRANCH  27  28
ENDBRANCH  26  27
ENDBRANCH   1  26
TORSDOF 20
ENDMDL
MODEL 2
REMARK VINA RESULT:     -12.1      1.478      2.484
REMARK SMILES Cc1ccc(C[C@H](C(=O)NCCCCCCNC(=O)c2ccc(-c3c4nc(c(-c5cc(S(=O)(=O)[O-])ccc5F)c5ccc([nH]5)c(-c5cc(S(=O)(=O)[O-])ccc5F)c5nc(c(-c6cc(S(=O)(=O)[O-])ccc6F)c6ccc3[nH]6)C=C5)C=C4)cc2)[C@@H]2CCCC[C@@H]2O)cc1
REMARK SMILES IDX 14 1 13 2 12 3 11 4 10 5 8 6 9 7 7 9 6 10 5 11 1 12 2 13
REMARK SMILES IDX 3 14 91 15 4 16 90 17 83 18 84 19 88 20 85 21 87 22 86 23
REMARK SMILES IDX 89 24 15 26 16 27 17 28 18 29 19 31 20 32 21 33 82 34 22 35
REMARK SMILES IDX 81 36 23 37 24 38 25 39 75 40 26 41 80 42 74 43 76 44 27 45
REMARK SMILES IDX 79 46 73 47 72 48 28 50 60 51 40 52 59 53 41 54 44 55 58 56
REMARK SMILES IDX 77 57 42 58 43 59 57 61 78 62 45 63 29 64 30 65 38 66 31 67
REMARK SMILES IDX 37 68 39 69 36 70 32 71 33 72 34 73 35 74 61 75 62 76 70 77
REMARK SMILES IDX 63 78 69 79 71 80 68 81 64 82 65 83 66 84 67 85 46 86 47 87
REMARK SMILES IDX 55 88 48 89 54 90 56 91 53 92 49 93 50 94 51 95 52 96
REMARK H PARENT 10 8 89 25 17 30 76 49 44 60
REMARK Flexibility Score: inf
ROOT
ATOM      1  C   UNL A   1      40.633  21.204  26.457  1.00  0.00     0.002 C 
ENDROOT
BRANCH   1   2
ATOM      2  C   UNL A   1      39.287  21.758  25.970  1.00  0.00     0.002 C 
BRANCH   2   3
ATOM      3  C   UNL A   1      38.688  23.071  26.536  1.00  0.00     0.021 C 
BRANCH   3   4
ATOM      4  C   UNL A   1      37.556  23.795  25.800  1.00  0.00     0.116 C 
BRANCH   4   5
ATOM      5  N   UNL A   1      37.351  23.390  24.418  1.00  0.00    -0.356 N 
ATOM      6  C   UNL A   1      36.248  23.344  23.622  1.00  0.00     0.223 C 
ATOM      7  O   UNL A   1      36.481  22.989  22.454  1.00  0.00    -0.275 OA
ATOM      8  H   UNL A   1      38.175  23.090  23.969  1.00  0.00     0.163 HD
BRANCH   6   9
ATOM      9  C   UNL A   1      34.760  23.597  24.075  1.00  0.00     0.088 C 
BRANCH   9  10
ATOM     10  C   UNL A   1      34.037  24.733  23.292  1.00  0.00     0.049 C 
BRANCH  10  11
ATOM     11  C   UNL A   1      33.660  25.952  24.102  1.00  0.00    -0.047 A 
ATOM     12  C   UNL A   1      34.080  29.230  26.764  1.00  0.00     0.044 C 
ATOM     13  C   UNL A   1      33.716  28.148  25.802  1.00  0.00    -0.051 A 
ATOM     14  C   UNL A   1      33.249  26.922  26.275  1.00  0.00     0.004 A 
ATOM     15  C   UNL A   1      33.926  28.327  24.430  1.00  0.00     0.004 A 
ATOM     16  C   UNL A   1      33.200  25.826  25.420  1.00  0.00     0.004 A 
ATOM     17  C   UNL A   1      33.880  27.230  23.574  1.00  0.00     0.004 A 
ENDBRANCH  10  11
ENDBRANCH   9  10
BRANCH   9  18
ATOM     18  C   UNL A   1      33.966  22.209  23.943  1.00  0.00     0.030 C 
ATOM     19  C   UNL A   1      32.537  22.222  23.354  1.00  0.00     0.007 C 
ATOM     20  C   UNL A   1      33.916  21.401  25.271  1.00  0.00     0.118 C 
ATOM     21  C   UNL A   1      31.494  22.787  24.312  1.00  0.00     0.001 C 
ATOM     22  C   UNL A   1      32.846  21.909  26.245  1.00  0.00     0.032 C 
ATOM     23  C   UNL A   1      31.464  21.982  25.606  1.00  0.00     0.003 C 
BRANCH  20  24
ATOM     24  O   UNL A   1      35.162  21.389  25.953  1.00  0.00    -0.393 OA
ATOM     25  H   UNL A   1      35.044  21.743  26.848  1.00  0.00     0.210 HD
ENDBRANCH  20  24
ENDBRANCH   9  18
ENDBRANCH   6   9
ENDBRANCH   4   5
ENDBRANCH   3   4
ENDBRANCH   2   3
ENDBRANCH   1   2
BRANCH   1  26
ATOM     26  C   UNL A   1      41.092  21.448  27.918  1.00  0.00     0.021 C 
BRANCH  26  27
ATOM     27  C   UNL A   1      41.735  22.776  28.344  1.00  0.00     0.116 C 
BRANCH  27  28
ATOM     28  N   UNL A   1      42.508  23.481  27.340  1.00  0.00    -0.352 N 
ATOM     29  C   UNL A   1      42.102  24.502  26.486  1.00  0.00     0.251 C 
ATOM     30  H   UNL A   1      43.448  23.199  27.249  1.00  0.00     0.163 HD
ATOM     31  O   UNL A   1      42.640  24.684  25.405  1.00  0.00    -0.269 OA
BRANCH  29  32
ATOM     32  C   UNL A   1      41.149  25.539  26.988  1.00  0.00     0.039 A 
ATOM     33  C   UNL A   1      40.972  26.674  26.175  1.00  0.00     0.014 A 
ATOM     34  C   UNL A   1      40.621  25.536  28.272  1.00  0.00     0.014 A 
ATOM     35  C   UNL A   1      40.535  27.877  26.732  1.00  0.00     0.010 A 
ATOM     36  C   UNL A   1      40.209  26.733  28.832  1.00  0.00     0.010 A 
ATOM     37  C   UNL A   1      40.272  27.915  28.095  1.00  0.00    -0.014 A 
BRANCH  37  38
ATOM     38  C   UNL A   1      40.279  29.138  28.891  1.00  0.00     0.031 A 
ATOM     39  C   UNL A   1      39.166  30.097  28.850  1.00  0.00     0.074 A 
ATOM     40  C   UNL A   1      41.279  29.300  29.784  1.00  0.00     0.049 A 
ATOM     41  N   UNL A   1      39.272  31.350  29.137  1.00  0.00    -0.248 NA
ATOM     42  C   UNL A   1      37.823  29.707  28.451  1.00  0.00     0.031 C 
ATOM     43  C   UNL A   1      41.368  30.262  30.877  1.00  0.00     0.029 A 
ATOM     44  N   UNL A   1      42.543  28.725  29.730  1.00  0.00    -0.354 N 
ATOM     45  C   UNL A   1      37.997  31.852  29.273  1.00  0.00     0.074 A 
ATOM     46  C   UNL A   1      37.139  30.820  28.733  1.00  0.00     0.031 C 
ATOM     47  C   UNL A   1      42.658  30.396  31.231  1.00  0.00     0.029 A 
ATOM     48  C   UNL A   1      43.452  29.642  30.275  1.00  0.00     0.049 A 
ATOM     49  H   UNL A   1      42.761  27.833  29.374  1.00  0.00     0.167 HD
ATOM     50  C   UNL A   1      37.802  33.005  29.979  1.00  0.00     0.034 A 
ATOM     51  C   UNL A   1      44.441  30.164  29.490  1.00  0.00     0.034 A 
ATOM     52  C   UNL A   1      39.077  33.560  30.449  1.00  0.00     0.049 A 
ATOM     53  C   UNL A   1      44.306  31.659  29.285  1.00  0.00     0.074 A 
ATOM     54  C   UNL A   1      39.708  33.531  31.682  1.00  0.00     0.029 A 
ATOM     55  N   UNL A   1      40.029  34.000  29.533  1.00  0.00    -0.354 N 
ATOM     56  N   UNL A   1      43.216  32.336  29.527  1.00  0.00    -0.248 NA
ATOM     57  C   UNL A   1      45.388  32.509  28.800  1.00  0.00     0.031 C 
ATOM     58  C   UNL A   1      41.071  33.872  31.486  1.00  0.00     0.029 A 
ATOM     59  C   UNL A   1      41.260  34.149  30.143  1.00  0.00     0.049 A 
ATOM     60  H   UNL A   1      39.849  34.181  28.582  1.00  0.00     0.167 HD
ATOM     61  C   UNL A   1      43.418  33.662  29.241  1.00  0.00     0.074 A 
ATOM     62  C   UNL A   1      44.804  33.720  28.809  1.00  0.00     0.031 C 
ATOM     63  C   UNL A   1      42.424  34.593  29.384  1.00  0.00     0.034 A 
BRANCH  50  64
ATOM     64  C   UNL A   1      36.462  33.447  30.545  1.00  0.00     0.023 A 
ATOM     65  C   UNL A   1      35.540  34.102  29.698  1.00  0.00     0.031 A 
ATOM     66  C   UNL A   1      36.048  33.315  31.883  1.00  0.00     0.131 A 
ATOM     67  C   UNL A   1      34.363  34.692  30.197  1.00  0.00     0.055 A 
ATOM     68  C   UNL A   1      34.904  33.947  32.395  1.00  0.00     0.041 A 
ATOM     69  F   UNL A   1      36.690  32.521  32.747  1.00  0.00    -0.206 F 
ATOM     70  C   UNL A   1      34.061  34.656  31.554  1.00  0.00     0.022 A 
BRANCH  67  71
ATOM     71  S   UNL A   1      33.224  35.507  29.044  1.00  0.00     0.124 S 
ATOM     72  O   UNL A   1      34.130  36.325  28.243  1.00  0.00    -0.237 OA
ATOM     73  O   UNL A   1      32.604  34.374  28.368  1.00  0.00    -0.237 OA
ATOM     74  O   UNL A   1      32.333  36.261  29.926  1.00  0.00    -0.744 OA
ENDBRANCH  67  71
ENDBRANCH  50  64
BRANCH  51  75
ATOM     75  C   UNL A   1      44.957  29.177  28.491  1.00  0.00     0.023 A 
ATOM     76  C   UNL A   1      45.792  28.149  28.985  1.00  0.00     0.031 A 
ATOM     77  C   UNL A   1      44.329  28.970  27.256  1.00  0.00     0.131 A 
ATOM     78  C   UNL A   1      45.839  26.898  28.347  1.00  0.00     0.055 A 
ATOM     79  C   UNL A   1      44.436  27.743  26.585  1.00  0.00     0.041 A 
ATOM     80  F   UNL A   1      43.498  29.891  26.747  1.00  0.00    -0.206 F 
ATOM     81  C   UNL A   1      45.150  26.684  27.154  1.00  0.00     0.022 A 
BRANCH  78  82
ATOM     82  S   UNL A   1      46.577  25.485  29.225  1.00  0.00     0.124 S 
ATOM     83  O   UNL A   1      46.287  25.801  30.617  1.00  0.00    -0.237 OA
ATOM     84  O   UNL A   1      45.853  24.343  28.672  1.00  0.00    -0.237 OA
ATOM     85  O   UNL A   1      47.989  25.536  28.843  1.00  0.00    -0.744 OA
ENDBRANCH  78  82
ENDBRANCH  51  75
BRANCH  63  86
ATOM     86  C   UNL A   1      42.478  36.032  28.909  1.00  0.00     0.023 A 
ATOM     87  C   UNL A   1      43.143  37.052  29.603  1.00  0.00     0.031 A 
ATOM     88  C   UNL A   1      41.915  36.410  27.662  1.00  0.00     0.131 A 
ATOM     89  C   UNL A   1      43.159  38.373  29.121  1.00  0.00     0.055 A 
ATOM     90  C   UNL A   1      42.009  37.704  27.142  1.00  0.00     0.041 A 
ATOM     91  F   UNL A   1      41.253  35.537  26.889  1.00  0.00    -0.206 F 
ATOM     92  C   UNL A   1      42.620  38.703  27.880  1.00  0.00     0.022 A 
BRANCH  89  93
ATOM     93  S   UNL A   1      43.835  39.667  30.194  1.00  0.00     0.124 S 
ATOM     94  O   UNL A   1      45.028  40.073  29.456  1.00  0.00    -0.237 OA
ATOM     95  O   UNL A   1      42.750  40.642  30.231  1.00  0.00    -0.237 OA
ATOM     96  O   UNL A   1      44.092  38.973  31.453  1.00  0.00    -0.744 OA
ENDBRANCH  89  93
ENDBRANCH  63  86
ENDBRANCH  37  38
ENDBRANCH  29  32
ENDBRANCH  27  28
ENDBRANCH  26  27
ENDBRANCH   1  26
TORSDOF 20
ENDMDL
MODEL 3
REMARK VINA RESULT:     -12.1      1.647      3.332
REMARK SMILES Cc1ccc(C[C@H](C(=O)NCCCCCCNC(=O)c2ccc(-c3c4nc(c(-c5cc(S(=O)(=O)[O-])ccc5F)c5ccc([nH]5)c(-c5cc(S(=O)(=O)[O-])ccc5F)c5nc(c(-c6cc(S(=O)(=O)[O-])ccc6F)c6ccc3[nH]6)C=C5)C=C4)cc2)[C@@H]2CCCC[C@@H]2O)cc1
REMARK SMILES IDX 14 1 13 2 12 3 11 4 10 5 8 6 9 7 7 9 6 10 5 11 1 12 2 13
REMARK SMILES IDX 3 14 91 15 4 16 90 17 83 18 84 19 88 20 85 21 87 22 86 23
REMARK SMILES IDX 89 24 15 26 16 27 17 28 18 29 19 31 20 32 21 33 82 34 22 35
REMARK SMILES IDX 81 36 23 37 24 38 25 39 75 40 26 41 80 42 74 43 76 44 27 45
REMARK SMILES IDX 79 46 73 47 72 48 28 50 60 51 40 52 59 53 41 54 44 55 58 56
REMARK SMILES IDX 77 57 42 58 43 59 57 61 78 62 45 63 29 64 30 65 38 66 31 67
REMARK SMILES IDX 37 68 39 69 36 70 32 71 33 72 34 73 35 74 61 75 62 76 70 77
REMARK SMILES IDX 63 78 69 79 71 80 68 81 64 82 65 83 66 84 67 85 46 86 47 87
REMARK SMILES IDX 55 88 48 89 54 90 56 91 53 92 49 93 50 94 51 95 52 96
REMARK H PARENT 10 8 89 25 17 30 76 49 44 60
REMARK Flexibility Score: inf
ROOT
ATOM      1  C   UNL A   1      40.649  21.291  26.577  1.00  0.00     0.002 C 
ENDROOT
BRANCH   1   2
ATOM      2  C   UNL A   1      39.292  21.775  26.047  1.00  0.00     0.002 C 
BRANCH   2   3
ATOM      3  C   UNL A   1      38.622  23.070  26.572  1.00  0.00     0.021 C 
BRANCH   3   4
ATOM      4  C   UNL A   1      37.485  23.735  25.789  1.00  0.00     0.116 C 
BRANCH   4   5
ATOM      5  N   UNL A   1      37.398  23.369  24.384  1.00  0.00    -0.356 N 
ATOM      6  C   UNL A   1      36.356  23.291  23.511  1.00  0.00     0.223 C 
ATOM      7  O   UNL A   1      36.689  22.990  22.352  1.00  0.00    -0.275 OA
ATOM      8  H   UNL A   1      38.267  23.130  23.984  1.00  0.00     0.163 HD
BRANCH   6   9
ATOM      9  C   UNL A   1      34.829  23.448  23.867  1.00  0.00     0.088 C 
BRANCH   9  10
ATOM     10  C   UNL A   1      34.336  22.500  25.001  1.00  0.00     0.049 C 
BRANCH  10  11
ATOM     11  C   UNL A   1      33.465  21.346  24.560  1.00  0.00    -0.047 A 
ATOM     12  C   UNL A   1      32.263  17.865  22.453  1.00  0.00     0.044 C 
ATOM     13  C   UNL A   1      32.483  19.074  23.300  1.00  0.00    -0.051 A 
ATOM     14  C   UNL A   1      32.129  20.335  22.821  1.00  0.00     0.004 A 
ATOM     15  C   UNL A   1      33.127  18.958  24.537  1.00  0.00     0.004 A 
ATOM     16  C   UNL A   1      32.602  21.474  23.463  1.00  0.00     0.004 A 
ATOM     17  C   UNL A   1      33.603  20.098  25.178  1.00  0.00     0.004 A 
ENDBRANCH  10  11
ENDBRANCH   9  10
BRANCH   9  18
ATOM     18  C   UNL A   1      34.571  24.986  24.247  1.00  0.00     0.030 C 
ATOM     19  C   UNL A   1      34.073  25.326  25.670  1.00  0.00     0.007 C 
ATOM     20  C   UNL A   1      33.643  25.719  23.238  1.00  0.00     0.118 C 
ATOM     21  C   UNL A   1      32.608  24.970  25.899  1.00  0.00     0.001 C 
ATOM     22  C   UNL A   1      32.154  25.425  23.465  1.00  0.00     0.032 C 
ATOM     23  C   UNL A   1      31.718  25.699  24.900  1.00  0.00     0.003 C 
BRANCH  20  24
ATOM     24  O   UNL A   1      33.951  25.415  21.887  1.00  0.00    -0.393 OA
ATOM     25  H   UNL A   1      34.329  26.197  21.457  1.00  0.00     0.210 HD
ENDBRANCH  20  24
ENDBRANCH   9  18
ENDBRANCH   6   9
ENDBRANCH   4   5
ENDBRANCH   3   4
ENDBRANCH   2   3
ENDBRANCH   1   2
BRANCH   1  26
ATOM     26  C   UNL A   1      41.069  21.601  28.038  1.00  0.00     0.021 C 
BRANCH  26  27
ATOM     27  C   UNL A   1      41.773  22.914  28.407  1.00  0.00     0.116 C 
BRANCH  27  28
ATOM     28  N   UNL A   1      42.503  23.585  27.349  1.00  0.00    -0.352 N 
ATOM     29  C   UNL A   1      42.056  24.566  26.469  1.00  0.00     0.251 C 
ATOM     30  H   UNL A   1      43.443  23.310  27.238  1.00  0.00     0.163 HD
ATOM     31  O   UNL A   1      42.554  24.709  25.364  1.00  0.00    -0.269 OA
BRANCH  29  32
ATOM     32  C   UNL A   1      41.107  25.612  26.961  1.00  0.00     0.039 A 
ATOM     33  C   UNL A   1      40.962  26.756  26.154  1.00  0.00     0.014 A 
ATOM     34  C   UNL A   1      40.554  25.606  28.235  1.00  0.00     0.014 A 
ATOM     35  C   UNL A   1      40.531  27.960  26.713  1.00  0.00     0.010 A 
ATOM     36  C   UNL A   1      40.149  26.804  28.796  1.00  0.00     0.010 A 
ATOM     37  C   UNL A   1      40.242  27.991  28.071  1.00  0.00    -0.014 A 
BRANCH  37  38
ATOM     38  C   UNL A   1      40.250  29.207  28.876  1.00  0.00     0.031 A 
ATOM     39  C   UNL A   1      39.140  30.169  28.842  1.00  0.00     0.074 A 
ATOM     40  C   UNL A   1      41.250  29.360  29.772  1.00  0.00     0.049 A 
ATOM     41  N   UNL A   1      39.248  31.419  29.139  1.00  0.00    -0.248 NA
ATOM     42  C   UNL A   1      37.797  29.785  28.438  1.00  0.00     0.031 C 
ATOM     43  C   UNL A   1      41.339  30.313  30.874  1.00  0.00     0.029 A 
ATOM     44  N   UNL A   1      42.512  28.782  29.716  1.00  0.00    -0.354 N 
ATOM     45  C   UNL A   1      37.973  31.923  29.277  1.00  0.00     0.074 A 
ATOM     46  C   UNL A   1      37.115  30.897  28.728  1.00  0.00     0.031 C 
ATOM     47  C   UNL A   1      42.629  30.441  31.231  1.00  0.00     0.029 A 
ATOM     48  C   UNL A   1      43.422  29.693  30.270  1.00  0.00     0.049 A 
ATOM     49  H   UNL A   1      42.729  27.893  29.352  1.00  0.00     0.167 HD
ATOM     50  C   UNL A   1      37.780  33.071  29.993  1.00  0.00     0.034 A 
ATOM     51  C   UNL A   1      44.414  30.220  29.490  1.00  0.00     0.034 A 
ATOM     52  C   UNL A   1      39.055  33.619  30.469  1.00  0.00     0.049 A 
ATOM     53  C   UNL A   1      44.282  31.717  29.297  1.00  0.00     0.074 A 
ATOM     54  C   UNL A   1      39.684  33.579  31.703  1.00  0.00     0.029 A 
ATOM     55  N   UNL A   1      40.010  34.064  29.558  1.00  0.00    -0.354 N 
ATOM     56  N   UNL A   1      43.193  32.394  29.543  1.00  0.00    -0.248 NA
ATOM     57  C   UNL A   1      45.367  32.568  28.821  1.00  0.00     0.031 C 
ATOM     58  C   UNL A   1      41.049  33.918  31.512  1.00  0.00     0.029 A 
ATOM     59  C   UNL A   1      41.241  34.206  30.172  1.00  0.00     0.049 A 
ATOM     60  H   UNL A   1      39.832  34.253  28.608  1.00  0.00     0.167 HD
ATOM     61  C   UNL A   1      43.399  33.722  29.268  1.00  0.00     0.074 A 
ATOM     62  C   UNL A   1      44.785  33.780  28.839  1.00  0.00     0.031 C 
ATOM     63  C   UNL A   1      42.406  34.654  29.418  1.00  0.00     0.034 A 
BRANCH  50  64
ATOM     64  C   UNL A   1      36.440  33.511  30.560  1.00  0.00     0.023 A 
ATOM     65  C   UNL A   1      35.523  34.181  29.719  1.00  0.00     0.031 A 
ATOM     66  C   UNL A   1      36.021  33.363  31.894  1.00  0.00     0.131 A 
ATOM     67  C   UNL A   1      34.348  34.769  30.223  1.00  0.00     0.055 A 
ATOM     68  C   UNL A   1      34.878  33.993  32.412  1.00  0.00     0.041 A 
ATOM     69  F   UNL A   1      36.657  32.554  32.750  1.00  0.00    -0.206 F 
ATOM     70  C   UNL A   1      34.041  34.717  31.578  1.00  0.00     0.022 A 
BRANCH  67  71
ATOM     71  S   UNL A   1      33.216  35.606  29.077  1.00  0.00     0.124 S 
ATOM     72  O   UNL A   1      32.317  36.306  29.989  1.00  0.00    -0.237 OA
ATOM     73  O   UNL A   1      34.126  36.438  28.297  1.00  0.00    -0.237 OA
ATOM     74  O   UNL A   1      32.605  34.502  28.338  1.00  0.00    -0.744 OA
ENDBRANCH  67  71
ENDBRANCH  50  64
BRANCH  51  75
ATOM     75  C   UNL A   1      44.929  29.240  28.484  1.00  0.00     0.023 A 
ATOM     76  C   UNL A   1      45.624  28.116  28.987  1.00  0.00     0.031 A 
ATOM     77  C   UNL A   1      44.399  29.153  27.190  1.00  0.00     0.131 A 
ATOM     78  C   UNL A   1      45.618  26.900  28.285  1.00  0.00     0.055 A 
ATOM     79  C   UNL A   1      44.459  27.955  26.461  1.00  0.00     0.041 A 
ATOM     80  F   UNL A   1      43.701  30.170  26.666  1.00  0.00    -0.206 F 
ATOM     81  C   UNL A   1      45.023  26.809  27.028  1.00  0.00     0.022 A 
BRANCH  78  82
ATOM     82  S   UNL A   1      46.148  25.383  29.141  1.00  0.00     0.124 S 
ATOM     83  O   UNL A   1      45.817  25.680  30.528  1.00  0.00    -0.237 OA
ATOM     84  O   UNL A   1      45.336  24.349  28.505  1.00  0.00    -0.237 OA
ATOM     85  O   UNL A   1      47.576  25.290  28.833  1.00  0.00    -0.744 OA
ENDBRANCH  78  82
ENDBRANCH  51  75
BRANCH  63  86
ATOM     86  C   UNL A   1      42.465  36.096  28.954  1.00  0.00     0.023 A 
ATOM     87  C   UNL A   1      43.118  37.112  29.666  1.00  0.00     0.031 A 
ATOM     88  C   UNL A   1      41.918  36.483  27.703  1.00  0.00     0.131 A 
ATOM     89  C   UNL A   1      43.138  38.437  29.195  1.00  0.00     0.055 A 
ATOM     90  C   UNL A   1      42.017  37.782  27.195  1.00  0.00     0.041 A 
ATOM     91  F   UNL A   1      41.268  35.615  26.914  1.00  0.00    -0.206 F 
ATOM     92  C   UNL A   1      42.616  38.775  27.948  1.00  0.00     0.022 A 
BRANCH  89  93
ATOM     93  S   UNL A   1      43.796  39.724  30.286  1.00  0.00     0.124 S 
ATOM     94  O   UNL A   1      44.035  38.977  31.518  1.00  0.00    -0.237 OA
ATOM     95  O   UNL A   1      44.989  40.163  29.569  1.00  0.00    -0.237 OA
ATOM     96  O   UNL A   1      42.715  40.704  30.357  1.00  0.00    -0.744 OA
ENDBRANCH  89  93
ENDBRANCH  63  86
ENDBRANCH  37  38
ENDBRANCH  29  32
ENDBRANCH  27  28
ENDBRANCH  26  27
ENDBRANCH   1  26
TORSDOF 20
ENDMDL
