MODEL 1
REMARK VINA RESULT:     -10.8      0.000      0.000
REMARK SMILES O=C(CCCNC(=O)N1CC[C@@H](C(=O)NCCCCCCNC(=O)c2ccc(-c3c4nc(c(-c5cc(S(=O)(=O)[O-])ccc5F)c5ccc([nH]5)c(-c5cc(S(=O)(=O)[O-])ccc5F)c5nc(c(-c6cc(S(=O)(=O)[O-])ccc6F)c6ccc3[nH]6)C=C5)C=C4)cc2)C1)NC1CC1
REMARK SMILES IDX 17 1 16 2 15 3 13 4 14 5 12 7 9 8 10 9 88 10 11 11 7 12 6 13
REMARK SMILES IDX 8 15 5 16 4 17 3 18 2 19 1 20 89 21 90 23 91 24 92 25 18 26
REMARK SMILES IDX 19 27 20 28 21 29 22 30 23 31 24 33 25 34 26 35 87 36 27 37
REMARK SMILES IDX 86 38 28 39 29 40 30 41 80 42 31 43 85 44 79 45 81 46 32 47
REMARK SMILES IDX 84 48 78 49 77 50 33 52 65 53 45 54 64 55 46 56 49 57 63 58
REMARK SMILES IDX 82 59 47 60 48 61 62 63 83 64 50 65 34 66 35 67 43 68 36 69
REMARK SMILES IDX 42 70 44 71 41 72 37 73 38 74 39 75 40 76 66 77 67 78 75 79
REMARK SMILES IDX 68 80 74 81 76 82 73 83 69 84 70 85 71 86 72 87 51 88 52 89
REMARK SMILES IDX 60 90 53 91 59 92 61 93 58 94 54 95 55 96 56 97 57 98
REMARK H PARENT 15 6 6 14 89 22 22 32 81 51 49 62
REMARK Flexibility Score: inf
ROOT
ATOM      1  C   UNL A   1      29.964  29.512  23.849  1.00  0.00     0.021 C 
ENDROOT
BRANCH   1   2
ATOM      2  C   UNL A   1      30.749  29.066  22.622  1.00  0.00     0.116 C 
BRANCH   2   3
ATOM      3  N   UNL A   1      32.181  29.173  22.833  1.00  0.00    -0.356 N 
ATOM      4  C   UNL A   1      33.065  28.208  23.208  1.00  0.00     0.224 C 
ATOM      5  O   UNL A   1      34.252  28.508  23.326  1.00  0.00    -0.275 OA
ATOM      6  H   UNL A   1      32.566  30.067  22.684  1.00  0.00     0.163 HD
BRANCH   4   7
ATOM      7  C   UNL A   1      32.536  26.817  23.491  1.00  0.00     0.100 C 
ATOM      8  N   UNL A   1      34.012  24.985  23.714  1.00  0.00    -0.324 N 
ATOM      9  C   UNL A   1      34.071  25.727  24.958  1.00  0.00     0.122 C 
ATOM     10  C   UNL A   1      33.333  25.766  22.707  1.00  0.00     0.134 C 
ATOM     11  C   UNL A   1      32.721  26.417  24.966  1.00  0.00     0.037 C 
BRANCH   8  12
ATOM     12  C   UNL A   1      34.568  23.790  23.400  1.00  0.00     0.317 C 
ATOM     13  N   UNL A   1      33.928  22.656  23.768  1.00  0.00    -0.338 N 
ATOM     14  H   UNL A   1      34.491  21.859  23.909  1.00  0.00     0.165 HD
ATOM     15  O   UNL A   1      35.589  23.686  22.722  1.00  0.00    -0.249 OA
BRANCH  13  16
ATOM     16  C   UNL A   1      32.500  22.486  23.978  1.00  0.00     0.118 C 
BRANCH  16  17
ATOM     17  C   UNL A   1      32.173  21.278  24.854  1.00  0.00     0.031 C 
BRANCH  17  18
ATOM     18  C   UNL A   1      33.269  20.871  25.833  1.00  0.00     0.102 C 
BRANCH  18  19
ATOM     19  C   UNL A   1      34.290  19.954  25.198  1.00  0.00     0.220 C 
ATOM     20  O   UNL A   1      35.436  20.323  24.965  1.00  0.00    -0.275 OA
ATOM     21  N   UNL A   1      33.807  18.697  24.889  1.00  0.00    -0.353 N 
ATOM     22  H   UNL A   1      32.868  18.483  25.088  1.00  0.00     0.163 HD
BRANCH  21  23
ATOM     23  C   UNL A   1      34.633  17.701  24.290  1.00  0.00     0.082 C 
ATOM     24  C   UNL A   1      34.679  16.299  24.832  1.00  0.00     0.027 C 
ATOM     25  C   UNL A   1      34.025  16.569  23.509  1.00  0.00     0.027 C 
ENDBRANCH  21  23
ENDBRANCH  18  19
ENDBRANCH  17  18
ENDBRANCH  16  17
ENDBRANCH  13  16
ENDBRANCH   8  12
ENDBRANCH   4   7
ENDBRANCH   2   3
ENDBRANCH   1   2
BRANCH   1  26
ATOM     26  C   UNL A   1      30.393  30.868  24.417  1.00  0.00     0.002 C 
BRANCH  26  27
ATOM     27  C   UNL A   1      31.233  30.800  25.695  1.00  0.00     0.002 C 
BRANCH  27  28
ATOM     28  C   UNL A   1      31.184  32.054  26.571  1.00  0.00     0.021 C 
BRANCH  28  29
ATOM     29  C   UNL A   1      32.538  32.531  27.085  1.00  0.00     0.116 C 
BRANCH  29  30
ATOM     30  N   UNL A   1      32.491  33.903  27.561  1.00  0.00    -0.352 N 
ATOM     31  C   UNL A   1      33.214  34.500  28.562  1.00  0.00     0.251 C 
ATOM     32  H   UNL A   1      31.849  34.488  27.098  1.00  0.00     0.163 HD
ATOM     33  O   UNL A   1      32.896  35.623  28.950  1.00  0.00    -0.269 OA
BRANCH  31  34
ATOM     34  C   UNL A   1      34.348  33.786  29.186  1.00  0.00     0.039 A 
ATOM     35  C   UNL A   1      35.646  34.235  28.932  1.00  0.00     0.014 A 
ATOM     36  C   UNL A   1      34.141  32.676  30.013  1.00  0.00     0.014 A 
ATOM     37  C   UNL A   1      36.730  33.606  29.549  1.00  0.00     0.010 A 
ATOM     38  C   UNL A   1      35.215  32.101  30.688  1.00  0.00     0.010 A 
ATOM     39  C   UNL A   1      36.521  32.556  30.460  1.00  0.00    -0.014 A 
BRANCH  39  40
ATOM     40  C   UNL A   1      37.667  31.932  31.176  1.00  0.00     0.031 A 
ATOM     41  C   UNL A   1      38.438  30.806  30.542  1.00  0.00     0.074 A 
ATOM     42  C   UNL A   1      37.990  32.362  32.412  1.00  0.00     0.049 A 
ATOM     43  N   UNL A   1      39.447  30.122  31.019  1.00  0.00    -0.248 NA
ATOM     44  C   UNL A   1      38.002  30.375  29.204  1.00  0.00     0.031 C 
ATOM     45  C   UNL A   1      37.291  33.420  33.146  1.00  0.00     0.029 A 
ATOM     46  N   UNL A   1      38.984  31.967  33.272  1.00  0.00    -0.354 N 
ATOM     47  C   UNL A   1      39.765  29.181  30.046  1.00  0.00     0.074 A 
ATOM     48  C   UNL A   1      38.797  29.339  28.982  1.00  0.00     0.031 C 
ATOM     49  C   UNL A   1      37.900  33.614  34.326  1.00  0.00     0.029 A 
ATOM     50  C   UNL A   1      39.000  32.664  34.458  1.00  0.00     0.049 A 
ATOM     51  H   UNL A   1      39.627  31.253  33.058  1.00  0.00     0.167 HD
ATOM     52  C   UNL A   1      40.785  28.287  30.030  1.00  0.00     0.034 A 
ATOM     53  C   UNL A   1      39.802  32.545  35.536  1.00  0.00     0.034 A 
ATOM     54  C   UNL A   1      41.744  28.146  31.100  1.00  0.00     0.049 A 
ATOM     55  C   UNL A   1      40.906  31.516  35.508  1.00  0.00     0.074 A 
ATOM     56  C   UNL A   1      42.841  27.304  31.167  1.00  0.00     0.029 A 
ATOM     57  N   UNL A   1      41.719  28.856  32.293  1.00  0.00    -0.354 N 
ATOM     58  N   UNL A   1      41.224  30.670  34.555  1.00  0.00    -0.248 NA
ATOM     59  C   UNL A   1      41.764  31.436  36.696  1.00  0.00     0.031 C 
ATOM     60  C   UNL A   1      43.430  27.449  32.427  1.00  0.00     0.029 A 
ATOM     61  C   UNL A   1      42.758  28.446  33.115  1.00  0.00     0.049 A 
ATOM     62  H   UNL A   1      41.059  29.550  32.523  1.00  0.00     0.167 HD
ATOM     63  C   UNL A   1      42.343  29.982  35.019  1.00  0.00     0.074 A 
ATOM     64  C   UNL A   1      42.654  30.528  36.324  1.00  0.00     0.031 C 
ATOM     65  C   UNL A   1      43.052  28.991  34.421  1.00  0.00     0.034 A 
BRANCH  52  66
ATOM     66  C   UNL A   1      40.898  27.378  28.829  1.00  0.00     0.023 A 
ATOM     67  C   UNL A   1      41.886  27.569  27.847  1.00  0.00     0.031 A 
ATOM     68  C   UNL A   1      40.000  26.309  28.655  1.00  0.00     0.131 A 
ATOM     69  C   UNL A   1      41.909  26.754  26.705  1.00  0.00     0.055 A 
ATOM     70  C   UNL A   1      40.081  25.448  27.559  1.00  0.00     0.041 A 
ATOM     71  F   UNL A   1      39.020  26.088  29.546  1.00  0.00    -0.206 F 
ATOM     72  C   UNL A   1      41.031  25.677  26.567  1.00  0.00     0.022 A 
BRANCH  69  73
ATOM     73  S   UNL A   1      43.011  27.209  25.337  1.00  0.00     0.124 S 
ATOM     74  O   UNL A   1      42.217  28.222  24.645  1.00  0.00    -0.237 OA
ATOM     75  O   UNL A   1      44.196  27.692  26.034  1.00  0.00    -0.237 OA
ATOM     76  O   UNL A   1      43.182  25.956  24.605  1.00  0.00    -0.744 OA
ENDBRANCH  69  73
ENDBRANCH  52  66
BRANCH  53  77
ATOM     77  C   UNL A   1      39.597  33.407  36.737  1.00  0.00     0.023 A 
ATOM     78  C   UNL A   1      38.967  32.909  37.888  1.00  0.00     0.031 A 
ATOM     79  C   UNL A   1      39.972  34.762  36.729  1.00  0.00     0.131 A 
ATOM     80  C   UNL A   1      38.677  33.770  38.957  1.00  0.00     0.055 A 
ATOM     81  C   UNL A   1      39.741  35.601  37.821  1.00  0.00     0.041 A 
ATOM     82  F   UNL A   1      40.579  35.294  35.654  1.00  0.00    -0.206 F 
ATOM     83  C   UNL A   1      39.073  35.109  38.937  1.00  0.00     0.022 A 
BRANCH  80  84
ATOM     84  S   UNL A   1      37.672  33.141  40.330  1.00  0.00     0.124 S 
ATOM     85  O   UNL A   1      36.440  32.764  39.647  1.00  0.00    -0.237 OA
ATOM     86  O   UNL A   1      38.493  32.043  40.828  1.00  0.00    -0.237 OA
ATOM     87  O   UNL A   1      37.563  34.291  41.226  1.00  0.00    -0.744 OA
ENDBRANCH  80  84
ENDBRANCH  53  77
BRANCH  65  88
ATOM     88  C   UNL A   1      44.262  28.471  35.160  1.00  0.00     0.023 A 
ATOM     89  C   UNL A   1      44.163  27.446  36.119  1.00  0.00     0.031 A 
ATOM     90  C   UNL A   1      45.533  29.026  34.919  1.00  0.00     0.131 A 
ATOM     91  C   UNL A   1      45.296  27.060  36.850  1.00  0.00     0.055 A 
ATOM     92  C   UNL A   1      46.669  28.586  35.598  1.00  0.00     0.041 A 
ATOM     93  F   UNL A   1      45.688  30.009  34.018  1.00  0.00    -0.206 F 
ATOM     94  C   UNL A   1      46.552  27.609  36.582  1.00  0.00     0.022 A 
BRANCH  91  95
ATOM     95  S   UNL A   1      45.086  25.910  38.237  1.00  0.00     0.124 S 
ATOM     96  O   UNL A   1      46.383  25.998  38.902  1.00  0.00    -0.237 OA
ATOM     97  O   UNL A   1      43.960  26.494  38.959  1.00  0.00    -0.237 OA
ATOM     98  O   UNL A   1      44.808  24.632  37.585  1.00  0.00    -0.744 OA
ENDBRANCH  91  95
ENDBRANCH  65  88
ENDBRANCH  39  40
ENDBRANCH  31  34
ENDBRANCH  29  30
ENDBRANCH  28  29
ENDBRANCH  27  28
ENDBRANCH  26  27
ENDBRANCH   1  26
TORSDOF 22
ENDMDL
MODEL 2
REMARK VINA RESULT:     -10.8      1.500      7.602
REMARK SMILES O=C(CCCNC(=O)N1CC[C@@H](C(=O)NCCCCCCNC(=O)c2ccc(-c3c4nc(c(-c5cc(S(=O)(=O)[O-])ccc5F)c5ccc([nH]5)c(-c5cc(S(=O)(=O)[O-])ccc5F)c5nc(c(-c6cc(S(=O)(=O)[O-])ccc6F)c6ccc3[nH]6)C=C5)C=C4)cc2)C1)NC1CC1
REMARK SMILES IDX 17 1 16 2 15 3 13 4 14 5 12 7 9 8 10 9 88 10 11 11 7 12 6 13
REMARK SMILES IDX 8 15 5 16 4 17 3 18 2 19 1 20 89 21 90 23 91 24 92 25 18 26
REMARK SMILES IDX 19 27 20 28 21 29 22 30 23 31 24 33 25 34 26 35 87 36 27 37
REMARK SMILES IDX 86 38 28 39 29 40 30 41 80 42 31 43 85 44 79 45 81 46 32 47
REMARK SMILES IDX 84 48 78 49 77 50 33 52 65 53 45 54 64 55 46 56 49 57 63 58
REMARK SMILES IDX 82 59 47 60 48 61 62 63 83 64 50 65 34 66 35 67 43 68 36 69
REMARK SMILES IDX 42 70 44 71 41 72 37 73 38 74 39 75 40 76 66 77 67 78 75 79
REMARK SMILES IDX 68 80 74 81 76 82 73 83 69 84 70 85 71 86 72 87 51 88 52 89
REMARK SMILES IDX 60 90 53 91 59 92 61 93 58 94 54 95 55 96 56 97 57 98
REMARK H PARENT 15 6 6 14 89 22 22 32 81 51 49 62
REMARK Flexibility Score: inf
ROOT
ATOM      1  C   UNL A   1      29.535  29.668  23.489  1.00  0.00     0.021 C 
ENDROOT
BRANCH   1   2
ATOM      2  C   UNL A   1      30.209  29.265  22.183  1.00  0.00     0.116 C 
BRANCH   2   3
ATOM      3  N   UNL A   1      31.651  29.411  22.255  1.00  0.00    -0.356 N 
ATOM      4  C   UNL A   1      32.581  28.513  22.679  1.00  0.00     0.224 C 
ATOM      5  O   UNL A   1      33.769  28.836  22.654  1.00  0.00    -0.275 OA
ATOM      6  H   UNL A   1      32.004  30.280  21.956  1.00  0.00     0.163 HD
BRANCH   4   7
ATOM      7  C   UNL A   1      32.106  27.168  23.189  1.00  0.00     0.100 C 
ATOM      8  N   UNL A   1      33.654  25.507  23.844  1.00  0.00    -0.324 N 
ATOM      9  C   UNL A   1      33.586  26.470  24.925  1.00  0.00     0.122 C 
ATOM     10  C   UNL A   1      33.009  26.042  22.668  1.00  0.00     0.134 C 
ATOM     11  C   UNL A   1      32.205  27.062  24.721  1.00  0.00     0.037 C 
BRANCH   8  12
ATOM     12  C   UNL A   1      34.291  24.313  23.796  1.00  0.00     0.317 C 
ATOM     13  N   UNL A   1      34.003  23.381  24.735  1.00  0.00    -0.338 N 
ATOM     14  H   UNL A   1      34.713  22.731  24.942  1.00  0.00     0.165 HD
ATOM     15  O   UNL A   1      35.062  24.002  22.889  1.00  0.00    -0.249 OA
BRANCH  13  16
ATOM     16  C   UNL A   1      32.758  23.237  25.471  1.00  0.00     0.118 C 
BRANCH  16  17
ATOM     17  C   UNL A   1      31.985  21.979  25.082  1.00  0.00     0.031 C 
BRANCH  17  18
ATOM     18  C   UNL A   1      32.563  21.200  23.905  1.00  0.00     0.102 C 
BRANCH  18  19
ATOM     19  C   UNL A   1      33.509  20.109  24.352  1.00  0.00     0.220 C 
ATOM     20  O   UNL A   1      34.536  20.357  24.975  1.00  0.00    -0.275 OA
ATOM     21  N   UNL A   1      33.123  18.837  23.977  1.00  0.00    -0.353 N 
ATOM     22  H   UNL A   1      32.295  18.722  23.459  1.00  0.00     0.163 HD
BRANCH  21  23
ATOM     23  C   UNL A   1      33.893  17.686  24.318  1.00  0.00     0.082 C 
ATOM     24  C   UNL A   1      33.236  16.362  24.588  1.00  0.00     0.027 C 
ATOM     25  C   UNL A   1      34.051  16.553  23.344  1.00  0.00     0.027 C 
ENDBRANCH  21  23
ENDBRANCH  18  19
ENDBRANCH  17  18
ENDBRANCH  16  17
ENDBRANCH  13  16
ENDBRANCH   8  12
ENDBRANCH   4   7
ENDBRANCH   2   3
ENDBRANCH   1   2
BRANCH   1  26
ATOM     26  C   UNL A   1      30.115  30.928  24.138  1.00  0.00     0.002 C 
BRANCH  26  27
ATOM     27  C   UNL A   1      30.999  30.679  25.364  1.00  0.00     0.002 C 
BRANCH  27  28
ATOM     28  C   UNL A   1      31.015  31.813  26.392  1.00  0.00     0.021 C 
BRANCH  28  29
ATOM     29  C   UNL A   1      32.400  32.190  26.907  1.00  0.00     0.116 C 
BRANCH  29  30
ATOM     30  N   UNL A   1      32.464  33.575  27.343  1.00  0.00    -0.352 N 
ATOM     31  C   UNL A   1      33.316  34.164  28.241  1.00  0.00     0.251 C 
ATOM     32  H   UNL A   1      31.801  34.177  26.933  1.00  0.00     0.163 HD
ATOM     33  O   UNL A   1      33.090  35.311  28.627  1.00  0.00    -0.269 OA
BRANCH  31  34
ATOM     34  C   UNL A   1      34.480  33.416  28.761  1.00  0.00     0.039 A 
ATOM     35  C   UNL A   1      35.748  33.993  28.662  1.00  0.00     0.014 A 
ATOM     36  C   UNL A   1      34.330  32.150  29.338  1.00  0.00     0.014 A 
ATOM     37  C   UNL A   1      36.856  33.326  29.189  1.00  0.00     0.010 A 
ATOM     38  C   UNL A   1      35.423  31.523  29.933  1.00  0.00     0.010 A 
ATOM     39  C   UNL A   1      36.698  32.101  29.861  1.00  0.00    -0.014 A 
BRANCH  39  40
ATOM     40  C   UNL A   1      37.864  31.423  30.489  1.00  0.00     0.031 A 
ATOM     41  C   UNL A   1      38.258  31.743  31.906  1.00  0.00     0.074 A 
ATOM     42  C   UNL A   1      38.586  30.541  29.769  1.00  0.00     0.049 A 
ATOM     43  N   UNL A   1      39.254  31.275  32.614  1.00  0.00    -0.248 NA
ATOM     44  C   UNL A   1      37.438  32.740  32.613  1.00  0.00     0.031 C 
ATOM     45  C   UNL A   1      38.324  30.178  28.373  1.00  0.00     0.029 A 
ATOM     46  N   UNL A   1      39.683  29.788  30.104  1.00  0.00    -0.354 N 
ATOM     47  C   UNL A   1      39.184  31.919  33.845  1.00  0.00     0.074 A 
ATOM     48  C   UNL A   1      38.089  32.860  33.760  1.00  0.00     0.031 C 
ATOM     49  C   UNL A   1      39.211  29.247  27.987  1.00  0.00     0.029 A 
ATOM     50  C   UNL A   1      40.136  28.983  29.085  1.00  0.00     0.049 A 
ATOM     51  H   UNL A   1      40.106  29.820  30.993  1.00  0.00     0.167 HD
ATOM     52  C   UNL A   1      39.947  31.725  34.950  1.00  0.00     0.034 A 
ATOM     53  C   UNL A   1      41.183  28.135  29.033  1.00  0.00     0.034 A 
ATOM     54  C   UNL A   1      41.034  30.777  35.017  1.00  0.00     0.049 A 
ATOM     55  C   UNL A   1      42.039  27.965  30.265  1.00  0.00     0.074 A 
ATOM     56  C   UNL A   1      41.842  30.468  36.098  1.00  0.00     0.029 A 
ATOM     57  N   UNL A   1      41.475  29.992  33.960  1.00  0.00    -0.354 N 
ATOM     58  N   UNL A   1      41.924  28.544  31.439  1.00  0.00    -0.248 NA
ATOM     59  C   UNL A   1      43.156  27.017  30.168  1.00  0.00     0.031 C 
ATOM     60  C   UNL A   1      42.816  29.559  35.675  1.00  0.00     0.029 A 
ATOM     61  C   UNL A   1      42.564  29.227  34.354  1.00  0.00     0.049 A 
ATOM     62  H   UNL A   1      41.074  29.979  33.060  1.00  0.00     0.167 HD
ATOM     63  C   UNL A   1      42.935  28.002  32.228  1.00  0.00     0.074 A 
ATOM     64  C   UNL A   1      43.632  27.037  31.403  1.00  0.00     0.031 C 
ATOM     65  C   UNL A   1      43.258  28.275  33.518  1.00  0.00     0.034 A 
BRANCH  52  66
ATOM     66  C   UNL A   1      39.644  32.569  36.165  1.00  0.00     0.023 A 
ATOM     67  C   UNL A   1      38.788  32.117  37.185  1.00  0.00     0.031 A 
ATOM     68  C   UNL A   1      40.209  33.850  36.303  1.00  0.00     0.131 A 
ATOM     69  C   UNL A   1      38.467  32.962  38.258  1.00  0.00     0.055 A 
ATOM     70  C   UNL A   1      39.953  34.653  37.416  1.00  0.00     0.041 A 
ATOM     71  F   UNL A   1      41.016  34.347  35.352  1.00  0.00    -0.206 F 
ATOM     72  C   UNL A   1      39.066  34.217  38.396  1.00  0.00     0.022 A 
BRANCH  69  73
ATOM     73  S   UNL A   1      37.149  32.455  39.397  1.00  0.00     0.124 S 
ATOM     74  O   UNL A   1      37.409  31.023  39.529  1.00  0.00    -0.237 OA
ATOM     75  O   UNL A   1      37.421  33.266  40.576  1.00  0.00    -0.237 OA
ATOM     76  O   UNL A   1      35.924  32.793  38.674  1.00  0.00    -0.744 OA
ENDBRANCH  69  73
ENDBRANCH  52  66
BRANCH  53  77
ATOM     77  C   UNL A   1      41.496  27.386  27.782  1.00  0.00     0.023 A 
ATOM     78  C   UNL A   1      41.300  25.998  27.698  1.00  0.00     0.031 A 
ATOM     79  C   UNL A   1      42.057  28.037  26.668  1.00  0.00     0.131 A 
ATOM     80  C   UNL A   1      41.714  25.299  26.554  1.00  0.00     0.055 A 
ATOM     81  C   UNL A   1      42.409  27.347  25.506  1.00  0.00     0.041 A 
ATOM     82  F   UNL A   1      42.268  29.364  26.692  1.00  0.00    -0.206 F 
ATOM     83  C   UNL A   1      42.254  25.966  25.452  1.00  0.00     0.022 A 
BRANCH  80  84
ATOM     84  S   UNL A   1      41.643  23.486  26.572  1.00  0.00     0.124 S 
ATOM     85  O   UNL A   1      42.194  23.182  27.887  1.00  0.00    -0.237 OA
ATOM     86  O   UNL A   1      40.216  23.238  26.399  1.00  0.00    -0.237 OA
ATOM     87  O   UNL A   1      42.483  23.102  25.439  1.00  0.00    -0.744 OA
ENDBRANCH  80  84
ENDBRANCH  53  77
BRANCH  65  88
ATOM     88  C   UNL A   1      44.389  27.479  34.125  1.00  0.00     0.023 A 
ATOM     89  C   UNL A   1      44.156  26.317  34.883  1.00  0.00     0.031 A 
ATOM     90  C   UNL A   1      45.721  27.903  33.963  1.00  0.00     0.131 A 
ATOM     91  C   UNL A   1      45.228  25.663  35.509  1.00  0.00     0.055 A 
ATOM     92  C   UNL A   1      46.790  27.206  34.527  1.00  0.00     0.041 A 
ATOM     93  F   UNL A   1      46.005  29.006  33.252  1.00  0.00    -0.206 F 
ATOM     94  C   UNL A   1      46.546  26.088  35.319  1.00  0.00     0.022 A 
BRANCH  91  95
ATOM     95  S   UNL A   1      44.868  24.315  36.668  1.00  0.00     0.124 S 
ATOM     96  O   UNL A   1      43.776  24.878  37.457  1.00  0.00    -0.237 OA
ATOM     97  O   UNL A   1      44.508  23.221  35.772  1.00  0.00    -0.237 OA
ATOM     98  O   UNL A   1      46.127  24.136  37.390  1.00  0.00    -0.744 OA
ENDBRANCH  91  95
ENDBRANCH  65  88
ENDBRANCH  39  40
ENDBRANCH  31  34
ENDBRANCH  29  30
ENDBRANCH  28  29
ENDBRANCH  27  28
ENDBRANCH  26  27
ENDBRANCH   1  26
TORSDOF 22
ENDMDL
MODEL 3
REMARK VINA RESULT:     -10.7      1.936      7.985
REMARK SMILES O=C(CCCNC(=O)N1CC[C@@H](C(=O)NCCCCCCNC(=O)c2ccc(-c3c4nc(c(-c5cc(S(=O)(=O)[O-])ccc5F)c5ccc([nH]5)c(-c5cc(S(=O)(=O)[O-])ccc5F)c5nc(c(-c6cc(S(=O)(=O)[O-])ccc6F)c6ccc3[nH]6)C=C5)C=C4)cc2)C1)NC1CC1
REMARK SMILES IDX 17 1 16 2 15 3 13 4 14 5 12 7 9 8 10 9 88 10 11 11 7 12 6 13
REMARK SMILES IDX 8 15 5 16 4 17 3 18 2 19 1 20 89 21 90 23 91 24 92 25 18 26
REMARK SMILES IDX 19 27 20 28 21 29 22 30 23 31 24 33 25 34 26 35 87 36 27 37
REMARK SMILES IDX 86 38 28 39 29 40 30 41 80 42 31 43 85 44 79 45 81 46 32 47
REMARK SMILES IDX 84 48 78 49 77 50 33 52 65 53 45 54 64 55 46 56 49 57 63 58
REMARK SMILES IDX 82 59 47 60 48 61 62 63 83 64 50 65 34 66 35 67 43 68 36 69
REMARK SMILES IDX 42 70 44 71 41 72 37 73 38 74 39 75 40 76 66 77 67 78 75 79
REMARK SMILES IDX 68 80 74 81 76 82 73 83 69 84 70 85 71 86 72 87 51 88 52 89
REMARK SMILES IDX 60 90 53 91 59 92 61 93 58 94 54 95 55 96 56 97 57 98
REMARK H PARENT 15 6 6 14 89 22 22 32 81 51 49 62
REMARK Flexibility Score: inf
ROOT
ATOM      1  C   UNL A   1      35.190  29.947  27.463  1.00  0.00     0.021 C 
ENDROOT
BRANCH   1   2
ATOM      2  C   UNL A   1      33.760  29.660  27.022  1.00  0.00     0.116 C 
BRANCH   2   3
ATOM      3  N   UNL A   1      33.666  29.485  25.585  1.00  0.00    -0.356 N 
ATOM      4  C   UNL A   1      33.186  28.423  24.882  1.00  0.00     0.224 C 
ATOM      5  O   UNL A   1      33.190  28.478  23.653  1.00  0.00    -0.275 OA
ATOM      6  H   UNL A   1      33.994  30.239  25.043  1.00  0.00     0.163 HD
BRANCH   4   7
ATOM      7  C   UNL A   1      32.699  27.211  25.650  1.00  0.00     0.100 C 
ATOM      8  N   UNL A   1      31.847  25.322  24.514  1.00  0.00    -0.324 N 
ATOM      9  C   UNL A   1      33.291  25.261  24.408  1.00  0.00     0.122 C 
ATOM     10  C   UNL A   1      31.443  26.624  24.992  1.00  0.00     0.134 C 
ATOM     11  C   UNL A   1      33.720  26.060  25.623  1.00  0.00     0.037 C 
BRANCH   8  12
ATOM     12  C   UNL A   1      30.919  24.406  24.145  1.00  0.00     0.317 C 
ATOM     13  N   UNL A   1      30.656  23.373  24.979  1.00  0.00    -0.338 N 
ATOM     14  H   UNL A   1      30.325  22.544  24.561  1.00  0.00     0.165 HD
ATOM     15  O   UNL A   1      30.244  24.513  23.123  1.00  0.00    -0.249 OA
BRANCH  13  16
ATOM     16  C   UNL A   1      30.808  23.354  26.424  1.00  0.00     0.118 C 
BRANCH  16  17
ATOM     17  C   UNL A   1      32.175  22.835  26.865  1.00  0.00     0.031 C 
BRANCH  17  18
ATOM     18  C   UNL A   1      32.721  21.668  26.050  1.00  0.00     0.102 C 
BRANCH  18  19
ATOM     19  C   UNL A   1      34.227  21.714  25.926  1.00  0.00     0.220 C 
ATOM     20  O   UNL A   1      34.962  21.562  26.896  1.00  0.00    -0.275 OA
ATOM     21  N   UNL A   1      34.682  21.964  24.646  1.00  0.00    -0.353 N 
ATOM     22  H   UNL A   1      34.028  22.096  23.923  1.00  0.00     0.163 HD
BRANCH  21  23
ATOM     23  C   UNL A   1      36.073  22.036  24.343  1.00  0.00     0.082 C 
ATOM     24  C   UNL A   1      36.589  22.948  23.265  1.00  0.00     0.027 C 
ATOM     25  C   UNL A   1      36.875  23.255  24.705  1.00  0.00     0.027 C 
ENDBRANCH  21  23
ENDBRANCH  18  19
ENDBRANCH  17  18
ENDBRANCH  16  17
ENDBRANCH  13  16
ENDBRANCH   8  12
ENDBRANCH   4   7
ENDBRANCH   2   3
ENDBRANCH   1   2
BRANCH   1  26
ATOM     26  C   UNL A   1      35.316  31.032  28.535  1.00  0.00     0.002 C 
BRANCH  26  27
ATOM     27  C   UNL A   1      35.359  32.468  28.005  1.00  0.00     0.002 C 
BRANCH  27  28
ATOM     28  C   UNL A   1      34.017  33.204  28.016  1.00  0.00     0.021 C 
BRANCH  28  29
ATOM     29  C   UNL A   1      34.114  34.711  28.226  1.00  0.00     0.116 C 
BRANCH  29  30
ATOM     30  N   UNL A   1      33.303  35.162  29.343  1.00  0.00    -0.352 N 
ATOM     31  C   UNL A   1      33.437  34.888  30.680  1.00  0.00     0.251 C 
ATOM     32  H   UNL A   1      32.549  35.750  29.107  1.00  0.00     0.163 HD
ATOM     33  O   UNL A   1      32.536  35.204  31.456  1.00  0.00    -0.269 OA
BRANCH  31  34
ATOM     34  C   UNL A   1      34.643  34.193  31.179  1.00  0.00     0.039 A 
ATOM     35  C   UNL A   1      34.499  32.932  31.762  1.00  0.00     0.014 A 
ATOM     36  C   UNL A   1      35.910  34.778  31.081  1.00  0.00     0.014 A 
ATOM     37  C   UNL A   1      35.629  32.237  32.197  1.00  0.00     0.010 A 
ATOM     38  C   UNL A   1      37.042  34.051  31.443  1.00  0.00     0.010 A 
ATOM     39  C   UNL A   1      36.914  32.775  32.009  1.00  0.00    -0.014 A 
BRANCH  39  40
ATOM     40  C   UNL A   1      38.125  32.006  32.403  1.00  0.00     0.031 A 
ATOM     41  C   UNL A   1      38.829  32.305  33.699  1.00  0.00     0.074 A 
ATOM     42  C   UNL A   1      38.607  31.058  31.574  1.00  0.00     0.049 A 
ATOM     43  N   UNL A   1      39.909  31.761  34.199  1.00  0.00    -0.248 NA
ATOM     44  C   UNL A   1      38.258  33.376  34.531  1.00  0.00     0.031 C 
ATOM     45  C   UNL A   1      38.033  30.704  30.273  1.00  0.00     0.029 A 
ATOM     46  N   UNL A   1      39.686  30.217  31.697  1.00  0.00    -0.354 N 
ATOM     47  C   UNL A   1      40.148  32.421  35.400  1.00  0.00     0.074 A 
ATOM     48  C   UNL A   1      39.139  33.452  35.517  1.00  0.00     0.031 C 
ATOM     49  C   UNL A   1      38.742  29.697  29.738  1.00  0.00     0.029 A 
ATOM     50  C   UNL A   1      39.850  29.366  30.629  1.00  0.00     0.049 A 
ATOM     51  H   UNL A   1      40.285  30.223  32.478  1.00  0.00     0.167 HD
ATOM     52  C   UNL A   1      41.105  32.173  36.329  1.00  0.00     0.034 A 
ATOM     53  C   UNL A   1      40.791  28.431  30.387  1.00  0.00     0.034 A 
ATOM     54  C   UNL A   1      42.101  31.137  36.198  1.00  0.00     0.049 A 
ATOM     55  C   UNL A   1      41.867  28.201  31.421  1.00  0.00     0.074 A 
ATOM     56  C   UNL A   1      43.088  30.772  37.098  1.00  0.00     0.029 A 
ATOM     57  N   UNL A   1      42.248  30.306  35.094  1.00  0.00    -0.354 N 
ATOM     58  N   UNL A   1      42.045  28.801  32.576  1.00  0.00    -0.248 NA
ATOM     59  C   UNL A   1      42.858  27.161  31.122  1.00  0.00     0.031 C 
ATOM     60  C   UNL A   1      43.875  29.778  36.509  1.00  0.00     0.029 A 
ATOM     61  C   UNL A   1      43.328  29.456  35.277  1.00  0.00     0.049 A 
ATOM     62  H   UNL A   1      41.669  30.319  34.298  1.00  0.00     0.167 HD
ATOM     63  C   UNL A   1      43.151  28.182  33.155  1.00  0.00     0.074 A 
ATOM     64  C   UNL A   1      43.580  27.152  32.232  1.00  0.00     0.031 C 
ATOM     65  C   UNL A   1      43.755  28.439  34.343  1.00  0.00     0.034 A 
BRANCH  52  66
ATOM     66  C   UNL A   1      41.130  33.053  37.557  1.00  0.00     0.023 A 
ATOM     67  C   UNL A   1      40.390  32.735  38.710  1.00  0.00     0.031 A 
ATOM     68  C   UNL A   1      41.895  34.234  37.574  1.00  0.00     0.131 A 
ATOM     69  C   UNL A   1      40.376  33.618  39.800  1.00  0.00     0.055 A 
ATOM     70  C   UNL A   1      41.944  35.065  38.695  1.00  0.00     0.041 A 
ATOM     71  F   UNL A   1      42.604  34.603  36.496  1.00  0.00    -0.206 F 
ATOM     72  C   UNL A   1      41.169  34.767  39.812  1.00  0.00     0.022 A 
BRANCH  69  73
ATOM     73  S   UNL A   1      39.195  33.315  41.145  1.00  0.00     0.124 S 
ATOM     74  O   UNL A   1      39.187  31.855  41.206  1.00  0.00    -0.237 OA
ATOM     75  O   UNL A   1      39.818  33.999  42.271  1.00  0.00    -0.237 OA
ATOM     76  O   UNL A   1      37.957  33.917  40.655  1.00  0.00    -0.744 OA
ENDBRANCH  69  73
ENDBRANCH  52  66
BRANCH  53  77
ATOM     77  C   UNL A   1      40.776  27.645  29.119  1.00  0.00     0.023 A 
ATOM     78  C   UNL A   1      41.690  27.915  28.088  1.00  0.00     0.031 A 
ATOM     79  C   UNL A   1      39.805  26.653  28.892  1.00  0.00     0.131 A 
ATOM     80  C   UNL A   1      41.580  27.246  26.860  1.00  0.00     0.055 A 
ATOM     81  C   UNL A   1      39.739  25.943  27.691  1.00  0.00     0.041 A 
ATOM     82  F   UNL A   1      38.905  26.353  29.843  1.00  0.00    -0.206 F 
ATOM     83  C   UNL A   1      40.620  26.251  26.660  1.00  0.00     0.022 A 
BRANCH  80  84
ATOM     84  S   UNL A   1      42.638  27.775  25.484  1.00  0.00     0.124 S 
ATOM     85  O   UNL A   1      42.634  26.590  24.635  1.00  0.00    -0.237 OA
ATOM     86  O   UNL A   1      41.912  28.934  24.974  1.00  0.00    -0.237 OA
ATOM     87  O   UNL A   1      43.912  28.076  26.132  1.00  0.00    -0.744 OA
ENDBRANCH  80  84
ENDBRANCH  53  77
BRANCH  65  88
ATOM     88  C   UNL A   1      44.919  27.555  34.727  1.00  0.00     0.023 A 
ATOM     89  C   UNL A   1      44.748  26.405  35.518  1.00  0.00     0.031 A 
ATOM     90  C   UNL A   1      46.223  27.883  34.314  1.00  0.00     0.131 A 
ATOM     91  C   UNL A   1      45.867  25.667  35.930  1.00  0.00     0.055 A 
ATOM     92  C   UNL A   1      47.325  27.103  34.667  1.00  0.00     0.041 A 
ATOM     93  F   UNL A   1      46.448  28.971  33.560  1.00  0.00    -0.206 F 
ATOM     94  C   UNL A   1      47.153  25.997  35.493  1.00  0.00     0.022 A 
BRANCH  91  95
ATOM     95  S   UNL A   1      45.634  24.335  37.139  1.00  0.00     0.124 S 
ATOM     96  O   UNL A   1      45.946  23.149  36.347  1.00  0.00    -0.237 OA
ATOM     97  O   UNL A   1      46.603  24.680  38.175  1.00  0.00    -0.237 OA
ATOM     98  O   UNL A   1      44.233  24.468  37.532  1.00  0.00    -0.744 OA
ENDBRANCH  91  95
ENDBRANCH  65  88
ENDBRANCH  39  40
ENDBRANCH  31  34
ENDBRANCH  29  30
ENDBRANCH  28  29
ENDBRANCH  27  28
ENDBRANCH  26  27
ENDBRANCH   1  26
TORSDOF 22
ENDMDL
