MODEL 1
REMARK VINA RESULT:     -11.7      0.000      0.000
REMARK SMILES C[C@H](C(=O)NCCCCCCNC(=O)c1ccc(-c2c3nc(c(-c4cc(S(=O)(=O)[O-])ccc4F)c4ccc([nH]4)c(-c4cc(S(=O)(=O)[O-])ccc4F)c4nc(c(-c5cc(S(=O)(=O)[O-])ccc5F)c5ccc2[nH]5)C=C4)C=C3)cc1)N1C(=O)C[C@](C)(c2ccccc2)C1=O
REMARK SMILES IDX 9 1 8 2 7 3 6 4 5 5 3 6 4 7 2 9 1 10 78 11 79 12 90 13 80 14
REMARK SMILES IDX 81 15 82 16 91 17 83 18 84 19 85 20 89 21 86 22 88 23 87 24
REMARK SMILES IDX 10 25 11 26 12 27 13 28 14 30 15 31 16 32 77 33 17 34 76 35
REMARK SMILES IDX 18 36 19 37 20 38 70 39 21 40 75 41 69 42 71 43 22 44 74 45
REMARK SMILES IDX 68 46 67 47 23 49 55 50 35 51 54 52 36 53 39 54 53 55 72 56
REMARK SMILES IDX 37 57 38 58 52 60 73 61 40 62 24 63 25 64 33 65 26 66 32 67
REMARK SMILES IDX 34 68 31 69 27 70 28 71 29 72 30 73 56 74 57 75 65 76 58 77
REMARK SMILES IDX 64 78 66 79 63 80 59 81 60 82 61 83 62 84 41 85 42 86 50 87
REMARK SMILES IDX 43 88 49 89 51 90 48 91 44 92 45 93 46 94 47 95
REMARK H PARENT 5 8 12 29 71 48 39 59
REMARK Flexibility Score: inf
ROOT
ATOM      1  C   UNL A   1      31.945  30.480  26.730  1.00  0.00     0.002 C 
ENDROOT
BRANCH   1   2
ATOM      2  C   UNL A   1      33.414  30.090  26.929  1.00  0.00     0.002 C 
BRANCH   2   3
ATOM      3  C   UNL A   1      33.645  28.616  27.277  1.00  0.00     0.021 C 
BRANCH   3   4
ATOM      4  C   UNL A   1      32.696  27.671  26.551  1.00  0.00     0.116 C 
BRANCH   4   5
ATOM      5  N   UNL A   1      33.117  27.439  25.181  1.00  0.00    -0.354 N 
ATOM      6  C   UNL A   1      32.672  26.527  24.274  1.00  0.00     0.243 C 
ATOM      7  O   UNL A   1      33.012  26.676  23.096  1.00  0.00    -0.273 OA
ATOM      8  H   UNL A   1      33.833  28.033  24.859  1.00  0.00     0.163 HD
BRANCH   6   9
ATOM      9  C   UNL A   1      31.684  25.409  24.658  1.00  0.00     0.179 C 
ATOM     10  C   UNL A   1      30.513  25.152  23.714  1.00  0.00     0.042 C 
BRANCH   9  11
ATOM     11  N   UNL A   1      32.350  24.213  25.175  1.00  0.00    -0.269 N 
ATOM     12  C   UNL A   1      32.122  23.753  26.436  1.00  0.00     0.231 C 
ATOM     13  C   UNL A   1      33.102  23.333  24.446  1.00  0.00     0.240 C 
ATOM     14  O   UNL A   1      31.318  24.209  27.240  1.00  0.00    -0.274 OA
ATOM     15  C   UNL A   1      32.986  22.562  26.712  1.00  0.00     0.122 C 
ATOM     16  C   UNL A   1      33.655  22.251  25.366  1.00  0.00     0.081 C 
ATOM     17  O   UNL A   1      33.321  23.367  23.246  1.00  0.00    -0.273 OA
ATOM     18  C   UNL A   1      33.126  20.911  24.820  1.00  0.00     0.027 C 
BRANCH  16  19
ATOM     19  C   UNL A   1      35.185  22.355  25.460  1.00  0.00    -0.032 A 
ATOM     20  C   UNL A   1      36.029  21.246  25.283  1.00  0.00     0.005 A 
ATOM     21  C   UNL A   1      35.794  23.601  25.718  1.00  0.00     0.005 A 
ATOM     22  C   UNL A   1      37.420  21.376  25.362  1.00  0.00     0.000 A 
ATOM     23  C   UNL A   1      37.184  23.728  25.799  1.00  0.00     0.000 A 
ATOM     24  C   UNL A   1      37.997  22.615  25.621  1.00  0.00     0.000 A 
ENDBRANCH  16  19
ENDBRANCH   9  11
ENDBRANCH   6   9
ENDBRANCH   4   5
ENDBRANCH   3   4
ENDBRANCH   2   3
ENDBRANCH   1   2
BRANCH   1  25
ATOM     25  C   UNL A   1      31.639  31.964  26.937  1.00  0.00     0.021 C 
BRANCH  25  26
ATOM     26  C   UNL A   1      32.867  32.866  26.941  1.00  0.00     0.116 C 
BRANCH  26  27
ATOM     27  N   UNL A   1      32.617  34.119  27.638  1.00  0.00    -0.352 N 
ATOM     28  C   UNL A   1      33.180  34.590  28.798  1.00  0.00     0.251 C 
ATOM     29  H   UNL A   1      31.951  34.710  27.220  1.00  0.00     0.163 HD
ATOM     30  O   UNL A   1      32.693  35.563  29.365  1.00  0.00    -0.269 OA
BRANCH  28  31
ATOM     31  C   UNL A   1      34.358  33.901  29.367  1.00  0.00     0.039 A 
ATOM     32  C   UNL A   1      35.636  34.364  29.045  1.00  0.00     0.014 A 
ATOM     33  C   UNL A   1      34.199  32.810  30.228  1.00  0.00     0.014 A 
ATOM     34  C   UNL A   1      36.753  33.769  29.636  1.00  0.00     0.010 A 
ATOM     35  C   UNL A   1      35.307  32.273  30.875  1.00  0.00     0.010 A 
ATOM     36  C   UNL A   1      36.597  32.744  30.583  1.00  0.00    -0.014 A 
BRANCH  36  37
ATOM     37  C   UNL A   1      37.769  32.152  31.279  1.00  0.00     0.031 A 
ATOM     38  C   UNL A   1      38.525  31.016  30.646  1.00  0.00     0.074 A 
ATOM     39  C   UNL A   1      38.109  32.589  32.507  1.00  0.00     0.049 A 
ATOM     40  N   UNL A   1      39.515  30.309  31.127  1.00  0.00    -0.248 NA
ATOM     41  C   UNL A   1      38.083  30.598  29.307  1.00  0.00     0.031 C 
ATOM     42  C   UNL A   1      37.424  33.656  33.241  1.00  0.00     0.029 A 
ATOM     43  N   UNL A   1      39.104  32.186  33.363  1.00  0.00    -0.354 N 
ATOM     44  C   UNL A   1      39.807  29.356  30.157  1.00  0.00     0.074 A 
ATOM     45  C   UNL A   1      38.842  29.534  29.094  1.00  0.00     0.031 C 
ATOM     46  C   UNL A   1      38.028  33.833  34.426  1.00  0.00     0.029 A 
ATOM     47  C   UNL A   1      39.107  32.859  34.563  1.00  0.00     0.049 A 
ATOM     48  H   UNL A   1      39.754  31.481  33.139  1.00  0.00     0.167 HD
ATOM     49  C   UNL A   1      40.802  28.432  30.147  1.00  0.00     0.034 A 
ATOM     50  C   UNL A   1      39.874  32.696  35.660  1.00  0.00     0.034 A 
ATOM     51  C   UNL A   1      41.755  28.274  31.219  1.00  0.00     0.049 A 
ATOM     52  C   UNL A   1      40.952  31.642  35.643  1.00  0.00     0.074 A 
ATOM     53  C   UNL A   1      42.839  27.416  31.288  1.00  0.00     0.029 A 
ATOM     54  N   UNL A   1      41.729  28.975  32.419  1.00  0.00    -0.354 N 
ATOM     55  N   UNL A   1      41.257  30.788  34.693  1.00  0.00    -0.248 NA
ATOM     56  C   UNL A   1      41.795  31.535  36.841  1.00  0.00     0.031 C 
ATOM     57  C   UNL A   1      43.414  27.536  32.558  1.00  0.00     0.029 A 
ATOM     58  C   UNL A   1      42.750  28.537  33.251  1.00  0.00     0.049 A 
ATOM     59  H   UNL A   1      41.081  29.680  32.647  1.00  0.00     0.167 HD
ATOM     60  C   UNL A   1      42.347  30.063  35.168  1.00  0.00     0.074 A 
ATOM     61  C   UNL A   1      42.652  30.590  36.483  1.00  0.00     0.031 C 
ATOM     62  C   UNL A   1      43.036  29.058  34.568  1.00  0.00     0.034 A 
BRANCH  49  63
ATOM     63  C   UNL A   1      40.876  27.504  28.955  1.00  0.00     0.023 A 
ATOM     64  C   UNL A   1      41.856  27.655  27.957  1.00  0.00     0.031 A 
ATOM     65  C   UNL A   1      39.927  26.478  28.790  1.00  0.00     0.131 A 
ATOM     66  C   UNL A   1      41.808  26.863  26.801  1.00  0.00     0.055 A 
ATOM     67  C   UNL A   1      39.944  25.630  27.681  1.00  0.00     0.041 A 
ATOM     68  F   UNL A   1      38.952  26.296  29.695  1.00  0.00    -0.206 F 
ATOM     69  C   UNL A   1      40.876  25.832  26.668  1.00  0.00     0.022 A 
BRANCH  66  70
ATOM     70  S   UNL A   1      42.864  27.318  25.398  1.00  0.00     0.124 S 
ATOM     71  O   UNL A   1      42.926  26.061  24.654  1.00  0.00    -0.237 OA
ATOM     72  O   UNL A   1      42.107  28.395  24.770  1.00  0.00    -0.237 OA
ATOM     73  O   UNL A   1      44.119  27.721  26.029  1.00  0.00    -0.744 OA
ENDBRANCH  66  70
ENDBRANCH  49  63
BRANCH  50  74
ATOM     74  C   UNL A   1      39.630  33.528  36.874  1.00  0.00     0.023 A 
ATOM     75  C   UNL A   1      38.983  33.003  38.004  1.00  0.00     0.031 A 
ATOM     76  C   UNL A   1      40.024  34.879  36.909  1.00  0.00     0.131 A 
ATOM     77  C   UNL A   1      38.716  33.833  39.104  1.00  0.00     0.055 A 
ATOM     78  C   UNL A   1      39.806  35.684  38.028  1.00  0.00     0.041 A 
ATOM     79  F   UNL A   1      40.647  35.432  35.856  1.00  0.00    -0.206 F 
ATOM     80  C   UNL A   1      39.138  35.164  39.131  1.00  0.00     0.022 A 
BRANCH  77  81
ATOM     81  S   UNL A   1      37.732  33.169  40.476  1.00  0.00     0.124 S 
ATOM     82  O   UNL A   1      37.704  34.302  41.395  1.00  0.00    -0.237 OA
ATOM     83  O   UNL A   1      36.473  32.845  39.818  1.00  0.00    -0.237 OA
ATOM     84  O   UNL A   1      38.512  32.018  40.928  1.00  0.00    -0.744 OA
ENDBRANCH  77  81
ENDBRANCH  50  74
BRANCH  62  85
ATOM     85  C   UNL A   1      44.222  28.492  35.315  1.00  0.00     0.023 A 
ATOM     86  C   UNL A   1      44.083  27.468  36.267  1.00  0.00     0.031 A 
ATOM     87  C   UNL A   1      45.515  28.986  35.061  1.00  0.00     0.131 A 
ATOM     88  C   UNL A   1      45.208  27.008  36.968  1.00  0.00     0.055 A 
ATOM     89  C   UNL A   1      46.638  28.477  35.713  1.00  0.00     0.041 A 
ATOM     90  F   UNL A   1      45.708  29.968  34.166  1.00  0.00    -0.206 F 
ATOM     91  C   UNL A   1      46.488  27.491  36.682  1.00  0.00     0.022 A 
BRANCH  88  92
ATOM     92  S   UNL A   1      44.968  25.833  38.330  1.00  0.00     0.124 S 
ATOM     93  O   UNL A   1      44.294  26.660  39.327  1.00  0.00    -0.237 OA
ATOM     94  O   UNL A   1      44.155  24.794  37.708  1.00  0.00    -0.237 OA
ATOM     95  O   UNL A   1      46.329  25.429  38.679  1.00  0.00    -0.744 OA
ENDBRANCH  88  92
ENDBRANCH  62  85
ENDBRANCH  36  37
ENDBRANCH  28  31
ENDBRANCH  26  27
ENDBRANCH  25  26
ENDBRANCH   1  25
TORSDOF 18
ENDMDL
MODEL 2
REMARK VINA RESULT:     -11.5      1.506      1.926
REMARK SMILES C[C@H](C(=O)NCCCCCCNC(=O)c1ccc(-c2c3nc(c(-c4cc(S(=O)(=O)[O-])ccc4F)c4ccc([nH]4)c(-c4cc(S(=O)(=O)[O-])ccc4F)c4nc(c(-c5cc(S(=O)(=O)[O-])ccc5F)c5ccc2[nH]5)C=C4)C=C3)cc1)N1C(=O)C[C@](C)(c2ccccc2)C1=O
REMARK SMILES IDX 9 1 8 2 7 3 6 4 5 5 3 6 4 7 2 9 1 10 78 11 79 12 90 13 80 14
REMARK SMILES IDX 81 15 82 16 91 17 83 18 84 19 85 20 89 21 86 22 88 23 87 24
REMARK SMILES IDX 10 25 11 26 12 27 13 28 14 30 15 31 16 32 77 33 17 34 76 35
REMARK SMILES IDX 18 36 19 37 20 38 70 39 21 40 75 41 69 42 71 43 22 44 74 45
REMARK SMILES IDX 68 46 67 47 23 49 55 50 35 51 54 52 36 53 39 54 53 55 72 56
REMARK SMILES IDX 37 57 38 58 52 60 73 61 40 62 24 63 25 64 33 65 26 66 32 67
REMARK SMILES IDX 34 68 31 69 27 70 28 71 29 72 30 73 56 74 57 75 65 76 58 77
REMARK SMILES IDX 64 78 66 79 63 80 59 81 60 82 61 83 62 84 41 85 42 86 50 87
REMARK SMILES IDX 43 88 49 89 51 90 48 91 44 92 45 93 46 94 47 95
REMARK H PARENT 5 8 12 29 71 48 39 59
REMARK Flexibility Score: inf
ROOT
ATOM      1  C   UNL A   1      31.813  30.303  25.925  1.00  0.00     0.002 C 
ENDROOT
BRANCH   1   2
ATOM      2  C   UNL A   1      31.808  29.040  26.793  1.00  0.00     0.002 C 
BRANCH   2   3
ATOM      3  C   UNL A   1      33.188  28.424  27.037  1.00  0.00     0.021 C 
BRANCH   3   4
ATOM      4  C   UNL A   1      33.428  27.149  26.238  1.00  0.00     0.116 C 
BRANCH   4   5
ATOM      5  N   UNL A   1      33.929  27.440  24.906  1.00  0.00    -0.354 N 
ATOM      6  C   UNL A   1      33.355  27.222  23.691  1.00  0.00     0.243 C 
ATOM      7  O   UNL A   1      33.866  27.771  22.709  1.00  0.00    -0.273 OA
ATOM      8  H   UNL A   1      34.819  27.859  24.878  1.00  0.00     0.163 HD
BRANCH   6   9
ATOM      9  C   UNL A   1      32.048  26.423  23.538  1.00  0.00     0.179 C 
ATOM     10  C   UNL A   1      31.110  26.820  22.402  1.00  0.00     0.042 C 
BRANCH   9  11
ATOM     11  N   UNL A   1      32.236  24.983  23.723  1.00  0.00    -0.269 N 
ATOM     12  C   UNL A   1      31.582  24.294  24.699  1.00  0.00     0.231 C 
ATOM     13  C   UNL A   1      32.905  24.144  22.875  1.00  0.00     0.240 C 
ATOM     14  O   UNL A   1      30.739  24.745  25.465  1.00  0.00    -0.274 OA
ATOM     15  C   UNL A   1      32.019  22.861  24.696  1.00  0.00     0.122 C 
ATOM     16  C   UNL A   1      32.912  22.734  23.454  1.00  0.00     0.081 C 
ATOM     17  O   UNL A   1      33.426  24.433  21.810  1.00  0.00    -0.273 OA
ATOM     18  C   UNL A   1      32.223  21.836  22.409  1.00  0.00     0.027 C 
BRANCH  16  19
ATOM     19  C   UNL A   1      34.341  22.313  23.829  1.00  0.00    -0.032 A 
ATOM     20  C   UNL A   1      35.477  22.978  23.337  1.00  0.00     0.005 A 
ATOM     21  C   UNL A   1      34.552  21.233  24.712  1.00  0.00     0.005 A 
ATOM     22  C   UNL A   1      36.765  22.579  23.708  1.00  0.00     0.000 A 
ATOM     23  C   UNL A   1      35.840  20.835  25.079  1.00  0.00     0.000 A 
ATOM     24  C   UNL A   1      36.948  21.508  24.576  1.00  0.00     0.000 A 
ENDBRANCH  16  19
ENDBRANCH   9  11
ENDBRANCH   6   9
ENDBRANCH   4   5
ENDBRANCH   3   4
ENDBRANCH   2   3
ENDBRANCH   1   2
BRANCH   1  25
ATOM     25  C   UNL A   1      31.584  31.610  26.687  1.00  0.00     0.021 C 
BRANCH  25  26
ATOM     26  C   UNL A   1      32.860  32.361  27.046  1.00  0.00     0.116 C 
BRANCH  26  27
ATOM     27  N   UNL A   1      32.588  33.736  27.437  1.00  0.00    -0.352 N 
ATOM     28  C   UNL A   1      33.137  34.469  28.459  1.00  0.00     0.251 C 
ATOM     29  H   UNL A   1      31.915  34.205  26.892  1.00  0.00     0.163 HD
ATOM     30  O   UNL A   1      32.632  35.539  28.786  1.00  0.00    -0.269 OA
BRANCH  28  31
ATOM     31  C   UNL A   1      34.322  33.948  29.172  1.00  0.00     0.039 A 
ATOM     32  C   UNL A   1      34.137  33.127  30.286  1.00  0.00     0.014 A 
ATOM     33  C   UNL A   1      35.613  34.259  28.732  1.00  0.00     0.014 A 
ATOM     34  C   UNL A   1      35.247  32.568  30.922  1.00  0.00     0.010 A 
ATOM     35  C   UNL A   1      36.711  33.637  29.317  1.00  0.00     0.010 A 
ATOM     36  C   UNL A   1      36.541  32.787  30.422  1.00  0.00    -0.014 A 
BRANCH  36  37
ATOM     37  C   UNL A   1      37.727  32.140  31.039  1.00  0.00     0.031 A 
ATOM     38  C   UNL A   1      38.495  31.094  30.278  1.00  0.00     0.074 A 
ATOM     39  C   UNL A   1      38.070  32.442  32.306  1.00  0.00     0.049 A 
ATOM     40  N   UNL A   1      39.500  30.354  30.670  1.00  0.00    -0.248 NA
ATOM     41  C   UNL A   1      38.049  30.821  28.904  1.00  0.00     0.031 C 
ATOM     42  C   UNL A   1      37.375  33.409  33.159  1.00  0.00     0.029 A 
ATOM     43  N   UNL A   1      39.078  31.962  33.105  1.00  0.00    -0.354 N 
ATOM     44  C   UNL A   1      39.798  29.520  29.598  1.00  0.00     0.074 A 
ATOM     45  C   UNL A   1      38.822  29.800  28.568  1.00  0.00     0.031 C 
ATOM     46  C   UNL A   1      37.986  33.461  34.353  1.00  0.00     0.029 A 
ATOM     47  C   UNL A   1      39.081  32.496  34.373  1.00  0.00     0.049 A 
ATOM     48  H   UNL A   1      39.737  31.296  32.800  1.00  0.00     0.167 HD
ATOM     49  C   UNL A   1      40.807  28.619  29.478  1.00  0.00     0.034 A 
ATOM     50  C   UNL A   1      39.859  32.223  35.440  1.00  0.00     0.034 A 
ATOM     51  C   UNL A   1      41.771  28.357  30.519  1.00  0.00     0.049 A 
ATOM     52  C   UNL A   1      40.953  31.195  35.298  1.00  0.00     0.074 A 
ATOM     53  C   UNL A   1      42.868  27.515  30.485  1.00  0.00     0.029 A 
ATOM     54  N   UNL A   1      41.744  28.919  31.791  1.00  0.00    -0.354 N 
ATOM     55  N   UNL A   1      41.263  30.458  34.256  1.00  0.00    -0.248 NA
ATOM     56  C   UNL A   1      41.807  30.969  36.471  1.00  0.00     0.031 C 
ATOM     57  C   UNL A   1      43.451  27.501  31.756  1.00  0.00     0.029 A 
ATOM     58  C   UNL A   1      42.778  28.407  32.562  1.00  0.00     0.049 A 
ATOM     59  H   UNL A   1      41.087  29.584  32.100  1.00  0.00     0.167 HD
ATOM     60  C   UNL A   1      42.368  29.702  34.640  1.00  0.00     0.074 A 
ATOM     61  C   UNL A   1      42.675  30.083  36.004  1.00  0.00     0.031 C 
ATOM     62  C   UNL A   1      43.067  28.782  33.927  1.00  0.00     0.034 A 
BRANCH  49  63
ATOM     63  C   UNL A   1      40.885  27.832  28.189  1.00  0.00     0.023 A 
ATOM     64  C   UNL A   1      40.330  26.545  28.070  1.00  0.00     0.031 A 
ATOM     65  C   UNL A   1      41.561  28.358  27.073  1.00  0.00     0.131 A 
ATOM     66  C   UNL A   1      40.543  25.793  26.905  1.00  0.00     0.055 A 
ATOM     67  C   UNL A   1      41.686  27.642  25.881  1.00  0.00     0.041 A 
ATOM     68  F   UNL A   1      42.132  29.572  27.129  1.00  0.00    -0.206 F 
ATOM     69  C   UNL A   1      41.193  26.343  25.798  1.00  0.00     0.022 A 
BRANCH  66  70
ATOM     70  S   UNL A   1      40.119  24.030  26.925  1.00  0.00     0.124 S 
ATOM     71  O   UNL A   1      38.811  24.033  26.270  1.00  0.00    -0.237 OA
ATOM     72  O   UNL A   1      41.212  23.434  26.167  1.00  0.00    -0.237 OA
ATOM     73  O   UNL A   1      40.090  23.700  28.349  1.00  0.00    -0.744 OA
ENDBRANCH  66  70
ENDBRANCH  49  63
BRANCH  50  74
ATOM     74  C   UNL A   1      39.612  32.910  36.741  1.00  0.00     0.023 A 
ATOM     75  C   UNL A   1      38.705  32.396  37.681  1.00  0.00     0.031 A 
ATOM     76  C   UNL A   1      40.271  34.115  37.053  1.00  0.00     0.131 A 
ATOM     77  C   UNL A   1      38.452  33.102  38.867  1.00  0.00     0.055 A 
ATOM     78  C   UNL A   1      40.058  34.783  38.260  1.00  0.00     0.041 A 
ATOM     79  F   UNL A   1      41.150  34.650  36.191  1.00  0.00    -0.206 F 
ATOM     80  C   UNL A   1      39.135  34.282  39.171  1.00  0.00     0.022 A 
BRANCH  77  81
ATOM     81  S   UNL A   1      37.152  32.498  39.979  1.00  0.00     0.124 S 
ATOM     82  O   UNL A   1      37.694  31.208  40.394  1.00  0.00    -0.237 OA
ATOM     83  O   UNL A   1      37.119  33.538  41.000  1.00  0.00    -0.237 OA
ATOM     84  O   UNL A   1      35.972  32.432  39.120  1.00  0.00    -0.744 OA
ENDBRANCH  77  81
ENDBRANCH  50  74
BRANCH  62  85
ATOM     85  C   UNL A   1      44.267  28.155  34.598  1.00  0.00     0.023 A 
ATOM     86  C   UNL A   1      44.165  26.976  35.357  1.00  0.00     0.031 A 
ATOM     87  C   UNL A   1      45.536  28.749  34.468  1.00  0.00     0.131 A 
ATOM     88  C   UNL A   1      45.301  26.458  35.999  1.00  0.00     0.055 A 
ATOM     89  C   UNL A   1      46.673  28.191  35.054  1.00  0.00     0.041 A 
ATOM     90  F   UNL A   1      45.694  29.879  33.761  1.00  0.00    -0.206 F 
ATOM     91  C   UNL A   1      46.557  27.046  35.835  1.00  0.00     0.022 A 
BRANCH  88  92
ATOM     92  S   UNL A   1      45.099  25.055  37.132  1.00  0.00     0.124 S 
ATOM     93  O   UNL A   1      46.211  25.252  38.057  1.00  0.00    -0.237 OA
ATOM     94  O   UNL A   1      43.766  25.284  37.679  1.00  0.00    -0.237 OA
ATOM     95  O   UNL A   1      45.218  23.889  36.259  1.00  0.00    -0.744 OA
ENDBRANCH  88  92
ENDBRANCH  62  85
ENDBRANCH  36  37
ENDBRANCH  28  31
ENDBRANCH  26  27
ENDBRANCH  25  26
ENDBRANCH   1  25
TORSDOF 18
ENDMDL
MODEL 3
REMARK VINA RESULT:     -11.3      1.765      7.646
REMARK SMILES C[C@H](C(=O)NCCCCCCNC(=O)c1ccc(-c2c3nc(c(-c4cc(S(=O)(=O)[O-])ccc4F)c4ccc([nH]4)c(-c4cc(S(=O)(=O)[O-])ccc4F)c4nc(c(-c5cc(S(=O)(=O)[O-])ccc5F)c5ccc2[nH]5)C=C4)C=C3)cc1)N1C(=O)C[C@](C)(c2ccccc2)C1=O
REMARK SMILES IDX 9 1 8 2 7 3 6 4 5 5 3 6 4 7 2 9 1 10 78 11 79 12 90 13 80 14
REMARK SMILES IDX 81 15 82 16 91 17 83 18 84 19 85 20 89 21 86 22 88 23 87 24
REMARK SMILES IDX 10 25 11 26 12 27 13 28 14 30 15 31 16 32 77 33 17 34 76 35
REMARK SMILES IDX 18 36 19 37 20 38 70 39 21 40 75 41 69 42 71 43 22 44 74 45
REMARK SMILES IDX 68 46 67 47 23 49 55 50 35 51 54 52 36 53 39 54 53 55 72 56
REMARK SMILES IDX 37 57 38 58 52 60 73 61 40 62 24 63 25 64 33 65 26 66 32 67
REMARK SMILES IDX 34 68 31 69 27 70 28 71 29 72 30 73 56 74 57 75 65 76 58 77
REMARK SMILES IDX 64 78 66 79 63 80 59 81 60 82 61 83 62 84 41 85 42 86 50 87
REMARK SMILES IDX 43 88 49 89 51 90 48 91 44 92 45 93 46 94 47 95
REMARK H PARENT 5 8 12 29 71 48 39 59
REMARK Flexibility Score: inf
ROOT
ATOM      1  C   UNL A   1      32.741  31.210  27.297  1.00  0.00     0.002 C 
ENDROOT
BRANCH   1   2
ATOM      2  C   UNL A   1      34.225  31.153  27.676  1.00  0.00     0.002 C 
BRANCH   2   3
ATOM      3  C   UNL A   1      34.931  29.845  27.308  1.00  0.00     0.021 C 
BRANCH   3   4
ATOM      4  C   UNL A   1      34.029  28.857  26.580  1.00  0.00     0.116 C 
BRANCH   4   5
ATOM      5  N   UNL A   1      34.090  29.038  25.141  1.00  0.00    -0.354 N 
ATOM      6  C   UNL A   1      33.186  28.702  24.180  1.00  0.00     0.243 C 
ATOM      7  O   UNL A   1      33.350  29.172  23.049  1.00  0.00    -0.273 OA
ATOM      8  H   UNL A   1      34.910  29.471  24.810  1.00  0.00     0.163 HD
BRANCH   6   9
ATOM      9  C   UNL A   1      31.932  27.866  24.496  1.00  0.00     0.179 C 
ATOM     10  C   UNL A   1      30.663  28.177  23.708  1.00  0.00     0.042 C 
BRANCH   9  11
ATOM     11  N   UNL A   1      32.227  26.444  24.676  1.00  0.00    -0.269 N 
ATOM     12  C   UNL A   1      31.846  25.768  25.796  1.00  0.00     0.231 C 
ATOM     13  C   UNL A   1      32.726  25.598  23.723  1.00  0.00     0.240 C 
ATOM     14  O   UNL A   1      31.177  26.215  26.720  1.00  0.00    -0.274 OA
ATOM     15  C   UNL A   1      32.339  24.356  25.736  1.00  0.00     0.122 C 
ATOM     16  C   UNL A   1      32.932  24.214  24.328  1.00  0.00     0.081 C 
ATOM     17  O   UNL A   1      32.978  25.865  22.560  1.00  0.00    -0.273 OA
ATOM     18  C   UNL A   1      32.069  23.248  23.495  1.00  0.00     0.027 C 
BRANCH  16  19
ATOM     19  C   UNL A   1      34.428  23.867  24.379  1.00  0.00    -0.032 A 
ATOM     20  C   UNL A   1      35.262  24.276  25.433  1.00  0.00     0.005 A 
ATOM     21  C   UNL A   1      35.010  23.096  23.351  1.00  0.00     0.005 A 
ATOM     22  C   UNL A   1      36.618  23.933  25.457  1.00  0.00     0.000 A 
ATOM     23  C   UNL A   1      36.366  22.756  23.376  1.00  0.00     0.000 A 
ATOM     24  C   UNL A   1      37.170  23.176  24.429  1.00  0.00     0.000 A 
ENDBRANCH  16  19
ENDBRANCH   9  11
ENDBRANCH   6   9
ENDBRANCH   4   5
ENDBRANCH   3   4
ENDBRANCH   2   3
ENDBRANCH   1   2
BRANCH   1  25
ATOM     25  C   UNL A   1      32.133  32.613  27.280  1.00  0.00     0.021 C 
BRANCH  25  26
ATOM     26  C   UNL A   1      33.157  33.742  27.269  1.00  0.00     0.116 C 
BRANCH  26  27
ATOM     27  N   UNL A   1      32.838  34.772  28.245  1.00  0.00    -0.352 N 
ATOM     28  C   UNL A   1      33.288  34.910  29.535  1.00  0.00     0.251 C 
ATOM     29  H   UNL A   1      32.211  35.466  27.938  1.00  0.00     0.163 HD
ATOM     30  O   UNL A   1      32.746  35.711  30.291  1.00  0.00    -0.269 OA
BRANCH  28  31
ATOM     31  C   UNL A   1      34.411  34.073  30.006  1.00  0.00     0.039 A 
ATOM     32  C   UNL A   1      35.705  34.364  29.570  1.00  0.00     0.014 A 
ATOM     33  C   UNL A   1      34.187  33.011  30.889  1.00  0.00     0.014 A 
ATOM     34  C   UNL A   1      36.782  33.627  30.068  1.00  0.00     0.010 A 
ATOM     35  C   UNL A   1      35.267  32.333  31.444  1.00  0.00     0.010 A 
ATOM     36  C   UNL A   1      36.577  32.631  31.036  1.00  0.00    -0.014 A 
BRANCH  36  37
ATOM     37  C   UNL A   1      37.718  31.889  31.634  1.00  0.00     0.031 A 
ATOM     38  C   UNL A   1      38.266  32.302  32.972  1.00  0.00     0.074 A 
ATOM     39  C   UNL A   1      38.302  30.891  30.942  1.00  0.00     0.049 A 
ATOM     40  N   UNL A   1      39.306  31.842  33.620  1.00  0.00    -0.248 NA
ATOM     41  C   UNL A   1      37.573  33.405  33.654  1.00  0.00     0.031 C 
ATOM     42  C   UNL A   1      37.885  30.429  29.616  1.00  0.00     0.029 A 
ATOM     43  N   UNL A   1      39.377  30.094  31.248  1.00  0.00    -0.354 N 
ATOM     44  C   UNL A   1      39.398  32.605  34.779  1.00  0.00     0.074 A 
ATOM     45  C   UNL A   1      38.351  33.601  34.707  1.00  0.00     0.031 C 
ATOM     46  C   UNL A   1      38.684  29.421  29.231  1.00  0.00     0.029 A 
ATOM     47  C   UNL A   1      39.702  29.200  30.253  1.00  0.00     0.049 A 
ATOM     48  H   UNL A   1      39.870  30.156  32.097  1.00  0.00     0.167 HD
ATOM     49  C   UNL A   1      40.264  32.472  35.816  1.00  0.00     0.034 A 
ATOM     50  C   UNL A   1      40.718  28.318  30.162  1.00  0.00     0.034 A 
ATOM     51  C   UNL A   1      41.300  31.468  35.867  1.00  0.00     0.049 A 
ATOM     52  C   UNL A   1      41.690  28.207  31.309  1.00  0.00     0.074 A 
ATOM     53  C   UNL A   1      42.192  31.202  36.891  1.00  0.00     0.029 A 
ATOM     54  N   UNL A   1      41.599  30.578  34.842  1.00  0.00    -0.354 N 
ATOM     55  N   UNL A   1      41.727  28.894  32.428  1.00  0.00    -0.248 NA
ATOM     56  C   UNL A   1      42.749  27.198  31.187  1.00  0.00     0.031 C 
ATOM     57  C   UNL A   1      43.080  30.214  36.454  1.00  0.00     0.029 A 
ATOM     58  C   UNL A   1      42.688  29.792  35.193  1.00  0.00     0.049 A 
ATOM     59  H   UNL A   1      41.109  30.513  33.990  1.00  0.00     0.167 HD
ATOM     60  C   UNL A   1      42.798  28.378  33.155  1.00  0.00     0.074 A 
ATOM     61  C   UNL A   1      43.368  27.315  32.352  1.00  0.00     0.031 C 
ATOM     62  C   UNL A   1      43.260  28.746  34.378  1.00  0.00     0.034 A 
BRANCH  49  63
ATOM     63  C   UNL A   1      40.143  33.461  36.953  1.00  0.00     0.023 A 
ATOM     64  C   UNL A   1      40.990  34.579  37.059  1.00  0.00     0.031 A 
ATOM     65  C   UNL A   1      39.193  33.263  37.972  1.00  0.00     0.131 A 
ATOM     66  C   UNL A   1      40.937  35.396  38.198  1.00  0.00     0.055 A 
ATOM     67  C   UNL A   1      39.081  34.135  39.057  1.00  0.00     0.041 A 
ATOM     68  F   UNL A   1      38.370  32.202  37.943  1.00  0.00    -0.206 F 
ATOM     69  C   UNL A   1      39.970  35.198  39.185  1.00  0.00     0.022 A 
BRANCH  66  70
ATOM     70  S   UNL A   1      42.265  36.604  38.457  1.00  0.00     0.124 S 
ATOM     71  O   UNL A   1      41.530  37.735  39.021  1.00  0.00    -0.237 OA
ATOM     72  O   UNL A   1      43.156  35.901  39.373  1.00  0.00    -0.237 OA
ATOM     73  O   UNL A   1      42.795  36.824  37.113  1.00  0.00    -0.744 OA
ENDBRANCH  66  70
ENDBRANCH  49  63
BRANCH  50  74
ATOM     74  C   UNL A   1      40.885  27.494  28.929  1.00  0.00     0.023 A 
ATOM     75  C   UNL A   1      41.875  27.790  27.979  1.00  0.00     0.031 A 
ATOM     76  C   UNL A   1      40.031  26.404  28.674  1.00  0.00     0.131 A 
ATOM     77  C   UNL A   1      41.963  27.031  26.802  1.00  0.00     0.055 A 
ATOM     78  C   UNL A   1      40.160  25.617  27.528  1.00  0.00     0.041 A 
ATOM     79  F   UNL A   1      39.068  26.076  29.549  1.00  0.00    -0.206 F 
ATOM     80  C   UNL A   1      41.124  25.936  26.578  1.00  0.00     0.022 A 
BRANCH  77  81
ATOM     81  S   UNL A   1      43.141  27.543  25.521  1.00  0.00     0.124 S 
ATOM     82  O   UNL A   1      44.123  28.287  26.304  1.00  0.00    -0.237 OA
ATOM     83  O   UNL A   1      43.585  26.262  24.986  1.00  0.00    -0.237 OA
ATOM     84  O   UNL A   1      42.327  28.349  24.613  1.00  0.00    -0.744 OA
ENDBRANCH  77  81
ENDBRANCH  50  74
BRANCH  62  85
ATOM     85  C   UNL A   1      44.419  27.958  34.943  1.00  0.00     0.023 A 
ATOM     86  C   UNL A   1      44.259  26.658  35.453  1.00  0.00     0.031 A 
ATOM     87  C   UNL A   1      45.709  28.521  34.965  1.00  0.00     0.131 A 
ATOM     88  C   UNL A   1      45.357  25.985  36.010  1.00  0.00     0.055 A 
ATOM     89  C   UNL A   1      46.810  27.819  35.458  1.00  0.00     0.041 A 
ATOM     90  F   UNL A   1      45.922  29.761  34.497  1.00  0.00    -0.206 F 
ATOM     91  C   UNL A   1      46.635  26.549  35.997  1.00  0.00     0.022 A 
BRANCH  88  92
ATOM     92  S   UNL A   1      45.078  24.396  36.840  1.00  0.00     0.124 S 
ATOM     93  O   UNL A   1      44.292  23.670  35.846  1.00  0.00    -0.237 OA
ATOM     94  O   UNL A   1      46.437  23.912  37.056  1.00  0.00    -0.237 OA
ATOM     95  O   UNL A   1      44.352  24.766  38.054  1.00  0.00    -0.744 OA
ENDBRANCH  88  92
ENDBRANCH  62  85
ENDBRANCH  36  37
ENDBRANCH  28  31
ENDBRANCH  26  27
ENDBRANCH  25  26
ENDBRANCH   1  25
TORSDOF 18
ENDMDL
